MODEL        1
REMARK 921   NORMALIZED FREE ENERGY PREDICTED BY IDOCK:   -7.75 KCAL/MOL
REMARK 922        TOTAL FREE ENERGY PREDICTED BY IDOCK:   -9.25 KCAL/MOL
REMARK 923 INTER-LIGAND FREE ENERGY PREDICTED BY IDOCK:   -8.66 KCAL/MOL
REMARK 924 INTRA-LIGAND FREE ENERGY PREDICTED BY IDOCK:   -0.59 KCAL/MOL
REMARK 927      BINDING AFFINITY PREDICTED BY RF-SCORE:    0.00 PKD
ROOT
HETATM    1  O   UNL     1      -9.668  13.446  67.947  1.00  0.00    -0.212 OA 
HETATM    2  C   UNL     1     -11.052  13.148  68.142  1.00  0.00    -0.255 C  
HETATM    3  H   UNL     1      -9.250  12.686  67.558  1.00  0.00     0.000 HD 
HETATM    4  C   UNL     1     -11.044  11.887  69.029  1.00  0.00    -0.300 A  
HETATM    5  C   UNL     1     -11.733  14.389  68.776  1.00  0.00    -0.372 C  
HETATM    6  C   UNL     1     -11.810  12.887  66.750  1.00  0.00    -0.452 C  
HETATM    7  C   UNL     1      -9.999  10.939  68.901  1.00  0.00    -0.208 A  
HETATM    8  C   UNL     1     -12.031  11.616  69.984  1.00  0.00    -0.429 A  
HETATM    9  C   UNL     1     -11.185  11.750  65.895  1.00  0.00    -0.345 C  
HETATM   10  C   UNL     1     -11.958  10.475  70.801  1.00  0.00    -0.472 A  
HETATM   11  C   UNL     1     -11.693  12.767  63.759  1.00  0.00    -0.562 C  
HETATM   12  C   UNL     1     -10.541  12.497  64.700  1.00  0.00    -0.343 C  
HETATM   13  C   UNL     1     -12.464  13.674  64.380  1.00  0.00    -0.316 C  
HETATM   14  C   UNL     1     -10.348  13.942  65.166  1.00  0.00    -0.403 C  
HETATM   15  C   UNL     1     -10.908   9.553  70.651  1.00  0.00    -0.371 A  
HETATM   16  C   UNL     1     -11.773  14.061  65.695  1.00  0.00    -0.356 C  
HETATM   17  C   UNL     1      -9.942   9.777  69.682  1.00  0.00    -0.244 A  
ENDROOT
BRANCH   5  18
HETATM   18  C   UNL     1     -11.211  14.957  70.110  1.00  0.00    -0.239 C  
BRANCH  18  19
HETATM   19  N   UNL     1     -12.288  15.754  70.742  1.00  0.00    -0.417 NA 
HETATM   20  C   UNL     1     -13.422  13.997  72.115  1.00  0.00    -0.567 C  
HETATM   21  C   UNL     1     -13.536  15.014  70.983  1.00  0.00    -0.402 C  
HETATM   22  C   UNL     1     -13.030  14.698  73.409  1.00  0.00    -0.483 C  
HETATM   23  C   UNL     1     -11.787  15.563  73.214  1.00  0.00    -0.519 C  
HETATM   24  C   UNL     1     -11.874  16.450  71.967  1.00  0.00    -0.388 C  
ENDBRANCH  18  19
ENDBRANCH   5  18
TORSDOF 2
ENDMDL
MODEL        2
REMARK 921   NORMALIZED FREE ENERGY PREDICTED BY IDOCK:   -7.58 KCAL/MOL
REMARK 922        TOTAL FREE ENERGY PREDICTED BY IDOCK:   -9.06 KCAL/MOL
REMARK 923 INTER-LIGAND FREE ENERGY PREDICTED BY IDOCK:   -8.62 KCAL/MOL
REMARK 924 INTRA-LIGAND FREE ENERGY PREDICTED BY IDOCK:   -0.44 KCAL/MOL
REMARK 927      BINDING AFFINITY PREDICTED BY RF-SCORE:    0.00 PKD
ROOT
HETATM    1  O   UNL     1     -12.655  15.455  68.478  1.00  0.00    -0.287 OA 
HETATM    2  C   UNL     1     -11.344  15.266  69.015  1.00  0.00    -0.300 C  
HETATM    3  H   UNL     1     -13.116  14.625  68.516  1.00  0.00     0.000 HD 
HETATM    4  C   UNL     1     -10.739  14.144  68.146  1.00  0.00    -0.251 A  
HETATM    5  C   UNL     1     -10.591  16.621  68.951  1.00  0.00    -0.337 C  
HETATM    6  C   UNL     1     -11.388  14.853  70.566  1.00  0.00    -0.280 C  
HETATM    7  C   UNL     1     -11.575  13.130  67.617  1.00  0.00    -0.392 A  
HETATM    8  C   UNL     1      -9.377  14.067  67.835  1.00  0.00    -0.206 A  
HETATM    9  C   UNL     1     -12.219  13.573  70.856  1.00  0.00    -0.387 C  
HETATM   10  C   UNL     1      -8.877  13.051  67.002  1.00  0.00    -0.213 A  
HETATM   11  C   UNL     1     -13.015  14.304  73.021  1.00  0.00    -0.512 C  
HETATM   12  C   UNL     1     -13.473  14.105  71.594  1.00  0.00    -0.448 C  
HETATM   13  C   UNL     1     -12.151  15.331  72.985  1.00  0.00    -0.523 C  
HETATM   14  C   UNL     1     -13.573  15.589  71.231  1.00  0.00    -0.520 C  
HETATM   15  C   UNL     1      -9.733  12.060  66.491  1.00  0.00    -0.230 A  
HETATM   16  C   UNL     1     -12.106  15.862  71.546  1.00  0.00    -0.533 C  
HETATM   17  C   UNL     1     -11.079  12.090  66.821  1.00  0.00    -0.353 A  
ENDROOT
BRANCH   5  18
HETATM   18  C   UNL     1     -10.415  17.341  67.600  1.00  0.00    -0.363 C  
BRANCH  18  19
HETATM   19  N   UNL     1     -10.623  18.793  67.806  1.00  0.00    -0.411 NA 
HETATM   20  C   UNL     1      -8.314  19.505  68.457  1.00  0.00    -0.372 C  
HETATM   21  C   UNL     1      -9.783  19.389  68.856  1.00  0.00    -0.437 C  
HETATM   22  C   UNL     1      -8.180  20.358  67.203  1.00  0.00    -0.374 C  
HETATM   23  C   UNL     1      -9.095  19.853  66.090  1.00  0.00    -0.393 C  
HETATM   24  C   UNL     1     -10.525  19.589  66.576  1.00  0.00    -0.493 C  
ENDBRANCH  18  19
ENDBRANCH   5  18
TORSDOF 2
ENDMDL
MODEL        3
REMARK 921   NORMALIZED FREE ENERGY PREDICTED BY IDOCK:   -7.58 KCAL/MOL
REMARK 922        TOTAL FREE ENERGY PREDICTED BY IDOCK:   -9.06 KCAL/MOL
REMARK 923 INTER-LIGAND FREE ENERGY PREDICTED BY IDOCK:   -8.46 KCAL/MOL
REMARK 924 INTRA-LIGAND FREE ENERGY PREDICTED BY IDOCK:   -0.60 KCAL/MOL
REMARK 927      BINDING AFFINITY PREDICTED BY RF-SCORE:    0.00 PKD
ROOT
HETATM    1  O   UNL     1      -9.724  12.812  68.539  1.00  0.00    -0.317 OA 
HETATM    2  C   UNL     1     -11.137  12.612  68.623  1.00  0.00    -0.266 C  
HETATM    3  H   UNL     1      -9.322  11.994  68.270  1.00  0.00     0.000 HD 
HETATM    4  C   UNL     1     -11.293  11.450  69.624  1.00  0.00    -0.347 A  
HETATM    5  C   UNL     1     -11.793  13.947  69.062  1.00  0.00    -0.397 C  
HETATM    6  C   UNL     1     -11.775  12.251  67.194  1.00  0.00    -0.396 C  
HETATM    7  C   UNL     1     -10.304  10.438  69.694  1.00  0.00    -0.261 A  
HETATM    8  C   UNL     1     -12.382  11.333  70.497  1.00  0.00    -0.446 A  
HETATM    9  C   UNL     1     -11.147  11.000  66.520  1.00  0.00    -0.174 C  
HETATM   10  C   UNL     1     -12.460  10.280  71.424  1.00  0.00    -0.528 A  
HETATM   11  C   UNL     1     -11.385  11.818  64.255  1.00  0.00    -0.400 C  
HETATM   12  C   UNL     1     -10.347  11.583  65.328  1.00  0.00    -0.322 C  
HETATM   13  C   UNL     1     -12.151  12.824  64.705  1.00  0.00    -0.483 C  
HETATM   14  C   UNL     1     -10.105  13.056  65.669  1.00  0.00    -0.276 C  
HETATM   15  C   UNL     1     -11.462   9.292  71.470  1.00  0.00    -0.454 A  
HETATM   16  C   UNL     1     -11.564  13.306  66.039  1.00  0.00    -0.384 C  
HETATM   17  C   UNL     1     -10.396   9.361  70.586  1.00  0.00    -0.349 A  
ENDROOT
BRANCH   5  18
HETATM   18  C   UNL     1     -11.363  14.620  70.380  1.00  0.00    -0.181 C  
BRANCH  18  19
HETATM   19  N   UNL     1     -12.421  15.569  70.796  1.00  0.00    -0.417 NA 
HETATM   20  C   UNL     1     -13.482  14.292  72.668  1.00  0.00    -0.623 C  
HETATM   21  C   UNL     1     -13.652  14.935  71.294  1.00  0.00    -0.433 C  
HETATM   22  C   UNL     1     -13.045  15.339  73.683  1.00  0.00    -0.446 C  
HETATM   23  C   UNL     1     -11.819  16.106  73.194  1.00  0.00    -0.476 C  
HETATM   24  C   UNL     1     -11.965  16.591  71.747  1.00  0.00    -0.084 C  
ENDBRANCH  18  19
ENDBRANCH   5  18
TORSDOF 2
ENDMDL
MODEL        4
REMARK 921   NORMALIZED FREE ENERGY PREDICTED BY IDOCK:   -7.48 KCAL/MOL
REMARK 922        TOTAL FREE ENERGY PREDICTED BY IDOCK:   -8.95 KCAL/MOL
REMARK 923 INTER-LIGAND FREE ENERGY PREDICTED BY IDOCK:   -8.54 KCAL/MOL
REMARK 924 INTRA-LIGAND FREE ENERGY PREDICTED BY IDOCK:   -0.41 KCAL/MOL
REMARK 927      BINDING AFFINITY PREDICTED BY RF-SCORE:    0.00 PKD
ROOT
HETATM    1  O   UNL     1     -10.286  14.237  69.271  1.00  0.00    -0.404 OA 
HETATM    2  C   UNL     1     -11.191  15.221  68.764  1.00  0.00    -0.287 C  
HETATM    3  H   UNL     1      -9.776  14.632  69.969  1.00  0.00     0.000 HD 
HETATM    4  C   UNL     1     -10.276  16.383  68.326  1.00  0.00    -0.255 A  
HETATM    5  C   UNL     1     -12.022  14.576  67.624  1.00  0.00    -0.355 C  
HETATM    6  C   UNL     1     -12.249  15.689  69.877  1.00  0.00    -0.317 C  
HETATM    7  C   UNL     1      -9.075  16.642  69.030  1.00  0.00    -0.209 A  
HETATM    8  C   UNL     1     -10.566  17.217  67.240  1.00  0.00    -0.283 A  
HETATM    9  C   UNL     1     -11.598  16.251  71.171  1.00  0.00    -0.376 C  
HETATM   10  C   UNL     1      -9.681  18.236  66.849  1.00  0.00    -0.317 A  
HETATM   11  C   UNL     1     -13.314  15.426  72.665  1.00  0.00    -0.602 C  
HETATM   12  C   UNL     1     -11.889  15.163  72.234  1.00  0.00    -0.493 C  
HETATM   13  C   UNL     1     -14.077  15.112  71.606  1.00  0.00    -0.645 C  
HETATM   14  C   UNL     1     -12.173  13.879  71.451  1.00  0.00    -0.296 C  
HETATM   15  C   UNL     1      -8.496  18.468  67.568  1.00  0.00    -0.272 A  
HETATM   16  C   UNL     1     -13.158  14.562  70.506  1.00  0.00    -0.226 C  
HETATM   17  C   UNL     1      -8.208  17.684  68.674  1.00  0.00    -0.264 A  
ENDROOT
BRANCH   5  18
HETATM   18  C   UNL     1     -11.308  13.961  66.404  1.00  0.00    -0.328 C  
BRANCH  18  19
HETATM   19  N   UNL     1     -11.975  12.685  66.057  1.00  0.00    -0.509 NA 
HETATM   20  C   UNL     1     -11.675  12.663  63.573  1.00  0.00    -0.604 C  
HETATM   21  C   UNL     1     -12.648  12.681  64.749  1.00  0.00    -0.454 C  
HETATM   22  C   UNL     1     -10.786  11.430  63.651  1.00  0.00    -0.470 C  
HETATM   23  C   UNL     1     -10.119  11.315  65.020  1.00  0.00    -0.331 C  
HETATM   24  C   UNL     1     -11.107  11.507  66.176  1.00  0.00    -0.244 C  
ENDBRANCH  18  19
ENDBRANCH   5  18
TORSDOF 2
ENDMDL
MODEL        5
REMARK 921   NORMALIZED FREE ENERGY PREDICTED BY IDOCK:   -7.33 KCAL/MOL
REMARK 922        TOTAL FREE ENERGY PREDICTED BY IDOCK:   -8.78 KCAL/MOL
REMARK 923 INTER-LIGAND FREE ENERGY PREDICTED BY IDOCK:   -8.27 KCAL/MOL
REMARK 924 INTRA-LIGAND FREE ENERGY PREDICTED BY IDOCK:   -0.51 KCAL/MOL
REMARK 927      BINDING AFFINITY PREDICTED BY RF-SCORE:    0.00 PKD
ROOT
HETATM    1  O   UNL     1     -12.163  16.157  67.857  1.00  0.00     0.150 OA 
HETATM    2  C   UNL     1     -10.771  15.844  67.959  1.00  0.00    -0.301 C  
HETATM    3  H   UNL     1     -12.306  16.614  67.036  1.00  0.00     0.000 HD 
HETATM    4  C   UNL     1     -10.069  17.211  67.843  1.00  0.00    -0.308 A  
HETATM    5  C   UNL     1     -10.537  15.099  69.299  1.00  0.00    -0.253 C  
HETATM    6  C   UNL     1     -10.299  14.837  66.800  1.00  0.00    -0.268 C  
HETATM    7  C   UNL     1     -10.635  18.233  67.041  1.00  0.00    -0.375 A  
HETATM    8  C   UNL     1      -8.874  17.516  68.506  1.00  0.00    -0.282 A  
HETATM    9  C   UNL     1     -10.575  15.355  65.362  1.00  0.00    -0.430 C  
HETATM   10  C   UNL     1      -8.292  18.792  68.407  1.00  0.00    -0.373 A  
HETATM   11  C   UNL     1     -11.010  13.172  64.413  1.00  0.00    -0.412 C  
HETATM   12  C   UNL     1     -11.713  14.437  64.849  1.00  0.00    -0.408 C  
HETATM   13  C   UNL     1     -10.562  12.599  65.541  1.00  0.00    -0.301 C  
HETATM   14  C   UNL     1     -12.374  13.852  66.100  1.00  0.00    -0.504 C  
HETATM   15  C   UNL     1      -8.878  19.784  67.603  1.00  0.00    -0.393 A  
HETATM   16  C   UNL     1     -11.043  13.446  66.727  1.00  0.00    -0.308 C  
HETATM   17  C   UNL     1     -10.038  19.493  66.902  1.00  0.00    -0.511 A  
ENDROOT
BRANCH   5  18
HETATM   18  C   UNL     1     -10.939  15.763  70.630  1.00  0.00    -0.320 C  
BRANCH  18  19
HETATM   19  N   UNL     1     -11.545  14.736  71.509  1.00  0.00    -0.297 NA 
HETATM   20  C   UNL     1     -12.642  16.186  73.229  1.00  0.00    -0.623 C  
HETATM   21  C   UNL     1     -11.605  15.106  72.931  1.00  0.00    -0.235 C  
HETATM   22  C   UNL     1     -14.025  15.711  72.805  1.00  0.00    -0.563 C  
HETATM   23  C   UNL     1     -14.023  15.224  71.358  1.00  0.00    -0.601 C  
HETATM   24  C   UNL     1     -12.863  14.269  71.059  1.00  0.00    -0.357 C  
ENDBRANCH  18  19
ENDBRANCH   5  18
TORSDOF 2
ENDMDL
MODEL        6
REMARK 921   NORMALIZED FREE ENERGY PREDICTED BY IDOCK:   -7.32 KCAL/MOL
REMARK 922        TOTAL FREE ENERGY PREDICTED BY IDOCK:   -8.77 KCAL/MOL
REMARK 923 INTER-LIGAND FREE ENERGY PREDICTED BY IDOCK:   -8.39 KCAL/MOL
REMARK 924 INTRA-LIGAND FREE ENERGY PREDICTED BY IDOCK:   -0.37 KCAL/MOL
REMARK 927      BINDING AFFINITY PREDICTED BY RF-SCORE:    0.00 PKD
ROOT
HETATM    1  O   UNL     1     -12.116  15.422  67.852  1.00  0.00    -0.391 OA 
HETATM    2  C   UNL     1     -11.003  14.525  67.888  1.00  0.00    -0.269 C  
HETATM    3  H   UNL     1     -11.943  16.087  67.195  1.00  0.00     0.000 HD 
HETATM    4  C   UNL     1      -9.796  15.437  68.188  1.00  0.00    -0.213 A  
HETATM    5  C   UNL     1     -11.286  13.440  68.960  1.00  0.00    -0.335 C  
HETATM    6  C   UNL     1     -10.821  13.742  66.498  1.00  0.00    -0.287 C  
HETATM    7  C   UNL     1      -9.777  16.768  67.704  1.00  0.00    -0.251 A  
HETATM    8  C   UNL     1      -8.688  15.019  68.935  1.00  0.00    -0.197 A  
HETATM    9  C   UNL     1     -10.654  14.673  65.265  1.00  0.00    -0.409 C  
HETATM   10  C   UNL     1      -7.631  15.899  69.222  1.00  0.00    -0.221 A  
HETATM   11  C   UNL     1     -11.799  13.207  63.717  1.00  0.00    -0.546 C  
HETATM   12  C   UNL     1     -11.981  14.496  64.486  1.00  0.00    -0.482 C  
HETATM   13  C   UNL     1     -11.789  12.233  64.640  1.00  0.00    -0.435 C  
HETATM   14  C   UNL     1     -12.994  13.958  65.500  1.00  0.00    -0.375 C  
HETATM   15  C   UNL     1      -7.641  17.214  68.727  1.00  0.00    -0.259 A  
HETATM   16  C   UNL     1     -12.048  12.876  66.010  1.00  0.00    -0.484 C  
HETATM   17  C   UNL     1      -8.706  17.638  67.947  1.00  0.00    -0.245 A  
ENDROOT
BRANCH   5  18
HETATM   18  C   UNL     1     -11.569  13.853  70.418  1.00  0.00    -0.108 C  
BRANCH  18  19
HETATM   19  N   UNL     1     -12.316  15.131  70.413  1.00  0.00    -0.340 NA 
HETATM   20  C   UNL     1     -13.881  14.761  72.331  1.00  0.00    -0.578 C  
HETATM   21  C   UNL     1     -13.721  15.021  70.835  1.00  0.00    -0.259 C  
HETATM   22  C   UNL     1     -13.236  15.887  73.127  1.00  0.00    -0.692 C  
HETATM   23  C   UNL     1     -11.794  16.124  72.681  1.00  0.00    -0.609 C  
HETATM   24  C   UNL     1     -11.655  16.211  71.157  1.00  0.00    -0.404 C  
ENDBRANCH  18  19
ENDBRANCH   5  18
TORSDOF 2
ENDMDL
MODEL        7
REMARK 921   NORMALIZED FREE ENERGY PREDICTED BY IDOCK:   -7.27 KCAL/MOL
REMARK 922        TOTAL FREE ENERGY PREDICTED BY IDOCK:   -8.71 KCAL/MOL
REMARK 923 INTER-LIGAND FREE ENERGY PREDICTED BY IDOCK:   -8.22 KCAL/MOL
REMARK 924 INTRA-LIGAND FREE ENERGY PREDICTED BY IDOCK:   -0.49 KCAL/MOL
REMARK 927      BINDING AFFINITY PREDICTED BY RF-SCORE:    0.00 PKD
ROOT
HETATM    1  O   UNL     1      -9.716  13.806  67.323  1.00  0.00    -0.231 OA 
HETATM    2  C   UNL     1     -10.914  14.581  67.236  1.00  0.00    -0.305 C  
HETATM    3  H   UNL     1      -9.955  12.907  67.516  1.00  0.00     0.000 HD 
HETATM    4  C   UNL     1     -11.598  14.369  68.602  1.00  0.00    -0.347 A  
HETATM    5  C   UNL     1     -10.523  16.049  66.921  1.00  0.00    -0.306 C  
HETATM    6  C   UNL     1     -11.851  14.099  66.025  1.00  0.00    -0.409 C  
HETATM    7  C   UNL     1     -11.453  13.135  69.283  1.00  0.00    -0.348 A  
HETATM    8  C   UNL     1     -12.372  15.352  69.231  1.00  0.00    -0.127 A  
HETATM    9  C   UNL     1     -12.248  12.598  66.091  1.00  0.00    -0.279 C  
HETATM   10  C   UNL     1     -12.940  15.130  70.497  1.00  0.00    -0.366 A  
HETATM   11  C   UNL     1     -12.277  12.264  63.695  1.00  0.00    -0.665 C  
HETATM   12  C   UNL     1     -11.457  11.954  64.926  1.00  0.00    -0.315 C  
HETATM   13  C   UNL     1     -12.173  13.590  63.514  1.00  0.00    -0.410 C  
HETATM   14  C   UNL     1     -10.305  12.915  64.621  1.00  0.00    -0.366 C  
HETATM   15  C   UNL     1     -12.777  13.895  71.147  1.00  0.00    -0.441 A  
HETATM   16  C   UNL     1     -11.215  14.139  64.580  1.00  0.00    -0.371 C  
HETATM   17  C   UNL     1     -12.052  12.890  70.525  1.00  0.00    -0.364 A  
ENDROOT
BRANCH   5  18
HETATM   18  C   UNL     1      -9.570  16.811  67.862  1.00  0.00    -0.236 C  
BRANCH  18  19
HETATM   19  N   UNL     1     -10.204  18.096  68.240  1.00  0.00    -0.376 NA 
HETATM   20  C   UNL     1      -8.204  19.598  68.307  1.00  0.00    -0.357 C  
HETATM   21  C   UNL     1      -9.365  18.970  69.074  1.00  0.00    -0.244 C  
HETATM   22  C   UNL     1      -8.734  20.422  67.142  1.00  0.00    -0.413 C  
HETATM   23  C   UNL     1      -9.689  19.604  66.276  1.00  0.00    -0.511 C  
HETATM   24  C   UNL     1     -10.739  18.854  67.103  1.00  0.00    -0.432 C  
ENDBRANCH  18  19
ENDBRANCH   5  18
TORSDOF 2
ENDMDL
MODEL        8
REMARK 921   NORMALIZED FREE ENERGY PREDICTED BY IDOCK:   -7.10 KCAL/MOL
REMARK 922        TOTAL FREE ENERGY PREDICTED BY IDOCK:   -8.52 KCAL/MOL
REMARK 923 INTER-LIGAND FREE ENERGY PREDICTED BY IDOCK:   -8.09 KCAL/MOL
REMARK 924 INTRA-LIGAND FREE ENERGY PREDICTED BY IDOCK:   -0.43 KCAL/MOL
REMARK 927      BINDING AFFINITY PREDICTED BY RF-SCORE:    0.00 PKD
ROOT
HETATM    1  O   UNL     1      -9.403  14.599  68.715  1.00  0.00    -0.199 OA 
HETATM    2  C   UNL     1     -10.342  15.287  67.884  1.00  0.00    -0.246 C  
HETATM    3  H   UNL     1      -8.725  14.233  68.159  1.00  0.00     0.000 HD 
HETATM    4  C   UNL     1     -10.824  14.212  66.890  1.00  0.00    -0.296 A  
HETATM    5  C   UNL     1     -11.449  15.884  68.792  1.00  0.00    -0.393 C  
HETATM    6  C   UNL     1      -9.667  16.533  67.127  1.00  0.00    -0.246 C  
HETATM    7  C   UNL     1      -9.941  13.186  66.473  1.00  0.00    -0.268 A  
HETATM    8  C   UNL     1     -12.121  14.184  66.363  1.00  0.00    -0.475 A  
HETATM    9  C   UNL     1      -8.438  16.152  66.256  1.00  0.00    -0.357 C  
HETATM   10  C   UNL     1     -12.530  13.158  65.494  1.00  0.00    -0.516 A  
HETATM   11  C   UNL     1      -7.240  18.220  66.639  1.00  0.00    -0.244 C  
HETATM   12  C   UNL     1      -7.238  16.758  67.026  1.00  0.00    -0.236 C  
HETATM   13  C   UNL     1      -8.337  18.744  67.208  1.00  0.00    -0.281 C  
HETATM   14  C   UNL     1      -7.720  16.954  68.466  1.00  0.00    -0.227 C  
HETATM   15  C   UNL     1     -11.631  12.154  65.100  1.00  0.00    -0.372 A  
HETATM   16  C   UNL     1      -9.012  17.643  68.038  1.00  0.00    -0.264 C  
HETATM   17  C   UNL     1     -10.328  12.185  65.573  1.00  0.00    -0.296 A  
ENDROOT
BRANCH   5  18
HETATM   18  C   UNL     1     -12.269  14.961  69.714  1.00  0.00    -0.287 C  
BRANCH  18  19
HETATM   19  N   UNL     1     -12.924  15.788  70.754  1.00  0.00    -0.485 NA 
HETATM   20  C   UNL     1     -13.688  14.015  72.345  1.00  0.00    -0.669 C  
HETATM   21  C   UNL     1     -14.079  15.152  71.405  1.00  0.00    -0.504 C  
HETATM   22  C   UNL     1     -12.759  14.535  73.433  1.00  0.00    -0.428 C  
HETATM   23  C   UNL     1     -11.574  15.290  72.835  1.00  0.00    -0.394 C  
HETATM   24  C   UNL     1     -12.000  16.308  71.771  1.00  0.00    -0.406 C  
ENDBRANCH  18  19
ENDBRANCH   5  18
TORSDOF 2
ENDMDL
MODEL        9
REMARK 921   NORMALIZED FREE ENERGY PREDICTED BY IDOCK:   -7.09 KCAL/MOL
REMARK 922        TOTAL FREE ENERGY PREDICTED BY IDOCK:   -8.51 KCAL/MOL
REMARK 923 INTER-LIGAND FREE ENERGY PREDICTED BY IDOCK:   -8.02 KCAL/MOL
REMARK 924 INTRA-LIGAND FREE ENERGY PREDICTED BY IDOCK:   -0.49 KCAL/MOL
REMARK 927      BINDING AFFINITY PREDICTED BY RF-SCORE:    0.00 PKD
ROOT
HETATM    1  O   UNL     1      -9.573  13.529  66.980  1.00  0.00    -0.232 OA 
HETATM    2  C   UNL     1     -10.699  14.401  66.857  1.00  0.00    -0.292 C  
HETATM    3  H   UNL     1      -9.886  12.671  67.243  1.00  0.00     0.000 HD 
HETATM    4  C   UNL     1     -11.367  14.350  68.246  1.00  0.00    -0.311 A  
HETATM    5  C   UNL     1     -10.187  15.800  66.428  1.00  0.00    -0.304 C  
HETATM    6  C   UNL     1     -11.704  13.919  65.700  1.00  0.00    -0.362 C  
HETATM    7  C   UNL     1     -11.316  13.160  69.013  1.00  0.00    -0.332 A  
HETATM    8  C   UNL     1     -12.036  15.441  68.814  1.00  0.00    -0.278 A  
HETATM    9  C   UNL     1     -12.231  12.469  65.884  1.00  0.00    -0.310 C  
HETATM   10  C   UNL     1     -12.591  15.363  70.103  1.00  0.00    -0.329 A  
HETATM   11  C   UNL     1     -12.346  11.968  63.520  1.00  0.00    -0.661 C  
HETATM   12  C   UNL     1     -11.527  11.674  64.757  1.00  0.00    -0.225 C  
HETATM   13  C   UNL     1     -12.129  13.262  63.240  1.00  0.00    -0.407 C  
HETATM   14  C   UNL     1     -10.303  12.503  64.361  1.00  0.00    -0.378 C  
HETATM   15  C   UNL     1     -12.523  14.168  70.839  1.00  0.00    -0.436 A  
HETATM   16  C   UNL     1     -11.101  13.798  64.246  1.00  0.00    -0.300 C  
HETATM   17  C   UNL     1     -11.905  13.060  70.280  1.00  0.00    -0.294 A  
ENDROOT
BRANCH   5  18
HETATM   18  C   UNL     1      -9.149  16.540  67.294  1.00  0.00    -0.204 C  
BRANCH  18  19
HETATM   19  N   UNL     1      -8.865  17.856  66.676  1.00  0.00    -0.261 NA 
HETATM   20  C   UNL     1     -10.907  19.135  67.352  1.00  0.00    -0.533 C  
HETATM   21  C   UNL     1     -10.057  18.583  66.211  1.00  0.00    -0.398 C  
HETATM   22  C   UNL     1     -10.078  20.083  68.208  1.00  0.00    -0.531 C  
HETATM   23  C   UNL     1      -8.775  19.427  68.657  1.00  0.00    -0.403 C  
HETATM   24  C   UNL     1      -8.034  18.737  67.506  1.00  0.00    -0.244 C  
ENDBRANCH  18  19
ENDBRANCH   5  18
TORSDOF 2
ENDMDL
MODEL       10
REMARK 921   NORMALIZED FREE ENERGY PREDICTED BY IDOCK:   -6.88 KCAL/MOL
REMARK 922        TOTAL FREE ENERGY PREDICTED BY IDOCK:   -8.28 KCAL/MOL
REMARK 923 INTER-LIGAND FREE ENERGY PREDICTED BY IDOCK:   -8.29 KCAL/MOL
REMARK 924 INTRA-LIGAND FREE ENERGY PREDICTED BY IDOCK:    0.02 KCAL/MOL
REMARK 927      BINDING AFFINITY PREDICTED BY RF-SCORE:    0.00 PKD
ROOT
HETATM    1  O   UNL     1      -9.999  14.143  68.967  1.00  0.00    -0.377 OA 
HETATM    2  C   UNL     1     -11.238  14.771  68.629  1.00  0.00    -0.273 C  
HETATM    3  H   UNL     1     -10.173  13.232  69.177  1.00  0.00     0.000 HD 
HETATM    4  C   UNL     1     -12.125  14.546  69.870  1.00  0.00    -0.389 A  
HETATM    5  C   UNL     1     -10.954  16.257  68.288  1.00  0.00    -0.348 C  
HETATM    6  C   UNL     1     -11.893  14.129  67.311  1.00  0.00    -0.452 C  
HETATM    7  C   UNL     1     -11.973  13.370  70.646  1.00  0.00    -0.290 A  
HETATM    8  C   UNL     1     -13.095  15.462  70.294  1.00  0.00    -0.111 A  
HETATM    9  C   UNL     1     -12.137  12.597  67.408  1.00  0.00    -0.179 C  
HETATM   10  C   UNL     1     -13.850  15.235  71.458  1.00  0.00    -0.617 A  
HETATM   11  C   UNL     1     -11.711  12.150  65.069  1.00  0.00    -0.371 C  
HETATM   12  C   UNL     1     -11.090  11.994  66.439  1.00  0.00    -0.365 C  
HETATM   13  C   UNL     1     -11.716  13.469  64.822  1.00  0.00    -0.397 C  
HETATM   14  C   UNL     1     -10.010  13.065  66.269  1.00  0.00    -0.283 C  
HETATM   15  C   UNL     1     -13.675  14.059  72.206  1.00  0.00    -0.646 A  
HETATM   16  C   UNL     1     -11.022  14.174  65.995  1.00  0.00    -0.304 C  
HETATM   17  C   UNL     1     -12.751  13.116  71.782  1.00  0.00    -0.270 A  
ENDROOT
BRANCH   5  18
HETATM   18  C   UNL     1     -10.266  17.167  69.325  1.00  0.00    -0.231 C  
BRANCH  18  19
HETATM   19  N   UNL     1      -9.189  17.927  68.649  1.00  0.00    -0.285 NA 
HETATM   20  C   UNL     1     -10.263  18.386  66.436  1.00  0.00    -0.431 C  
HETATM   21  C   UNL     1      -9.116  17.723  67.194  1.00  0.00    -0.246 C  
HETATM   22  C   UNL     1     -10.267  19.885  66.704  1.00  0.00    -0.609 C  
HETATM   23  C   UNL     1     -10.252  20.179  68.202  1.00  0.00    -0.479 C  
HETATM   24  C   UNL     1      -9.193  19.364  68.952  1.00  0.00    -0.339 C  
ENDBRANCH  18  19
ENDBRANCH   5  18
TORSDOF 2
ENDMDL
MODEL       11
REMARK 921   NORMALIZED FREE ENERGY PREDICTED BY IDOCK:   -6.88 KCAL/MOL
REMARK 922        TOTAL FREE ENERGY PREDICTED BY IDOCK:   -8.28 KCAL/MOL
REMARK 923 INTER-LIGAND FREE ENERGY PREDICTED BY IDOCK:   -7.70 KCAL/MOL
REMARK 924 INTRA-LIGAND FREE ENERGY PREDICTED BY IDOCK:   -0.57 KCAL/MOL
REMARK 927      BINDING AFFINITY PREDICTED BY RF-SCORE:    0.00 PKD
ROOT
HETATM    1  O   UNL     1      -9.807  14.178  67.824  1.00  0.00    -0.223 OA 
HETATM    2  C   UNL     1     -11.040  14.894  67.730  1.00  0.00    -0.309 C  
HETATM    3  H   UNL     1     -10.004  13.263  67.990  1.00  0.00     0.000 HD 
HETATM    4  C   UNL     1     -11.742  14.613  69.073  1.00  0.00    -0.339 A  
HETATM    5  C   UNL     1     -10.717  16.387  67.460  1.00  0.00    -0.298 C  
HETATM    6  C   UNL     1     -11.926  14.398  66.485  1.00  0.00    -0.406 C  
HETATM    7  C   UNL     1     -11.550  13.370  69.726  1.00  0.00    -0.305 A  
HETATM    8  C   UNL     1     -12.578  15.539  69.709  1.00  0.00    -0.097 A  
HETATM    9  C   UNL     1     -12.248  12.878  66.505  1.00  0.00    -0.258 C  
HETATM   10  C   UNL     1     -13.161  15.256  70.956  1.00  0.00    -0.546 A  
HETATM   11  C   UNL     1     -12.208  12.606  64.101  1.00  0.00    -0.532 C  
HETATM   12  C   UNL     1     -11.400  12.304  65.343  1.00  0.00    -0.389 C  
HETATM   13  C   UNL     1     -12.167  13.939  63.956  1.00  0.00    -0.413 C  
HETATM   14  C   UNL     1     -10.292  13.330  65.088  1.00  0.00    -0.336 C  
HETATM   15  C   UNL     1     -12.950  14.014  71.578  1.00  0.00    -0.427 A  
HETATM   16  C   UNL     1     -11.261  14.508  65.057  1.00  0.00    -0.384 C  
HETATM   17  C   UNL     1     -12.162  13.063  70.948  1.00  0.00    -0.310 A  
ENDROOT
BRANCH   5  18
HETATM   18  C   UNL     1      -9.825  17.172  68.442  1.00  0.00    -0.296 C  
BRANCH  18  19
HETATM   19  N   UNL     1      -8.462  17.269  67.870  1.00  0.00    -0.214 NA 
HETATM   20  C   UNL     1      -8.656  19.396  66.567  1.00  0.00    -0.363 C  
HETATM   21  C   UNL     1      -8.399  17.892  66.539  1.00  0.00    -0.262 C  
HETATM   22  C   UNL     1      -7.631  20.083  67.459  1.00  0.00    -0.327 C  
HETATM   23  C   UNL     1      -7.573  19.431  68.839  1.00  0.00    -0.398 C  
HETATM   24  C   UNL     1      -7.484  17.903  68.765  1.00  0.00    -0.268 C  
ENDBRANCH  18  19
ENDBRANCH   5  18
TORSDOF 2
ENDMDL
MODEL       12
REMARK 921   NORMALIZED FREE ENERGY PREDICTED BY IDOCK:   -6.49 KCAL/MOL
REMARK 922        TOTAL FREE ENERGY PREDICTED BY IDOCK:   -7.84 KCAL/MOL
REMARK 923 INTER-LIGAND FREE ENERGY PREDICTED BY IDOCK:   -7.61 KCAL/MOL
REMARK 924 INTRA-LIGAND FREE ENERGY PREDICTED BY IDOCK:   -0.23 KCAL/MOL
REMARK 927      BINDING AFFINITY PREDICTED BY RF-SCORE:    0.00 PKD
ROOT
HETATM    1  O   UNL     1      -8.740  16.020  68.788  1.00  0.00    -0.196 OA 
HETATM    2  C   UNL     1     -10.015  16.433  68.290  1.00  0.00    -0.243 C  
HETATM    3  H   UNL     1      -8.160  15.884  68.048  1.00  0.00     0.000 HD 
HETATM    4  C   UNL     1     -10.433  15.296  67.337  1.00  0.00    -0.270 A  
HETATM    5  C   UNL     1     -10.962  16.655  69.499  1.00  0.00    -0.228 C  
HETATM    6  C   UNL     1      -9.930  17.843  67.526  1.00  0.00    -0.322 C  
HETATM    7  C   UNL     1      -9.447  14.582  66.611  1.00  0.00    -0.301 A  
HETATM    8  C   UNL     1     -11.765  14.909  67.144  1.00  0.00    -0.292 A  
HETATM    9  C   UNL     1      -8.919  17.862  66.346  1.00  0.00    -0.247 C  
HETATM   10  C   UNL     1     -12.095  13.836  66.298  1.00  0.00    -0.484 A  
HETATM   11  C   UNL     1      -8.271  20.175  66.639  1.00  0.00    -0.328 C  
HETATM   12  C   UNL     1      -7.770  18.766  66.858  1.00  0.00    -0.246 C  
HETATM   13  C   UNL     1      -9.279  20.341  67.511  1.00  0.00    -0.491 C  
HETATM   14  C   UNL     1      -7.889  18.769  68.384  1.00  0.00    -0.351 C  
HETATM   15  C   UNL     1     -11.094  13.148  65.592  1.00  0.00    -0.296 A  
HETATM   16  C   UNL     1      -9.384  19.067  68.360  1.00  0.00    -0.405 C  
HETATM   17  C   UNL     1      -9.771  13.540  65.733  1.00  0.00    -0.156 A  
ENDROOT
BRANCH   5  18
HETATM   18  C   UNL     1     -11.227  15.506  70.491  1.00  0.00    -0.342 C  
BRANCH  18  19
HETATM   19  N   UNL     1     -12.624  15.046  70.324  1.00  0.00    -0.336 NA 
HETATM   20  C   UNL     1     -12.481  12.755  71.319  1.00  0.00    -0.284 C  
HETATM   21  C   UNL     1     -12.769  13.602  70.082  1.00  0.00    -0.049 C  
HETATM   22  C   UNL     1     -13.426  13.142  72.447  1.00  0.00    -0.643 C  
HETATM   23  C   UNL     1     -13.400  14.648  72.699  1.00  0.00    -0.577 C  
HETATM   24  C   UNL     1     -13.523  15.464  71.407  1.00  0.00    -0.522 C  
ENDBRANCH  18  19
ENDBRANCH   5  18
TORSDOF 2
ENDMDL
MODEL       13
REMARK 921   NORMALIZED FREE ENERGY PREDICTED BY IDOCK:   -6.37 KCAL/MOL
REMARK 922        TOTAL FREE ENERGY PREDICTED BY IDOCK:   -7.70 KCAL/MOL
REMARK 923 INTER-LIGAND FREE ENERGY PREDICTED BY IDOCK:   -7.32 KCAL/MOL
REMARK 924 INTRA-LIGAND FREE ENERGY PREDICTED BY IDOCK:   -0.39 KCAL/MOL
REMARK 927      BINDING AFFINITY PREDICTED BY RF-SCORE:    0.00 PKD
ROOT
HETATM    1  O   UNL     1      -9.697  12.065  68.976  1.00  0.00    -0.412 OA 
HETATM    2  C   UNL     1     -11.036  11.694  68.641  1.00  0.00    -0.234 C  
HETATM    3  H   UNL     1      -9.179  11.272  69.059  1.00  0.00     0.000 HD 
HETATM    4  C   UNL     1     -11.463  10.755  69.787  1.00  0.00    -0.386 A  
HETATM    5  C   UNL     1     -11.881  12.988  68.506  1.00  0.00    -0.360 C  
HETATM    6  C   UNL     1     -11.115  10.960  67.215  1.00  0.00    -0.350 C  
HETATM    7  C   UNL     1     -10.503   9.926  70.419  1.00  0.00    -0.347 A  
HETATM    8  C   UNL     1     -12.779  10.673  70.260  1.00  0.00    -0.277 A  
HETATM    9  C   UNL     1     -10.219   9.694  67.106  1.00  0.00    -0.305 C  
HETATM   10  C   UNL     1     -13.113   9.835  71.337  1.00  0.00    -0.489 A  
HETATM   11  C   UNL     1      -9.701   9.984  64.761  1.00  0.00    -0.363 C  
HETATM   12  C   UNL     1      -9.090  10.122  66.136  1.00  0.00    -0.184 C  
HETATM   13  C   UNL     1     -10.633  10.946  64.679  1.00  0.00    -0.332 C  
HETATM   14  C   UNL     1      -9.068  11.652  66.169  1.00  0.00    -0.209 C  
HETATM   15  C   UNL     1     -12.138   9.025  71.943  1.00  0.00    -0.448 A  
HETATM   16  C   UNL     1     -10.576  11.771  65.973  1.00  0.00    -0.302 C  
HETATM   17  C   UNL     1     -10.837   9.055  71.464  1.00  0.00    -0.416 A  
ENDROOT
BRANCH   5  18
HETATM   18  C   UNL     1     -11.977  13.972  69.688  1.00  0.00    -0.339 C  
BRANCH  18  19
HETATM   19  N   UNL     1     -11.806  15.350  69.174  1.00  0.00    -0.341 NA 
HETATM   20  C   UNL     1      -9.392  15.746  69.703  1.00  0.00    -0.176 C  
HETATM   21  C   UNL     1     -10.842  16.169  69.926  1.00  0.00    -0.355 C  
HETATM   22  C   UNL     1      -9.043  15.843  68.225  1.00  0.00    -0.185 C  
HETATM   23  C   UNL     1     -10.055  15.089  67.366  1.00  0.00    -0.228 C  
HETATM   24  C   UNL     1     -11.505  15.418  67.738  1.00  0.00    -0.278 C  
ENDBRANCH  18  19
ENDBRANCH   5  18
TORSDOF 2
ENDMDL
MODEL       14
REMARK 921   NORMALIZED FREE ENERGY PREDICTED BY IDOCK:   -6.34 KCAL/MOL
REMARK 922        TOTAL FREE ENERGY PREDICTED BY IDOCK:   -7.68 KCAL/MOL
REMARK 923 INTER-LIGAND FREE ENERGY PREDICTED BY IDOCK:   -7.62 KCAL/MOL
REMARK 924 INTRA-LIGAND FREE ENERGY PREDICTED BY IDOCK:   -0.06 KCAL/MOL
REMARK 927      BINDING AFFINITY PREDICTED BY RF-SCORE:    0.00 PKD
ROOT
HETATM    1  O   UNL     1      -9.671  13.432  67.622  1.00  0.00    -0.212 OA 
HETATM    2  C   UNL     1     -10.963  13.990  67.875  1.00  0.00    -0.247 C  
HETATM    3  H   UNL     1      -9.777  12.507  67.433  1.00  0.00     0.000 HD 
HETATM    4  C   UNL     1     -11.515  13.146  69.042  1.00  0.00    -0.345 A  
HETATM    5  C   UNL     1     -10.790  15.500  68.184  1.00  0.00    -0.296 C  
HETATM    6  C   UNL     1     -11.913  13.905  66.584  1.00  0.00    -0.474 C  
HETATM    7  C   UNL     1     -11.162  11.779  69.156  1.00  0.00    -0.324 A  
HETATM    8  C   UNL     1     -12.363  13.665  70.028  1.00  0.00    -0.342 A  
HETATM    9  C   UNL     1     -12.106  12.465  66.034  1.00  0.00    -0.327 C  
HETATM   10  C   UNL     1     -12.805  12.869  71.098  1.00  0.00    -0.326 A  
HETATM   11  C   UNL     1     -12.262  13.126  63.712  1.00  0.00    -0.528 C  
HETATM   12  C   UNL     1     -11.322  12.470  64.698  1.00  0.00    -0.363 C  
HETATM   13  C   UNL     1     -12.344  14.412  64.089  1.00  0.00    -0.340 C  
HETATM   14  C   UNL     1     -10.331  13.632  64.800  1.00  0.00    -0.414 C  
HETATM   15  C   UNL     1     -12.437  11.516  71.183  1.00  0.00    -0.442 A  
HETATM   16  C   UNL     1     -11.392  14.619  65.275  1.00  0.00    -0.354 C  
HETATM   17  C   UNL     1     -11.634  10.967  70.195  1.00  0.00    -0.421 A  
ENDROOT
BRANCH   5  18
HETATM   18  C   UNL     1      -9.880  15.950  69.344  1.00  0.00    -0.280 C  
BRANCH  18  19
HETATM   19  N   UNL     1      -9.158  17.176  68.934  1.00  0.00    -0.235 NA 
HETATM   20  C   UNL     1      -7.316  16.192  67.556  1.00  0.00    -0.185 C  
HETATM   21  C   UNL     1      -7.704  17.010  68.785  1.00  0.00    -0.249 C  
HETATM   22  C   UNL     1      -7.847  16.860  66.295  1.00  0.00    -0.346 C  
HETATM   23  C   UNL     1      -9.342  17.149  66.411  1.00  0.00    -0.286 C  
HETATM   24  C   UNL     1      -9.712  17.822  67.737  1.00  0.00    -0.285 C  
ENDBRANCH  18  19
ENDBRANCH   5  18
TORSDOF 2
ENDMDL
MODEL       15
REMARK 921   NORMALIZED FREE ENERGY PREDICTED BY IDOCK:   -6.32 KCAL/MOL
REMARK 922        TOTAL FREE ENERGY PREDICTED BY IDOCK:   -7.65 KCAL/MOL
REMARK 923 INTER-LIGAND FREE ENERGY PREDICTED BY IDOCK:   -7.27 KCAL/MOL
REMARK 924 INTRA-LIGAND FREE ENERGY PREDICTED BY IDOCK:   -0.38 KCAL/MOL
REMARK 927      BINDING AFFINITY PREDICTED BY RF-SCORE:    0.00 PKD
ROOT
HETATM    1  O   UNL     1     -12.141  10.945  67.599  1.00  0.00    -0.502 OA 
HETATM    2  C   UNL     1     -11.048  11.865  67.646  1.00  0.00    -0.257 C  
HETATM    3  H   UNL     1     -12.168  10.557  66.732  1.00  0.00     0.000 HD 
HETATM    4  C   UNL     1     -11.338  12.854  66.499  1.00  0.00    -0.361 A  
HETATM    5  C   UNL     1     -11.004  12.498  69.061  1.00  0.00    -0.237 C  
HETATM    6  C   UNL     1      -9.636  11.126  67.445  1.00  0.00    -0.183 C  
HETATM    7  C   UNL     1     -11.999  12.406  65.329  1.00  0.00    -0.461 A  
HETATM    8  C   UNL     1     -10.984  14.208  66.548  1.00  0.00    -0.309 A  
HETATM    9  C   UNL     1      -9.530  10.314  66.125  1.00  0.00    -0.229 C  
HETATM   10  C   UNL     1     -11.309  15.082  65.497  1.00  0.00    -0.312 A  
HETATM   11  C   UNL     1      -8.122   8.573  67.040  1.00  0.00    -0.103 C  
HETATM   12  C   UNL     1      -9.542   8.838  66.595  1.00  0.00    -0.283 C  
HETATM   13  C   UNL     1      -7.946   9.306  68.151  1.00  0.00    -0.099 C  
HETATM   14  C   UNL     1     -10.167   8.850  67.992  1.00  0.00    -0.262 C  
HETATM   15  C   UNL     1     -11.966  14.608  64.349  1.00  0.00    -0.454 A  
HETATM   16  C   UNL     1      -9.280   9.990  68.482  1.00  0.00    -0.141 C  
HETATM   17  C   UNL     1     -12.288  13.262  64.258  1.00  0.00    -0.406 A  
ENDROOT
BRANCH   5  18
HETATM   18  C   UNL     1     -12.235  13.247  69.608  1.00  0.00    -0.199 C  
BRANCH  18  19
HETATM   19  N   UNL     1     -12.079  13.414  71.071  1.00  0.00    -0.219 NA 
HETATM   20  C   UNL     1     -12.676  15.830  71.330  1.00  0.00    -0.509 C  
HETATM   21  C   UNL     1     -11.614  14.745  71.490  1.00  0.00    -0.223 C  
HETATM   22  C   UNL     1     -13.907  15.479  72.153  1.00  0.00    -0.621 C  
HETATM   23  C   UNL     1     -14.399  14.068  71.839  1.00  0.00    -0.468 C  
HETATM   24  C   UNL     1     -13.268  13.034  71.845  1.00  0.00    -0.430 C  
ENDBRANCH  18  19
ENDBRANCH   5  18
TORSDOF 2
ENDMDL
MODEL       16
REMARK 921   NORMALIZED FREE ENERGY PREDICTED BY IDOCK:   -6.29 KCAL/MOL
REMARK 922        TOTAL FREE ENERGY PREDICTED BY IDOCK:   -7.62 KCAL/MOL
REMARK 923 INTER-LIGAND FREE ENERGY PREDICTED BY IDOCK:   -7.19 KCAL/MOL
REMARK 924 INTRA-LIGAND FREE ENERGY PREDICTED BY IDOCK:   -0.43 KCAL/MOL
REMARK 927      BINDING AFFINITY PREDICTED BY RF-SCORE:    0.00 PKD
ROOT
HETATM    1  O   UNL     1      -9.995  14.228  69.571  1.00  0.00    -0.413 OA 
HETATM    2  C   UNL     1     -11.220  13.795  68.974  1.00  0.00    -0.272 C  
HETATM    3  H   UNL     1      -9.977  15.178  69.559  1.00  0.00     0.000 HD 
HETATM    4  C   UNL     1     -11.197  14.428  67.569  1.00  0.00    -0.329 A  
HETATM    5  C   UNL     1     -11.249  12.244  68.993  1.00  0.00    -0.319 C  
HETATM    6  C   UNL     1     -12.499  14.275  69.818  1.00  0.00    -0.264 C  
HETATM    7  C   UNL     1     -10.572  15.683  67.367  1.00  0.00    -0.301 A  
HETATM    8  C   UNL     1     -11.768  13.818  66.445  1.00  0.00    -0.404 A  
HETATM    9  C   UNL     1     -12.578  15.813  70.025  1.00  0.00    -0.084 C  
HETATM   10  C   UNL     1     -11.685  14.412  65.174  1.00  0.00    -0.372 A  
HETATM   11  C   UNL     1     -13.591  15.695  72.219  1.00  0.00    -0.590 C  
HETATM   12  C   UNL     1     -12.279  15.999  71.534  1.00  0.00    -0.478 C  
HETATM   13  C   UNL     1     -13.793  14.379  72.050  1.00  0.00    -0.567 C  
HETATM   14  C   UNL     1     -11.548  14.728  71.975  1.00  0.00    -0.178 C  
HETATM   15  C   UNL     1     -11.057  15.658  65.007  1.00  0.00    -0.399 A  
HETATM   16  C   UNL     1     -12.570  13.802  71.323  1.00  0.00    -0.444 C  
HETATM   17  C   UNL     1     -10.523  16.303  66.112  1.00  0.00    -0.330 A  
ENDROOT
BRANCH   5  18
HETATM   18  C   UNL     1     -10.120  11.444  68.315  1.00  0.00    -0.196 C  
BRANCH  18  19
HETATM   19  N   UNL     1     -10.726  10.434  67.417  1.00  0.00    -0.269 NA 
HETATM   20  C   UNL     1      -9.054  10.406  65.555  1.00  0.00    -0.208 C  
HETATM   21  C   UNL     1     -10.494  10.673  65.984  1.00  0.00    -0.183 C  
HETATM   22  C   UNL     1      -8.678   8.963  65.861  1.00  0.00    -0.197 C  
HETATM   23  C   UNL     1      -8.975   8.611  67.317  1.00  0.00    -0.145 C  
HETATM   24  C   UNL     1     -10.377   9.049  67.755  1.00  0.00    -0.246 C  
ENDBRANCH  18  19
ENDBRANCH   5  18
TORSDOF 2
ENDMDL
MODEL       17
REMARK 921   NORMALIZED FREE ENERGY PREDICTED BY IDOCK:   -6.15 KCAL/MOL
REMARK 922        TOTAL FREE ENERGY PREDICTED BY IDOCK:   -7.46 KCAL/MOL
REMARK 923 INTER-LIGAND FREE ENERGY PREDICTED BY IDOCK:   -6.79 KCAL/MOL
REMARK 924 INTRA-LIGAND FREE ENERGY PREDICTED BY IDOCK:   -0.67 KCAL/MOL
REMARK 927      BINDING AFFINITY PREDICTED BY RF-SCORE:    0.00 PKD
ROOT
HETATM    1  O   UNL     1      -9.446  11.918  67.902  1.00  0.00    -0.181 OA 
HETATM    2  C   UNL     1     -10.200  11.089  67.014  1.00  0.00    -0.211 C  
HETATM    3  H   UNL     1      -8.811  12.405  67.390  1.00  0.00     0.000 HD 
HETATM    4  C   UNL     1      -9.134  10.227  66.309  1.00  0.00    -0.178 A  
HETATM    5  C   UNL     1     -11.236  10.294  67.851  1.00  0.00    -0.290 C  
HETATM    6  C   UNL     1     -11.049  11.957  65.963  1.00  0.00    -0.369 C  
HETATM    7  C   UNL     1      -7.846  10.759  66.057  1.00  0.00    -0.149 A  
HETATM    8  C   UNL     1      -9.367   8.910  65.895  1.00  0.00    -0.301 A  
HETATM    9  C   UNL     1     -10.190  12.929  65.107  1.00  0.00    -0.288 C  
HETATM   10  C   UNL     1      -8.350   8.146  65.296  1.00  0.00    -0.160 A  
HETATM   11  C   UNL     1     -11.881  14.653  64.954  1.00  0.00    -0.403 C  
HETATM   12  C   UNL     1     -10.574  14.331  65.642  1.00  0.00    -0.328 C  
HETATM   13  C   UNL     1     -12.783  13.806  65.475  1.00  0.00    -0.530 C  
HETATM   14  C   UNL     1     -11.158  14.100  67.038  1.00  0.00    -0.314 C  
HETATM   15  C   UNL     1      -7.082   8.703  65.060  1.00  0.00    -0.080 A  
HETATM   16  C   UNL     1     -12.085  12.984  66.567  1.00  0.00    -0.410 C  
HETATM   17  C   UNL     1      -6.841  10.019  65.421  1.00  0.00    -0.122 A  
ENDROOT
BRANCH   5  18
HETATM   18  C   UNL     1     -10.763   9.389  69.005  1.00  0.00    -0.187 C  
BRANCH  18  19
HETATM   19  N   UNL     1     -10.731  10.187  70.253  1.00  0.00    -0.298 NA 
HETATM   20  C   UNL     1     -13.155  10.176  70.873  1.00  0.00    -0.412 C  
HETATM   21  C   UNL     1     -11.931  11.003  70.488  1.00  0.00    -0.379 C  
HETATM   22  C   UNL     1     -12.869   9.380  72.139  1.00  0.00    -0.480 C  
HETATM   23  C   UNL     1     -11.581   8.571  72.004  1.00  0.00    -0.432 C  
HETATM   24  C   UNL     1     -10.417   9.403  71.454  1.00  0.00    -0.288 C  
ENDBRANCH  18  19
ENDBRANCH   5  18
TORSDOF 2
ENDMDL
MODEL       18
REMARK 921   NORMALIZED FREE ENERGY PREDICTED BY IDOCK:   -6.09 KCAL/MOL
REMARK 922        TOTAL FREE ENERGY PREDICTED BY IDOCK:   -7.39 KCAL/MOL
REMARK 923 INTER-LIGAND FREE ENERGY PREDICTED BY IDOCK:   -6.88 KCAL/MOL
REMARK 924 INTRA-LIGAND FREE ENERGY PREDICTED BY IDOCK:   -0.51 KCAL/MOL
REMARK 927      BINDING AFFINITY PREDICTED BY RF-SCORE:    0.00 PKD
ROOT
HETATM    1  O   UNL     1     -11.154   9.500  67.737  1.00  0.00    -0.501 OA 
HETATM    2  C   UNL     1     -10.545  10.622  68.380  1.00  0.00    -0.199 C  
HETATM    3  H   UNL     1     -10.981   9.560  66.804  1.00  0.00     0.000 HD 
HETATM    4  C   UNL     1     -11.170  11.844  67.679  1.00  0.00    -0.340 A  
HETATM    5  C   UNL     1     -10.828  10.524  69.902  1.00  0.00    -0.334 C  
HETATM    6  C   UNL     1      -8.946  10.605  68.223  1.00  0.00    -0.143 C  
HETATM    7  C   UNL     1     -11.535  11.766  66.312  1.00  0.00    -0.296 A  
HETATM    8  C   UNL     1     -11.413  13.060  68.330  1.00  0.00    -0.347 A  
HETATM    9  C   UNL     1      -8.457  10.566  66.749  1.00  0.00    -0.127 C  
HETATM   10  C   UNL     1     -12.027  14.133  67.662  1.00  0.00    -0.405 A  
HETATM   11  C   UNL     1      -6.493   9.226  67.196  1.00  0.00    -0.063 C  
HETATM   12  C   UNL     1      -7.875   9.140  66.589  1.00  0.00    -0.100 C  
HETATM   13  C   UNL     1      -6.685   9.393  68.514  1.00  0.00    -0.058 C  
HETATM   14  C   UNL     1      -8.508   8.303  67.704  1.00  0.00    -0.130 C  
HETATM   15  C   UNL     1     -12.377  14.024  66.305  1.00  0.00    -0.482 A  
HETATM   16  C   UNL     1      -8.195   9.334  68.783  1.00  0.00    -0.112 C  
HETATM   17  C   UNL     1     -12.107  12.845  65.627  1.00  0.00    -0.511 A  
ENDROOT
BRANCH   5  18
HETATM   18  C   UNL     1     -12.281  10.459  70.412  1.00  0.00    -0.303 C  
BRANCH  18  19
HETATM   19  N   UNL     1     -12.294   9.770  71.723  1.00  0.00    -0.390 NA 
HETATM   20  C   UNL     1     -14.334   8.342  71.477  1.00  0.00    -0.525 C  
HETATM   21  C   UNL     1     -13.636   9.464  72.241  1.00  0.00    -0.462 C  
HETATM   22  C   UNL     1     -13.500   7.070  71.544  1.00  0.00    -0.363 C  
HETATM   23  C   UNL     1     -12.061   7.328  71.105  1.00  0.00    -0.376 C  
HETATM   24  C   UNL     1     -11.454   8.567  71.772  1.00  0.00    -0.310 C  
ENDBRANCH  18  19
ENDBRANCH   5  18
TORSDOF 2
ENDMDL
MODEL       19
REMARK 921   NORMALIZED FREE ENERGY PREDICTED BY IDOCK:   -6.08 KCAL/MOL
REMARK 922        TOTAL FREE ENERGY PREDICTED BY IDOCK:   -7.38 KCAL/MOL
REMARK 923 INTER-LIGAND FREE ENERGY PREDICTED BY IDOCK:   -6.89 KCAL/MOL
REMARK 924 INTRA-LIGAND FREE ENERGY PREDICTED BY IDOCK:   -0.49 KCAL/MOL
REMARK 927      BINDING AFFINITY PREDICTED BY RF-SCORE:    0.00 PKD
ROOT
HETATM    1  O   UNL     1     -10.814  15.201  67.618  1.00  0.00    -0.279 OA 
HETATM    2  C   UNL     1      -9.739  15.274  66.678  1.00  0.00    -0.252 C  
HETATM    3  H   UNL     1     -11.540  15.713  67.281  1.00  0.00     0.000 HD 
HETATM    4  C   UNL     1      -9.462  16.784  66.541  1.00  0.00    -0.287 A  
HETATM    5  C   UNL     1      -8.554  14.437  67.229  1.00  0.00    -0.230 C  
HETATM    6  C   UNL     1     -10.132  14.614  65.268  1.00  0.00    -0.393 C  
HETATM    7  C   UNL     1     -10.524  17.713  66.663  1.00  0.00    -0.286 A  
HETATM    8  C   UNL     1      -8.186  17.309  66.303  1.00  0.00    -0.302 A  
HETATM    9  C   UNL     1     -11.394  15.238  64.609  1.00  0.00    -0.364 C  
HETATM   10  C   UNL     1      -7.973  18.696  66.230  1.00  0.00    -0.276 A  
HETATM   11  C   UNL     1     -12.159  13.180  63.592  1.00  0.00    -0.583 C  
HETATM   12  C   UNL     1     -12.464  14.124  64.732  1.00  0.00    -0.395 C  
HETATM   13  C   UNL     1     -10.991  12.597  63.906  1.00  0.00    -0.468 C  
HETATM   14  C   UNL     1     -11.983  13.205  65.858  1.00  0.00    -0.479 C  
HETATM   15  C   UNL     1      -9.047  19.593  66.355  1.00  0.00    -0.437 A  
HETATM   16  C   UNL     1     -10.570  13.098  65.294  1.00  0.00    -0.325 C  
HETATM   17  C   UNL     1     -10.327  19.095  66.548  1.00  0.00    -0.526 A  
ENDROOT
BRANCH   5  18
HETATM   18  C   UNL     1      -7.956  14.765  68.611  1.00  0.00    -0.143 C  
BRANCH  18  19
HETATM   19  N   UNL     1      -6.483  14.631  68.535  1.00  0.00    -0.084 NA 
HETATM   20  C   UNL     1      -5.767  16.576  69.937  1.00  0.00    -0.201 C  
HETATM   21  C   UNL     1      -5.750  15.906  68.566  1.00  0.00    -0.100 C  
HETATM   22  C   UNL     1      -5.151  15.651  70.978  1.00  0.00    -0.158 C  
HETATM   23  C   UNL     1      -5.803  14.270  70.945  1.00  0.00    -0.210 C  
HETATM   24  C   UNL     1      -5.918  13.705  69.525  1.00  0.00    -0.108 C  
ENDBRANCH  18  19
ENDBRANCH   5  18
TORSDOF 2
ENDMDL
MODEL       20
REMARK 921   NORMALIZED FREE ENERGY PREDICTED BY IDOCK:   -6.07 KCAL/MOL
REMARK 922        TOTAL FREE ENERGY PREDICTED BY IDOCK:   -7.37 KCAL/MOL
REMARK 923 INTER-LIGAND FREE ENERGY PREDICTED BY IDOCK:   -6.80 KCAL/MOL
REMARK 924 INTRA-LIGAND FREE ENERGY PREDICTED BY IDOCK:   -0.57 KCAL/MOL
REMARK 927      BINDING AFFINITY PREDICTED BY RF-SCORE:    0.00 PKD
ROOT
HETATM    1  O   UNL     1      -9.777  13.787  67.402  1.00  0.00    -0.226 OA 
HETATM    2  C   UNL     1     -11.020  14.332  66.951  1.00  0.00    -0.304 C  
HETATM    3  H   UNL     1      -9.141  13.877  66.701  1.00  0.00     0.000 HD 
HETATM    4  C   UNL     1     -11.341  13.531  65.674  1.00  0.00    -0.312 A  
HETATM    5  C   UNL     1     -12.059  14.185  68.094  1.00  0.00    -0.297 C  
HETATM    6  C   UNL     1     -10.909  15.905  66.650  1.00  0.00    -0.213 C  
HETATM    7  C   UNL     1     -10.288  13.065  64.847  1.00  0.00    -0.343 A  
HETATM    8  C   UNL     1     -12.645  13.221  65.272  1.00  0.00    -0.528 A  
HETATM    9  C   UNL     1      -9.814  16.274  65.611  1.00  0.00    -0.255 C  
HETATM   10  C   UNL     1     -12.888  12.449  64.122  1.00  0.00    -0.364 A  
HETATM   11  C   UNL     1      -9.240  18.393  66.628  1.00  0.00    -0.305 C  
HETATM   12  C   UNL     1      -8.726  16.982  66.456  1.00  0.00    -0.297 C  
HETATM   13  C   UNL     1     -10.313  18.293  67.429  1.00  0.00    -0.409 C  
HETATM   14  C   UNL     1      -8.957  16.530  67.900  1.00  0.00    -0.205 C  
HETATM   15  C   UNL     1     -11.823  12.001  63.324  1.00  0.00    -0.450 A  
HETATM   16  C   UNL     1     -10.453  16.824  67.850  1.00  0.00    -0.335 C  
HETATM   17  C   UNL     1     -10.523  12.332  63.677  1.00  0.00    -0.483 A  
ENDROOT
BRANCH   5  18
HETATM   18  C   UNL     1     -12.371  12.792  68.677  1.00  0.00     0.269 C  
BRANCH  18  19
HETATM   19  N   UNL     1     -11.649  12.642  69.961  1.00  0.00    -0.191 NA 
HETATM   20  C   UNL     1     -13.216  13.819  71.516  1.00  0.00    -0.417 C  
HETATM   21  C   UNL     1     -11.823  13.764  70.896  1.00  0.00    -0.063 C  
HETATM   22  C   UNL     1     -13.504  12.527  72.268  1.00  0.00    -0.490 C  
HETATM   23  C   UNL     1     -13.257  11.306  71.385  1.00  0.00    -0.267 C  
HETATM   24  C   UNL     1     -11.915  11.372  70.649  1.00  0.00    -0.314 C  
ENDBRANCH  18  19
ENDBRANCH   5  18
TORSDOF 2
ENDMDL
MODEL       21
REMARK 921   NORMALIZED FREE ENERGY PREDICTED BY IDOCK:   -6.00 KCAL/MOL
REMARK 922        TOTAL FREE ENERGY PREDICTED BY IDOCK:   -7.29 KCAL/MOL
REMARK 923 INTER-LIGAND FREE ENERGY PREDICTED BY IDOCK:   -6.55 KCAL/MOL
REMARK 924 INTRA-LIGAND FREE ENERGY PREDICTED BY IDOCK:   -0.74 KCAL/MOL
REMARK 927      BINDING AFFINITY PREDICTED BY RF-SCORE:    0.00 PKD
ROOT
HETATM    1  O   UNL     1      -8.512  16.178  66.508  1.00  0.00    -0.251 OA 
HETATM    2  C   UNL     1      -9.693  16.151  67.315  1.00  0.00    -0.233 C  
HETATM    3  H   UNL     1      -8.734  16.562  65.668  1.00  0.00     0.000 HD 
HETATM    4  C   UNL     1     -10.703  15.342  66.476  1.00  0.00    -0.308 A  
HETATM    5  C   UNL     1      -9.331  15.524  68.687  1.00  0.00    -0.201 C  
HETATM    6  C   UNL     1     -10.235  17.629  67.630  1.00  0.00    -0.351 C  
HETATM    7  C   UNL     1     -10.663  15.410  65.061  1.00  0.00    -0.460 A  
HETATM    8  C   UNL     1     -11.681  14.517  67.042  1.00  0.00    -0.412 A  
HETATM    9  C   UNL     1     -10.534  18.476  66.361  1.00  0.00    -0.443 C  
HETATM   10  C   UNL     1     -12.552  13.763  66.237  1.00  0.00    -0.372 A  
HETATM   11  C   UNL     1      -9.896  20.592  67.346  1.00  0.00    -0.527 C  
HETATM   12  C   UNL     1      -9.417  19.549  66.361  1.00  0.00    -0.457 C  
HETATM   13  C   UNL     1      -9.836  20.007  68.552  1.00  0.00    -0.412 C  
HETATM   14  C   UNL     1      -8.293  18.983  67.233  1.00  0.00    -0.296 C  
HETATM   15  C   UNL     1     -12.487  13.852  64.836  1.00  0.00    -0.420 A  
HETATM   16  C   UNL     1      -9.239  18.605  68.369  1.00  0.00    -0.355 C  
HETATM   17  C   UNL     1     -11.556  14.696  64.252  1.00  0.00    -0.227 A  
ENDROOT
BRANCH   5  18
HETATM   18  C   UNL     1      -8.720  14.110  68.751  1.00  0.00    -0.065 C  
BRANCH  18  19
HETATM   19  N   UNL     1      -7.295  14.190  68.353  1.00  0.00    -0.105 NA 
HETATM   20  C   UNL     1      -6.210  14.546  70.579  1.00  0.00    -0.165 C  
HETATM   21  C   UNL     1      -6.479  15.092  69.180  1.00  0.00    -0.116 C  
HETATM   22  C   UNL     1      -5.491  13.207  70.488  1.00  0.00    -0.159 C  
HETATM   23  C   UNL     1      -6.236  12.241  69.569  1.00  0.00    -0.127 C  
HETATM   24  C   UNL     1      -6.635  12.884  68.236  1.00  0.00    -0.091 C  
ENDBRANCH  18  19
ENDBRANCH   5  18
TORSDOF 2
ENDMDL
MODEL       22
REMARK 921   NORMALIZED FREE ENERGY PREDICTED BY IDOCK:   -5.86 KCAL/MOL
REMARK 922        TOTAL FREE ENERGY PREDICTED BY IDOCK:   -7.14 KCAL/MOL
REMARK 923 INTER-LIGAND FREE ENERGY PREDICTED BY IDOCK:   -6.49 KCAL/MOL
REMARK 924 INTRA-LIGAND FREE ENERGY PREDICTED BY IDOCK:   -0.65 KCAL/MOL
REMARK 927      BINDING AFFINITY PREDICTED BY RF-SCORE:    0.00 PKD
ROOT
HETATM    1  O   UNL     1      -9.485  12.761  67.738  1.00  0.00    -0.191 OA 
HETATM    2  C   UNL     1     -10.815  13.242  67.526  1.00  0.00    -0.263 C  
HETATM    3  H   UNL     1      -8.917  13.158  67.088  1.00  0.00     0.000 HD 
HETATM    4  C   UNL     1     -11.126  12.855  66.066  1.00  0.00    -0.308 A  
HETATM    5  C   UNL     1     -11.743  12.595  68.587  1.00  0.00    -0.364 C  
HETATM    6  C   UNL     1     -10.920  14.829  67.751  1.00  0.00    -0.294 C  
HETATM    7  C   UNL     1     -10.086  12.829  65.103  1.00  0.00    -0.246 A  
HETATM    8  C   UNL     1     -12.408  12.511  65.622  1.00  0.00    -0.296 A  
HETATM    9  C   UNL     1      -9.955  15.659  66.858  1.00  0.00    -0.252 C  
HETATM   10  C   UNL     1     -12.636  12.121  64.291  1.00  0.00    -0.432 A  
HETATM   11  C   UNL     1      -9.574  17.400  68.494  1.00  0.00    -0.298 C  
HETATM   12  C   UNL     1      -8.904  16.204  67.857  1.00  0.00    -0.182 C  
HETATM   13  C   UNL     1     -10.566  16.902  69.248  1.00  0.00    -0.325 C  
HETATM   14  C   UNL     1      -8.975  15.287  69.081  1.00  0.00    -0.233 C  
HETATM   15  C   UNL     1     -11.584  12.104  63.360  1.00  0.00    -0.508 A  
HETATM   16  C   UNL     1     -10.495  15.370  69.172  1.00  0.00    -0.239 C  
HETATM   17  C   UNL     1     -10.313  12.483  63.765  1.00  0.00    -0.418 A  
ENDROOT
BRANCH   5  18
HETATM   18  C   UNL     1     -11.840  11.060  68.692  1.00  0.00    -0.247 C  
BRANCH  18  19
HETATM   19  N   UNL     1     -10.655  10.559  69.427  1.00  0.00    -0.226 NA 
HETATM   20  C   UNL     1     -11.701   8.767  70.825  1.00  0.00    -0.253 C  
HETATM   21  C   UNL     1     -10.936  10.088  70.791  1.00  0.00    -0.305 C  
HETATM   22  C   UNL     1     -10.908   7.686  70.106  1.00  0.00    -0.255 C  
HETATM   23  C   UNL     1     -10.499   8.139  68.706  1.00  0.00    -0.198 C  
HETATM   24  C   UNL     1      -9.886   9.544  68.696  1.00  0.00    -0.162 C  
ENDBRANCH  18  19
ENDBRANCH   5  18
TORSDOF 2
ENDMDL
MODEL       23
REMARK 921   NORMALIZED FREE ENERGY PREDICTED BY IDOCK:   -5.82 KCAL/MOL
REMARK 922        TOTAL FREE ENERGY PREDICTED BY IDOCK:   -7.10 KCAL/MOL
REMARK 923 INTER-LIGAND FREE ENERGY PREDICTED BY IDOCK:   -6.59 KCAL/MOL
REMARK 924 INTRA-LIGAND FREE ENERGY PREDICTED BY IDOCK:   -0.51 KCAL/MOL
REMARK 927      BINDING AFFINITY PREDICTED BY RF-SCORE:    0.00 PKD
ROOT
HETATM    1  O   UNL     1     -12.389  10.860  68.015  1.00  0.00    -0.518 OA 
HETATM    2  C   UNL     1     -11.165  10.819  68.754  1.00  0.00    -0.272 C  
HETATM    3  H   UNL     1     -13.022  11.363  68.513  1.00  0.00     0.000 HD 
HETATM    4  C   UNL     1     -11.566  10.202  70.109  1.00  0.00    -0.350 A  
HETATM    5  C   UNL     1     -10.131   9.998  67.940  1.00  0.00    -0.203 C  
HETATM    6  C   UNL     1     -10.529  12.282  68.937  1.00  0.00    -0.131 C  
HETATM    7  C   UNL     1     -12.854  10.445  70.645  1.00  0.00    -0.393 A  
HETATM    8  C   UNL     1     -10.711   9.386  70.861  1.00  0.00    -0.393 A  
HETATM    9  C   UNL     1     -11.477  13.303  69.624  1.00  0.00    -0.267 C  
HETATM   10  C   UNL     1     -11.135   8.808  72.070  1.00  0.00    -0.441 A  
HETATM   11  C   UNL     1     -10.680  15.223  68.387  1.00  0.00    -0.250 C  
HETATM   12  C   UNL     1     -11.857  14.281  68.485  1.00  0.00    -0.382 C  
HETATM   13  C   UNL     1      -9.664  14.487  67.909  1.00  0.00    -0.218 C  
HETATM   14  C   UNL     1     -11.591  13.526  67.180  1.00  0.00    -0.393 C  
HETATM   15  C   UNL     1     -12.420   9.069  72.575  1.00  0.00    -0.309 A  
HETATM   16  C   UNL     1     -10.198  13.079  67.614  1.00  0.00    -0.216 C  
HETATM   17  C   UNL     1     -13.269   9.908  71.871  1.00  0.00    -0.558 A  
ENDROOT
BRANCH   5  18
HETATM   18  C   UNL     1     -10.450   8.546  67.532  1.00  0.00    -0.258 C  
BRANCH  18  19
HETATM   19  N   UNL     1      -9.204   7.748  67.605  1.00  0.00    -0.136 NA 
HETATM   20  C   UNL     1     -10.046   5.672  68.720  1.00  0.00    -0.245 C  
HETATM   21  C   UNL     1      -9.106   6.873  68.783  1.00  0.00    -0.133 C  
HETATM   22  C   UNL     1      -9.744   4.838  67.483  1.00  0.00    -0.209 C  
HETATM   23  C   UNL     1      -9.739   5.698  66.222  1.00  0.00    -0.162 C  
HETATM   24  C   UNL     1      -8.916   6.981  66.387  1.00  0.00    -0.154 C  
ENDBRANCH  18  19
ENDBRANCH   5  18
TORSDOF 2
ENDMDL
MODEL       24
REMARK 921   NORMALIZED FREE ENERGY PREDICTED BY IDOCK:   -5.74 KCAL/MOL
REMARK 922        TOTAL FREE ENERGY PREDICTED BY IDOCK:   -7.01 KCAL/MOL
REMARK 923 INTER-LIGAND FREE ENERGY PREDICTED BY IDOCK:   -6.42 KCAL/MOL
REMARK 924 INTRA-LIGAND FREE ENERGY PREDICTED BY IDOCK:   -0.58 KCAL/MOL
REMARK 927      BINDING AFFINITY PREDICTED BY RF-SCORE:    0.00 PKD
ROOT
HETATM    1  O   UNL     1      -9.914  12.974  68.843  1.00  0.00    -0.417 OA 
HETATM    2  C   UNL     1     -10.461  14.287  68.691  1.00  0.00    -0.249 C  
HETATM    3  H   UNL     1     -10.630  12.350  68.838  1.00  0.00     0.000 HD 
HETATM    4  C   UNL     1     -11.450  14.420  69.866  1.00  0.00    -0.314 A  
HETATM    5  C   UNL     1      -9.292  15.306  68.700  1.00  0.00    -0.201 C  
HETATM    6  C   UNL     1     -11.198  14.467  67.275  1.00  0.00    -0.334 C  
HETATM    7  C   UNL     1     -12.143  13.279  70.341  1.00  0.00    -0.401 A  
HETATM    8  C   UNL     1     -11.708  15.633  70.516  1.00  0.00    -0.392 A  
HETATM    9  C   UNL     1     -12.332  13.436  67.018  1.00  0.00    -0.231 C  
HETATM   10  C   UNL     1     -12.584  15.699  71.613  1.00  0.00    -0.512 A  
HETATM   11  C   UNL     1     -11.973  13.296  64.629  1.00  0.00    -0.440 C  
HETATM   12  C   UNL     1     -11.756  12.521  65.909  1.00  0.00    -0.480 C  
HETATM   13  C   UNL     1     -11.144  14.349  64.697  1.00  0.00    -0.363 C  
HETATM   14  C   UNL     1     -10.236  12.698  65.968  1.00  0.00    -0.287 C  
HETATM   15  C   UNL     1     -13.257  14.549  72.060  1.00  0.00    -0.446 A  
HETATM   16  C   UNL     1     -10.321  14.221  65.986  1.00  0.00    -0.318 C  
HETATM   17  C   UNL     1     -13.052  13.344  71.406  1.00  0.00    -0.373 A  
ENDROOT
BRANCH   5  18
HETATM   18  C   UNL     1      -8.331  15.365  69.904  1.00  0.00     0.160 C  
BRANCH  18  19
HETATM   19  N   UNL     1      -6.938  15.307  69.402  1.00  0.00    -0.165 NA 
HETATM   20  C   UNL     1      -5.803  14.163  71.317  1.00  0.00    -0.206 C  
HETATM   21  C   UNL     1      -5.907  15.412  70.446  1.00  0.00    -0.106 C  
HETATM   22  C   UNL     1      -5.479  12.952  70.453  1.00  0.00    -0.146 C  
HETATM   23  C   UNL     1      -6.458  12.825  69.288  1.00  0.00    -0.105 C  
HETATM   24  C   UNL     1      -6.662  14.149  68.543  1.00  0.00    -0.101 C  
ENDBRANCH  18  19
ENDBRANCH   5  18
TORSDOF 2
ENDMDL
MODEL       25
REMARK 921   NORMALIZED FREE ENERGY PREDICTED BY IDOCK:   -5.73 KCAL/MOL
REMARK 922        TOTAL FREE ENERGY PREDICTED BY IDOCK:   -6.99 KCAL/MOL
REMARK 923 INTER-LIGAND FREE ENERGY PREDICTED BY IDOCK:   -6.33 KCAL/MOL
REMARK 924 INTRA-LIGAND FREE ENERGY PREDICTED BY IDOCK:   -0.66 KCAL/MOL
REMARK 927      BINDING AFFINITY PREDICTED BY RF-SCORE:    0.00 PKD
ROOT
HETATM    1  O   UNL     1     -11.566   8.656  69.718  1.00  0.00    -0.436 OA 
HETATM    2  C   UNL     1     -10.148   8.492  69.799  1.00  0.00    -0.197 C  
HETATM    3  H   UNL     1     -11.963   7.794  69.657  1.00  0.00     0.000 HD 
HETATM    4  C   UNL     1      -9.788   7.698  68.528  1.00  0.00    -0.174 A  
HETATM    5  C   UNL     1      -9.500   9.898  69.898  1.00  0.00    -0.256 C  
HETATM    6  C   UNL     1      -9.712   7.706  71.130  1.00  0.00    -0.172 C  
HETATM    7  C   UNL     1     -10.704   6.757  67.997  1.00  0.00    -0.302 A  
HETATM    8  C   UNL     1      -8.577   7.858  67.842  1.00  0.00    -0.125 A  
HETATM    9  C   UNL     1     -10.371   6.307  71.282  1.00  0.00    -0.255 C  
HETATM   10  C   UNL     1      -8.311   7.145  66.661  1.00  0.00    -0.114 A  
HETATM   11  C   UNL     1     -10.512   6.383  73.696  1.00  0.00    -0.311 C  
HETATM   12  C   UNL     1     -11.367   6.492  72.454  1.00  0.00    -0.314 C  
HETATM   13  C   UNL     1      -9.739   7.480  73.702  1.00  0.00    -0.341 C  
HETATM   14  C   UNL     1     -11.627   7.998  72.548  1.00  0.00    -0.464 C  
HETATM   15  C   UNL     1      -9.241   6.219  66.160  1.00  0.00    -0.143 A  
HETATM   16  C   UNL     1     -10.144   8.352  72.505  1.00  0.00    -0.362 C  
HETATM   17  C   UNL     1     -10.428   6.010  66.845  1.00  0.00    -0.344 A  
ENDROOT
BRANCH   5  18
HETATM   18  C   UNL     1      -9.762  10.946  68.799  1.00  0.00    -0.189 C  
BRANCH  18  19
HETATM   19  N   UNL     1     -11.221  11.186  68.709  1.00  0.00    -0.228 NA 
HETATM   20  C   UNL     1     -11.325  13.625  69.258  1.00  0.00    -0.323 C  
HETATM   21  C   UNL     1     -11.732  12.205  69.640  1.00  0.00    -0.325 C  
HETATM   22  C   UNL     1     -11.838  13.958  67.864  1.00  0.00    -0.413 C  
HETATM   23  C   UNL     1     -11.422  12.893  66.852  1.00  0.00    -0.393 C  
HETATM   24  C   UNL     1     -11.696  11.469  67.349  1.00  0.00    -0.151 C  
ENDBRANCH  18  19
ENDBRANCH   5  18
TORSDOF 2
ENDMDL
MODEL       26
REMARK 921   NORMALIZED FREE ENERGY PREDICTED BY IDOCK:   -5.69 KCAL/MOL
REMARK 922        TOTAL FREE ENERGY PREDICTED BY IDOCK:   -6.95 KCAL/MOL
REMARK 923 INTER-LIGAND FREE ENERGY PREDICTED BY IDOCK:   -6.34 KCAL/MOL
REMARK 924 INTRA-LIGAND FREE ENERGY PREDICTED BY IDOCK:   -0.61 KCAL/MOL
REMARK 927      BINDING AFFINITY PREDICTED BY RF-SCORE:    0.00 PKD
ROOT
HETATM    1  O   UNL     1     -12.121  11.344  67.541  1.00  0.00    -0.592 OA 
HETATM    2  C   UNL     1     -10.866  11.370  68.225  1.00  0.00    -0.209 C  
HETATM    3  H   UNL     1     -12.777  11.738  68.105  1.00  0.00     0.000 HD 
HETATM    4  C   UNL     1     -11.137  10.609  69.538  1.00  0.00    -0.328 A  
HETATM    5  C   UNL     1      -9.796  10.726  67.304  1.00  0.00    -0.208 C  
HETATM    6  C   UNL     1     -10.368  12.871  68.503  1.00  0.00    -0.239 C  
HETATM    7  C   UNL     1     -12.416  10.676  70.144  1.00  0.00    -0.342 A  
HETATM    8  C   UNL     1     -10.170   9.829  70.184  1.00  0.00    -0.328 A  
HETATM    9  C   UNL     1     -11.378  13.732  69.312  1.00  0.00    -0.325 C  
HETATM   10  C   UNL     1     -10.476   9.116  71.357  1.00  0.00    -0.414 A  
HETATM   11  C   UNL     1     -10.835  15.816  68.209  1.00  0.00    -0.305 C  
HETATM   12  C   UNL     1     -11.908  14.753  68.274  1.00  0.00    -0.316 C  
HETATM   13  C   UNL     1      -9.776  15.227  67.630  1.00  0.00    -0.208 C  
HETATM   14  C   UNL     1     -11.632  14.135  66.901  1.00  0.00    -0.410 C  
HETATM   15  C   UNL     1     -11.754   9.203  71.933  1.00  0.00    -0.436 A  
HETATM   16  C   UNL     1     -10.183  13.800  67.240  1.00  0.00    -0.253 C  
HETATM   17  C   UNL     1     -12.716  10.004  71.336  1.00  0.00    -0.518 A  
ENDROOT
BRANCH   5  18
HETATM   18  C   UNL     1      -9.989   9.286  66.789  1.00  0.00    -0.245 C  
BRANCH  18  19
HETATM   19  N   UNL     1      -8.695   8.793  66.263  1.00  0.00    -0.139 NA 
HETATM   20  C   UNL     1      -7.594   8.030  68.376  1.00  0.00    -0.108 C  
HETATM   21  C   UNL     1      -7.555   8.971  67.175  1.00  0.00    -0.091 C  
HETATM   22  C   UNL     1      -7.601   6.583  67.905  1.00  0.00    -0.103 C  
HETATM   23  C   UNL     1      -8.707   6.340  66.881  1.00  0.00    -0.113 C  
HETATM   24  C   UNL     1      -8.738   7.406  65.781  1.00  0.00    -0.109 C  
ENDBRANCH  18  19
ENDBRANCH   5  18
TORSDOF 2
ENDMDL
MODEL       27
REMARK 921   NORMALIZED FREE ENERGY PREDICTED BY IDOCK:   -5.66 KCAL/MOL
REMARK 922        TOTAL FREE ENERGY PREDICTED BY IDOCK:   -6.91 KCAL/MOL
REMARK 923 INTER-LIGAND FREE ENERGY PREDICTED BY IDOCK:   -6.26 KCAL/MOL
REMARK 924 INTRA-LIGAND FREE ENERGY PREDICTED BY IDOCK:   -0.65 KCAL/MOL
REMARK 927      BINDING AFFINITY PREDICTED BY RF-SCORE:    0.00 PKD
ROOT
HETATM    1  O   UNL     1      -8.914  11.473  69.034  1.00  0.00    -0.378 OA 
HETATM    2  C   UNL     1     -10.199  11.208  68.467  1.00  0.00    -0.198 C  
HETATM    3  H   UNL     1      -8.551  10.653  69.347  1.00  0.00     0.000 HD 
HETATM    4  C   UNL     1     -10.986  10.544  69.614  1.00  0.00    -0.333 A  
HETATM    5  C   UNL     1     -10.792  12.547  67.955  1.00  0.00    -0.252 C  
HETATM    6  C   UNL     1     -10.100  10.246  67.185  1.00  0.00    -0.259 C  
HETATM    7  C   UNL     1     -10.311   9.734  70.561  1.00  0.00    -0.348 A  
HETATM    8  C   UNL     1     -12.367  10.702  69.787  1.00  0.00    -0.263 A  
HETATM    9  C   UNL     1      -9.405   8.885  67.468  1.00  0.00    -0.160 C  
HETATM   10  C   UNL     1     -13.035  10.114  70.875  1.00  0.00    -0.432 A  
HETATM   11  C   UNL     1      -8.387   8.690  65.281  1.00  0.00    -0.177 C  
HETATM   12  C   UNL     1      -8.051   8.998  66.723  1.00  0.00    -0.111 C  
HETATM   13  C   UNL     1      -9.125   9.725  64.852  1.00  0.00    -0.278 C  
HETATM   14  C   UNL     1      -7.804  10.497  66.532  1.00  0.00    -0.134 C  
HETATM   15  C   UNL     1     -12.337   9.316  71.797  1.00  0.00    -0.454 A  
HETATM   16  C   UNL     1      -9.205  10.754  65.988  1.00  0.00    -0.210 C  
HETATM   17  C   UNL     1     -10.977   9.108  71.622  1.00  0.00    -0.445 A  
ENDROOT
BRANCH   5  18
HETATM   18  C   UNL     1     -10.973  13.730  68.926  1.00  0.00    -0.252 C  
BRANCH  18  19
HETATM   19  N   UNL     1      -9.737  14.546  68.916  1.00  0.00    -0.200 NA 
HETATM   20  C   UNL     1      -9.954  15.689  66.701  1.00  0.00    -0.269 C  
HETATM   21  C   UNL     1      -9.145  14.743  67.584  1.00  0.00    -0.185 C  
HETATM   22  C   UNL     1     -10.077  17.051  67.370  1.00  0.00    -0.291 C  
HETATM   23  C   UNL     1     -10.603  16.920  68.797  1.00  0.00    -0.355 C  
HETATM   24  C   UNL     1      -9.871  15.839  69.599  1.00  0.00    -0.275 C  
ENDBRANCH  18  19
ENDBRANCH   5  18
TORSDOF 2
ENDMDL
MODEL       28
REMARK 921   NORMALIZED FREE ENERGY PREDICTED BY IDOCK:   -5.62 KCAL/MOL
REMARK 922        TOTAL FREE ENERGY PREDICTED BY IDOCK:   -6.87 KCAL/MOL
REMARK 923 INTER-LIGAND FREE ENERGY PREDICTED BY IDOCK:   -6.17 KCAL/MOL
REMARK 924 INTRA-LIGAND FREE ENERGY PREDICTED BY IDOCK:   -0.70 KCAL/MOL
REMARK 927      BINDING AFFINITY PREDICTED BY RF-SCORE:    0.00 PKD
ROOT
HETATM    1  O   UNL     1     -11.709  10.249  67.873  1.00  0.00    -0.691 OA 
HETATM    2  C   UNL     1     -10.739  10.514  68.889  1.00  0.00    -0.220 C  
HETATM    3  H   UNL     1     -12.540  10.620  68.149  1.00  0.00     0.000 HD 
HETATM    4  C   UNL     1     -11.344   9.884  70.160  1.00  0.00    -0.335 A  
HETATM    5  C   UNL     1      -9.384   9.909  68.439  1.00  0.00    -0.135 C  
HETATM    6  C   UNL     1     -10.485  12.089  69.075  1.00  0.00    -0.087 C  
HETATM    7  C   UNL     1     -12.749   9.857  70.338  1.00  0.00    -0.027 A  
HETATM    8  C   UNL     1     -10.567   9.313  71.175  1.00  0.00    -0.402 A  
HETATM    9  C   UNL     1     -11.767  12.902  69.405  1.00  0.00    -0.382 C  
HETATM   10  C   UNL     1     -11.164   8.709  72.295  1.00  0.00    -0.399 A  
HETATM   11  C   UNL     1     -11.084  14.896  68.216  1.00  0.00    -0.290 C  
HETATM   12  C   UNL     1     -12.029  13.720  68.116  1.00  0.00    -0.394 C  
HETATM   13  C   UNL     1      -9.851  14.384  68.077  1.00  0.00    -0.221 C  
HETATM   14  C   UNL     1     -11.283  12.987  66.997  1.00  0.00    -0.325 C  
HETATM   15  C   UNL     1     -12.561   8.699  72.442  1.00  0.00    -0.426 A  
HETATM   16  C   UNL     1      -9.991  12.880  67.801  1.00  0.00    -0.230 C  
HETATM   17  C   UNL     1     -13.351   9.296  71.471  1.00  0.00    -0.436 A  
ENDROOT
BRANCH   5  18
HETATM   18  C   UNL     1      -9.282   8.407  68.113  1.00  0.00    -0.137 C  
BRANCH  18  19
HETATM   19  N   UNL     1      -9.981   8.150  66.833  1.00  0.00    -0.246 NA 
HETATM   20  C   UNL     1      -8.227   6.865  65.595  1.00  0.00    -0.134 C  
HETATM   21  C   UNL     1      -9.104   8.113  65.653  1.00  0.00    -0.035 C  
HETATM   22  C   UNL     1      -9.098   5.616  65.576  1.00  0.00    -0.072 C  
HETATM   23  C   UNL     1     -10.102   5.625  66.726  1.00  0.00    -0.235 C  
HETATM   24  C   UNL     1     -10.843   6.961  66.852  1.00  0.00    -0.310 C  
ENDBRANCH  18  19
ENDBRANCH   5  18
TORSDOF 2
ENDMDL
MODEL       29
REMARK 921   NORMALIZED FREE ENERGY PREDICTED BY IDOCK:   -5.60 KCAL/MOL
REMARK 922        TOTAL FREE ENERGY PREDICTED BY IDOCK:   -6.84 KCAL/MOL
REMARK 923 INTER-LIGAND FREE ENERGY PREDICTED BY IDOCK:   -6.25 KCAL/MOL
REMARK 924 INTRA-LIGAND FREE ENERGY PREDICTED BY IDOCK:   -0.59 KCAL/MOL
REMARK 927      BINDING AFFINITY PREDICTED BY RF-SCORE:    0.00 PKD
ROOT
HETATM    1  O   UNL     1      -9.745   9.171  67.748  1.00  0.00    -0.146 OA 
HETATM    2  C   UNL     1      -9.846  10.409  68.458  1.00  0.00    -0.167 C  
HETATM    3  H   UNL     1      -8.985   8.701  68.074  1.00  0.00     0.000 HD 
HETATM    4  C   UNL     1      -8.492  11.101  68.200  1.00  0.00    -0.138 A  
HETATM    5  C   UNL     1     -11.085  11.175  67.926  1.00  0.00    -0.331 C  
HETATM    6  C   UNL     1     -10.103  10.179  70.026  1.00  0.00    -0.241 C  
HETATM    7  C   UNL     1      -7.318  10.324  68.045  1.00  0.00    -0.086 A  
HETATM    8  C   UNL     1      -8.350  12.490  68.101  1.00  0.00    -0.175 A  
HETATM    9  C   UNL     1      -9.021   9.308  70.723  1.00  0.00    -0.292 C  
HETATM   10  C   UNL     1      -7.103  13.075  67.821  1.00  0.00    -0.139 A  
HETATM   11  C   UNL     1     -10.542   8.269  72.293  1.00  0.00    -0.393 C  
HETATM   12  C   UNL     1      -9.758   7.981  71.033  1.00  0.00    -0.185 C  
HETATM   13  C   UNL     1     -11.499   9.140  71.933  1.00  0.00    -0.423 C  
HETATM   14  C   UNL     1     -10.957   7.936  70.082  1.00  0.00    -0.235 C  
HETATM   15  C   UNL     1      -5.956  12.277  67.672  1.00  0.00    -0.119 A  
HETATM   16  C   UNL     1     -11.394   9.359  70.417  1.00  0.00    -0.295 C  
HETATM   17  C   UNL     1      -6.063  10.902  67.809  1.00  0.00    -0.046 A  
ENDROOT
BRANCH   5  18
HETATM   18  C   UNL     1     -11.196  11.515  66.427  1.00  0.00    -0.243 C  
BRANCH  18  19
HETATM   19  N   UNL     1     -12.284  12.502  66.242  1.00  0.00    -0.584 NA 
HETATM   20  C   UNL     1     -10.980  14.638  66.245  1.00  0.00    -0.327 C  
HETATM   21  C   UNL     1     -12.061  13.792  66.913  1.00  0.00    -0.413 C  
HETATM   22  C   UNL     1     -11.358  14.917  64.797  1.00  0.00    -0.400 C  
HETATM   23  C   UNL     1     -11.694  13.626  64.054  1.00  0.00    -0.405 C  
HETATM   24  C   UNL     1     -12.655  12.726  64.839  1.00  0.00    -0.470 C  
ENDBRANCH  18  19
ENDBRANCH   5  18
TORSDOF 2
ENDMDL
MODEL       30
REMARK 921   NORMALIZED FREE ENERGY PREDICTED BY IDOCK:   -5.58 KCAL/MOL
REMARK 922        TOTAL FREE ENERGY PREDICTED BY IDOCK:   -6.82 KCAL/MOL
REMARK 923 INTER-LIGAND FREE ENERGY PREDICTED BY IDOCK:   -6.75 KCAL/MOL
REMARK 924 INTRA-LIGAND FREE ENERGY PREDICTED BY IDOCK:   -0.07 KCAL/MOL
REMARK 927      BINDING AFFINITY PREDICTED BY RF-SCORE:    0.00 PKD
ROOT
HETATM    1  O   UNL     1      -7.942  15.710  66.297  1.00  0.00    -0.273 OA 
HETATM    2  C   UNL     1      -8.496  15.423  67.583  1.00  0.00    -0.162 C  
HETATM    3  H   UNL     1      -7.663  14.892  65.903  1.00  0.00     0.000 HD 
HETATM    4  C   UNL     1      -7.360  14.695  68.329  1.00  0.00    -0.117 A  
HETATM    5  C   UNL     1      -8.951  16.760  68.226  1.00  0.00    -0.228 C  
HETATM    6  C   UNL     1      -9.813  14.510  67.476  1.00  0.00    -0.222 C  
HETATM    7  C   UNL     1      -6.454  13.875  67.612  1.00  0.00    -0.161 A  
HETATM    8  C   UNL     1      -7.159  14.803  69.710  1.00  0.00    -0.132 A  
HETATM    9  C   UNL     1      -9.589  13.163  66.733  1.00  0.00    -0.249 C  
HETATM   10  C   UNL     1      -6.083  14.157  70.341  1.00  0.00    -0.169 A  
HETATM   11  C   UNL     1     -11.797  13.077  65.748  1.00  0.00    -0.453 C  
HETATM   12  C   UNL     1     -10.351  13.346  65.397  1.00  0.00    -0.321 C  
HETATM   13  C   UNL     1     -12.178  14.102  66.526  1.00  0.00    -0.463 C  
HETATM   14  C   UNL     1     -10.494  14.857  65.200  1.00  0.00    -0.442 C  
HETATM   15  C   UNL     1      -5.201  13.350  69.602  1.00  0.00    -0.086 A  
HETATM   16  C   UNL     1     -11.006  15.088  66.618  1.00  0.00    -0.325 C  
HETATM   17  C   UNL     1      -5.404  13.193  68.240  1.00  0.00    -0.089 A  
ENDROOT
BRANCH   5  18
HETATM   18  C   UNL     1      -7.936  17.902  68.428  1.00  0.00    -0.298 C  
BRANCH  18  19
HETATM   19  N   UNL     1      -8.675  19.182  68.524  1.00  0.00    -0.356 NA 
HETATM   20  C   UNL     1      -8.789  19.835  66.111  1.00  0.00    -0.378 C  
HETATM   21  C   UNL     1      -8.299  20.183  67.514  1.00  0.00    -0.332 C  
HETATM   22  C   UNL     1     -10.305  19.705  66.106  1.00  0.00    -0.627 C  
HETATM   23  C   UNL     1     -10.782  18.745  67.193  1.00  0.00    -0.469 C  
HETATM   24  C   UNL     1     -10.135  19.027  68.554  1.00  0.00    -0.400 C  
ENDBRANCH  18  19
ENDBRANCH   5  18
TORSDOF 2
ENDMDL
MODEL       31
REMARK 921   NORMALIZED FREE ENERGY PREDICTED BY IDOCK:   -5.57 KCAL/MOL
REMARK 922        TOTAL FREE ENERGY PREDICTED BY IDOCK:   -6.81 KCAL/MOL
REMARK 923 INTER-LIGAND FREE ENERGY PREDICTED BY IDOCK:   -6.11 KCAL/MOL
REMARK 924 INTRA-LIGAND FREE ENERGY PREDICTED BY IDOCK:   -0.70 KCAL/MOL
REMARK 927      BINDING AFFINITY PREDICTED BY RF-SCORE:    0.00 PKD
ROOT
HETATM    1  O   UNL     1     -10.263  12.685  68.836  1.00  0.00    -0.405 OA 
HETATM    2  C   UNL     1     -10.027  13.815  67.992  1.00  0.00    -0.246 C  
HETATM    3  H   UNL     1     -10.071  11.897  68.341  1.00  0.00     0.000 HD 
HETATM    4  C   UNL     1     -10.941  13.571  66.774  1.00  0.00    -0.297 A  
HETATM    5  C   UNL     1     -10.341  15.101  68.800  1.00  0.00    -0.236 C  
HETATM    6  C   UNL     1      -8.484  13.925  67.560  1.00  0.00    -0.200 C  
HETATM    7  C   UNL     1     -11.205  12.249  66.340  1.00  0.00    -0.370 A  
HETATM    8  C   UNL     1     -11.548  14.607  66.054  1.00  0.00    -0.328 A  
HETATM    9  C   UNL     1      -7.937  12.660  66.842  1.00  0.00     0.019 C  
HETATM   10  C   UNL     1     -12.410  14.336  64.978  1.00  0.00    -0.434 A  
HETATM   11  C   UNL     1      -5.695  12.844  67.735  1.00  0.00    -0.135 C  
HETATM   12  C   UNL     1      -6.967  12.038  67.877  1.00  0.00    -0.095 C  
HETATM   13  C   UNL     1      -5.988  14.068  68.202  1.00  0.00    -0.126 C  
HETATM   14  C   UNL     1      -7.386  12.604  69.236  1.00  0.00     0.232 C  
HETATM   15  C   UNL     1     -12.653  13.013  64.572  1.00  0.00    -0.387 A  
HETATM   16  C   UNL     1      -7.429  14.042  68.729  1.00  0.00    -0.124 C  
HETATM   17  C   UNL     1     -12.029  11.972  65.241  1.00  0.00    -0.207 A  
ENDROOT
BRANCH   5  18
HETATM   18  C   UNL     1     -11.737  15.299  69.421  1.00  0.00    -0.341 C  
BRANCH  18  19
HETATM   19  N   UNL     1     -11.831  14.476  70.649  1.00  0.00    -0.299 NA 
HETATM   20  C   UNL     1     -12.368  16.234  72.347  1.00  0.00    -0.463 C  
HETATM   21  C   UNL     1     -11.394  15.157  71.877  1.00  0.00    -0.300 C  
HETATM   22  C   UNL     1     -13.736  15.621  72.608  1.00  0.00    -0.666 C  
HETATM   23  C   UNL     1     -14.222  14.818  71.403  1.00  0.00    -0.514 C  
HETATM   24  C   UNL     1     -13.151  13.867  70.859  1.00  0.00    -0.192 C  
ENDBRANCH  18  19
ENDBRANCH   5  18
TORSDOF 2
ENDMDL
MODEL       32
REMARK 921   NORMALIZED FREE ENERGY PREDICTED BY IDOCK:   -5.56 KCAL/MOL
REMARK 922        TOTAL FREE ENERGY PREDICTED BY IDOCK:   -6.81 KCAL/MOL
REMARK 923 INTER-LIGAND FREE ENERGY PREDICTED BY IDOCK:   -6.20 KCAL/MOL
REMARK 924 INTRA-LIGAND FREE ENERGY PREDICTED BY IDOCK:   -0.60 KCAL/MOL
REMARK 927      BINDING AFFINITY PREDICTED BY RF-SCORE:    0.00 PKD
ROOT
HETATM    1  O   UNL     1      -8.771  10.612  68.096  1.00  0.00    -0.123 OA 
HETATM    2  C   UNL     1     -10.091  10.074  67.979  1.00  0.00    -0.167 C  
HETATM    3  H   UNL     1      -8.384  10.646  67.229  1.00  0.00     0.000 HD 
HETATM    4  C   UNL     1      -9.880   8.703  67.306  1.00  0.00    -0.256 A  
HETATM    5  C   UNL     1     -10.721  10.018  69.395  1.00  0.00    -0.258 C  
HETATM    6  C   UNL     1     -11.046  11.022  67.104  1.00  0.00    -0.333 C  
HETATM    7  C   UNL     1      -8.823   8.525  66.378  1.00  0.00    -0.178 A  
HETATM    8  C   UNL     1     -10.688   7.590  67.566  1.00  0.00    -0.296 A  
HETATM    9  C   UNL     1     -10.512  11.310  65.673  1.00  0.00    -0.317 C  
HETATM   10  C   UNL     1     -10.430   6.348  66.962  1.00  0.00    -0.349 A  
HETATM   11  C   UNL     1     -11.402  13.557  65.546  1.00  0.00    -0.310 C  
HETATM   12  C   UNL     1     -10.103  12.804  65.725  1.00  0.00    -0.296 C  
HETATM   13  C   UNL     1     -12.107  13.335  66.667  1.00  0.00    -0.421 C  
HETATM   14  C   UNL     1      -9.908  13.133  67.207  1.00  0.00    -0.232 C  
HETATM   15  C   UNL     1      -9.374   6.203  66.047  1.00  0.00    -0.085 A  
HETATM   16  C   UNL     1     -11.235  12.503  67.618  1.00  0.00    -0.332 C  
HETATM   17  C   UNL     1      -8.587   7.301  65.739  1.00  0.00    -0.143 A  
ENDROOT
BRANCH   5  18
HETATM   18  C   UNL     1     -10.021   9.229  70.519  1.00  0.00    -0.249 C  
BRANCH  18  19
HETATM   19  N   UNL     1     -10.961   9.084  71.655  1.00  0.00    -0.342 NA 
HETATM   20  C   UNL     1     -12.239   7.054  70.943  1.00  0.00    -0.388 C  
HETATM   21  C   UNL     1     -12.279   8.539  71.293  1.00  0.00    -0.277 C  
HETATM   22  C   UNL     1     -11.705   6.255  72.123  1.00  0.00    -0.368 C  
HETATM   23  C   UNL     1     -10.375   6.819  72.617  1.00  0.00    -0.225 C  
HETATM   24  C   UNL     1     -10.409   8.341  72.795  1.00  0.00    -0.260 C  
ENDBRANCH  18  19
ENDBRANCH   5  18
TORSDOF 2
ENDMDL
MODEL       33
REMARK 921   NORMALIZED FREE ENERGY PREDICTED BY IDOCK:   -5.55 KCAL/MOL
REMARK 922        TOTAL FREE ENERGY PREDICTED BY IDOCK:   -6.79 KCAL/MOL
REMARK 923 INTER-LIGAND FREE ENERGY PREDICTED BY IDOCK:   -6.30 KCAL/MOL
REMARK 924 INTRA-LIGAND FREE ENERGY PREDICTED BY IDOCK:   -0.49 KCAL/MOL
REMARK 927      BINDING AFFINITY PREDICTED BY RF-SCORE:    0.00 PKD
ROOT
HETATM    1  O   UNL     1     -11.046  12.912  67.958  1.00  0.00    -0.232 OA 
HETATM    2  C   UNL     1      -9.823  12.881  67.219  1.00  0.00    -0.218 C  
HETATM    3  H   UNL     1     -11.433  13.775  67.859  1.00  0.00     0.000 HD 
HETATM    4  C   UNL     1      -8.995  14.039  67.814  1.00  0.00    -0.186 A  
HETATM    5  C   UNL     1      -9.191  11.474  67.382  1.00  0.00    -0.166 C  
HETATM    6  C   UNL     1     -10.070  13.080  65.645  1.00  0.00    -0.276 C  
HETATM    7  C   UNL     1      -9.647  15.201  68.296  1.00  0.00    -0.211 A  
HETATM    8  C   UNL     1      -7.599  14.008  67.915  1.00  0.00    -0.159 A  
HETATM    9  C   UNL     1     -10.821  14.392  65.284  1.00  0.00    -0.370 C  
HETATM   10  C   UNL     1      -6.889  15.068  68.506  1.00  0.00    -0.102 A  
HETATM   11  C   UNL     1     -12.003  13.462  63.389  1.00  0.00    -0.406 C  
HETATM   12  C   UNL     1     -12.216  13.903  64.819  1.00  0.00    -0.441 C  
HETATM   13  C   UNL     1     -11.238  12.361  63.458  1.00  0.00    -0.540 C  
HETATM   14  C   UNL     1     -12.388  12.504  65.414  1.00  0.00    -0.426 C  
HETATM   15  C   UNL     1      -7.565  16.207  68.975  1.00  0.00    -0.213 A  
HETATM   16  C   UNL     1     -11.017  12.031  64.941  1.00  0.00    -0.356 C  
HETATM   17  C   UNL     1      -8.943  16.280  68.846  1.00  0.00    -0.248 A  
ENDROOT
BRANCH   5  18
HETATM   18  C   UNL     1      -8.872  10.930  68.788  1.00  0.00    -0.161 C  
BRANCH  18  19
HETATM   19  N   UNL     1      -9.414   9.557  68.901  1.00  0.00    -0.152 NA 
HETATM   20  C   UNL     1      -8.669   8.952  71.212  1.00  0.00    -0.279 C  
HETATM   21  C   UNL     1      -8.601   8.643  69.718  1.00  0.00    -0.131 C  
HETATM   22  C   UNL     1     -10.110   8.866  71.697  1.00  0.00    -0.411 C  
HETATM   23  C   UNL     1     -11.035   9.723  70.836  1.00  0.00    -0.411 C  
HETATM   24  C   UNL     1     -10.816   9.503  69.335  1.00  0.00    -0.206 C  
ENDBRANCH  18  19
ENDBRANCH   5  18
TORSDOF 2
ENDMDL
MODEL       34
REMARK 921   NORMALIZED FREE ENERGY PREDICTED BY IDOCK:   -5.55 KCAL/MOL
REMARK 922        TOTAL FREE ENERGY PREDICTED BY IDOCK:   -6.78 KCAL/MOL
REMARK 923 INTER-LIGAND FREE ENERGY PREDICTED BY IDOCK:   -6.18 KCAL/MOL
REMARK 924 INTRA-LIGAND FREE ENERGY PREDICTED BY IDOCK:   -0.61 KCAL/MOL
REMARK 927      BINDING AFFINITY PREDICTED BY RF-SCORE:    0.00 PKD
ROOT
HETATM    1  O   UNL     1      -9.339  13.478  68.852  1.00  0.00    -0.394 OA 
HETATM    2  C   UNL     1      -8.859  13.924  67.581  1.00  0.00    -0.191 C  
HETATM    3  H   UNL     1      -9.741  12.625  68.737  1.00  0.00     0.000 HD 
HETATM    4  C   UNL     1     -10.111  13.911  66.682  1.00  0.00    -0.273 A  
HETATM    5  C   UNL     1      -8.203  15.317  67.770  1.00  0.00    -0.157 C  
HETATM    6  C   UNL     1      -7.708  12.964  67.006  1.00  0.00     0.025 C  
HETATM    7  C   UNL     1     -11.127  12.947  66.896  1.00  0.00    -0.312 A  
HETATM    8  C   UNL     1     -10.314  14.823  65.639  1.00  0.00    -0.369 A  
HETATM    9  C   UNL     1      -8.137  11.476  66.868  1.00  0.00    -0.164 C  
HETATM   10  C   UNL     1     -11.492  14.801  64.873  1.00  0.00    -0.412 A  
HETATM   11  C   UNL     1      -5.956  10.562  67.383  1.00  0.00    -0.052 C  
HETATM   12  C   UNL     1      -7.333  10.755  67.978  1.00  0.00    -0.088 C  
HETATM   13  C   UNL     1      -5.426  11.792  67.293  1.00  0.00    -0.108 C  
HETATM   14  C   UNL     1      -6.943  11.840  68.985  1.00  0.00    -0.107 C  
HETATM   15  C   UNL     1     -12.482  13.833  65.111  1.00  0.00    -0.483 A  
HETATM   16  C   UNL     1      -6.423  12.785  67.906  1.00  0.00    -0.120 C  
HETATM   17  C   UNL     1     -12.284  12.891  66.109  1.00  0.00    -0.385 A  
ENDROOT
BRANCH   5  18
HETATM   18  C   UNL     1      -9.021  16.479  68.366  1.00  0.00    -0.219 C  
BRANCH  18  19
HETATM   19  N   UNL     1      -8.431  17.759  67.909  1.00  0.00    -0.240 NA 
HETATM   20  C   UNL     1     -10.205  18.550  66.332  1.00  0.00    -0.449 C  
HETATM   21  C   UNL     1      -8.753  18.119  66.520  1.00  0.00    -0.268 C  
HETATM   22  C   UNL     1     -10.511  19.752  67.215  1.00  0.00    -0.579 C  
HETATM   23  C   UNL     1     -10.118  19.486  68.666  1.00  0.00    -0.535 C  
HETATM   24  C   UNL     1      -8.710  18.895  68.797  1.00  0.00    -0.296 C  
ENDBRANCH  18  19
ENDBRANCH   5  18
TORSDOF 2
ENDMDL
MODEL       35
REMARK 921   NORMALIZED FREE ENERGY PREDICTED BY IDOCK:   -5.54 KCAL/MOL
REMARK 922        TOTAL FREE ENERGY PREDICTED BY IDOCK:   -6.78 KCAL/MOL
REMARK 923 INTER-LIGAND FREE ENERGY PREDICTED BY IDOCK:   -6.41 KCAL/MOL
REMARK 924 INTRA-LIGAND FREE ENERGY PREDICTED BY IDOCK:   -0.36 KCAL/MOL
REMARK 927      BINDING AFFINITY PREDICTED BY RF-SCORE:    0.00 PKD
ROOT
HETATM    1  O   UNL     1      -9.401  12.781  68.033  1.00  0.00    -0.200 OA 
HETATM    2  C   UNL     1     -10.776  12.394  68.103  1.00  0.00    -0.221 C  
HETATM    3  H   UNL     1      -8.881  12.004  67.863  1.00  0.00     0.000 HD 
HETATM    4  C   UNL     1     -10.811  11.329  69.218  1.00  0.00    -0.259 A  
HETATM    5  C   UNL     1     -11.625  13.662  68.382  1.00  0.00    -0.377 C  
HETATM    6  C   UNL     1     -11.302  11.804  66.705  1.00  0.00    -0.385 C  
HETATM    7  C   UNL     1      -9.696  10.479  69.420  1.00  0.00    -0.188 A  
HETATM    8  C   UNL     1     -11.906  11.150  70.071  1.00  0.00    -0.441 A  
HETATM    9  C   UNL     1     -10.483  10.591  66.184  1.00  0.00    -0.237 C  
HETATM   10  C   UNL     1     -11.875  10.196  71.103  1.00  0.00    -0.472 A  
HETATM   11  C   UNL     1     -10.741  11.133  63.840  1.00  0.00    -0.407 C  
HETATM   12  C   UNL     1      -9.724  11.156  64.957  1.00  0.00    -0.298 C  
HETATM   13  C   UNL     1     -11.655  12.062  64.161  1.00  0.00    -0.460 C  
HETATM   14  C   UNL     1      -9.700  12.676  65.145  1.00  0.00    -0.018 C  
HETATM   15  C   UNL     1     -10.754   9.368  71.278  1.00  0.00    -0.421 A  
HETATM   16  C   UNL     1     -11.192  12.755  65.450  1.00  0.00    -0.327 C  
HETATM   17  C   UNL     1      -9.674   9.496  70.418  1.00  0.00    -0.328 A  
ENDROOT
BRANCH   5  18
HETATM   18  C   UNL     1     -11.344  14.518  69.632  1.00  0.00    -0.273 C  
BRANCH  18  19
HETATM   19  N   UNL     1     -11.383  15.948  69.247  1.00  0.00    -0.332 NA 
HETATM   20  C   UNL     1      -8.945  16.408  68.918  1.00  0.00    -0.256 C  
HETATM   21  C   UNL     1     -10.221  16.733  69.690  1.00  0.00    -0.093 C  
HETATM   22  C   UNL     1      -9.154  16.669  67.433  1.00  0.00    -0.206 C  
HETATM   23  C   UNL     1     -10.400  15.955  66.915  1.00  0.00    -0.291 C  
HETATM   24  C   UNL     1     -11.621  16.173  67.815  1.00  0.00     0.075 C  
ENDBRANCH  18  19
ENDBRANCH   5  18
TORSDOF 2
ENDMDL
MODEL       36
REMARK 921   NORMALIZED FREE ENERGY PREDICTED BY IDOCK:   -5.54 KCAL/MOL
REMARK 922        TOTAL FREE ENERGY PREDICTED BY IDOCK:   -6.77 KCAL/MOL
REMARK 923 INTER-LIGAND FREE ENERGY PREDICTED BY IDOCK:   -6.36 KCAL/MOL
REMARK 924 INTRA-LIGAND FREE ENERGY PREDICTED BY IDOCK:   -0.41 KCAL/MOL
REMARK 927      BINDING AFFINITY PREDICTED BY RF-SCORE:    0.00 PKD
ROOT
HETATM    1  O   UNL     1     -12.155  11.663  67.607  1.00  0.00    -0.615 OA 
HETATM    2  C   UNL     1     -10.834  11.688  68.152  1.00  0.00    -0.217 C  
HETATM    3  H   UNL     1     -12.760  11.961  68.277  1.00  0.00     0.000 HD 
HETATM    4  C   UNL     1     -10.923  10.783  69.397  1.00  0.00    -0.305 A  
HETATM    5  C   UNL     1      -9.847  11.202  67.059  1.00  0.00    -0.212 C  
HETATM    6  C   UNL     1     -10.374  13.178  68.536  1.00  0.00    -0.245 C  
HETATM    7  C   UNL     1     -12.128  10.717  70.140  1.00  0.00    -0.427 A  
HETATM    8  C   UNL     1      -9.857   9.995  69.849  1.00  0.00    -0.266 A  
HETATM    9  C   UNL     1     -11.324  13.894  69.536  1.00  0.00    -0.293 C  
HETATM   10  C   UNL     1      -9.999   9.151  70.963  1.00  0.00    -0.367 A  
HETATM   11  C   UNL     1     -10.999  16.107  68.612  1.00  0.00    -0.336 C  
HETATM   12  C   UNL     1     -12.011  14.986  68.677  1.00  0.00    -0.278 C  
HETATM   13  C   UNL     1      -9.987  15.640  67.864  1.00  0.00    -0.223 C  
HETATM   14  C   UNL     1     -11.863  14.528  67.223  1.00  0.00    -0.419 C  
HETATM   15  C   UNL     1     -11.207   9.107  71.679  1.00  0.00    -0.447 A  
HETATM   16  C   UNL     1     -10.372  14.240  67.368  1.00  0.00    -0.259 C  
HETATM   17  C   UNL     1     -12.263   9.911  71.278  1.00  0.00    -0.480 A  
ENDROOT
BRANCH   5  18
HETATM   18  C   UNL     1     -10.033   9.814  66.415  1.00  0.00    -0.247 C  
BRANCH  18  19
HETATM   19  N   UNL     1      -8.825   9.000  66.684  1.00  0.00    -0.129 NA 
HETATM   20  C   UNL     1      -8.186   8.336  64.357  1.00  0.00    -0.130 C  
HETATM   21  C   UNL     1      -8.620   7.883  65.749  1.00  0.00    -0.147 C  
HETATM   22  C   UNL     1      -6.886   9.123  64.447  1.00  0.00    -0.087 C  
HETATM   23  C   UNL     1      -6.992  10.252  65.470  1.00  0.00    -0.138 C  
HETATM   24  C   UNL     1      -7.591   9.786  66.802  1.00  0.00    -0.095 C  
ENDBRANCH  18  19
ENDBRANCH   5  18
TORSDOF 2
ENDMDL
MODEL       37
REMARK 921   NORMALIZED FREE ENERGY PREDICTED BY IDOCK:   -5.52 KCAL/MOL
REMARK 922        TOTAL FREE ENERGY PREDICTED BY IDOCK:   -6.75 KCAL/MOL
REMARK 923 INTER-LIGAND FREE ENERGY PREDICTED BY IDOCK:   -6.54 KCAL/MOL
REMARK 924 INTRA-LIGAND FREE ENERGY PREDICTED BY IDOCK:   -0.21 KCAL/MOL
REMARK 927      BINDING AFFINITY PREDICTED BY RF-SCORE:    0.00 PKD
ROOT
HETATM    1  O   UNL     1      -9.255  11.873  67.613  1.00  0.00    -0.173 OA 
HETATM    2  C   UNL     1     -10.365  11.024  67.312  1.00  0.00    -0.211 C  
HETATM    3  H   UNL     1      -8.724  11.959  66.829  1.00  0.00     0.000 HD 
HETATM    4  C   UNL     1      -9.716   9.716  66.818  1.00  0.00    -0.252 A  
HETATM    5  C   UNL     1     -11.231  10.883  68.591  1.00  0.00    -0.326 C  
HETATM    6  C   UNL     1     -11.323  11.668  66.195  1.00  0.00    -0.275 C  
HETATM    7  C   UNL     1      -8.486   9.757  66.115  1.00  0.00    -0.130 A  
HETATM    8  C   UNL     1     -10.281   8.453  67.032  1.00  0.00    -0.377 A  
HETATM    9  C   UNL     1     -10.599  12.009  64.863  1.00  0.00    -0.334 C  
HETATM   10  C   UNL     1      -9.630   7.284  66.602  1.00  0.00    -0.236 A  
HETATM   11  C   UNL     1     -11.941  13.962  64.369  1.00  0.00    -0.480 C  
HETATM   12  C   UNL     1     -10.565  13.558  64.847  1.00  0.00    -0.409 C  
HETATM   13  C   UNL     1     -12.782  13.628  65.361  1.00  0.00    -0.500 C  
HETATM   14  C   UNL     1     -10.746  13.995  66.303  1.00  0.00    -0.289 C  
HETATM   15  C   UNL     1      -8.411   7.357  65.908  1.00  0.00    -0.140 A  
HETATM   16  C   UNL     1     -11.946  13.080  66.526  1.00  0.00    -0.457 C  
HETATM   17  C   UNL     1      -7.853   8.599  65.645  1.00  0.00    -0.101 A  
ENDROOT
BRANCH   5  18
HETATM   18  C   UNL     1     -10.602  10.344  69.891  1.00  0.00    -0.251 C  
BRANCH  18  19
HETATM   19  N   UNL     1     -10.982   8.921  70.047  1.00  0.00    -0.230 NA 
HETATM   20  C   UNL     1      -9.711   8.326  72.119  1.00  0.00    -0.344 C  
HETATM   21  C   UNL     1      -9.935   8.069  70.631  1.00  0.00    -0.189 C  
HETATM   22  C   UNL     1     -11.002   8.085  72.890  1.00  0.00    -0.398 C  
HETATM   23  C   UNL     1     -12.162   8.871  72.285  1.00  0.00    -0.413 C  
HETATM   24  C   UNL     1     -12.249   8.717  70.762  1.00  0.00    -0.024 C  
ENDBRANCH  18  19
ENDBRANCH   5  18
TORSDOF 2
ENDMDL
MODEL       38
REMARK 921   NORMALIZED FREE ENERGY PREDICTED BY IDOCK:   -5.50 KCAL/MOL
REMARK 922        TOTAL FREE ENERGY PREDICTED BY IDOCK:   -6.73 KCAL/MOL
REMARK 923 INTER-LIGAND FREE ENERGY PREDICTED BY IDOCK:   -6.34 KCAL/MOL
REMARK 924 INTRA-LIGAND FREE ENERGY PREDICTED BY IDOCK:   -0.39 KCAL/MOL
REMARK 927      BINDING AFFINITY PREDICTED BY RF-SCORE:    0.00 PKD
ROOT
HETATM    1  O   UNL     1      -9.865  13.632  69.298  1.00  0.00    -0.392 OA 
HETATM    2  C   UNL     1     -11.071  12.986  68.883  1.00  0.00    -0.262 C  
HETATM    3  H   UNL     1      -9.871  14.521  68.963  1.00  0.00     0.000 HD 
HETATM    4  C   UNL     1     -11.049  13.103  67.345  1.00  0.00    -0.301 A  
HETATM    5  C   UNL     1     -11.060  11.535  69.430  1.00  0.00    -0.287 C  
HETATM    6  C   UNL     1     -12.372  13.689  69.510  1.00  0.00    -0.232 C  
HETATM    7  C   UNL     1     -10.454  14.231  66.729  1.00  0.00    -0.273 A  
HETATM    8  C   UNL     1     -11.591  12.130  66.496  1.00  0.00    -0.425 A  
HETATM    9  C   UNL     1     -12.493  15.203  69.179  1.00  0.00     0.025 C  
HETATM   10  C   UNL     1     -11.508  12.257  65.099  1.00  0.00    -0.390 A  
HETATM   11  C   UNL     1     -13.529  15.812  71.279  1.00  0.00    -0.218 C  
HETATM   12  C   UNL     1     -12.216  15.901  70.534  1.00  0.00    -0.314 C  
HETATM   13  C   UNL     1     -13.694  14.512  71.569  1.00  0.00    -0.472 C  
HETATM   14  C   UNL     1     -11.458  14.879  71.384  1.00  0.00    -0.317 C  
HETATM   15  C   UNL     1     -10.911  13.388  64.518  1.00  0.00    -0.404 A  
HETATM   16  C   UNL     1     -12.448  13.757  71.085  1.00  0.00    -0.450 C  
HETATM   17  C   UNL     1     -10.406  14.386  65.337  1.00  0.00    -0.400 A  
ENDROOT
BRANCH   5  18
HETATM   18  C   UNL     1      -9.903  10.584  69.068  1.00  0.00    -0.212 C  
BRANCH  18  19
HETATM   19  N   UNL     1      -9.699   9.636  70.188  1.00  0.00    -0.242 NA 
HETATM   20  C   UNL     1      -9.682   7.458  68.956  1.00  0.00    -0.160 C  
HETATM   21  C   UNL     1     -10.354   8.331  70.012  1.00  0.00    -0.212 C  
HETATM   22  C   UNL     1      -8.228   7.211  69.333  1.00  0.00    -0.132 C  
HETATM   23  C   UNL     1      -7.500   8.522  69.620  1.00  0.00    -0.075 C  
HETATM   24  C   UNL     1      -8.291   9.443  70.556  1.00  0.00    -0.197 C  
ENDBRANCH  18  19
ENDBRANCH   5  18
TORSDOF 2
ENDMDL
MODEL       39
REMARK 921   NORMALIZED FREE ENERGY PREDICTED BY IDOCK:   -5.49 KCAL/MOL
REMARK 922        TOTAL FREE ENERGY PREDICTED BY IDOCK:   -6.72 KCAL/MOL
REMARK 923 INTER-LIGAND FREE ENERGY PREDICTED BY IDOCK:   -6.01 KCAL/MOL
REMARK 924 INTRA-LIGAND FREE ENERGY PREDICTED BY IDOCK:   -0.72 KCAL/MOL
REMARK 927      BINDING AFFINITY PREDICTED BY RF-SCORE:    0.00 PKD
ROOT
HETATM    1  O   UNL     1      -8.858  11.453  67.004  1.00  0.00    -0.158 OA 
HETATM    2  C   UNL     1      -9.639  10.506  66.270  1.00  0.00    -0.187 C  
HETATM    3  H   UNL     1      -8.348  11.963  66.386  1.00  0.00     0.000 HD 
HETATM    4  C   UNL     1      -8.597   9.703  65.467  1.00  0.00    -0.162 A  
HETATM    5  C   UNL     1     -10.471   9.674  67.280  1.00  0.00    -0.323 C  
HETATM    6  C   UNL     1     -10.701  11.228  65.306  1.00  0.00    -0.302 C  
HETATM    7  C   UNL     1      -7.412  10.333  65.014  1.00  0.00    -0.120 A  
HETATM    8  C   UNL     1      -8.752   8.347  65.154  1.00  0.00    -0.118 A  
HETATM    9  C   UNL     1     -10.063  12.219  64.293  1.00  0.00    -0.311 C  
HETATM   10  C   UNL     1      -7.755   7.643  64.457  1.00  0.00    -0.126 A  
HETATM   11  C   UNL     1     -11.920  13.770  64.292  1.00  0.00    -0.481 C  
HETATM   12  C   UNL     1     -10.508  13.611  64.807  1.00  0.00    -0.436 C  
HETATM   13  C   UNL     1     -12.657  12.879  64.974  1.00  0.00    -0.538 C  
HETATM   14  C   UNL     1     -10.876  13.414  66.280  1.00  0.00    -0.294 C  
HETATM   15  C   UNL     1      -6.590   8.297  64.022  1.00  0.00    -0.071 A  
HETATM   16  C   UNL     1     -11.743  12.192  65.997  1.00  0.00    -0.388 C  
HETATM   17  C   UNL     1      -6.433   9.649  64.281  1.00  0.00    -0.106 A  
ENDROOT
BRANCH   5  18
HETATM   18  C   UNL     1      -9.762   8.888  68.400  1.00  0.00    -0.161 C  
BRANCH  18  19
HETATM   19  N   UNL     1      -9.545   9.793  69.552  1.00  0.00    -0.197 NA 
HETATM   20  C   UNL     1     -11.686   9.468  70.807  1.00  0.00    -0.370 C  
HETATM   21  C   UNL     1     -10.766  10.434  70.065  1.00  0.00    -0.265 C  
HETATM   22  C   UNL     1     -10.948   8.846  71.984  1.00  0.00    -0.412 C  
HETATM   23  C   UNL     1      -9.619   8.235  71.544  1.00  0.00    -0.247 C  
HETATM   24  C   UNL     1      -8.800   9.181  70.660  1.00  0.00    -0.232 C  
ENDBRANCH  18  19
ENDBRANCH   5  18
TORSDOF 2
ENDMDL
MODEL       40
REMARK 921   NORMALIZED FREE ENERGY PREDICTED BY IDOCK:   -5.48 KCAL/MOL
REMARK 922        TOTAL FREE ENERGY PREDICTED BY IDOCK:   -6.71 KCAL/MOL
REMARK 923 INTER-LIGAND FREE ENERGY PREDICTED BY IDOCK:   -6.24 KCAL/MOL
REMARK 924 INTRA-LIGAND FREE ENERGY PREDICTED BY IDOCK:   -0.47 KCAL/MOL
REMARK 927      BINDING AFFINITY PREDICTED BY RF-SCORE:    0.00 PKD
ROOT
HETATM    1  O   UNL     1      -8.907  10.329  68.291  1.00  0.00    -0.122 OA 
HETATM    2  C   UNL     1     -10.187   9.799  67.936  1.00  0.00    -0.194 C  
HETATM    3  H   UNL     1      -8.395  10.432  67.498  1.00  0.00     0.000 HD 
HETATM    4  C   UNL     1      -9.857   8.485  67.199  1.00  0.00    -0.269 A  
HETATM    5  C   UNL     1     -11.022   9.632  69.232  1.00  0.00    -0.194 C  
HETATM    6  C   UNL     1     -11.013  10.810  67.000  1.00  0.00    -0.292 C  
HETATM    7  C   UNL     1      -8.671   8.381  66.432  1.00  0.00    -0.159 A  
HETATM    8  C   UNL     1     -10.680   7.353  67.249  1.00  0.00    -0.379 A  
HETATM    9  C   UNL     1     -10.273  11.209  65.693  1.00  0.00    -0.310 C  
HETATM   10  C   UNL     1     -10.317   6.161  66.599  1.00  0.00    -0.249 A  
HETATM   11  C   UNL     1     -11.165  13.456  65.604  1.00  0.00    -0.307 C  
HETATM   12  C   UNL     1      -9.898  12.695  65.919  1.00  0.00    -0.251 C  
HETATM   13  C   UNL     1     -12.028  13.146  66.584  1.00  0.00    -0.451 C  
HETATM   14  C   UNL     1      -9.933  12.909  67.434  1.00  0.00    -0.217 C  
HETATM   15  C   UNL     1      -9.133   6.090  65.845  1.00  0.00    -0.117 A  
HETATM   16  C   UNL     1     -11.298  12.246  67.590  1.00  0.00    -0.374 C  
HETATM   17  C   UNL     1      -8.324   7.211  65.744  1.00  0.00    -0.144 A  
ENDROOT
BRANCH   5  18
HETATM   18  C   UNL     1     -10.488   8.761  70.385  1.00  0.00    -0.209 C  
BRANCH  18  19
HETATM   19  N   UNL     1     -11.593   7.913  70.891  1.00  0.00    -0.284 NA 
HETATM   20  C   UNL     1     -10.357   5.799  71.407  1.00  0.00    -0.279 C  
HETATM   21  C   UNL     1     -11.451   6.480  70.589  1.00  0.00    -0.374 C  
HETATM   22  C   UNL     1     -10.650   5.943  72.894  1.00  0.00    -0.265 C  
HETATM   23  C   UNL     1     -10.899   7.402  73.270  1.00  0.00    -0.417 C  
HETATM   24  C   UNL     1     -11.880   8.097  72.319  1.00  0.00    -0.382 C  
ENDBRANCH  18  19
ENDBRANCH   5  18
TORSDOF 2
ENDMDL
MODEL       41
REMARK 921   NORMALIZED FREE ENERGY PREDICTED BY IDOCK:   -5.45 KCAL/MOL
REMARK 922        TOTAL FREE ENERGY PREDICTED BY IDOCK:   -6.68 KCAL/MOL
REMARK 923 INTER-LIGAND FREE ENERGY PREDICTED BY IDOCK:   -5.98 KCAL/MOL
REMARK 924 INTRA-LIGAND FREE ENERGY PREDICTED BY IDOCK:   -0.69 KCAL/MOL
REMARK 927      BINDING AFFINITY PREDICTED BY RF-SCORE:    0.00 PKD
ROOT
HETATM    1  O   UNL     1     -11.250   8.742  67.669  1.00  0.00    -0.407 OA 
HETATM    2  C   UNL     1      -9.872   8.402  67.845  1.00  0.00    -0.170 C  
HETATM    3  H   UNL     1     -11.778   8.000  67.939  1.00  0.00     0.000 HD 
HETATM    4  C   UNL     1      -9.688   7.129  66.994  1.00  0.00    -0.222 A  
HETATM    5  C   UNL     1      -9.011   9.614  67.403  1.00  0.00    -0.141 C  
HETATM    6  C   UNL     1      -9.514   8.139  69.388  1.00  0.00    -0.162 C  
HETATM    7  C   UNL     1     -10.760   6.213  66.849  1.00  0.00    -0.413 A  
HETATM    8  C   UNL     1      -8.495   6.816  66.333  1.00  0.00    -0.126 A  
HETATM    9  C   UNL     1     -10.376   7.032  70.057  1.00  0.00    -0.217 C  
HETATM   10  C   UNL     1      -8.387   5.666  65.531  1.00  0.00    -0.139 A  
HETATM   11  C   UNL     1     -10.412   8.064  72.245  1.00  0.00    -0.344 C  
HETATM   12  C   UNL     1     -11.286   7.814  71.037  1.00  0.00    -0.282 C  
HETATM   13  C   UNL     1      -9.477   8.939  71.841  1.00  0.00    -0.301 C  
HETATM   14  C   UNL     1     -11.305   9.258  70.528  1.00  0.00    -0.306 C  
HETATM   15  C   UNL     1      -9.469   4.778  65.407  1.00  0.00    -0.159 A  
HETATM   16  C   UNL     1      -9.788   9.328  70.389  1.00  0.00    -0.290 C  
HETATM   17  C   UNL     1     -10.647   5.043  66.088  1.00  0.00    -0.321 A  
ENDROOT
BRANCH   5  18
HETATM   18  C   UNL     1      -9.148  10.177  65.975  1.00  0.00    -0.154 C  
BRANCH  18  19
HETATM   19  N   UNL     1     -10.504  10.752  65.820  1.00  0.00    -0.222 NA 
HETATM   20  C   UNL     1     -10.015  13.187  66.119  1.00  0.00    -0.291 C  
HETATM   21  C   UNL     1     -10.757  11.954  66.628  1.00  0.00    -0.256 C  
HETATM   22  C   UNL     1     -10.426  13.487  64.684  1.00  0.00    -0.439 C  
HETATM   23  C   UNL     1     -10.277  12.254  63.797  1.00  0.00    -0.427 C  
HETATM   24  C   UNL     1     -10.891  10.998  64.424  1.00  0.00    -0.192 C  
ENDBRANCH  18  19
ENDBRANCH   5  18
TORSDOF 2
ENDMDL
MODEL       42
REMARK 921   NORMALIZED FREE ENERGY PREDICTED BY IDOCK:   -5.44 KCAL/MOL
REMARK 922        TOTAL FREE ENERGY PREDICTED BY IDOCK:   -6.67 KCAL/MOL
REMARK 923 INTER-LIGAND FREE ENERGY PREDICTED BY IDOCK:   -6.06 KCAL/MOL
REMARK 924 INTRA-LIGAND FREE ENERGY PREDICTED BY IDOCK:   -0.60 KCAL/MOL
REMARK 927      BINDING AFFINITY PREDICTED BY RF-SCORE:    0.00 PKD
ROOT
HETATM    1  O   UNL     1     -10.894  12.958  69.139  1.00  0.00    -0.393 OA 
HETATM    2  C   UNL     1      -9.926  12.801  68.099  1.00  0.00    -0.229 C  
HETATM    3  H   UNL     1     -11.691  12.512  68.876  1.00  0.00     0.000 HD 
HETATM    4  C   UNL     1     -10.617  13.385  66.851  1.00  0.00    -0.273 A  
HETATM    5  C   UNL     1      -8.626  13.530  68.529  1.00  0.00    -0.088 C  
HETATM    6  C   UNL     1      -9.523  11.261  67.886  1.00  0.00    -0.179 C  
HETATM    7  C   UNL     1     -12.022  13.276  66.703  1.00  0.00    -0.446 A  
HETATM    8  C   UNL     1      -9.922  14.040  65.827  1.00  0.00    -0.319 A  
HETATM    9  C   UNL     1     -10.727  10.331  67.572  1.00  0.00    -0.348 C  
HETATM   10  C   UNL     1     -10.600  14.596  64.729  1.00  0.00    -0.379 A  
HETATM   11  C   UNL     1      -9.827   8.399  68.719  1.00  0.00    -0.180 C  
HETATM   12  C   UNL     1     -10.879   9.476  68.855  1.00  0.00    -0.177 C  
HETATM   13  C   UNL     1      -8.647   9.028  68.839  1.00  0.00    -0.131 C  
HETATM   14  C   UNL     1     -10.184  10.265  69.968  1.00  0.00    -0.214 C  
HETATM   15  C   UNL     1     -11.994  14.472  64.611  1.00  0.00    -0.478 A  
HETATM   16  C   UNL     1      -8.926  10.507  69.138  1.00  0.00    -0.171 C  
HETATM   17  C   UNL     1     -12.700  13.789  65.590  1.00  0.00    -0.523 A  
ENDROOT
BRANCH   5  18
HETATM   18  C   UNL     1      -8.664  15.032  68.874  1.00  0.00    -0.197 C  
BRANCH  18  19
HETATM   19  N   UNL     1      -7.313  15.602  68.665  1.00  0.00    -0.122 NA 
HETATM   20  C   UNL     1      -7.629  16.752  66.466  1.00  0.00    -0.334 C  
HETATM   21  C   UNL     1      -6.891  15.676  67.258  1.00  0.00    -0.162 C  
HETATM   22  C   UNL     1      -7.400  18.116  67.101  1.00  0.00    -0.216 C  
HETATM   23  C   UNL     1      -7.732  18.095  68.591  1.00  0.00    -0.309 C  
HETATM   24  C   UNL     1      -7.105  16.900  69.318  1.00  0.00    -0.192 C  
ENDBRANCH  18  19
ENDBRANCH   5  18
TORSDOF 2
ENDMDL
MODEL       43
REMARK 921   NORMALIZED FREE ENERGY PREDICTED BY IDOCK:   -5.32 KCAL/MOL
REMARK 922        TOTAL FREE ENERGY PREDICTED BY IDOCK:   -6.54 KCAL/MOL
REMARK 923 INTER-LIGAND FREE ENERGY PREDICTED BY IDOCK:   -6.09 KCAL/MOL
REMARK 924 INTRA-LIGAND FREE ENERGY PREDICTED BY IDOCK:   -0.44 KCAL/MOL
REMARK 927      BINDING AFFINITY PREDICTED BY RF-SCORE:    0.00 PKD
ROOT
HETATM    1  O   UNL     1     -10.900  13.193  67.771  1.00  0.00    -0.236 OA 
HETATM    2  C   UNL     1     -10.182  12.242  66.981  1.00  0.00    -0.215 C  
HETATM    3  H   UNL     1     -10.659  14.065  67.481  1.00  0.00     0.000 HD 
HETATM    4  C   UNL     1      -8.702  12.615  67.198  1.00  0.00    -0.201 A  
HETATM    5  C   UNL     1     -10.575  10.819  67.455  1.00  0.00    -0.280 C  
HETATM    6  C   UNL     1     -10.591  12.324  65.430  1.00  0.00    -0.309 C  
HETATM    7  C   UNL     1      -8.335  13.967  67.409  1.00  0.00    -0.207 A  
HETATM    8  C   UNL     1      -7.668  11.671  67.205  1.00  0.00    -0.159 A  
HETATM    9  C   UNL     1     -10.392  13.729  64.797  1.00  0.00    -0.422 C  
HETATM   10  C   UNL     1      -6.338  12.051  67.451  1.00  0.00    -0.138 A  
HETATM   11  C   UNL     1     -12.281  13.571  63.293  1.00  0.00    -0.214 C  
HETATM   12  C   UNL     1     -11.836  14.242  64.573  1.00  0.00    -0.456 C  
HETATM   13  C   UNL     1     -12.401  12.267  63.590  1.00  0.00    -0.664 C  
HETATM   14  C   UNL     1     -12.721  13.426  65.519  1.00  0.00    -0.469 C  
HETATM   15  C   UNL     1      -6.006  13.401  67.658  1.00  0.00    -0.111 A  
HETATM   16  C   UNL     1     -12.115  12.095  65.088  1.00  0.00    -0.285 C  
HETATM   17  C   UNL     1      -7.006  14.360  67.611  1.00  0.00    -0.203 A  
ENDROOT
BRANCH   5  18
HETATM   18  C   UNL     1     -10.370  10.414  68.928  1.00  0.00    -0.209 C  
BRANCH  18  19
HETATM   19  N   UNL     1      -9.579   9.162  68.971  1.00  0.00    -0.154 NA 
HETATM   20  C   UNL     1      -9.340   8.849  71.442  1.00  0.00    -0.338 C  
HETATM   21  C   UNL     1      -8.643   9.069  70.102  1.00  0.00    -0.160 C  
HETATM   22  C   UNL     1     -10.159   7.567  71.399  1.00  0.00    -0.201 C  
HETATM   23  C   UNL     1     -11.097   7.549  70.194  1.00  0.00    -0.246 C  
HETATM   24  C   UNL     1     -10.390   7.941  68.891  1.00  0.00    -0.213 C  
ENDBRANCH  18  19
ENDBRANCH   5  18
TORSDOF 2
ENDMDL
MODEL       44
REMARK 921   NORMALIZED FREE ENERGY PREDICTED BY IDOCK:   -5.31 KCAL/MOL
REMARK 922        TOTAL FREE ENERGY PREDICTED BY IDOCK:   -6.52 KCAL/MOL
REMARK 923 INTER-LIGAND FREE ENERGY PREDICTED BY IDOCK:   -6.06 KCAL/MOL
REMARK 924 INTRA-LIGAND FREE ENERGY PREDICTED BY IDOCK:   -0.46 KCAL/MOL
REMARK 927      BINDING AFFINITY PREDICTED BY RF-SCORE:    0.00 PKD
ROOT
HETATM    1  O   UNL     1     -12.450  12.717  67.875  1.00  0.00    -0.062 OA 
HETATM    2  C   UNL     1     -11.131  12.480  68.372  1.00  0.00    -0.258 C  
HETATM    3  H   UNL     1     -13.032  12.840  68.617  1.00  0.00     0.000 HD 
HETATM    4  C   UNL     1     -11.290  11.248  69.286  1.00  0.00    -0.354 A  
HETATM    5  C   UNL     1     -10.183  12.279  67.161  1.00  0.00    -0.224 C  
HETATM    6  C   UNL     1     -10.560  13.745  69.180  1.00  0.00    -0.099 C  
HETATM    7  C   UNL     1     -12.497  11.046  70.000  1.00  0.00    -0.319 A  
HETATM    8  C   UNL     1     -10.287  10.285  69.454  1.00  0.00    -0.256 A  
HETATM    9  C   UNL     1     -11.455  14.190  70.371  1.00  0.00    -0.149 C  
HETATM   10  C   UNL     1     -10.493   9.154  70.262  1.00  0.00    -0.257 A  
HETATM   11  C   UNL     1     -10.962  16.549  70.155  1.00  0.00    -0.215 C  
HETATM   12  C   UNL     1     -12.056  15.537  69.899  1.00  0.00    -0.378 C  
HETATM   13  C   UNL     1      -9.988  16.260  69.279  1.00  0.00    -0.259 C  
HETATM   14  C   UNL     1     -11.942  15.534  68.372  1.00  0.00    -0.123 C  
HETATM   15  C   UNL     1     -11.702   8.983  70.957  1.00  0.00    -0.353 A  
HETATM   16  C   UNL     1     -10.477  15.109  68.389  1.00  0.00    -0.233 C  
HETATM   17  C   UNL     1     -12.694   9.945  70.843  1.00  0.00    -0.376 A  
ENDROOT
BRANCH   5  18
HETATM   18  C   UNL     1     -10.473  11.170  66.132  1.00  0.00    -0.253 C  
BRANCH  18  19
HETATM   19  N   UNL     1     -10.064  11.648  64.791  1.00  0.00    -0.251 NA 
HETATM   20  C   UNL     1     -12.290  11.819  63.660  1.00  0.00    -0.488 C  
HETATM   21  C   UNL     1     -10.909  11.168  63.686  1.00  0.00    -0.242 C  
HETATM   22  C   UNL     1     -12.152  13.329  63.530  1.00  0.00    -0.550 C  
HETATM   23  C   UNL     1     -11.213  13.893  64.593  1.00  0.00    -0.380 C  
HETATM   24  C   UNL     1      -9.903  13.104  64.701  1.00  0.00     0.012 C  
ENDBRANCH  18  19
ENDBRANCH   5  18
TORSDOF 2
ENDMDL
MODEL       45
REMARK 921   NORMALIZED FREE ENERGY PREDICTED BY IDOCK:   -5.31 KCAL/MOL
REMARK 922        TOTAL FREE ENERGY PREDICTED BY IDOCK:   -6.52 KCAL/MOL
REMARK 923 INTER-LIGAND FREE ENERGY PREDICTED BY IDOCK:   -7.11 KCAL/MOL
REMARK 924 INTRA-LIGAND FREE ENERGY PREDICTED BY IDOCK:    0.59 KCAL/MOL
REMARK 927      BINDING AFFINITY PREDICTED BY RF-SCORE:    0.00 PKD
ROOT
HETATM    1  O   UNL     1     -12.591  14.701  67.800  1.00  0.00    -0.446 OA 
HETATM    2  C   UNL     1     -11.254  14.599  68.298  1.00  0.00    -0.285 C  
HETATM    3  H   UNL     1     -13.056  13.904  68.029  1.00  0.00     0.000 HD 
HETATM    4  C   UNL     1     -10.706  13.315  67.644  1.00  0.00    -0.250 A  
HETATM    5  C   UNL     1     -10.495  15.899  67.924  1.00  0.00    -0.288 C  
HETATM    6  C   UNL     1     -11.219  14.508  69.901  1.00  0.00    -0.247 C  
HETATM    7  C   UNL     1     -11.578  12.231  67.373  1.00  0.00    -0.425 A  
HETATM    8  C   UNL     1      -9.362  13.151  67.287  1.00  0.00    -0.225 A  
HETATM    9  C   UNL     1     -12.045  13.329  70.485  1.00  0.00    -0.391 C  
HETATM   10  C   UNL     1      -8.917  11.979  66.652  1.00  0.00    -0.204 A  
HETATM   11  C   UNL     1     -12.718  14.496  72.495  1.00  0.00    -0.433 C  
HETATM   12  C   UNL     1     -13.253  14.022  71.162  1.00  0.00    -0.337 C  
HETATM   13  C   UNL     1     -11.850  15.478  72.208  1.00  0.00    -0.560 C  
HETATM   14  C   UNL     1     -13.361  15.404  70.512  1.00  0.00    -0.173 C  
HETATM   15  C   UNL     1      -9.806  10.921  66.396  1.00  0.00    -0.249 A  
HETATM   16  C   UNL     1     -11.876  15.707  70.691  1.00  0.00    -0.409 C  
HETATM   17  C   UNL     1     -11.133  11.042  66.781  1.00  0.00    -0.240 A  
ENDROOT
BRANCH   5  18
HETATM   18  C   UNL     1     -10.385  16.329  66.448  1.00  0.00    -0.314 C  
BRANCH  18  19
HETATM   19  N   UNL     1      -9.008  16.813  66.195  1.00  0.00    -0.436 NA 
HETATM   20  C   UNL     1      -8.905  18.759  67.765  1.00  0.00    -0.313 C  
HETATM   21  C   UNL     1      -8.838  18.269  66.321  1.00  0.00    -0.178 C  
HETATM   22  C   UNL     1      -7.823  18.084  68.595  1.00  0.00    -0.298 C  
HETATM   23  C   UNL     1      -7.877  16.565  68.445  1.00  0.00    -0.187 C  
HETATM   24  C   UNL     1      -7.979  16.121  66.982  1.00  0.00    -0.219 C  
ENDBRANCH  18  19
ENDBRANCH   5  18
TORSDOF 2
ENDMDL
MODEL       46
REMARK 921   NORMALIZED FREE ENERGY PREDICTED BY IDOCK:   -5.29 KCAL/MOL
REMARK 922        TOTAL FREE ENERGY PREDICTED BY IDOCK:   -6.50 KCAL/MOL
REMARK 923 INTER-LIGAND FREE ENERGY PREDICTED BY IDOCK:   -6.05 KCAL/MOL
REMARK 924 INTRA-LIGAND FREE ENERGY PREDICTED BY IDOCK:   -0.46 KCAL/MOL
REMARK 927      BINDING AFFINITY PREDICTED BY RF-SCORE:    0.00 PKD
ROOT
HETATM    1  O   UNL     1     -12.043  11.285  67.903  1.00  0.00    -0.634 OA 
HETATM    2  C   UNL     1     -10.831  11.882  67.437  1.00  0.00    -0.243 C  
HETATM    3  H   UNL     1     -12.360  10.689  67.233  1.00  0.00     0.000 HD 
HETATM    4  C   UNL     1     -11.229  12.551  66.106  1.00  0.00    -0.362 A  
HETATM    5  C   UNL     1     -10.316  12.855  68.530  1.00  0.00    -0.239 C  
HETATM    6  C   UNL     1      -9.670  10.793  67.227  1.00  0.00    -0.187 C  
HETATM    7  C   UNL     1     -12.236  11.971  65.295  1.00  0.00    -0.027 A  
HETATM    8  C   UNL     1     -10.644  13.734  65.638  1.00  0.00    -0.302 A  
HETATM    9  C   UNL     1     -10.051   9.644  66.252  1.00  0.00    -0.322 C  
HETATM   10  C   UNL     1     -11.071  14.332  64.440  1.00  0.00    -0.235 A  
HETATM   11  C   UNL     1      -8.781   7.937  67.404  1.00  0.00    -0.128 C  
HETATM   12  C   UNL     1     -10.199   8.409  67.174  1.00  0.00    -0.362 C  
HETATM   13  C   UNL     1      -8.201   8.885  68.157  1.00  0.00    -0.114 C  
HETATM   14  C   UNL     1     -10.432   8.964  68.582  1.00  0.00    -0.223 C  
HETATM   15  C   UNL     1     -12.072  13.732  63.659  1.00  0.00    -0.330 A  
HETATM   16  C   UNL     1      -9.264   9.940  68.492  1.00  0.00    -0.136 C  
HETATM   17  C   UNL     1     -12.637  12.537  64.078  1.00  0.00    -0.481 A  
ENDROOT
BRANCH   5  18
HETATM   18  C   UNL     1     -11.215  14.006  69.023  1.00  0.00    -0.276 C  
BRANCH  18  19
HETATM   19  N   UNL     1     -10.374  14.991  69.742  1.00  0.00    -0.196 NA 
HETATM   20  C   UNL     1      -8.770  15.639  67.934  1.00  0.00    -0.166 C  
HETATM   21  C   UNL     1      -8.966  15.020  69.315  1.00  0.00    -0.158 C  
HETATM   22  C   UNL     1      -9.298  17.067  67.922  1.00  0.00    -0.240 C  
HETATM   23  C   UNL     1     -10.733  17.130  68.440  1.00  0.00    -0.347 C  
HETATM   24  C   UNL     1     -10.923  16.352  69.747  1.00  0.00    -0.341 C  
ENDBRANCH  18  19
ENDBRANCH   5  18
TORSDOF 2
ENDMDL
MODEL       47
REMARK 921   NORMALIZED FREE ENERGY PREDICTED BY IDOCK:   -5.26 KCAL/MOL
REMARK 922        TOTAL FREE ENERGY PREDICTED BY IDOCK:   -6.46 KCAL/MOL
REMARK 923 INTER-LIGAND FREE ENERGY PREDICTED BY IDOCK:   -5.92 KCAL/MOL
REMARK 924 INTRA-LIGAND FREE ENERGY PREDICTED BY IDOCK:   -0.54 KCAL/MOL
REMARK 927      BINDING AFFINITY PREDICTED BY RF-SCORE:    0.00 PKD
ROOT
HETATM    1  O   UNL     1     -10.344   9.831  65.843  1.00  0.00    -0.214 OA 
HETATM    2  C   UNL     1      -9.455  10.942  65.709  1.00  0.00    -0.211 C  
HETATM    3  H   UNL     1     -10.736   9.658  64.994  1.00  0.00     0.000 HD 
HETATM    4  C   UNL     1     -10.348  12.074  65.162  1.00  0.00    -0.313 A  
HETATM    5  C   UNL     1      -8.816  11.224  67.094  1.00  0.00    -0.153 C  
HETATM    6  C   UNL     1      -8.237  10.617  64.715  1.00  0.00    -0.038 C  
HETATM    7  C   UNL     1     -11.432  11.769  64.303  1.00  0.00    -0.386 A  
HETATM    8  C   UNL     1     -10.150  13.424  65.476  1.00  0.00    -0.279 A  
HETATM    9  C   UNL     1      -8.683  10.180  63.292  1.00  0.00    -0.214 C  
HETATM   10  C   UNL     1     -11.017  14.418  64.990  1.00  0.00    -0.398 A  
HETATM   11  C   UNL     1      -6.842   8.649  62.937  1.00  0.00    -0.090 C  
HETATM   12  C   UNL     1      -8.323   8.674  63.238  1.00  0.00    -0.137 C  
HETATM   13  C   UNL     1      -6.241   9.127  64.039  1.00  0.00    -0.083 C  
HETATM   14  C   UNL     1      -8.218   8.217  64.695  1.00  0.00    -0.145 C  
HETATM   15  C   UNL     1     -12.084  14.083  64.140  1.00  0.00    -0.456 A  
HETATM   16  C   UNL     1      -7.324   9.387  65.095  1.00  0.00    -0.104 C  
HETATM   17  C   UNL     1     -12.274  12.758  63.779  1.00  0.00    -0.572 A  
ENDROOT
BRANCH   5  18
HETATM   18  C   UNL     1      -9.714  11.520  68.311  1.00  0.00    -0.198 C  
BRANCH  18  19
HETATM   19  N   UNL     1     -10.712  10.433  68.441  1.00  0.00    -0.209 NA 
HETATM   20  C   UNL     1     -10.022   9.427  70.625  1.00  0.00    -0.349 C  
HETATM   21  C   UNL     1     -10.220   9.228  69.124  1.00  0.00    -0.206 C  
HETATM   22  C   UNL     1     -11.337   9.834  71.274  1.00  0.00    -0.445 C  
HETATM   23  C   UNL     1     -11.960  11.031  70.559  1.00  0.00    -0.474 C  
HETATM   24  C   UNL     1     -11.985  10.861  69.036  1.00  0.00    -0.251 C  
ENDBRANCH  18  19
ENDBRANCH   5  18
TORSDOF 2
ENDMDL
MODEL       48
REMARK 921   NORMALIZED FREE ENERGY PREDICTED BY IDOCK:   -5.24 KCAL/MOL
REMARK 922        TOTAL FREE ENERGY PREDICTED BY IDOCK:   -6.44 KCAL/MOL
REMARK 923 INTER-LIGAND FREE ENERGY PREDICTED BY IDOCK:   -5.85 KCAL/MOL
REMARK 924 INTRA-LIGAND FREE ENERGY PREDICTED BY IDOCK:   -0.59 KCAL/MOL
REMARK 927      BINDING AFFINITY PREDICTED BY RF-SCORE:    0.00 PKD
ROOT
HETATM    1  O   UNL     1      -9.379  10.961  69.666  1.00  0.00    -0.395 OA 
HETATM    2  C   UNL     1     -10.200  10.306  68.696  1.00  0.00    -0.180 C  
HETATM    3  H   UNL     1      -9.928  11.546  70.176  1.00  0.00     0.000 HD 
HETATM    4  C   UNL     1     -10.835  11.463  67.899  1.00  0.00    -0.274 A  
HETATM    5  C   UNL     1      -9.305   9.352  67.863  1.00  0.00    -0.142 C  
HETATM    6  C   UNL     1     -11.317   9.381  69.385  1.00  0.00     0.078 C  
HETATM    7  C   UNL     1     -11.127  12.691  68.543  1.00  0.00    -0.300 A  
HETATM    8  C   UNL     1     -11.145  11.375  66.536  1.00  0.00    -0.312 A  
HETATM    9  C   UNL     1     -12.246  10.140  70.372  1.00  0.00    -0.300 C  
HETATM   10  C   UNL     1     -11.682  12.471  65.840  1.00  0.00    -0.480 A  
HETATM   11  C   UNL     1     -12.535   8.278  71.890  1.00  0.00    -0.376 C  
HETATM   12  C   UNL     1     -11.823   9.606  71.763  1.00  0.00    -0.391 C  
HETATM   13  C   UNL     1     -11.949   7.466  70.996  1.00  0.00    -0.337 C  
HETATM   14  C   UNL     1     -10.414   9.036  71.581  1.00  0.00    -0.426 C  
HETATM   15  C   UNL     1     -11.959  13.676  66.507  1.00  0.00    -0.465 A  
HETATM   16  C   UNL     1     -10.796   8.237  70.340  1.00  0.00    -0.241 C  
HETATM   17  C   UNL     1     -11.702  13.774  67.866  1.00  0.00    -0.395 A  
ENDROOT
BRANCH   5  18
HETATM   18  C   UNL     1      -8.083   9.908  67.105  1.00  0.00    -0.117 C  
BRANCH  18  19
HETATM   19  N   UNL     1      -7.636   8.898  66.119  1.00  0.00    -0.090 NA 
HETATM   20  C   UNL     1      -8.665   9.806  64.026  1.00  0.00    -0.235 C  
HETATM   21  C   UNL     1      -8.585   8.652  65.022  1.00  0.00    -0.158 C  
HETATM   22  C   UNL     1      -7.294  10.064  63.417  1.00  0.00    -0.137 C  
HETATM   23  C   UNL     1      -6.232  10.241  64.499  1.00  0.00    -0.115 C  
HETATM   24  C   UNL     1      -6.296   9.150  65.573  1.00  0.00    -0.067 C  
ENDBRANCH  18  19
ENDBRANCH   5  18
TORSDOF 2
ENDMDL
MODEL       49
REMARK 921   NORMALIZED FREE ENERGY PREDICTED BY IDOCK:   -5.20 KCAL/MOL
REMARK 922        TOTAL FREE ENERGY PREDICTED BY IDOCK:   -6.40 KCAL/MOL
REMARK 923 INTER-LIGAND FREE ENERGY PREDICTED BY IDOCK:   -5.86 KCAL/MOL
REMARK 924 INTRA-LIGAND FREE ENERGY PREDICTED BY IDOCK:   -0.54 KCAL/MOL
REMARK 927      BINDING AFFINITY PREDICTED BY RF-SCORE:    0.00 PKD
ROOT
HETATM    1  O   UNL     1     -10.250  10.466  70.566  1.00  0.00    -0.358 OA 
HETATM    2  C   UNL     1     -11.152  10.111  69.515  1.00  0.00    -0.250 C  
HETATM    3  H   UNL     1     -10.657  11.144  71.093  1.00  0.00     0.000 HD 
HETATM    4  C   UNL     1     -11.412  11.440  68.778  1.00  0.00    -0.354 A  
HETATM    5  C   UNL     1     -10.487   9.005  68.655  1.00  0.00    -0.229 C  
HETATM    6  C   UNL     1     -12.512   9.475  70.085  1.00  0.00     0.374 C  
HETATM    7  C   UNL     1     -11.412  12.660  69.498  1.00  0.00    -0.294 A  
HETATM    8  C   UNL     1     -11.650  11.517  67.401  1.00  0.00    -0.307 A  
HETATM    9  C   UNL     1     -13.269  10.393  71.084  1.00  0.00    -0.399 C  
HETATM   10  C   UNL     1     -11.837  12.756  66.764  1.00  0.00    -0.452 A  
HETATM   11  C   UNL     1     -14.128   8.588  72.447  1.00  0.00    -0.391 C  
HETATM   12  C   UNL     1     -13.087   9.685  72.449  1.00  0.00    -0.389 C  
HETATM   13  C   UNL     1     -13.721   7.704  71.522  1.00  0.00    -0.440 C  
HETATM   14  C   UNL     1     -11.867   8.774  72.288  1.00  0.00    -0.403 C  
HETATM   15  C   UNL     1     -11.831  13.950  67.505  1.00  0.00    -0.431 A  
HETATM   16  C   UNL     1     -12.368   8.179  70.975  1.00  0.00    -0.152 C  
HETATM   17  C   UNL     1     -11.642  13.895  68.878  1.00  0.00    -0.353 A  
ENDROOT
BRANCH   5  18
HETATM   18  C   UNL     1      -9.118   9.261  67.995  1.00  0.00    -0.127 C  
BRANCH  18  19
HETATM   19  N   UNL     1      -9.080   8.557  66.692  1.00  0.00    -0.155 NA 
HETATM   20  C   UNL     1      -8.587  10.462  65.148  1.00  0.00    -0.189 C  
HETATM   21  C   UNL     1      -9.555   9.353  65.551  1.00  0.00    -0.258 C  
HETATM   22  C   UNL     1      -7.236   9.866  64.778  1.00  0.00    -0.136 C  
HETATM   23  C   UNL     1      -6.715   8.950  65.882  1.00  0.00    -0.068 C  
HETATM   24  C   UNL     1      -7.776   7.959  66.376  1.00  0.00    -0.096 C  
ENDBRANCH  18  19
ENDBRANCH   5  18
TORSDOF 2
ENDMDL
MODEL       50
REMARK 921   NORMALIZED FREE ENERGY PREDICTED BY IDOCK:   -5.19 KCAL/MOL
REMARK 922        TOTAL FREE ENERGY PREDICTED BY IDOCK:   -6.38 KCAL/MOL
REMARK 923 INTER-LIGAND FREE ENERGY PREDICTED BY IDOCK:   -5.71 KCAL/MOL
REMARK 924 INTRA-LIGAND FREE ENERGY PREDICTED BY IDOCK:   -0.67 KCAL/MOL
REMARK 927      BINDING AFFINITY PREDICTED BY RF-SCORE:    0.00 PKD
ROOT
HETATM    1  O   UNL     1     -11.113   9.639  67.260  1.00  0.00    -0.329 OA 
HETATM    2  C   UNL     1     -10.111  10.531  67.753  1.00  0.00    -0.175 C  
HETATM    3  H   UNL     1     -11.328   9.893  66.370  1.00  0.00     0.000 HD 
HETATM    4  C   UNL     1     -10.748  11.928  67.610  1.00  0.00    -0.253 A  
HETATM    5  C   UNL     1      -9.761  10.116  69.206  1.00  0.00    -0.238 C  
HETATM    6  C   UNL     1      -8.745  10.417  66.915  1.00  0.00    -0.130 C  
HETATM    7  C   UNL     1     -11.647  12.192  66.547  1.00  0.00    -0.425 A  
HETATM    8  C   UNL     1     -10.490  12.981  68.496  1.00  0.00    -0.261 A  
HETATM    9  C   UNL     1      -8.915  10.672  65.392  1.00  0.00    -0.208 C  
HETATM   10  C   UNL     1     -11.129  14.225  68.353  1.00  0.00    -0.274 A  
HETATM   11  C   UNL     1      -7.202   9.105  64.707  1.00  0.00    -0.097 C  
HETATM   12  C   UNL     1      -8.704   9.274  64.757  1.00  0.00    -0.220 C  
HETATM   13  C   UNL     1      -6.808   8.987  65.984  1.00  0.00    -0.080 C  
HETATM   14  C   UNL     1      -8.960   8.263  65.877  1.00  0.00    -0.208 C  
HETATM   15  C   UNL     1     -12.016  14.455  67.288  1.00  0.00    -0.409 A  
HETATM   16  C   UNL     1      -8.062   8.994  66.870  1.00  0.00    -0.112 C  
HETATM   17  C   UNL     1     -12.254  13.442  66.372  1.00  0.00    -0.435 A  
ENDROOT
BRANCH   5  18
HETATM   18  C   UNL     1     -10.866  10.059  70.278  1.00  0.00    -0.313 C  
BRANCH  18  19
HETATM   19  N   UNL     1     -11.508   8.725  70.228  1.00  0.00    -0.159 NA 
HETATM   20  C   UNL     1      -9.758   7.326  71.341  1.00  0.00    -0.170 C  
HETATM   21  C   UNL     1     -10.571   7.600  70.079  1.00  0.00    -0.238 C  
HETATM   22  C   UNL     1     -10.689   7.015  72.504  1.00  0.00    -0.273 C  
HETATM   23  C   UNL     1     -11.752   8.099  72.667  1.00  0.00    -0.419 C  
HETATM   24  C   UNL     1     -12.429   8.464  71.341  1.00  0.00    -0.288 C  
ENDBRANCH  18  19
ENDBRANCH   5  18
TORSDOF 2
ENDMDL
MODEL       51
REMARK 921   NORMALIZED FREE ENERGY PREDICTED BY IDOCK:   -5.18 KCAL/MOL
REMARK 922        TOTAL FREE ENERGY PREDICTED BY IDOCK:   -6.37 KCAL/MOL
REMARK 923 INTER-LIGAND FREE ENERGY PREDICTED BY IDOCK:   -5.83 KCAL/MOL
REMARK 924 INTRA-LIGAND FREE ENERGY PREDICTED BY IDOCK:   -0.54 KCAL/MOL
REMARK 927      BINDING AFFINITY PREDICTED BY RF-SCORE:    0.00 PKD
ROOT
HETATM    1  O   UNL     1     -10.543   8.497  68.201  1.00  0.00    -0.343 OA 
HETATM    2  C   UNL     1     -10.234   9.635  69.011  1.00  0.00    -0.199 C  
HETATM    3  H   UNL     1      -9.930   7.803  68.415  1.00  0.00     0.000 HD 
HETATM    4  C   UNL     1      -8.760   9.942  68.679  1.00  0.00    -0.124 A  
HETATM    5  C   UNL     1     -11.234  10.768  68.661  1.00  0.00    -0.333 C  
HETATM    6  C   UNL     1     -10.437   9.328  70.574  1.00  0.00    -0.312 C  
HETATM    7  C   UNL     1      -7.872   8.888  68.353  1.00  0.00    -0.104 A  
HETATM    8  C   UNL     1      -8.231  11.239  68.675  1.00  0.00    -0.146 A  
HETATM    9  C   UNL     1      -9.606   8.122  71.094  1.00  0.00    -0.196 C  
HETATM   10  C   UNL     1      -6.892  11.476  68.323  1.00  0.00    -0.066 A  
HETATM   11  C   UNL     1     -11.248   7.398  72.717  1.00  0.00    -0.380 C  
HETATM   12  C   UNL     1     -10.670   7.031  71.370  1.00  0.00    -0.241 C  
HETATM   13  C   UNL     1     -11.936   8.533  72.520  1.00  0.00    -0.401 C  
HETATM   14  C   UNL     1     -11.894   7.421  70.538  1.00  0.00    -0.187 C  
HETATM   15  C   UNL     1      -6.036  10.408  68.003  1.00  0.00    -0.047 A  
HETATM   16  C   UNL     1     -11.879   8.867  71.022  1.00  0.00    -0.324 C  
HETATM   17  C   UNL     1      -6.525   9.112  68.043  1.00  0.00    -0.059 A  
ENDROOT
BRANCH   5  18
HETATM   18  C   UNL     1     -11.347  11.275  67.211  1.00  0.00    -0.255 C  
BRANCH  18  19
HETATM   19  N   UNL     1     -12.142  12.525  67.205  1.00  0.00    -0.495 NA 
HETATM   20  C   UNL     1     -10.499  14.125  68.207  1.00  0.00    -0.249 C  
HETATM   21  C   UNL     1     -11.857  13.437  68.324  1.00  0.00    -0.358 C  
HETATM   22  C   UNL     1     -10.430  14.926  66.915  1.00  0.00    -0.280 C  
HETATM   23  C   UNL     1     -10.803  14.065  65.710  1.00  0.00    -0.291 C  
HETATM   24  C   UNL     1     -12.088  13.260  65.935  1.00  0.00    -0.441 C  
ENDBRANCH  18  19
ENDBRANCH   5  18
TORSDOF 2
ENDMDL
MODEL       52
REMARK 921   NORMALIZED FREE ENERGY PREDICTED BY IDOCK:   -5.14 KCAL/MOL
REMARK 922        TOTAL FREE ENERGY PREDICTED BY IDOCK:   -6.33 KCAL/MOL
REMARK 923 INTER-LIGAND FREE ENERGY PREDICTED BY IDOCK:   -5.89 KCAL/MOL
REMARK 924 INTRA-LIGAND FREE ENERGY PREDICTED BY IDOCK:   -0.44 KCAL/MOL
REMARK 927      BINDING AFFINITY PREDICTED BY RF-SCORE:    0.00 PKD
ROOT
HETATM    1  O   UNL     1     -11.317   7.072  68.221  1.00  0.00    -0.500 OA 
HETATM    2  C   UNL     1     -10.249   7.908  68.673  1.00  0.00    -0.205 C  
HETATM    3  H   UNL     1     -11.108   6.173  68.444  1.00  0.00     0.000 HD 
HETATM    4  C   UNL     1      -9.001   7.335  67.970  1.00  0.00    -0.131 A  
HETATM    5  C   UNL     1     -10.590   9.376  68.308  1.00  0.00    -0.256 C  
HETATM    6  C   UNL     1     -10.096   7.870  70.271  1.00  0.00    -0.196 C  
HETATM    7  C   UNL     1      -8.915   5.947  67.699  1.00  0.00    -0.107 A  
HETATM    8  C   UNL     1      -7.920   8.127  67.565  1.00  0.00    -0.122 A  
HETATM    9  C   UNL     1      -9.876   6.445  70.851  1.00  0.00    -0.204 C  
HETATM   10  C   UNL     1      -6.823   7.569  66.887  1.00  0.00    -0.070 A  
HETATM   11  C   UNL     1     -11.080   6.850  72.911  1.00  0.00    -0.297 C  
HETATM   12  C   UNL     1     -11.205   6.135  71.584  1.00  0.00    -0.342 C  
HETATM   13  C   UNL     1     -11.122   8.160  72.622  1.00  0.00    -0.450 C  
HETATM   14  C   UNL     1     -12.248   7.073  70.973  1.00  0.00    -0.419 C  
HETATM   15  C   UNL     1      -6.768   6.188  66.632  1.00  0.00    -0.060 A  
HETATM   16  C   UNL     1     -11.359   8.305  71.112  1.00  0.00    -0.298 C  
HETATM   17  C   UNL     1      -7.806   5.376  67.062  1.00  0.00    -0.101 A  
ENDROOT
BRANCH   5  18
HETATM   18  C   UNL     1     -10.862   9.762  66.841  1.00  0.00    -0.050 C  
BRANCH  18  19
HETATM   19  N   UNL     1     -10.180  11.045  66.553  1.00  0.00    -0.226 NA 
HETATM   20  C   UNL     1     -10.262  11.063  64.052  1.00  0.00    -0.420 C  
HETATM   21  C   UNL     1      -9.396  11.055  65.309  1.00  0.00    -0.216 C  
HETATM   22  C   UNL     1     -11.167  12.287  64.050  1.00  0.00    -0.456 C  
HETATM   23  C   UNL     1     -11.953  12.395  65.355  1.00  0.00    -0.457 C  
HETATM   24  C   UNL     1     -11.068  12.214  66.593  1.00  0.00    -0.306 C  
ENDBRANCH  18  19
ENDBRANCH   5  18
TORSDOF 2
ENDMDL
MODEL       53
REMARK 921   NORMALIZED FREE ENERGY PREDICTED BY IDOCK:   -5.08 KCAL/MOL
REMARK 922        TOTAL FREE ENERGY PREDICTED BY IDOCK:   -6.27 KCAL/MOL
REMARK 923 INTER-LIGAND FREE ENERGY PREDICTED BY IDOCK:   -5.77 KCAL/MOL
REMARK 924 INTRA-LIGAND FREE ENERGY PREDICTED BY IDOCK:   -0.49 KCAL/MOL
REMARK 927      BINDING AFFINITY PREDICTED BY RF-SCORE:    0.00 PKD
ROOT
HETATM    1  O   UNL     1      -8.835   8.767  69.075  1.00  0.00    -0.135 OA 
HETATM    2  C   UNL     1     -10.063   8.981  68.375  1.00  0.00    -0.191 C  
HETATM    3  H   UNL     1      -8.998   8.155  69.784  1.00  0.00     0.000 HD 
HETATM    4  C   UNL     1     -11.033   9.485  69.462  1.00  0.00    -0.217 A  
HETATM    5  C   UNL     1      -9.798   9.980  67.219  1.00  0.00    -0.225 C  
HETATM    6  C   UNL     1     -10.599   7.633  67.685  1.00  0.00    -0.294 C  
HETATM    7  C   UNL     1     -10.905   9.024  70.796  1.00  0.00    -0.310 A  
HETATM    8  C   UNL     1     -12.059  10.404  69.207  1.00  0.00    -0.022 A  
HETATM    9  C   UNL     1     -10.805   6.454  68.676  1.00  0.00    -0.379 C  
HETATM   10  C   UNL     1     -12.891  10.870  70.239  1.00  0.00    -0.209 A  
HETATM   11  C   UNL     1     -10.192   4.723  67.100  1.00  0.00    -0.181 C  
HETATM   12  C   UNL     1      -9.672   5.462  68.311  1.00  0.00    -0.175 C  
HETATM   13  C   UNL     1     -10.218   5.626  66.107  1.00  0.00    -0.093 C  
HETATM   14  C   UNL     1      -8.614   6.289  67.575  1.00  0.00    -0.107 C  
HETATM   15  C   UNL     1     -12.738  10.393  71.551  1.00  0.00    -0.564 A  
HETATM   16  C   UNL     1      -9.634   6.939  66.646  1.00  0.00    -0.218 C  
HETATM   17  C   UNL     1     -11.758   9.450  71.821  1.00  0.00    -0.444 A  
ENDROOT
BRANCH   5  18
HETATM   18  C   UNL     1      -9.216  11.374  67.524  1.00  0.00    -0.160 C  
BRANCH  18  19
HETATM   19  N   UNL     1      -9.429  12.246  66.346  1.00  0.00    -0.235 NA 
HETATM   20  C   UNL     1     -11.927  12.383  66.315  1.00  0.00    -0.369 C  
HETATM   21  C   UNL     1     -10.655  11.959  65.586  1.00  0.00    -0.268 C  
HETATM   22  C   UNL     1     -11.889  13.877  66.604  1.00  0.00    -0.447 C  
HETATM   23  C   UNL     1     -10.597  14.269  67.317  1.00  0.00    -0.278 C  
HETATM   24  C   UNL     1      -9.351  13.682  66.645  1.00  0.00    -0.254 C  
ENDBRANCH  18  19
ENDBRANCH   5  18
TORSDOF 2
ENDMDL
MODEL       54
REMARK 921   NORMALIZED FREE ENERGY PREDICTED BY IDOCK:   -5.07 KCAL/MOL
REMARK 922        TOTAL FREE ENERGY PREDICTED BY IDOCK:   -6.26 KCAL/MOL
REMARK 923 INTER-LIGAND FREE ENERGY PREDICTED BY IDOCK:   -5.83 KCAL/MOL
REMARK 924 INTRA-LIGAND FREE ENERGY PREDICTED BY IDOCK:   -0.43 KCAL/MOL
REMARK 927      BINDING AFFINITY PREDICTED BY RF-SCORE:    0.00 PKD
ROOT
HETATM    1  O   UNL     1      -9.951  14.320  70.002  1.00  0.00    -0.053 OA 
HETATM    2  C   UNL     1     -11.207  14.228  69.326  1.00  0.00    -0.273 C  
HETATM    3  H   UNL     1      -9.963  13.718  70.737  1.00  0.00     0.000 HD 
HETATM    4  C   UNL     1     -12.247  14.553  70.417  1.00  0.00    -0.394 A  
HETATM    5  C   UNL     1     -11.188  15.211  68.127  1.00  0.00    -0.326 C  
HETATM    6  C   UNL     1     -11.444  12.768  68.701  1.00  0.00    -0.341 C  
HETATM    7  C   UNL     1     -11.998  14.188  71.764  1.00  0.00     0.001 A  
HETATM    8  C   UNL     1     -13.454  15.211  70.153  1.00  0.00     0.346 A  
HETATM    9  C   UNL     1     -11.368  11.616  69.741  1.00  0.00    -0.276 C  
HETATM   10  C   UNL     1     -14.351  15.527  71.188  1.00  0.00    -0.128 A  
HETATM   11  C   UNL     1     -10.414   9.996  68.216  1.00  0.00    -0.246 C  
HETATM   12  C   UNL     1     -10.050  10.883  69.385  1.00  0.00    -0.116 C  
HETATM   13  C   UNL     1     -10.654  10.829  67.191  1.00  0.00    -0.306 C  
HETATM   14  C   UNL     1      -9.213  11.889  68.592  1.00  0.00    -0.066 C  
HETATM   15  C   UNL     1     -14.076  15.152  72.513  1.00  0.00    -0.535 A  
HETATM   16  C   UNL     1     -10.366  12.260  67.665  1.00  0.00    -0.214 C  
HETATM   17  C   UNL     1     -12.907  14.460  72.794  1.00  0.00    -0.496 A  
ENDROOT
BRANCH   5  18
HETATM   18  C   UNL     1     -10.923  16.711  68.364  1.00  0.00    -0.345 C  
BRANCH  18  19
HETATM   19  N   UNL     1     -10.280  17.277  67.156  1.00  0.00    -0.311 NA 
HETATM   20  C   UNL     1     -10.011  19.666  67.849  1.00  0.00    -0.527 C  
HETATM   21  C   UNL     1     -10.636  18.675  66.871  1.00  0.00    -0.385 C  
HETATM   22  C   UNL     1      -8.494  19.548  67.813  1.00  0.00    -0.352 C  
HETATM   23  C   UNL     1      -8.047  18.102  68.013  1.00  0.00    -0.264 C  
HETATM   24  C   UNL     1      -8.820  17.118  67.128  1.00  0.00    -0.220 C  
ENDBRANCH  18  19
ENDBRANCH   5  18
TORSDOF 2
ENDMDL
MODEL       55
REMARK 921   NORMALIZED FREE ENERGY PREDICTED BY IDOCK:   -5.06 KCAL/MOL
REMARK 922        TOTAL FREE ENERGY PREDICTED BY IDOCK:   -6.25 KCAL/MOL
REMARK 923 INTER-LIGAND FREE ENERGY PREDICTED BY IDOCK:   -5.78 KCAL/MOL
REMARK 924 INTRA-LIGAND FREE ENERGY PREDICTED BY IDOCK:   -0.47 KCAL/MOL
REMARK 927      BINDING AFFINITY PREDICTED BY RF-SCORE:    0.00 PKD
ROOT
HETATM    1  O   UNL     1     -11.034   8.383  67.642  1.00  0.00    -0.501 OA 
HETATM    2  C   UNL     1      -9.925   9.260  67.851  1.00  0.00    -0.187 C  
HETATM    3  H   UNL     1     -10.708   7.490  67.613  1.00  0.00     0.000 HD 
HETATM    4  C   UNL     1      -8.975   8.952  66.676  1.00  0.00    -0.165 A  
HETATM    5  C   UNL     1     -10.457  10.716  67.898  1.00  0.00    -0.243 C  
HETATM    6  C   UNL     1      -9.215   8.999  69.268  1.00  0.00    -0.145 C  
HETATM    7  C   UNL     1      -8.910   7.641  66.143  1.00  0.00    -0.192 A  
HETATM    8  C   UNL     1      -8.154   9.918  66.082  1.00  0.00    -0.119 A  
HETATM    9  C   UNL     1      -8.723   7.539  69.468  1.00  0.00    -0.137 C  
HETATM   10  C   UNL     1      -7.337   9.602  64.983  1.00  0.00    -0.117 A  
HETATM   11  C   UNL     1      -9.143   7.482  71.851  1.00  0.00    -0.153 C  
HETATM   12  C   UNL     1      -9.687   6.967  70.538  1.00  0.00    -0.177 C  
HETATM   13  C   UNL     1      -9.360   8.807  71.838  1.00  0.00    -0.343 C  
HETATM   14  C   UNL     1     -10.931   7.857  70.498  1.00  0.00    -0.250 C  
HETATM   15  C   UNL     1      -7.295   8.292  64.477  1.00  0.00    -0.091 A  
HETATM   16  C   UNL     1     -10.123   9.150  70.551  1.00  0.00    -0.288 C  
HETATM   17  C   UNL     1      -8.066   7.307  65.076  1.00  0.00    -0.120 A  
ENDROOT
BRANCH   5  18
HETATM   18  C   UNL     1     -11.252  11.285  66.706  1.00  0.00    -0.195 C  
BRANCH  18  19
HETATM   19  N   UNL     1     -10.717  12.626  66.375  1.00  0.00    -0.252 NA 
HETATM   20  C   UNL     1     -11.262  12.754  63.936  1.00  0.00    -0.491 C  
HETATM   21  C   UNL     1     -10.179  12.750  65.012  1.00  0.00    -0.272 C  
HETATM   22  C   UNL     1     -12.226  13.908  64.172  1.00  0.00    -0.436 C  
HETATM   23  C   UNL     1     -12.761  13.899  65.602  1.00  0.00    -0.534 C  
HETATM   24  C   UNL     1     -11.652  13.724  66.645  1.00  0.00    -0.369 C  
ENDBRANCH  18  19
ENDBRANCH   5  18
TORSDOF 2
ENDMDL
MODEL       56
REMARK 921   NORMALIZED FREE ENERGY PREDICTED BY IDOCK:   -5.02 KCAL/MOL
REMARK 922        TOTAL FREE ENERGY PREDICTED BY IDOCK:   -6.20 KCAL/MOL
REMARK 923 INTER-LIGAND FREE ENERGY PREDICTED BY IDOCK:   -5.50 KCAL/MOL
REMARK 924 INTRA-LIGAND FREE ENERGY PREDICTED BY IDOCK:   -0.70 KCAL/MOL
REMARK 927      BINDING AFFINITY PREDICTED BY RF-SCORE:    0.00 PKD
ROOT
HETATM    1  O   UNL     1     -11.886   7.301  69.961  1.00  0.00    -0.524 OA 
HETATM    2  C   UNL     1     -10.808   7.880  70.701  1.00  0.00    -0.237 C  
HETATM    3  H   UNL     1     -12.562   7.037  70.574  1.00  0.00     0.000 HD 
HETATM    4  C   UNL     1     -10.393   6.771  71.689  1.00  0.00    -0.215 A  
HETATM    5  C   UNL     1      -9.705   8.311  69.700  1.00  0.00    -0.173 C  
HETATM    6  C   UNL     1     -11.260   9.216  71.469  1.00  0.00    -0.430 C  
HETATM    7  C   UNL     1     -11.366   5.875  72.198  1.00  0.00    -0.344 A  
HETATM    8  C   UNL     1      -9.075   6.586  72.123  1.00  0.00    -0.139 A  
HETATM    9  C   UNL     1     -12.460   9.014  72.436  1.00  0.00    -0.375 C  
HETATM   10  C   UNL     1      -8.736   5.533  72.990  1.00  0.00    -0.121 A  
HETATM   11  C   UNL     1     -13.410  11.211  72.079  1.00  0.00    -0.384 C  
HETATM   12  C   UNL     1     -13.627   9.755  71.736  1.00  0.00    -0.397 C  
HETATM   13  C   UNL     1     -12.301  11.578  71.419  1.00  0.00    -0.236 C  
HETATM   14  C   UNL     1     -13.232   9.858  70.261  1.00  0.00     0.277 C  
HETATM   15  C   UNL     1      -9.724   4.661  73.477  1.00  0.00    -0.148 A  
HETATM   16  C   UNL     1     -11.835  10.383  70.575  1.00  0.00    -0.430 C  
HETATM   17  C   UNL     1     -11.044   4.851  73.097  1.00  0.00    -0.396 A  
ENDROOT
BRANCH   5  18
HETATM   18  C   UNL     1      -9.079   7.272  68.749  1.00  0.00    -0.127 C  
BRANCH  18  19
HETATM   19  N   UNL     1      -9.949   7.133  67.558  1.00  0.00    -0.155 NA 
HETATM   20  C   UNL     1      -9.275   9.159  66.253  1.00  0.00    -0.246 C  
HETATM   21  C   UNL     1     -10.392   8.408  66.972  1.00  0.00    -0.315 C  
HETATM   22  C   UNL     1      -8.704   8.297  65.135  1.00  0.00    -0.089 C  
HETATM   23  C   UNL     1      -8.302   6.917  65.650  1.00  0.00    -0.147 C  
HETATM   24  C   UNL     1      -9.392   6.268  66.510  1.00  0.00    -0.151 C  
ENDBRANCH  18  19
ENDBRANCH   5  18
TORSDOF 2
ENDMDL
MODEL       57
REMARK 921   NORMALIZED FREE ENERGY PREDICTED BY IDOCK:   -5.02 KCAL/MOL
REMARK 922        TOTAL FREE ENERGY PREDICTED BY IDOCK:   -6.20 KCAL/MOL
REMARK 923 INTER-LIGAND FREE ENERGY PREDICTED BY IDOCK:   -5.61 KCAL/MOL
REMARK 924 INTRA-LIGAND FREE ENERGY PREDICTED BY IDOCK:   -0.59 KCAL/MOL
REMARK 927      BINDING AFFINITY PREDICTED BY RF-SCORE:    0.00 PKD
ROOT
HETATM    1  O   UNL     1      -9.626   8.167  70.549  1.00  0.00    -0.169 OA 
HETATM    2  C   UNL     1     -10.363   7.126  71.196  1.00  0.00    -0.202 C  
HETATM    3  H   UNL     1      -9.610   8.923  71.125  1.00  0.00     0.000 HD 
HETATM    4  C   UNL     1     -11.740   7.759  71.478  1.00  0.00    -0.312 A  
HETATM    5  C   UNL     1     -10.390   5.893  70.256  1.00  0.00    -0.298 C  
HETATM    6  C   UNL     1      -9.648   6.640  72.549  1.00  0.00    -0.162 C  
HETATM    7  C   UNL     1     -11.839   9.145  71.757  1.00  0.00    -0.453 A  
HETATM    8  C   UNL     1     -12.935   7.029  71.469  1.00  0.00    -0.411 A  
HETATM    9  C   UNL     1      -9.408   7.777  73.581  1.00  0.00    -0.336 C  
HETATM   10  C   UNL     1     -14.173   7.657  71.688  1.00  0.00    -0.578 A  
HETATM   11  C   UNL     1      -7.340   6.867  74.445  1.00  0.00    -0.107 C  
HETATM   12  C   UNL     1      -7.872   7.974  73.564  1.00  0.00    -0.231 C  
HETATM   13  C   UNL     1      -7.566   5.727  73.773  1.00  0.00    -0.097 C  
HETATM   14  C   UNL     1      -7.390   7.391  72.233  1.00  0.00    -0.068 C  
HETATM   15  C   UNL     1     -14.237   9.034  71.962  1.00  0.00    -0.384 A  
HETATM   16  C   UNL     1      -8.173   6.094  72.411  1.00  0.00    -0.108 C  
HETATM   17  C   UNL     1     -13.064   9.771  72.019  1.00  0.00    -0.546 A  
ENDROOT
BRANCH   5  18
HETATM   18  C   UNL     1     -10.965   6.022  68.831  1.00  0.00    -0.325 C  
BRANCH  18  19
HETATM   19  N   UNL     1     -10.100   5.262  67.899  1.00  0.00    -0.164 NA 
HETATM   20  C   UNL     1      -9.533   7.043  66.235  1.00  0.00    -0.127 C  
HETATM   21  C   UNL     1     -10.190   5.689  66.495  1.00  0.00    -0.211 C  
HETATM   22  C   UNL     1      -8.061   6.991  66.621  1.00  0.00    -0.110 C  
HETATM   23  C   UNL     1      -7.880   6.467  68.044  1.00  0.00    -0.105 C  
HETATM   24  C   UNL     1      -8.692   5.196  68.312  1.00  0.00    -0.101 C  
ENDBRANCH  18  19
ENDBRANCH   5  18
TORSDOF 2
ENDMDL
MODEL       58
REMARK 921   NORMALIZED FREE ENERGY PREDICTED BY IDOCK:   -4.99 KCAL/MOL
REMARK 922        TOTAL FREE ENERGY PREDICTED BY IDOCK:   -6.16 KCAL/MOL
REMARK 923 INTER-LIGAND FREE ENERGY PREDICTED BY IDOCK:   -5.68 KCAL/MOL
REMARK 924 INTRA-LIGAND FREE ENERGY PREDICTED BY IDOCK:   -0.48 KCAL/MOL
REMARK 927      BINDING AFFINITY PREDICTED BY RF-SCORE:    0.00 PKD
ROOT
HETATM    1  O   UNL     1      -9.307  11.451  69.088  1.00  0.00    -0.408 OA 
HETATM    2  C   UNL     1     -10.160  10.771  68.163  1.00  0.00    -0.164 C  
HETATM    3  H   UNL     1      -9.851  11.960  69.678  1.00  0.00     0.000 HD 
HETATM    4  C   UNL     1     -10.966  11.902  67.494  1.00  0.00    -0.299 A  
HETATM    5  C   UNL     1      -9.271   9.942  67.200  1.00  0.00    -0.158 C  
HETATM    6  C   UNL     1     -11.121   9.717  68.902  1.00  0.00    -0.139 C  
HETATM    7  C   UNL     1     -11.297  13.067  68.229  1.00  0.00    -0.323 A  
HETATM    8  C   UNL     1     -11.399  11.849  66.163  1.00  0.00    -0.383 A  
HETATM    9  C   UNL     1     -12.010  10.343  70.012  1.00  0.00    -0.324 C  
HETATM   10  C   UNL     1     -12.093  12.924  65.582  1.00  0.00    -0.511 A  
HETATM   11  C   UNL     1     -11.988   8.394  71.446  1.00  0.00    -0.337 C  
HETATM   12  C   UNL     1     -11.409   9.785  71.326  1.00  0.00    -0.445 C  
HETATM   13  C   UNL     1     -11.426   7.680  70.458  1.00  0.00    -0.236 C  
HETATM   14  C   UNL     1      -9.980   9.354  70.982  1.00  0.00    -0.334 C  
HETATM   15  C   UNL     1     -12.406  14.066  66.337  1.00  0.00    -0.468 A  
HETATM   16  C   UNL     1     -10.412   8.582  69.740  1.00  0.00    -0.220 C  
HETATM   17  C   UNL     1     -12.026  14.124  67.670  1.00  0.00    -0.405 A  
ENDROOT
BRANCH   5  18
HETATM   18  C   UNL     1      -8.181  10.640  66.363  1.00  0.00    -0.146 C  
BRANCH  18  19
HETATM   19  N   UNL     1      -6.929   9.857  66.465  1.00  0.00    -0.087 NA 
HETATM   20  C   UNL     1      -5.483  11.455  67.736  1.00  0.00    -0.046 C  
HETATM   21  C   UNL     1      -5.699  10.663  66.449  1.00  0.00    -0.087 C  
HETATM   22  C   UNL     1      -5.411  10.507  68.925  1.00  0.00    -0.041 C  
HETATM   23  C   UNL     1      -6.617   9.571  68.959  1.00  0.00    -0.050 C  
HETATM   24  C   UNL     1      -6.900   8.924  67.599  1.00  0.00    -0.070 C  
ENDBRANCH  18  19
ENDBRANCH   5  18
TORSDOF 2
ENDMDL
MODEL       59
REMARK 921   NORMALIZED FREE ENERGY PREDICTED BY IDOCK:   -4.99 KCAL/MOL
REMARK 922        TOTAL FREE ENERGY PREDICTED BY IDOCK:   -6.16 KCAL/MOL
REMARK 923 INTER-LIGAND FREE ENERGY PREDICTED BY IDOCK:   -5.46 KCAL/MOL
REMARK 924 INTRA-LIGAND FREE ENERGY PREDICTED BY IDOCK:   -0.70 KCAL/MOL
REMARK 927      BINDING AFFINITY PREDICTED BY RF-SCORE:    0.00 PKD
ROOT
HETATM    1  O   UNL     1      -8.878  13.069  66.041  1.00  0.00    -0.402 OA 
HETATM    2  C   UNL     1      -9.938  12.611  66.885  1.00  0.00    -0.230 C  
HETATM    3  H   UNL     1      -8.576  12.336  65.517  1.00  0.00     0.000 HD 
HETATM    4  C   UNL     1      -9.308  11.454  67.686  1.00  0.00    -0.159 A  
HETATM    5  C   UNL     1     -10.432  13.808  67.740  1.00  0.00    -0.240 C  
HETATM    6  C   UNL     1     -11.208  12.118  66.034  1.00  0.00    -0.382 C  
HETATM    7  C   UNL     1      -8.308  10.645  67.093  1.00  0.00    -0.125 A  
HETATM    8  C   UNL     1      -9.670  11.150  69.003  1.00  0.00    -0.113 A  
HETATM    9  C   UNL     1     -10.885  10.996  65.009  1.00  0.00    -0.194 C  
HETATM   10  C   UNL     1      -9.037  10.113  69.710  1.00  0.00    -0.166 A  
HETATM   11  C   UNL     1     -12.496  11.724  63.358  1.00  0.00    -0.490 C  
HETATM   12  C   UNL     1     -11.010  11.701  63.636  1.00  0.00    -0.507 C  
HETATM   13  C   UNL     1     -13.019  12.577  64.253  1.00  0.00    -0.253 C  
HETATM   14  C   UNL     1     -10.858  13.198  63.919  1.00  0.00    -0.268 C  
HETATM   15  C   UNL     1      -8.047   9.329  69.095  1.00  0.00    -0.106 A  
HETATM   16  C   UNL     1     -11.864  13.179  65.065  1.00  0.00    -0.390 C  
HETATM   17  C   UNL     1      -7.703   9.582  67.776  1.00  0.00    -0.088 A  
ENDROOT
BRANCH   5  18
HETATM   18  C   UNL     1      -9.442  14.566  68.646  1.00  0.00    -0.205 C  
BRANCH  18  19
HETATM   19  N   UNL     1      -8.390  15.172  67.798  1.00  0.00    -0.145 NA 
HETATM   20  C   UNL     1      -8.740  17.601  68.288  1.00  0.00    -0.276 C  
HETATM   21  C   UNL     1      -8.735  16.490  67.242  1.00  0.00    -0.188 C  
HETATM   22  C   UNL     1      -7.369  17.708  68.941  1.00  0.00    -0.239 C  
HETATM   23  C   UNL     1      -6.900  16.353  69.467  1.00  0.00    -0.187 C  
HETATM   24  C   UNL     1      -7.069  15.231  68.438  1.00  0.00    -0.111 C  
ENDBRANCH  18  19
ENDBRANCH   5  18
TORSDOF 2
ENDMDL
MODEL       60
REMARK 921   NORMALIZED FREE ENERGY PREDICTED BY IDOCK:   -4.98 KCAL/MOL
REMARK 922        TOTAL FREE ENERGY PREDICTED BY IDOCK:   -6.16 KCAL/MOL
REMARK 923 INTER-LIGAND FREE ENERGY PREDICTED BY IDOCK:   -5.67 KCAL/MOL
REMARK 924 INTRA-LIGAND FREE ENERGY PREDICTED BY IDOCK:   -0.49 KCAL/MOL
REMARK 927      BINDING AFFINITY PREDICTED BY RF-SCORE:    0.00 PKD
ROOT
HETATM    1  O   UNL     1      -8.642   7.966  68.791  1.00  0.00    -0.128 OA 
HETATM    2  C   UNL     1     -10.044   7.718  68.913  1.00  0.00    -0.195 C  
HETATM    3  H   UNL     1      -8.176   7.277  69.250  1.00  0.00     0.000 HD 
HETATM    4  C   UNL     1     -10.287   7.671  70.435  1.00  0.00    -0.214 A  
HETATM    5  C   UNL     1     -10.805   8.843  68.163  1.00  0.00    -0.062 C  
HETATM    6  C   UNL     1     -10.472   6.342  68.203  1.00  0.00    -0.278 C  
HETATM    7  C   UNL     1      -9.277   7.179  71.298  1.00  0.00    -0.151 A  
HETATM    8  C   UNL     1     -11.476   8.103  71.034  1.00  0.00    -0.301 A  
HETATM    9  C   UNL     1      -9.711   5.095  68.734  1.00  0.00    -0.215 C  
HETATM   10  C   UNL     1     -11.636   8.083  72.430  1.00  0.00    -0.450 A  
HETATM   11  C   UNL     1      -9.678   3.931  66.613  1.00  0.00    -0.189 C  
HETATM   12  C   UNL     1      -8.783   4.700  67.558  1.00  0.00    -0.107 C  
HETATM   13  C   UNL     1     -10.536   4.833  66.110  1.00  0.00    -0.332 C  
HETATM   14  C   UNL     1      -8.647   5.956  66.693  1.00  0.00    -0.119 C  
HETATM   15  C   UNL     1     -10.615   7.589  73.260  1.00  0.00    -0.438 A  
HETATM   16  C   UNL     1     -10.151   6.212  66.663  1.00  0.00    -0.218 C  
HETATM   17  C   UNL     1      -9.444   7.115  72.687  1.00  0.00    -0.174 A  
ENDROOT
BRANCH   5  18
HETATM   18  C   UNL     1     -10.581  10.317  68.554  1.00  0.00    -0.213 C  
BRANCH  18  19
HETATM   19  N   UNL     1     -11.870  11.038  68.446  1.00  0.00    -0.552 NA 
HETATM   20  C   UNL     1     -12.281  11.619  70.845  1.00  0.00    -0.401 C  
HETATM   21  C   UNL     1     -12.763  10.874  69.603  1.00  0.00     0.142 C  
HETATM   22  C   UNL     1     -12.162  13.107  70.547  1.00  0.00    -0.405 C  
HETATM   23  C   UNL     1     -11.319  13.356  69.298  1.00  0.00    -0.314 C  
HETATM   24  C   UNL     1     -11.730  12.463  68.122  1.00  0.00    -0.353 C  
ENDBRANCH  18  19
ENDBRANCH   5  18
TORSDOF 2
ENDMDL
MODEL       61
REMARK 921   NORMALIZED FREE ENERGY PREDICTED BY IDOCK:   -4.94 KCAL/MOL
REMARK 922        TOTAL FREE ENERGY PREDICTED BY IDOCK:   -6.11 KCAL/MOL
REMARK 923 INTER-LIGAND FREE ENERGY PREDICTED BY IDOCK:   -5.61 KCAL/MOL
REMARK 924 INTRA-LIGAND FREE ENERGY PREDICTED BY IDOCK:   -0.50 KCAL/MOL
REMARK 927      BINDING AFFINITY PREDICTED BY RF-SCORE:    0.00 PKD
ROOT
HETATM    1  O   UNL     1      -8.858   7.925  68.774  1.00  0.00    -0.138 OA 
HETATM    2  C   UNL     1     -10.082   7.677  68.078  1.00  0.00    -0.187 C  
HETATM    3  H   UNL     1      -8.197   8.172  68.138  1.00  0.00     0.000 HD 
HETATM    4  C   UNL     1      -9.718   6.579  67.058  1.00  0.00    -0.188 A  
HETATM    5  C   UNL     1     -11.161   7.275  69.117  1.00  0.00    -0.023 C  
HETATM    6  C   UNL     1     -10.634   8.998  67.351  1.00  0.00    -0.309 C  
HETATM    7  C   UNL     1      -8.418   6.536  66.497  1.00  0.00    -0.120 A  
HETATM    8  C   UNL     1     -10.618   5.589  66.646  1.00  0.00    -0.365 A  
HETATM    9  C   UNL     1      -9.629   9.637  66.352  1.00  0.00    -0.268 C  
HETATM   10  C   UNL     1     -10.228   4.580  65.748  1.00  0.00    -0.289 A  
HETATM   11  C   UNL     1     -10.315  11.920  66.769  1.00  0.00    -0.238 C  
HETATM   12  C   UNL     1      -9.193  10.947  67.054  1.00  0.00    -0.165 C  
HETATM   13  C   UNL     1     -11.371  11.470  67.465  1.00  0.00    -0.366 C  
HETATM   14  C   UNL     1      -9.502  10.749  68.540  1.00  0.00    -0.181 C  
HETATM   15  C   UNL     1      -8.931   4.565  65.209  1.00  0.00    -0.144 A  
HETATM   16  C   UNL     1     -10.917  10.247  68.274  1.00  0.00    -0.315 C  
HETATM   17  C   UNL     1      -8.035   5.560  65.568  1.00  0.00    -0.111 A  
ENDROOT
BRANCH   5  18
HETATM   18  C   UNL     1     -10.926   6.065  70.042  1.00  0.00    -0.380 C  
BRANCH  18  19
HETATM   19  N   UNL     1     -11.656   6.288  71.311  1.00  0.00    -0.301 NA 
HETATM   20  C   UNL     1      -9.791   6.070  72.964  1.00  0.00    -0.176 C  
HETATM   21  C   UNL     1     -11.129   5.537  72.461  1.00  0.00    -0.270 C  
HETATM   22  C   UNL     1      -9.932   7.528  73.377  1.00  0.00    -0.378 C  
HETATM   23  C   UNL     1     -10.559   8.361  72.261  1.00  0.00    -0.412 C  
HETATM   24  C   UNL     1     -11.811   7.704  71.668  1.00  0.00    -0.291 C  
ENDBRANCH  18  19
ENDBRANCH   5  18
TORSDOF 2
ENDMDL
MODEL       62
REMARK 921   NORMALIZED FREE ENERGY PREDICTED BY IDOCK:   -4.91 KCAL/MOL
REMARK 922        TOTAL FREE ENERGY PREDICTED BY IDOCK:   -6.08 KCAL/MOL
REMARK 923 INTER-LIGAND FREE ENERGY PREDICTED BY IDOCK:   -5.51 KCAL/MOL
REMARK 924 INTRA-LIGAND FREE ENERGY PREDICTED BY IDOCK:   -0.56 KCAL/MOL
REMARK 927      BINDING AFFINITY PREDICTED BY RF-SCORE:    0.00 PKD
ROOT
HETATM    1  O   UNL     1     -10.614  11.566  67.697  1.00  0.00    -0.186 OA 
HETATM    2  C   UNL     1     -10.162  12.886  67.386  1.00  0.00    -0.230 C  
HETATM    3  H   UNL     1     -11.562  11.582  67.761  1.00  0.00     0.000 HD 
HETATM    4  C   UNL     1     -10.723  13.755  68.529  1.00  0.00    -0.274 A  
HETATM    5  C   UNL     1      -8.615  12.859  67.282  1.00  0.00    -0.205 C  
HETATM    6  C   UNL     1     -10.696  13.378  65.953  1.00  0.00    -0.285 C  
HETATM    7  C   UNL     1     -11.961  13.420  69.132  1.00  0.00    -0.363 A  
HETATM    8  C   UNL     1     -10.062  14.884  69.028  1.00  0.00    -0.237 A  
HETATM    9  C   UNL     1     -12.243  13.350  65.812  1.00  0.00    -0.507 C  
HETATM   10  C   UNL     1     -10.589  15.620  70.102  1.00  0.00    -0.348 A  
HETATM   11  C   UNL     1     -12.246  12.783  63.460  1.00  0.00    -0.613 C  
HETATM   12  C   UNL     1     -12.503  12.186  64.824  1.00  0.00    -0.264 C  
HETATM   13  C   UNL     1     -10.925  13.014  63.408  1.00  0.00     0.055 C  
HETATM   14  C   UNL     1     -11.250  11.308  64.874  1.00  0.00    -0.107 C  
HETATM   15  C   UNL     1     -11.820  15.262  70.679  1.00  0.00    -0.376 A  
HETATM   16  C   UNL     1     -10.301  12.490  64.709  1.00  0.00    -0.331 C  
HETATM   17  C   UNL     1     -12.515  14.174  70.174  1.00  0.00    -0.391 A  
ENDROOT
BRANCH   5  18
HETATM   18  C   UNL     1      -7.771  12.374  68.477  1.00  0.00    -0.120 C  
BRANCH  18  19
HETATM   19  N   UNL     1      -6.374  12.830  68.289  1.00  0.00    -0.071 NA 
HETATM   20  C   UNL     1      -6.572  15.228  68.974  1.00  0.00    -0.118 C  
HETATM   21  C   UNL     1      -6.240  14.232  67.866  1.00  0.00    -0.157 C  
HETATM   22  C   UNL     1      -5.656  15.004  70.169  1.00  0.00    -0.127 C  
HETATM   23  C   UNL     1      -5.672  13.543  70.612  1.00  0.00    -0.183 C  
HETATM   24  C   UNL     1      -5.502  12.569  69.441  1.00  0.00    -0.075 C  
ENDBRANCH  18  19
ENDBRANCH   5  18
TORSDOF 2
ENDMDL
MODEL       63
REMARK 921   NORMALIZED FREE ENERGY PREDICTED BY IDOCK:   -4.90 KCAL/MOL
REMARK 922        TOTAL FREE ENERGY PREDICTED BY IDOCK:   -6.06 KCAL/MOL
REMARK 923 INTER-LIGAND FREE ENERGY PREDICTED BY IDOCK:   -5.56 KCAL/MOL
REMARK 924 INTRA-LIGAND FREE ENERGY PREDICTED BY IDOCK:   -0.50 KCAL/MOL
REMARK 927      BINDING AFFINITY PREDICTED BY RF-SCORE:    0.00 PKD
ROOT
HETATM    1  O   UNL     1     -11.183   7.551  68.031  1.00  0.00    -0.449 OA 
HETATM    2  C   UNL     1      -9.957   8.106  68.514  1.00  0.00    -0.190 C  
HETATM    3  H   UNL     1     -11.049   7.265  67.135  1.00  0.00     0.000 HD 
HETATM    4  C   UNL     1      -9.634   9.233  67.513  1.00  0.00    -0.184 A  
HETATM    5  C   UNL     1     -10.176   8.573  69.977  1.00  0.00    -0.201 C  
HETATM    6  C   UNL     1      -8.785   7.009  68.568  1.00  0.00    -0.122 C  
HETATM    7  C   UNL     1     -10.008   9.101  66.153  1.00  0.00    -0.338 A  
HETATM    8  C   UNL     1      -8.979  10.416  67.877  1.00  0.00    -0.128 A  
HETATM    9  C   UNL     1      -8.502   6.320  67.204  1.00  0.00    -0.108 C  
HETATM   10  C   UNL     1      -8.746  11.436  66.939  1.00  0.00    -0.165 A  
HETATM   11  C   UNL     1      -7.917   4.172  68.152  1.00  0.00    -0.081 C  
HETATM   12  C   UNL     1      -9.026   4.876  67.403  1.00  0.00    -0.111 C  
HETATM   13  C   UNL     1      -7.899   4.723  69.376  1.00  0.00    -0.063 C  
HETATM   14  C   UNL     1     -10.013   4.947  68.570  1.00  0.00    -0.185 C  
HETATM   15  C   UNL     1      -9.130  11.274  65.597  1.00  0.00    -0.203 A  
HETATM   16  C   UNL     1      -9.053   5.732  69.457  1.00  0.00    -0.143 C  
HETATM   17  C   UNL     1      -9.740  10.094  65.202  1.00  0.00    -0.370 A  
ENDROOT
BRANCH   5  18
HETATM   18  C   UNL     1     -11.282   9.596  70.301  1.00  0.00    -0.271 C  
BRANCH  18  19
HETATM   19  N   UNL     1     -11.779   9.340  71.673  1.00  0.00    -0.369 NA 
HETATM   20  C   UNL     1     -14.214   8.977  71.224  1.00  0.00    -0.113 C  
HETATM   21  C   UNL     1     -13.148   9.815  71.926  1.00  0.00    -0.446 C  
HETATM   22  C   UNL     1     -14.123   7.528  71.682  1.00  0.00    -0.562 C  
HETATM   23  C   UNL     1     -12.702   6.989  71.533  1.00  0.00    -0.425 C  
HETATM   24  C   UNL     1     -11.647   7.943  72.104  1.00  0.00    -0.328 C  
ENDBRANCH  18  19
ENDBRANCH   5  18
TORSDOF 2
ENDMDL
MODEL       64
REMARK 921   NORMALIZED FREE ENERGY PREDICTED BY IDOCK:   -4.88 KCAL/MOL
REMARK 922        TOTAL FREE ENERGY PREDICTED BY IDOCK:   -6.04 KCAL/MOL
REMARK 923 INTER-LIGAND FREE ENERGY PREDICTED BY IDOCK:   -5.31 KCAL/MOL
REMARK 924 INTRA-LIGAND FREE ENERGY PREDICTED BY IDOCK:   -0.73 KCAL/MOL
REMARK 927      BINDING AFFINITY PREDICTED BY RF-SCORE:    0.00 PKD
ROOT
HETATM    1  O   UNL     1     -11.544  13.579  67.882  1.00  0.00    -0.300 OA 
HETATM    2  C   UNL     1     -10.534  12.739  67.317  1.00  0.00    -0.232 C  
HETATM    3  H   UNL     1     -12.387  13.159  67.755  1.00  0.00     0.000 HD 
HETATM    4  C   UNL     1     -10.964  12.572  65.845  1.00  0.00    -0.314 A  
HETATM    5  C   UNL     1      -9.158  13.425  67.523  1.00  0.00    -0.215 C  
HETATM    6  C   UNL     1     -10.443  11.324  68.070  1.00  0.00    -0.215 C  
HETATM    7  C   UNL     1     -12.339  12.563  65.506  1.00  0.00    -0.364 A  
HETATM    8  C   UNL     1     -10.051  12.431  64.793  1.00  0.00    -0.260 A  
HETATM    9  C   UNL     1     -11.780  10.531  68.088  1.00  0.00     0.001 C  
HETATM   10  C   UNL     1     -10.488  12.326  63.461  1.00  0.00    -0.459 A  
HETATM   11  C   UNL     1     -11.419   9.525  70.259  1.00  0.00    -0.256 C  
HETATM   12  C   UNL     1     -12.230  10.598  69.568  1.00  0.00    -0.230 C  
HETATM   13  C   UNL     1     -10.150   9.965  70.246  1.00  0.00    -0.295 C  
HETATM   14  C   UNL     1     -11.496  11.796  70.175  1.00  0.00    -0.169 C  
HETATM   15  C   UNL     1     -11.860  12.320  63.157  1.00  0.00    -0.328 A  
HETATM   16  C   UNL     1     -10.142  11.367  69.619  1.00  0.00     0.464 C  
HETATM   17  C   UNL     1     -12.784  12.415  64.186  1.00  0.00    -0.446 A  
ENDROOT
BRANCH   5  18
HETATM   18  C   UNL     1      -8.914  14.843  66.970  1.00  0.00    -0.236 C  
BRANCH  18  19
HETATM   19  N   UNL     1      -9.614  15.818  67.837  1.00  0.00    -0.213 NA 
HETATM   20  C   UNL     1      -7.702  16.689  69.196  1.00  0.00    -0.186 C  
HETATM   21  C   UNL     1      -9.043  15.960  69.185  1.00  0.00    -0.255 C  
HETATM   22  C   UNL     1      -7.861  18.081  68.601  1.00  0.00    -0.298 C  
HETATM   23  C   UNL     1      -8.533  18.024  67.231  1.00  0.00    -0.237 C  
HETATM   24  C   UNL     1      -9.787  17.142  67.226  1.00  0.00    -0.265 C  
ENDBRANCH  18  19
ENDBRANCH   5  18
TORSDOF 2
ENDMDL
MODEL       65
REMARK 921   NORMALIZED FREE ENERGY PREDICTED BY IDOCK:   -4.86 KCAL/MOL
REMARK 922        TOTAL FREE ENERGY PREDICTED BY IDOCK:   -6.02 KCAL/MOL
REMARK 923 INTER-LIGAND FREE ENERGY PREDICTED BY IDOCK:   -5.31 KCAL/MOL
REMARK 924 INTRA-LIGAND FREE ENERGY PREDICTED BY IDOCK:   -0.72 KCAL/MOL
REMARK 927      BINDING AFFINITY PREDICTED BY RF-SCORE:    0.00 PKD
ROOT
HETATM    1  O   UNL     1      -8.844  11.574  66.526  1.00  0.00    -0.181 OA 
HETATM    2  C   UNL     1     -10.039  10.937  66.067  1.00  0.00    -0.249 C  
HETATM    3  H   UNL     1      -9.089  12.323  67.057  1.00  0.00     0.000 HD 
HETATM    4  C   UNL     1     -10.792  12.051  65.313  1.00  0.00    -0.340 A  
HETATM    5  C   UNL     1      -9.638   9.715  65.201  1.00  0.00    -0.324 C  
HETATM    6  C   UNL     1     -10.910  10.354  67.284  1.00  0.00    -0.324 C  
HETATM    7  C   UNL     1     -10.677  13.397  65.738  1.00  0.00    -0.280 A  
HETATM    8  C   UNL     1     -11.601  11.807  64.196  1.00  0.00    -0.394 A  
HETATM    9  C   UNL     1     -11.304  11.419  68.345  1.00  0.00    -0.346 C  
HETATM   10  C   UNL     1     -12.233  12.859  63.512  1.00  0.00    -0.595 A  
HETATM   11  C   UNL     1     -11.208   9.906  70.231  1.00  0.00    -0.364 C  
HETATM   12  C   UNL     1     -10.451  11.042  69.582  1.00  0.00    -0.069 C  
HETATM   13  C   UNL     1     -11.099   8.868  69.386  1.00  0.00     0.026 C  
HETATM   14  C   UNL     1      -9.289  10.201  69.048  1.00  0.00    -0.192 C  
HETATM   15  C   UNL     1     -12.099  14.185  63.959  1.00  0.00    -0.382 A  
HETATM   16  C   UNL     1     -10.200   9.300  68.220  1.00  0.00    -0.236 C  
HETATM   17  C   UNL     1     -11.339  14.447  65.088  1.00  0.00    -0.359 A  
ENDROOT
BRANCH   5  18
HETATM   18  C   UNL     1      -8.738   9.908  63.965  1.00  0.00    -0.212 C  
BRANCH  18  19
HETATM   19  N   UNL     1      -7.347  10.133  64.420  1.00  0.00    -0.136 NA 
HETATM   20  C   UNL     1      -6.513   7.778  64.544  1.00  0.00    -0.048 C  
HETATM   21  C   UNL     1      -6.809   9.076  65.290  1.00  0.00    -0.072 C  
HETATM   22  C   UNL     1      -5.505   8.033  63.433  1.00  0.00    -0.050 C  
HETATM   23  C   UNL     1      -5.952   9.185  62.535  1.00  0.00    -0.094 C  
HETATM   24  C   UNL     1      -6.401  10.414  63.332  1.00  0.00    -0.083 C  
ENDBRANCH  18  19
ENDBRANCH   5  18
TORSDOF 2
ENDMDL
MODEL       66
REMARK 921   NORMALIZED FREE ENERGY PREDICTED BY IDOCK:   -4.83 KCAL/MOL
REMARK 922        TOTAL FREE ENERGY PREDICTED BY IDOCK:   -5.99 KCAL/MOL
REMARK 923 INTER-LIGAND FREE ENERGY PREDICTED BY IDOCK:   -5.50 KCAL/MOL
REMARK 924 INTRA-LIGAND FREE ENERGY PREDICTED BY IDOCK:   -0.48 KCAL/MOL
REMARK 927      BINDING AFFINITY PREDICTED BY RF-SCORE:    0.00 PKD
ROOT
HETATM    1  O   UNL     1     -11.528  11.818  68.008  1.00  0.00    -0.274 OA 
HETATM    2  C   UNL     1     -10.554  12.800  67.643  1.00  0.00    -0.219 C  
HETATM    3  H   UNL     1     -12.389  12.217  67.954  1.00  0.00     0.000 HD 
HETATM    4  C   UNL     1     -10.799  13.957  68.632  1.00  0.00    -0.278 A  
HETATM    5  C   UNL     1      -9.149  12.150  67.732  1.00  0.00    -0.189 C  
HETATM    6  C   UNL     1     -10.729  13.278  66.120  1.00  0.00    -0.287 C  
HETATM    7  C   UNL     1     -12.109  14.219  69.105  1.00  0.00    -0.337 A  
HETATM    8  C   UNL     1      -9.776  14.785  69.110  1.00  0.00    -0.149 A  
HETATM    9  C   UNL     1     -12.138  13.847  65.794  1.00  0.00    -0.449 C  
HETATM   10  C   UNL     1     -10.040  15.800  70.046  1.00  0.00    -0.174 A  
HETATM   11  C   UNL     1     -12.190  13.035  63.515  1.00  0.00    -0.580 C  
HETATM   12  C   UNL     1     -12.773  12.766  64.884  1.00  0.00    -0.479 C  
HETATM   13  C   UNL     1     -10.889  12.715  63.606  1.00  0.00    -0.437 C  
HETATM   14  C   UNL     1     -11.994  11.477  65.160  1.00  0.00     0.373 C  
HETATM   15  C   UNL     1     -11.350  16.035  70.496  1.00  0.00    -0.420 A  
HETATM   16  C   UNL     1     -10.636  12.156  65.013  1.00  0.00    -0.330 C  
HETATM   17  C   UNL     1     -12.387  15.257  70.005  1.00  0.00    -0.366 A  
ENDROOT
BRANCH   5  18
HETATM   18  C   UNL     1      -8.671  11.525  69.057  1.00  0.00     0.146 C  
BRANCH  18  19
HETATM   19  N   UNL     1      -8.126  10.177  68.778  1.00  0.00    -0.104 NA 
HETATM   20  C   UNL     1      -9.669   8.759  70.146  1.00  0.00    -0.188 C  
HETATM   21  C   UNL     1      -8.238   9.227  69.896  1.00  0.00    -0.145 C  
HETATM   22  C   UNL     1     -10.223   8.087  68.898  1.00  0.00    -0.220 C  
HETATM   23  C   UNL     1     -10.061   8.980  67.670  1.00  0.00    -0.271 C  
HETATM   24  C   UNL     1      -8.649   9.565  67.549  1.00  0.00    -0.126 C  
ENDBRANCH  18  19
ENDBRANCH   5  18
TORSDOF 2
ENDMDL
MODEL       67
REMARK 921   NORMALIZED FREE ENERGY PREDICTED BY IDOCK:   -4.81 KCAL/MOL
REMARK 922        TOTAL FREE ENERGY PREDICTED BY IDOCK:   -5.96 KCAL/MOL
REMARK 923 INTER-LIGAND FREE ENERGY PREDICTED BY IDOCK:   -5.46 KCAL/MOL
REMARK 924 INTRA-LIGAND FREE ENERGY PREDICTED BY IDOCK:   -0.50 KCAL/MOL
REMARK 927      BINDING AFFINITY PREDICTED BY RF-SCORE:    0.00 PKD
ROOT
HETATM    1  O   UNL     1      -8.842  11.085  67.497  1.00  0.00    -0.130 OA 
HETATM    2  C   UNL     1     -10.068  10.564  66.979  1.00  0.00    -0.213 C  
HETATM    3  H   UNL     1      -9.047  11.671  68.217  1.00  0.00     0.000 HD 
HETATM    4  C   UNL     1     -10.874  11.818  66.587  1.00  0.00    -0.318 A  
HETATM    5  C   UNL     1      -9.734   9.607  65.805  1.00  0.00    -0.350 C  
HETATM    6  C   UNL     1     -10.848   9.677  68.068  1.00  0.00    -0.250 C  
HETATM    7  C   UNL     1     -10.727  13.015  67.331  1.00  0.00    -0.256 A  
HETATM    8  C   UNL     1     -11.764  11.850  65.506  1.00  0.00    -0.224 A  
HETATM    9  C   UNL     1     -11.162  10.431  69.389  1.00  0.00    -0.314 C  
HETATM   10  C   UNL     1     -12.443  13.030  65.159  1.00  0.00    -0.552 A  
HETATM   11  C   UNL     1     -10.927   8.493  70.819  1.00  0.00    -0.282 C  
HETATM   12  C   UNL     1     -10.220   9.769  70.426  1.00  0.00    -0.343 C  
HETATM   13  C   UNL     1     -10.883   7.705  69.733  1.00  0.00    -0.222 C  
HETATM   14  C   UNL     1      -9.101   9.111  69.614  1.00  0.00    -0.163 C  
HETATM   15  C   UNL     1     -12.275  14.201  65.916  1.00  0.00    -0.458 A  
HETATM   16  C   UNL     1     -10.072   8.433  68.652  1.00  0.00    -0.210 C  
HETATM   17  C   UNL     1     -11.434  14.183  67.017  1.00  0.00    -0.370 A  
ENDROOT
BRANCH   5  18
HETATM   18  C   UNL     1      -8.928  10.123  64.597  1.00  0.00    -0.209 C  
BRANCH  18  19
HETATM   19  N   UNL     1      -8.157   8.996  64.023  1.00  0.00    -0.150 NA 
HETATM   20  C   UNL     1      -6.149  10.204  63.147  1.00  0.00    -0.140 C  
HETATM   21  C   UNL     1      -7.366   9.338  62.831  1.00  0.00    -0.100 C  
HETATM   22  C   UNL     1      -5.236   9.482  64.129  1.00  0.00    -0.060 C  
HETATM   23  C   UNL     1      -6.009   9.013  65.359  1.00  0.00    -0.055 C  
HETATM   24  C   UNL     1      -7.313   8.293  64.998  1.00  0.00    -0.086 C  
ENDBRANCH  18  19
ENDBRANCH   5  18
TORSDOF 2
ENDMDL
MODEL       68
REMARK 921   NORMALIZED FREE ENERGY PREDICTED BY IDOCK:   -4.80 KCAL/MOL
REMARK 922        TOTAL FREE ENERGY PREDICTED BY IDOCK:   -5.95 KCAL/MOL
REMARK 923 INTER-LIGAND FREE ENERGY PREDICTED BY IDOCK:   -5.55 KCAL/MOL
REMARK 924 INTRA-LIGAND FREE ENERGY PREDICTED BY IDOCK:   -0.40 KCAL/MOL
REMARK 927      BINDING AFFINITY PREDICTED BY RF-SCORE:    0.00 PKD
ROOT
HETATM    1  O   UNL     1      -8.368  15.067  65.993  1.00  0.00    -0.187 OA 
HETATM    2  C   UNL     1      -9.396  14.787  66.947  1.00  0.00    -0.240 C  
HETATM    3  H   UNL     1      -8.748  15.577  65.287  1.00  0.00     0.000 HD 
HETATM    4  C   UNL     1     -10.482  14.061  66.129  1.00  0.00    -0.297 A  
HETATM    5  C   UNL     1      -8.776  13.953  68.099  1.00  0.00    -0.182 C  
HETATM    6  C   UNL     1      -9.964  16.128  67.624  1.00  0.00    -0.241 C  
HETATM    7  C   UNL     1     -10.680  14.391  64.765  1.00  0.00    -0.423 A  
HETATM    8  C   UNL     1     -11.304  13.062  66.664  1.00  0.00    -0.366 A  
HETATM    9  C   UNL     1     -10.516  17.164  66.606  1.00  0.00    -0.259 C  
HETATM   10  C   UNL     1     -12.251  12.395  65.868  1.00  0.00    -0.220 A  
HETATM   11  C   UNL     1      -9.848  19.111  67.878  1.00  0.00    -0.418 C  
HETATM   12  C   UNL     1      -9.479  18.314  66.648  1.00  0.00    -0.308 C  
HETATM   13  C   UNL     1      -9.556  18.321  68.923  1.00  0.00    -0.268 C  
HETATM   14  C   UNL     1      -8.196  17.699  67.212  1.00  0.00    -0.225 C  
HETATM   15  C   UNL     1     -12.423  12.745  64.518  1.00  0.00    -0.501 A  
HETATM   16  C   UNL     1      -8.917  17.035  68.381  1.00  0.00    -0.247 C  
HETATM   17  C   UNL     1     -11.652  13.762  63.976  1.00  0.00    -0.307 A  
ENDROOT
BRANCH   5  18
HETATM   18  C   UNL     1      -8.082  12.612  67.792  1.00  0.00    -0.166 C  
BRANCH  18  19
HETATM   19  N   UNL     1      -8.581  11.590  68.742  1.00  0.00    -0.104 NA 
HETATM   20  C   UNL     1      -8.989   9.672  67.188  1.00  0.00    -0.148 C  
HETATM   21  C   UNL     1      -9.581  10.669  68.180  1.00  0.00    -0.157 C  
HETATM   22  C   UNL     1      -7.909   8.841  67.865  1.00  0.00    -0.102 C  
HETATM   23  C   UNL     1      -6.875   9.731  68.552  1.00  0.00    -0.056 C  
HETATM   24  C   UNL     1      -7.518  10.827  69.409  1.00  0.00    -0.124 C  
ENDBRANCH  18  19
ENDBRANCH   5  18
TORSDOF 2
ENDMDL
MODEL       69
REMARK 921   NORMALIZED FREE ENERGY PREDICTED BY IDOCK:   -4.73 KCAL/MOL
REMARK 922        TOTAL FREE ENERGY PREDICTED BY IDOCK:   -5.88 KCAL/MOL
REMARK 923 INTER-LIGAND FREE ENERGY PREDICTED BY IDOCK:   -5.27 KCAL/MOL
REMARK 924 INTRA-LIGAND FREE ENERGY PREDICTED BY IDOCK:   -0.61 KCAL/MOL
REMARK 927      BINDING AFFINITY PREDICTED BY RF-SCORE:    0.00 PKD
ROOT
HETATM    1  O   UNL     1      -9.713   9.424  71.229  1.00  0.00    -0.262 OA 
HETATM    2  C   UNL     1     -10.061   8.038  71.192  1.00  0.00    -0.188 C  
HETATM    3  H   UNL     1      -9.983   9.777  72.069  1.00  0.00     0.000 HD 
HETATM    4  C   UNL     1     -11.582   8.025  71.445  1.00  0.00    -0.301 A  
HETATM    5  C   UNL     1      -9.621   7.462  69.820  1.00  0.00    -0.163 C  
HETATM    6  C   UNL     1      -9.269   7.193  72.305  1.00  0.00    -0.149 C  
HETATM    7  C   UNL     1     -12.169   9.008  72.279  1.00  0.00    -0.387 A  
HETATM    8  C   UNL     1     -12.444   7.077  70.880  1.00  0.00    -0.319 A  
HETATM    9  C   UNL     1      -9.480   7.707  73.756  1.00  0.00    -0.300 C  
HETATM   10  C   UNL     1     -13.830   7.132  71.103  1.00  0.00    -0.177 A  
HETATM   11  C   UNL     1      -7.256   7.142  74.522  1.00  0.00    -0.116 C  
HETATM   12  C   UNL     1      -8.110   8.326  74.132  1.00  0.00    -0.284 C  
HETATM   13  C   UNL     1      -7.045   6.456  73.388  1.00  0.00    -0.082 C  
HETATM   14  C   UNL     1      -7.407   8.623  72.805  1.00  0.00     0.018 C  
HETATM   15  C   UNL     1     -14.383   8.120  71.936  1.00  0.00    -0.566 A  
HETATM   16  C   UNL     1      -7.693   7.237  72.236  1.00  0.00    -0.095 C  
HETATM   17  C   UNL     1     -13.545   9.043  72.542  1.00  0.00    -0.492 A  
ENDROOT
BRANCH   5  18
HETATM   18  C   UNL     1     -10.153   8.086  68.516  1.00  0.00    -0.199 C  
BRANCH  18  19
HETATM   19  N   UNL     1      -9.501   9.400  68.317  1.00  0.00    -0.137 NA 
HETATM   20  C   UNL     1      -9.239   9.418  65.829  1.00  0.00    -0.276 C  
HETATM   21  C   UNL     1      -8.554   9.450  67.192  1.00  0.00    -0.128 C  
HETATM   22  C   UNL     1     -10.194  10.596  65.696  1.00  0.00    -0.319 C  
HETATM   23  C   UNL     1     -11.155  10.665  66.880  1.00  0.00    -0.162 C  
HETATM   24  C   UNL     1     -10.441  10.525  68.229  1.00  0.00    -0.183 C  
ENDBRANCH  18  19
ENDBRANCH   5  18
TORSDOF 2
ENDMDL
MODEL       70
REMARK 921   NORMALIZED FREE ENERGY PREDICTED BY IDOCK:   -4.72 KCAL/MOL
REMARK 922        TOTAL FREE ENERGY PREDICTED BY IDOCK:   -5.86 KCAL/MOL
REMARK 923 INTER-LIGAND FREE ENERGY PREDICTED BY IDOCK:   -5.34 KCAL/MOL
REMARK 924 INTRA-LIGAND FREE ENERGY PREDICTED BY IDOCK:   -0.53 KCAL/MOL
REMARK 927      BINDING AFFINITY PREDICTED BY RF-SCORE:    0.00 PKD
ROOT
HETATM    1  O   UNL     1     -10.097  12.435  68.948  1.00  0.00    -0.411 OA 
HETATM    2  C   UNL     1      -9.486  11.906  67.768  1.00  0.00    -0.184 C  
HETATM    3  H   UNL     1     -11.004  12.151  68.967  1.00  0.00     0.000 HD 
HETATM    4  C   UNL     1     -10.361  12.444  66.619  1.00  0.00    -0.245 A  
HETATM    5  C   UNL     1      -8.006  12.368  67.737  1.00  0.00    -0.156 C  
HETATM    6  C   UNL     1      -9.451  10.300  67.782  1.00  0.00    -0.163 C  
HETATM    7  C   UNL     1     -11.750  12.644  66.819  1.00  0.00    -0.460 A  
HETATM    8  C   UNL     1      -9.852  12.763  65.354  1.00  0.00    -0.143 A  
HETATM    9  C   UNL     1     -10.849   9.639  67.943  1.00  0.00    -0.272 C  
HETATM   10  C   UNL     1     -10.679  13.294  64.350  1.00  0.00    -0.432 A  
HETATM   11  C   UNL     1     -10.057   7.741  69.218  1.00  0.00    -0.199 C  
HETATM   12  C   UNL     1     -10.813   9.041  69.371  1.00  0.00    -0.152 C  
HETATM   13  C   UNL     1      -8.791   8.089  68.939  1.00  0.00    -0.141 C  
HETATM   14  C   UNL     1      -9.712   9.802  70.116  1.00  0.00    -0.299 C  
HETATM   15  C   UNL     1     -12.053  13.481  64.579  1.00  0.00    -0.460 A  
HETATM   16  C   UNL     1      -8.698   9.621  68.991  1.00  0.00    -0.142 C  
HETATM   17  C   UNL     1     -12.589  13.132  65.809  1.00  0.00    -0.351 A  
ENDROOT
BRANCH   5  18
HETATM   18  C   UNL     1      -7.668  13.872  67.774  1.00  0.00    -0.172 C  
BRANCH  18  19
HETATM   19  N   UNL     1      -7.856  14.367  69.157  1.00  0.00    -0.077 NA 
HETATM   20  C   UNL     1      -6.178  16.223  69.217  1.00  0.00    -0.169 C  
HETATM   21  C   UNL     1      -6.635  14.885  69.793  1.00  0.00    -0.170 C  
HETATM   22  C   UNL     1      -7.276  17.264  69.384  1.00  0.00    -0.022 C  
HETATM   23  C   UNL     1      -8.605  16.761  68.826  1.00  0.00    -0.255 C  
HETATM   24  C   UNL     1      -8.945  15.343  69.298  1.00  0.00    -0.261 C  
ENDBRANCH  18  19
ENDBRANCH   5  18
TORSDOF 2
ENDMDL
MODEL       71
REMARK 921   NORMALIZED FREE ENERGY PREDICTED BY IDOCK:   -4.70 KCAL/MOL
REMARK 922        TOTAL FREE ENERGY PREDICTED BY IDOCK:   -5.85 KCAL/MOL
REMARK 923 INTER-LIGAND FREE ENERGY PREDICTED BY IDOCK:   -5.36 KCAL/MOL
REMARK 924 INTRA-LIGAND FREE ENERGY PREDICTED BY IDOCK:   -0.48 KCAL/MOL
REMARK 927      BINDING AFFINITY PREDICTED BY RF-SCORE:    0.00 PKD
ROOT
HETATM    1  O   UNL     1     -12.621  14.060  66.488  1.00  0.00    -0.501 OA 
HETATM    2  C   UNL     1     -11.382  13.562  66.999  1.00  0.00    -0.324 C  
HETATM    3  H   UNL     1     -12.429  14.708  65.819  1.00  0.00     0.000 HD 
HETATM    4  C   UNL     1     -10.649  14.822  67.502  1.00  0.00    -0.259 A  
HETATM    5  C   UNL     1     -11.694  12.506  68.091  1.00  0.00    -0.400 C  
HETATM    6  C   UNL     1     -10.534  12.797  65.870  1.00  0.00    -0.295 C  
HETATM    7  C   UNL     1     -10.839  16.062  66.845  1.00  0.00    -0.203 A  
HETATM    8  C   UNL     1      -9.787  14.817  68.606  1.00  0.00    -0.225 A  
HETATM    9  C   UNL     1     -10.229  13.662  64.615  1.00  0.00    -0.338 C  
HETATM   10  C   UNL     1      -9.175  15.999  69.056  1.00  0.00    -0.244 A  
HETATM   11  C   UNL     1     -10.333  11.826  63.043  1.00  0.00    -0.237 C  
HETATM   12  C   UNL     1     -11.113  13.034  63.509  1.00  0.00    -0.176 C  
HETATM   13  C   UNL     1     -10.363  10.958  64.067  1.00  0.00    -0.417 C  
HETATM   14  C   UNL     1     -12.215  12.264  64.241  1.00  0.00    -0.514 C  
HETATM   15  C   UNL     1      -9.384  17.214  68.382  1.00  0.00    -0.273 A  
HETATM   16  C   UNL     1     -11.234  11.564  65.176  1.00  0.00    -0.214 C  
HETATM   17  C   UNL     1     -10.199  17.237  67.261  1.00  0.00    -0.320 A  
ENDROOT
BRANCH   5  18
HETATM   18  C   UNL     1     -12.552  12.892  69.312  1.00  0.00     0.534 C  
BRANCH  18  19
HETATM   19  N   UNL     1     -11.854  12.452  70.542  1.00  0.00    -0.193 NA 
HETATM   20  C   UNL     1     -13.802  11.868  71.999  1.00  0.00     0.214 C  
HETATM   21  C   UNL     1     -12.571  12.746  71.792  1.00  0.00    -0.023 C  
HETATM   22  C   UNL     1     -13.398  10.401  72.020  1.00  0.00    -0.440 C  
HETATM   23  C   UNL     1     -12.568  10.038  70.791  1.00  0.00    -0.372 C  
HETATM   24  C   UNL     1     -11.442  11.042  70.522  1.00  0.00    -0.145 C  
ENDBRANCH  18  19
ENDBRANCH   5  18
TORSDOF 2
ENDMDL
MODEL       72
REMARK 921   NORMALIZED FREE ENERGY PREDICTED BY IDOCK:   -4.69 KCAL/MOL
REMARK 922        TOTAL FREE ENERGY PREDICTED BY IDOCK:   -5.83 KCAL/MOL
REMARK 923 INTER-LIGAND FREE ENERGY PREDICTED BY IDOCK:   -5.14 KCAL/MOL
REMARK 924 INTRA-LIGAND FREE ENERGY PREDICTED BY IDOCK:   -0.69 KCAL/MOL
REMARK 927      BINDING AFFINITY PREDICTED BY RF-SCORE:    0.00 PKD
ROOT
HETATM    1  O   UNL     1     -11.069   8.992  68.634  1.00  0.00    -0.445 OA 
HETATM    2  C   UNL     1     -10.309   9.881  69.456  1.00  0.00    -0.229 C  
HETATM    3  H   UNL     1     -11.204   8.183  69.114  1.00  0.00     0.000 HD 
HETATM    4  C   UNL     1      -9.024   9.091  69.775  1.00  0.00    -0.157 A  
HETATM    5  C   UNL     1     -10.088  11.201  68.672  1.00  0.00    -0.208 C  
HETATM    6  C   UNL     1     -11.103  10.284  70.793  1.00  0.00    -0.303 C  
HETATM    7  C   UNL     1      -9.071   7.680  69.898  1.00  0.00    -0.147 A  
HETATM    8  C   UNL     1      -7.775   9.700  69.951  1.00  0.00    -0.146 A  
HETATM    9  C   UNL     1     -11.534   9.070  71.661  1.00  0.00    -0.431 C  
HETATM   10  C   UNL     1      -6.622   8.935  70.197  1.00  0.00    -0.040 A  
HETATM   11  C   UNL     1     -13.588  10.075  72.452  1.00  0.00    -0.182 C  
HETATM   12  C   UNL     1     -13.074   9.024  71.495  1.00  0.00    -0.389 C  
HETATM   13  C   UNL     1     -13.203  11.254  71.938  1.00  0.00    -0.491 C  
HETATM   14  C   UNL     1     -13.378   9.792  70.206  1.00  0.00     0.446 C  
HETATM   15  C   UNL     1      -6.702   7.537  70.312  1.00  0.00    -0.047 A  
HETATM   16  C   UNL     1     -12.506  10.981  70.598  1.00  0.00    -0.465 C  
HETATM   17  C   UNL     1      -7.934   6.915  70.186  1.00  0.00    -0.115 A  
ENDROOT
BRANCH   5  18
HETATM   18  C   UNL     1      -9.397  11.172  67.295  1.00  0.00    -0.160 C  
BRANCH  18  19
HETATM   19  N   UNL     1     -10.375  10.715  66.281  1.00  0.00    -0.245 NA 
HETATM   20  C   UNL     1     -10.220  12.575  64.614  1.00  0.00    -0.315 C  
HETATM   21  C   UNL     1     -11.095  11.798  65.594  1.00  0.00    -0.285 C  
HETATM   22  C   UNL     1      -9.659  11.635  63.557  1.00  0.00    -0.269 C  
HETATM   23  C   UNL     1      -8.970  10.431  64.196  1.00  0.00    -0.251 C  
HETATM   24  C   UNL     1      -9.818   9.781  65.294  1.00  0.00    -0.265 C  
ENDBRANCH  18  19
ENDBRANCH   5  18
TORSDOF 2
ENDMDL
MODEL       73
REMARK 921   NORMALIZED FREE ENERGY PREDICTED BY IDOCK:   -4.67 KCAL/MOL
REMARK 922        TOTAL FREE ENERGY PREDICTED BY IDOCK:   -5.81 KCAL/MOL
REMARK 923 INTER-LIGAND FREE ENERGY PREDICTED BY IDOCK:   -5.33 KCAL/MOL
REMARK 924 INTRA-LIGAND FREE ENERGY PREDICTED BY IDOCK:   -0.48 KCAL/MOL
REMARK 927      BINDING AFFINITY PREDICTED BY RF-SCORE:    0.00 PKD
ROOT
HETATM    1  O   UNL     1     -10.059   6.016  71.028  1.00  0.00    -0.182 OA 
HETATM    2  C   UNL     1     -10.176   7.351  70.530  1.00  0.00    -0.193 C  
HETATM    3  H   UNL     1     -10.778   5.503  70.677  1.00  0.00     0.000 HD 
HETATM    4  C   UNL     1     -11.579   7.801  70.984  1.00  0.00    -0.301 A  
HETATM    5  C   UNL     1      -9.003   8.189  71.102  1.00  0.00    -0.174 C  
HETATM    6  C   UNL     1     -10.026   7.408  68.932  1.00  0.00    -0.169 C  
HETATM    7  C   UNL     1     -12.629   6.854  71.082  1.00  0.00    -0.366 A  
HETATM    8  C   UNL     1     -11.887   9.124  71.323  1.00  0.00    -0.396 A  
HETATM    9  C   UNL     1     -11.045   6.516  68.170  1.00  0.00    -0.332 C  
HETATM   10  C   UNL     1     -13.169   9.479  71.776  1.00  0.00    -0.505 A  
HETATM   11  C   UNL     1      -9.544   5.958  66.355  1.00  0.00    -0.173 C  
HETATM   12  C   UNL     1     -10.176   5.369  67.596  1.00  0.00    -0.236 C  
HETATM   13  C   UNL     1      -8.678   6.885  66.793  1.00  0.00    -0.122 C  
HETATM   14  C   UNL     1      -8.904   5.343  68.448  1.00  0.00    -0.102 C  
HETATM   15  C   UNL     1     -14.189   8.517  71.862  1.00  0.00    -0.536 A  
HETATM   16  C   UNL     1      -8.680   6.847  68.328  1.00  0.00    -0.123 C  
HETATM   17  C   UNL     1     -13.921   7.208  71.490  1.00  0.00    -0.440 A  
ENDROOT
BRANCH   5  18
HETATM   18  C   UNL     1      -8.808   8.302  72.627  1.00  0.00    -0.234 C  
BRANCH  18  19
HETATM   19  N   UNL     1      -7.389   8.623  72.902  1.00  0.00    -0.349 NA 
HETATM   20  C   UNL     1      -6.818   6.830  74.551  1.00  0.00    -0.095 C  
HETATM   21  C   UNL     1      -6.949   8.325  74.274  1.00  0.00    -0.156 C  
HETATM   22  C   UNL     1      -5.818   6.206  73.587  1.00  0.00    -0.054 C  
HETATM   23  C   UNL     1      -6.159   6.549  72.139  1.00  0.00    -0.038 C  
HETATM   24  C   UNL     1      -6.448   8.040  71.938  1.00  0.00    -0.053 C  
ENDBRANCH  18  19
ENDBRANCH   5  18
TORSDOF 2
ENDMDL
MODEL       74
REMARK 921   NORMALIZED FREE ENERGY PREDICTED BY IDOCK:   -4.66 KCAL/MOL
REMARK 922        TOTAL FREE ENERGY PREDICTED BY IDOCK:   -5.79 KCAL/MOL
REMARK 923 INTER-LIGAND FREE ENERGY PREDICTED BY IDOCK:   -5.36 KCAL/MOL
REMARK 924 INTRA-LIGAND FREE ENERGY PREDICTED BY IDOCK:   -0.44 KCAL/MOL
REMARK 927      BINDING AFFINITY PREDICTED BY RF-SCORE:    0.00 PKD
ROOT
HETATM    1  O   UNL     1     -10.351  14.915  66.422  1.00  0.00    -0.271 OA 
HETATM    2  C   UNL     1     -10.683  13.676  67.054  1.00  0.00    -0.278 C  
HETATM    3  H   UNL     1      -9.687  14.745  65.764  1.00  0.00     0.000 HD 
HETATM    4  C   UNL     1      -9.338  13.163  67.605  1.00  0.00    -0.205 A  
HETATM    5  C   UNL     1     -11.768  13.952  68.128  1.00  0.00    -0.388 C  
HETATM    6  C   UNL     1     -11.335  12.633  66.021  1.00  0.00    -0.369 C  
HETATM    7  C   UNL     1      -8.134  13.448  66.913  1.00  0.00     0.097 A  
HETATM    8  C   UNL     1      -9.228  12.416  68.784  1.00  0.00     0.127 A  
HETATM    9  C   UNL     1     -10.442  12.324  64.788  1.00  0.00    -0.328 C  
HETATM   10  C   UNL     1      -7.975  12.007  69.272  1.00  0.00     0.440 A  
HETATM   11  C   UNL     1     -12.281  12.041  63.241  1.00  0.00    -0.531 C  
HETATM   12  C   UNL     1     -11.182  13.010  63.613  1.00  0.00    -0.333 C  
HETATM   13  C   UNL     1     -13.142  12.056  64.270  1.00  0.00     0.067 C  
HETATM   14  C   UNL     1     -12.087  14.069  64.250  1.00  0.00    -0.476 C  
HETATM   15  C   UNL     1      -6.799  12.306  68.563  1.00  0.00    -0.081 A  
HETATM   16  C   UNL     1     -12.651  13.099  65.283  1.00  0.00    -0.531 C  
HETATM   17  C   UNL     1      -6.886  13.007  67.370  1.00  0.00    -0.126 A  
ENDROOT
BRANCH   5  18
HETATM   18  C   UNL     1     -11.493  14.965  69.257  1.00  0.00    -0.303 C  
BRANCH  18  19
HETATM   19  N   UNL     1     -11.443  14.238  70.546  1.00  0.00    -0.163 NA 
HETATM   20  C   UNL     1     -12.487  15.924  72.072  1.00  0.00    -0.534 C  
HETATM   21  C   UNL     1     -11.253  15.095  71.726  1.00  0.00    -0.223 C  
HETATM   22  C   UNL     1     -13.672  15.007  72.340  1.00  0.00    -0.585 C  
HETATM   23  C   UNL     1     -13.880  14.021  71.192  1.00  0.00    -0.081 C  
HETATM   24  C   UNL     1     -12.579  13.333  70.764  1.00  0.00    -0.280 C  
ENDBRANCH  18  19
ENDBRANCH   5  18
TORSDOF 2
ENDMDL
MODEL       75
REMARK 921   NORMALIZED FREE ENERGY PREDICTED BY IDOCK:   -4.64 KCAL/MOL
REMARK 922        TOTAL FREE ENERGY PREDICTED BY IDOCK:   -5.77 KCAL/MOL
REMARK 923 INTER-LIGAND FREE ENERGY PREDICTED BY IDOCK:   -5.39 KCAL/MOL
REMARK 924 INTRA-LIGAND FREE ENERGY PREDICTED BY IDOCK:   -0.38 KCAL/MOL
REMARK 927      BINDING AFFINITY PREDICTED BY RF-SCORE:    0.00 PKD
ROOT
HETATM    1  O   UNL     1      -8.167  11.156  65.684  1.00  0.00    -0.336 OA 
HETATM    2  C   UNL     1      -8.973  10.111  65.133  1.00  0.00    -0.192 C  
HETATM    3  H   UNL     1      -7.847  11.694  64.969  1.00  0.00     0.000 HD 
HETATM    4  C   UNL     1      -8.032   9.391  64.147  1.00  0.00    -0.134 A  
HETATM    5  C   UNL     1      -9.496   9.233  66.300  1.00  0.00    -0.284 C  
HETATM    6  C   UNL     1     -10.275  10.689  64.392  1.00  0.00    -0.400 C  
HETATM    7  C   UNL     1      -7.034  10.123  63.458  1.00  0.00    -0.116 A  
HETATM    8  C   UNL     1      -8.101   8.017  63.888  1.00  0.00    -0.097 A  
HETATM    9  C   UNL     1      -9.960  11.705  63.260  1.00  0.00    -0.442 C  
HETATM   10  C   UNL     1      -7.193   7.395  63.015  1.00  0.00    -0.079 A  
HETATM   11  C   UNL     1     -11.934  13.059  63.613  1.00  0.00    -0.608 C  
HETATM   12  C   UNL     1     -10.439  13.061  63.836  1.00  0.00    -0.241 C  
HETATM   13  C   UNL     1     -12.423  12.121  64.440  1.00  0.00    -0.418 C  
HETATM   14  C   UNL     1     -10.484  12.878  65.355  1.00  0.00    -0.308 C  
HETATM   15  C   UNL     1      -6.214   8.148  62.346  1.00  0.00    -0.087 A  
HETATM   16  C   UNL     1     -11.256  11.565  65.267  1.00  0.00    -0.203 C  
HETATM   17  C   UNL     1      -6.153   9.518  62.552  1.00  0.00    -0.097 A  
ENDROOT
BRANCH   5  18
HETATM   18  C   UNL     1      -8.499   8.561  67.265  1.00  0.00    -0.123 C  
BRANCH  18  19
HETATM   19  N   UNL     1      -8.625   7.091  67.129  1.00  0.00    -0.120 NA 
HETATM   20  C   UNL     1      -9.040   6.440  69.509  1.00  0.00    -0.138 C  
HETATM   21  C   UNL     1      -8.135   6.326  68.286  1.00  0.00    -0.112 C  
HETATM   22  C   UNL     1     -10.438   5.942  69.172  1.00  0.00    -0.338 C  
HETATM   23  C   UNL     1     -10.983   6.629  67.921  1.00  0.00    -0.342 C  
HETATM   24  C   UNL     1      -9.975   6.639  66.767  1.00  0.00    -0.176 C  
ENDBRANCH  18  19
ENDBRANCH   5  18
TORSDOF 2
ENDMDL
MODEL       76
REMARK 921   NORMALIZED FREE ENERGY PREDICTED BY IDOCK:   -4.62 KCAL/MOL
REMARK 922        TOTAL FREE ENERGY PREDICTED BY IDOCK:   -5.75 KCAL/MOL
REMARK 923 INTER-LIGAND FREE ENERGY PREDICTED BY IDOCK:   -5.30 KCAL/MOL
REMARK 924 INTRA-LIGAND FREE ENERGY PREDICTED BY IDOCK:   -0.45 KCAL/MOL
REMARK 927      BINDING AFFINITY PREDICTED BY RF-SCORE:    0.00 PKD
ROOT
HETATM    1  O   UNL     1      -8.858   8.289  69.855  1.00  0.00    -0.136 OA 
HETATM    2  C   UNL     1      -9.864   8.782  68.967  1.00  0.00    -0.181 C  
HETATM    3  H   UNL     1      -9.251   7.629  70.415  1.00  0.00     0.000 HD 
HETATM    4  C   UNL     1     -10.972   9.301  69.906  1.00  0.00    -0.231 A  
HETATM    5  C   UNL     1      -9.222   9.859  68.054  1.00  0.00    -0.129 C  
HETATM    6  C   UNL     1     -10.411   7.634  67.986  1.00  0.00    -0.257 C  
HETATM    7  C   UNL     1     -11.200   8.666  71.151  1.00  0.00    -0.329 A  
HETATM    8  C   UNL     1     -11.785  10.398  69.596  1.00  0.00    -0.283 A  
HETATM    9  C   UNL     1     -10.982   6.392  68.724  1.00  0.00    -0.404 C  
HETATM   10  C   UNL     1     -12.753  10.864  70.503  1.00  0.00    -0.363 A  
HETATM   11  C   UNL     1     -10.277   4.790  67.053  1.00  0.00    -0.205 C  
HETATM   12  C   UNL     1      -9.940   5.282  68.443  1.00  0.00    -0.220 C  
HETATM   13  C   UNL     1      -9.964   5.800  66.226  1.00  0.00    -0.129 C  
HETATM   14  C   UNL     1      -8.646   6.009  68.066  1.00  0.00    -0.114 C  
HETATM   15  C   UNL     1     -12.955  10.212  71.731  1.00  0.00    -0.567 A  
HETATM   16  C   UNL     1      -9.343   6.925  67.065  1.00  0.00    -0.170 C  
HETATM   17  C   UNL     1     -12.192   9.097  72.041  1.00  0.00    -0.443 A  
ENDROOT
BRANCH   5  18
HETATM   18  C   UNL     1      -8.540  11.092  68.679  1.00  0.00    -0.151 C  
BRANCH  18  19
HETATM   19  N   UNL     1      -8.208  12.050  67.598  1.00  0.00    -0.145 NA 
HETATM   20  C   UNL     1      -9.547  14.039  68.313  1.00  0.00    -0.224 C  
HETATM   21  C   UNL     1      -9.295  12.977  67.247  1.00  0.00    -0.220 C  
HETATM   22  C   UNL     1      -8.284  14.857  68.544  1.00  0.00    -0.153 C  
HETATM   23  C   UNL     1      -7.085  13.955  68.828  1.00  0.00    -0.109 C  
HETATM   24  C   UNL     1      -6.966  12.799  67.827  1.00  0.00    -0.131 C  
ENDBRANCH  18  19
ENDBRANCH   5  18
TORSDOF 2
ENDMDL
MODEL       77
REMARK 921   NORMALIZED FREE ENERGY PREDICTED BY IDOCK:   -4.61 KCAL/MOL
REMARK 922        TOTAL FREE ENERGY PREDICTED BY IDOCK:   -5.74 KCAL/MOL
REMARK 923 INTER-LIGAND FREE ENERGY PREDICTED BY IDOCK:   -5.18 KCAL/MOL
REMARK 924 INTRA-LIGAND FREE ENERGY PREDICTED BY IDOCK:   -0.56 KCAL/MOL
REMARK 927      BINDING AFFINITY PREDICTED BY RF-SCORE:    0.00 PKD
ROOT
HETATM    1  O   UNL     1      -8.677   8.841  68.905  1.00  0.00    -0.131 OA 
HETATM    2  C   UNL     1     -10.000   9.040  68.400  1.00  0.00    -0.180 C  
HETATM    3  H   UNL     1      -8.494   9.523  69.541  1.00  0.00     0.000 HD 
HETATM    4  C   UNL     1      -9.973  10.472  67.830  1.00  0.00    -0.198 A  
HETATM    5  C   UNL     1     -10.298   7.927  67.362  1.00  0.00    -0.349 C  
HETATM    6  C   UNL     1     -11.109   8.883  69.552  1.00  0.00    -0.015 C  
HETATM    7  C   UNL     1      -9.156  11.460  68.433  1.00  0.00    -0.179 A  
HETATM    8  C   UNL     1     -10.725  10.866  66.716  1.00  0.00    -0.309 A  
HETATM    9  C   UNL     1     -10.902   9.837  70.761  1.00  0.00    -0.403 C  
HETATM   10  C   UNL     1     -10.635  12.172  66.203  1.00  0.00    -0.290 A  
HETATM   11  C   UNL     1     -11.753   8.291  72.417  1.00  0.00    -0.463 C  
HETATM   12  C   UNL     1     -10.463   8.892  71.907  1.00  0.00    -0.415 C  
HETATM   13  C   UNL     1     -12.193   7.490  71.435  1.00  0.00    -0.363 C  
HETATM   14  C   UNL     1      -9.934   7.627  71.226  1.00  0.00    -0.195 C  
HETATM   15  C   UNL     1      -9.814  13.129  66.824  1.00  0.00    -0.251 A  
HETATM   16  C   UNL     1     -11.148   7.500  70.311  1.00  0.00    -0.263 C  
HETATM   17  C   UNL     1      -9.093  12.775  67.954  1.00  0.00    -0.204 A  
ENDROOT
BRANCH   5  18
HETATM   18  C   UNL     1      -9.380   7.751  66.137  1.00  0.00    -0.100 C  
BRANCH  18  19
HETATM   19  N   UNL     1      -8.410   6.668  66.421  1.00  0.00    -0.116 NA 
HETATM   20  C   UNL     1      -9.917   4.671  66.370  1.00  0.00    -0.267 C  
HETATM   21  C   UNL     1      -8.962   5.538  67.185  1.00  0.00    -0.112 C  
HETATM   22  C   UNL     1      -9.200   4.111  65.149  1.00  0.00    -0.153 C  
HETATM   23  C   UNL     1      -8.522   5.221  64.349  1.00  0.00    -0.126 C  
HETATM   24  C   UNL     1      -7.706   6.171  65.233  1.00  0.00    -0.095 C  
ENDBRANCH  18  19
ENDBRANCH   5  18
TORSDOF 2
ENDMDL
MODEL       78
REMARK 921   NORMALIZED FREE ENERGY PREDICTED BY IDOCK:   -4.60 KCAL/MOL
REMARK 922        TOTAL FREE ENERGY PREDICTED BY IDOCK:   -5.73 KCAL/MOL
REMARK 923 INTER-LIGAND FREE ENERGY PREDICTED BY IDOCK:   -5.16 KCAL/MOL
REMARK 924 INTRA-LIGAND FREE ENERGY PREDICTED BY IDOCK:   -0.57 KCAL/MOL
REMARK 927      BINDING AFFINITY PREDICTED BY RF-SCORE:    0.00 PKD
ROOT
HETATM    1  O   UNL     1      -9.135  10.558  69.929  1.00  0.00    -0.395 OA 
HETATM    2  C   UNL     1     -10.438  10.664  69.348  1.00  0.00    -0.225 C  
HETATM    3  H   UNL     1      -8.982   9.647  70.152  1.00  0.00     0.000 HD 
HETATM    4  C   UNL     1     -11.378  10.090  70.426  1.00  0.00    -0.392 A  
HETATM    5  C   UNL     1     -10.689  12.151  68.985  1.00  0.00    -0.163 C  
HETATM    6  C   UNL     1     -10.546   9.845  67.971  1.00  0.00    -0.288 C  
HETATM    7  C   UNL     1     -10.929   9.049  71.276  1.00  0.00    -0.384 A  
HETATM    8  C   UNL     1     -12.685  10.551  70.626  1.00  0.00    -0.441 A  
HETATM    9  C   UNL     1     -10.197   8.337  68.104  1.00  0.00    -0.255 C  
HETATM   10  C   UNL     1     -13.492  10.028  71.651  1.00  0.00    -0.398 A  
HETATM   11  C   UNL     1      -9.217   8.136  65.901  1.00  0.00    -0.158 C  
HETATM   12  C   UNL     1      -8.843   8.204  67.364  1.00  0.00    -0.131 C  
HETATM   13  C   UNL     1      -9.683   9.355  65.588  1.00  0.00    -0.336 C  
HETATM   14  C   UNL     1      -8.245   9.613  67.330  1.00  0.00    -0.114 C  
HETATM   15  C   UNL     1     -13.017   8.996  72.479  1.00  0.00    -0.429 A  
HETATM   16  C   UNL     1      -9.537  10.250  66.827  1.00  0.00    -0.214 C  
HETATM   17  C   UNL     1     -11.742   8.492  72.272  1.00  0.00    -0.443 A  
ENDROOT
BRANCH   5  18
HETATM   18  C   UNL     1     -10.602  13.236  70.077  1.00  0.00     1.176 C  
BRANCH  18  19
HETATM   19  N   UNL     1     -11.225  14.478  69.563  1.00  0.00    -0.259 NA 
HETATM   20  C   UNL     1     -13.435  14.407  70.733  1.00  0.00    -0.122 C  
HETATM   21  C   UNL     1     -12.685  14.409  69.403  1.00  0.00     0.265 C  
HETATM   22  C   UNL     1     -13.105  15.666  71.521  1.00  0.00    -0.561 C  
HETATM   23  C   UNL     1     -11.595  15.856  71.652  1.00  0.00    -0.541 C  
HETATM   24  C   UNL     1     -10.861  15.684  70.318  1.00  0.00    -0.350 C  
ENDBRANCH  18  19
ENDBRANCH   5  18
TORSDOF 2
ENDMDL
MODEL       79
REMARK 921   NORMALIZED FREE ENERGY PREDICTED BY IDOCK:   -4.57 KCAL/MOL
REMARK 922        TOTAL FREE ENERGY PREDICTED BY IDOCK:   -5.70 KCAL/MOL
REMARK 923 INTER-LIGAND FREE ENERGY PREDICTED BY IDOCK:   -5.21 KCAL/MOL
REMARK 924 INTRA-LIGAND FREE ENERGY PREDICTED BY IDOCK:   -0.49 KCAL/MOL
REMARK 927      BINDING AFFINITY PREDICTED BY RF-SCORE:    0.00 PKD
ROOT
HETATM    1  O   UNL     1     -10.511  11.927  68.078  1.00  0.00    -0.196 OA 
HETATM    2  C   UNL     1     -10.217  13.308  67.850  1.00  0.00    -0.233 C  
HETATM    3  H   UNL     1     -11.454  11.832  68.158  1.00  0.00     0.000 HD 
HETATM    4  C   UNL     1     -10.846  14.031  69.058  1.00  0.00    -0.268 A  
HETATM    5  C   UNL     1      -8.679  13.463  67.721  1.00  0.00    -0.197 C  
HETATM    6  C   UNL     1     -10.835  13.828  66.462  1.00  0.00    -0.287 C  
HETATM    7  C   UNL     1     -12.024  13.520  69.655  1.00  0.00    -0.397 A  
HETATM    8  C   UNL     1     -10.304  15.193  69.620  1.00  0.00    -0.238 A  
HETATM    9  C   UNL     1     -12.373  13.634  66.343  1.00  0.00    -0.441 C  
HETATM   10  C   UNL     1     -10.886  15.793  70.750  1.00  0.00    -0.229 A  
HETATM   11  C   UNL     1     -12.366  13.224  63.958  1.00  0.00    -0.415 C  
HETATM   12  C   UNL     1     -12.523  12.514  65.283  1.00  0.00    -0.390 C  
HETATM   13  C   UNL     1     -11.080  13.606  63.902  1.00  0.00     0.015 C  
HETATM   14  C   UNL     1     -11.179  11.782  65.254  1.00  0.00    -0.315 C  
HETATM   15  C   UNL     1     -12.055  15.261  71.320  1.00  0.00    -0.407 A  
HETATM   16  C   UNL     1     -10.372  13.073  65.155  1.00  0.00    -0.321 C  
HETATM   17  C   UNL     1     -12.635  14.137  70.754  1.00  0.00    -0.432 A  
ENDROOT
BRANCH   5  18
HETATM   18  C   UNL     1      -7.759  13.000  68.867  1.00  0.00     0.088 C  
BRANCH  18  19
HETATM   19  N   UNL     1      -6.828  11.973  68.344  1.00  0.00    -0.066 NA 
HETATM   20  C   UNL     1      -5.312  11.675  70.312  1.00  0.00    -0.111 C  
HETATM   21  C   UNL     1      -5.451  12.083  68.848  1.00  0.00    -0.050 C  
HETATM   22  C   UNL     1      -5.770  10.236  70.498  1.00  0.00    -0.085 C  
HETATM   23  C   UNL     1      -7.165  10.020  69.916  1.00  0.00    -0.145 C  
HETATM   24  C   UNL     1      -7.310  10.595  68.503  1.00  0.00    -0.090 C  
ENDBRANCH  18  19
ENDBRANCH   5  18
TORSDOF 2
ENDMDL
MODEL       80
REMARK 921   NORMALIZED FREE ENERGY PREDICTED BY IDOCK:   -4.57 KCAL/MOL
REMARK 922        TOTAL FREE ENERGY PREDICTED BY IDOCK:   -5.69 KCAL/MOL
REMARK 923 INTER-LIGAND FREE ENERGY PREDICTED BY IDOCK:   -5.25 KCAL/MOL
REMARK 924 INTRA-LIGAND FREE ENERGY PREDICTED BY IDOCK:   -0.44 KCAL/MOL
REMARK 927      BINDING AFFINITY PREDICTED BY RF-SCORE:    0.00 PKD
ROOT
HETATM    1  O   UNL     1     -10.007  10.715  70.271  1.00  0.00    -0.296 OA 
HETATM    2  C   UNL     1     -10.841  10.212  69.225  1.00  0.00    -0.235 C  
HETATM    3  H   UNL     1     -10.513  11.334  70.785  1.00  0.00     0.000 HD 
HETATM    4  C   UNL     1     -11.293  11.474  68.464  1.00  0.00    -0.337 A  
HETATM    5  C   UNL     1     -10.014   9.202  68.387  1.00  0.00    -0.202 C  
HETATM    6  C   UNL     1     -12.094   9.390  69.804  1.00  0.00     0.539 C  
HETATM    7  C   UNL     1     -11.478  12.693  69.161  1.00  0.00    -0.359 A  
HETATM    8  C   UNL     1     -11.533  11.491  67.085  1.00  0.00    -0.313 A  
HETATM    9  C   UNL     1     -12.984  10.203  70.784  1.00  0.00    -0.380 C  
HETATM   10  C   UNL     1     -11.900  12.677  66.425  1.00  0.00    -0.466 A  
HETATM   11  C   UNL     1     -13.570   8.314  72.178  1.00  0.00    -0.313 C  
HETATM   12  C   UNL     1     -12.704   9.553  72.163  1.00  0.00    -0.442 C  
HETATM   13  C   UNL     1     -13.031   7.484  71.270  1.00  0.00    -0.323 C  
HETATM   14  C   UNL     1     -11.362   8.832  72.020  1.00  0.00    -0.441 C  
HETATM   15  C   UNL     1     -12.075  13.870  67.145  1.00  0.00    -0.422 A  
HETATM   16  C   UNL     1     -11.762   8.146  70.718  1.00  0.00    -0.211 C  
HETATM   17  C   UNL     1     -11.886  13.869  68.519  1.00  0.00    -0.401 A  
ENDROOT
BRANCH   5  18
HETATM   18  C   UNL     1      -8.696   9.648  67.724  1.00  0.00    -0.122 C  
BRANCH  18  19
HETATM   19  N   UNL     1      -7.986  10.562  68.648  1.00  0.00    -0.116 NA 
HETATM   20  C   UNL     1      -5.620   9.825  68.303  1.00  0.00    -0.039 C  
HETATM   21  C   UNL     1      -6.785   9.988  69.275  1.00  0.00    -0.057 C  
HETATM   22  C   UNL     1      -5.243  11.175  67.709  1.00  0.00    -0.040 C  
HETATM   23  C   UNL     1      -6.462  11.878  67.115  1.00  0.00    -0.146 C  
HETATM   24  C   UNL     1      -7.667  11.871  68.063  1.00  0.00    -0.132 C  
ENDBRANCH  18  19
ENDBRANCH   5  18
TORSDOF 2
ENDMDL
MODEL       81
REMARK 921   NORMALIZED FREE ENERGY PREDICTED BY IDOCK:   -4.56 KCAL/MOL
REMARK 922        TOTAL FREE ENERGY PREDICTED BY IDOCK:   -5.68 KCAL/MOL
REMARK 923 INTER-LIGAND FREE ENERGY PREDICTED BY IDOCK:   -5.35 KCAL/MOL
REMARK 924 INTRA-LIGAND FREE ENERGY PREDICTED BY IDOCK:   -0.34 KCAL/MOL
REMARK 927      BINDING AFFINITY PREDICTED BY RF-SCORE:    0.00 PKD
ROOT
HETATM    1  O   UNL     1     -12.559  11.095  68.871  1.00  0.00    -0.531 OA 
HETATM    2  C   UNL     1     -11.245  11.613  69.093  1.00  0.00    -0.263 C  
HETATM    3  H   UNL     1     -12.505  10.413  68.211  1.00  0.00     0.000 HD 
HETATM    4  C   UNL     1     -10.789  12.090  67.699  1.00  0.00    -0.273 A  
HETATM    5  C   UNL     1     -11.335  12.726  70.169  1.00  0.00     0.172 C  
HETATM    6  C   UNL     1     -10.256  10.496  69.687  1.00  0.00    -0.207 C  
HETATM    7  C   UNL     1     -11.231  11.409  66.538  1.00  0.00    -0.276 A  
HETATM    8  C   UNL     1      -9.947  13.191  67.505  1.00  0.00    -0.223 A  
HETATM    9  C   UNL     1     -10.133   9.225  68.802  1.00  0.00    -0.210 C  
HETATM   10  C   UNL     1      -9.594  13.618  66.213  1.00  0.00    -0.254 A  
HETATM   11  C   UNL     1      -9.853   7.688  70.651  1.00  0.00    -0.182 C  
HETATM   12  C   UNL     1     -10.866   8.132  69.621  1.00  0.00    -0.162 C  
HETATM   13  C   UNL     1      -9.704   8.728  71.486  1.00  0.00    -0.361 C  
HETATM   14  C   UNL     1     -11.787   8.882  70.588  1.00  0.00    -0.159 C  
HETATM   15  C   UNL     1     -10.048  12.921  65.081  1.00  0.00    -0.241 A  
HETATM   16  C   UNL     1     -10.684   9.828  71.052  1.00  0.00    -0.342 C  
HETATM   17  C   UNL     1     -10.848  11.801  65.249  1.00  0.00    -0.343 A  
ENDROOT
BRANCH   5  18
HETATM   18  C   UNL     1     -12.256  13.941  69.946  1.00  0.00    -0.333 C  
BRANCH  18  19
HETATM   19  N   UNL     1     -13.436  13.811  70.832  1.00  0.00    -0.033 NA 
HETATM   20  C   UNL     1     -12.323  13.674  73.069  1.00  0.00     0.739 C  
HETATM   21  C   UNL     1     -13.212  12.992  72.033  1.00  0.00    -0.444 C  
HETATM   22  C   UNL     1     -12.948  14.992  73.506  1.00  0.00    -0.564 C  
HETATM   23  C   UNL     1     -13.294  15.866  72.302  1.00  0.00    -0.410 C  
HETATM   24  C   UNL     1     -14.042  15.095  71.209  1.00  0.00    -0.445 C  
ENDBRANCH  18  19
ENDBRANCH   5  18
TORSDOF 2
ENDMDL
MODEL       82
REMARK 921   NORMALIZED FREE ENERGY PREDICTED BY IDOCK:   -4.53 KCAL/MOL
REMARK 922        TOTAL FREE ENERGY PREDICTED BY IDOCK:   -5.65 KCAL/MOL
REMARK 923 INTER-LIGAND FREE ENERGY PREDICTED BY IDOCK:   -4.93 KCAL/MOL
REMARK 924 INTRA-LIGAND FREE ENERGY PREDICTED BY IDOCK:   -0.72 KCAL/MOL
REMARK 927      BINDING AFFINITY PREDICTED BY RF-SCORE:    0.00 PKD
ROOT
HETATM    1  O   UNL     1     -10.129   9.080  65.537  1.00  0.00    -0.369 OA 
HETATM    2  C   UNL     1      -8.932   9.026  66.317  1.00  0.00    -0.162 C  
HETATM    3  H   UNL     1     -10.083   8.403  64.872  1.00  0.00     0.000 HD 
HETATM    4  C   UNL     1      -7.802   9.204  65.283  1.00  0.00    -0.105 A  
HETATM    5  C   UNL     1      -9.007  10.131  67.402  1.00  0.00    -0.142 C  
HETATM    6  C   UNL     1      -8.796   7.634  67.107  1.00  0.00    -0.129 C  
HETATM    7  C   UNL     1      -7.961   8.705  63.967  1.00  0.00    -0.158 A  
HETATM    8  C   UNL     1      -6.596   9.854  65.572  1.00  0.00    -0.092 A  
HETATM    9  C   UNL     1      -8.834   6.381  66.189  1.00  0.00    -0.158 C  
HETATM   10  C   UNL     1      -5.611  10.032  64.585  1.00  0.00    -0.099 A  
HETATM   11  C   UNL     1      -9.958   4.959  67.793  1.00  0.00    -0.186 C  
HETATM   12  C   UNL     1     -10.201   5.726  66.513  1.00  0.00    -0.241 C  
HETATM   13  C   UNL     1      -9.767   5.889  68.743  1.00  0.00    -0.161 C  
HETATM   14  C   UNL     1     -11.059   6.834  67.129  1.00  0.00    -0.404 C  
HETATM   15  C   UNL     1      -5.799   9.526  63.288  1.00  0.00    -0.091 A  
HETATM   16  C   UNL     1      -9.967   7.269  68.101  1.00  0.00    -0.181 C  
HETATM   17  C   UNL     1      -6.967   8.841  62.989  1.00  0.00    -0.090 A  
ENDROOT
BRANCH   5  18
HETATM   18  C   UNL     1      -9.200  11.604  66.990  1.00  0.00    -0.183 C  
BRANCH  18  19
HETATM   19  N   UNL     1     -10.540  11.755  66.379  1.00  0.00    -0.245 NA 
HETATM   20  C   UNL     1     -11.671  13.188  68.091  1.00  0.00    -0.391 C  
HETATM   21  C   UNL     1     -11.645  11.856  67.345  1.00  0.00    -0.297 C  
HETATM   22  C   UNL     1     -11.802  14.337  67.101  1.00  0.00    -0.454 C  
HETATM   23  C   UNL     1     -10.739  14.250  66.009  1.00  0.00    -0.304 C  
HETATM   24  C   UNL     1     -10.630  12.847  65.401  1.00  0.00    -0.289 C  
ENDBRANCH  18  19
ENDBRANCH   5  18
TORSDOF 2
ENDMDL
MODEL       83
REMARK 921   NORMALIZED FREE ENERGY PREDICTED BY IDOCK:   -4.52 KCAL/MOL
REMARK 922        TOTAL FREE ENERGY PREDICTED BY IDOCK:   -5.64 KCAL/MOL
REMARK 923 INTER-LIGAND FREE ENERGY PREDICTED BY IDOCK:   -5.14 KCAL/MOL
REMARK 924 INTRA-LIGAND FREE ENERGY PREDICTED BY IDOCK:   -0.50 KCAL/MOL
REMARK 927      BINDING AFFINITY PREDICTED BY RF-SCORE:    0.00 PKD
ROOT
HETATM    1  O   UNL     1     -10.472  10.249  65.387  1.00  0.00    -0.217 OA 
HETATM    2  C   UNL     1      -9.684  11.166  66.150  1.00  0.00    -0.218 C  
HETATM    3  H   UNL     1     -11.344  10.218  65.764  1.00  0.00     0.000 HD 
HETATM    4  C   UNL     1      -9.752  10.614  67.588  1.00  0.00    -0.186 A  
HETATM    5  C   UNL     1      -8.261  11.216  65.535  1.00  0.00     0.102 C  
HETATM    6  C   UNL     1     -10.259  12.663  66.065  1.00  0.00    -0.287 C  
HETATM    7  C   UNL     1     -10.919   9.946  68.036  1.00  0.00    -0.269 A  
HETATM    8  C   UNL     1      -8.699  10.729  68.503  1.00  0.00    -0.149 A  
HETATM    9  C   UNL     1     -11.739  12.798  66.521  1.00  0.00    -0.463 C  
HETATM   10  C   UNL     1      -8.789  10.170  69.790  1.00  0.00    -0.152 A  
HETATM   11  C   UNL     1     -12.297  14.560  64.959  1.00  0.00    -0.353 C  
HETATM   12  C   UNL     1     -12.506  13.083  65.206  1.00  0.00    -0.555 C  
HETATM   13  C   UNL     1     -10.997  14.697  64.656  1.00  0.00    -0.340 C  
HETATM   14  C   UNL     1     -11.602  12.584  64.077  1.00  0.00    -0.485 C  
HETATM   15  C   UNL     1      -9.960   9.513  70.204  1.00  0.00    -0.285 A  
HETATM   16  C   UNL     1     -10.369  13.296  64.623  1.00  0.00    -0.394 C  
HETATM   17  C   UNL     1     -11.033   9.424  69.331  1.00  0.00    -0.165 A  
ENDROOT
BRANCH   5  18
HETATM   18  C   UNL     1      -7.432   9.923  65.405  1.00  0.00    -0.132 C  
BRANCH  18  19
HETATM   19  N   UNL     1      -6.698   9.957  64.119  1.00  0.00    -0.122 NA 
HETATM   20  C   UNL     1      -5.963   7.571  63.942  1.00  0.00    -0.049 C  
HETATM   21  C   UNL     1      -5.552   9.038  64.045  1.00  0.00    -0.069 C  
HETATM   22  C   UNL     1      -6.822   7.357  62.704  1.00  0.00    -0.070 C  
HETATM   23  C   UNL     1      -7.990   8.341  62.663  1.00  0.00    -0.159 C  
HETATM   24  C   UNL     1      -7.554   9.784  62.939  1.00  0.00    -0.124 C  
ENDBRANCH  18  19
ENDBRANCH   5  18
TORSDOF 2
ENDMDL
MODEL       84
REMARK 921   NORMALIZED FREE ENERGY PREDICTED BY IDOCK:   -4.52 KCAL/MOL
REMARK 922        TOTAL FREE ENERGY PREDICTED BY IDOCK:   -5.64 KCAL/MOL
REMARK 923 INTER-LIGAND FREE ENERGY PREDICTED BY IDOCK:   -5.06 KCAL/MOL
REMARK 924 INTRA-LIGAND FREE ENERGY PREDICTED BY IDOCK:   -0.58 KCAL/MOL
REMARK 927      BINDING AFFINITY PREDICTED BY RF-SCORE:    0.00 PKD
ROOT
HETATM    1  O   UNL     1      -8.533   7.922  68.640  1.00  0.00    -0.127 OA 
HETATM    2  C   UNL     1      -9.928   7.632  68.755  1.00  0.00    -0.174 C  
HETATM    3  H   UNL     1      -8.053   7.299  69.173  1.00  0.00     0.000 HD 
HETATM    4  C   UNL     1     -10.206   7.721  70.269  1.00  0.00    -0.199 A  
HETATM    5  C   UNL     1     -10.711   8.649  67.885  1.00  0.00    -0.158 C  
HETATM    6  C   UNL     1     -10.286   6.179  68.173  1.00  0.00    -0.242 C  
HETATM    7  C   UNL     1      -9.201   7.353  71.197  1.00  0.00    -0.155 A  
HETATM    8  C   UNL     1     -11.425   8.161  70.799  1.00  0.00    -0.272 A  
HETATM    9  C   UNL     1      -9.493   5.019  68.837  1.00  0.00    -0.195 C  
HETATM   10  C   UNL     1     -11.619   8.268  72.187  1.00  0.00    -0.428 A  
HETATM   11  C   UNL     1      -9.364   3.659  66.839  1.00  0.00    -0.217 C  
HETATM   12  C   UNL     1      -8.522   4.550  67.725  1.00  0.00    -0.103 C  
HETATM   13  C   UNL     1     -10.242   4.475  66.234  1.00  0.00    -0.270 C  
HETATM   14  C   UNL     1      -8.411   5.722  66.746  1.00  0.00    -0.112 C  
HETATM   15  C   UNL     1     -10.601   7.896  73.081  1.00  0.00    -0.342 A  
HETATM   16  C   UNL     1      -9.922   5.915  66.660  1.00  0.00    -0.214 C  
HETATM   17  C   UNL     1      -9.400   7.416  72.582  1.00  0.00    -0.192 A  
ENDROOT
BRANCH   5  18
HETATM   18  C   UNL     1     -10.552  10.161  68.137  1.00  0.00    -0.223 C  
BRANCH  18  19
HETATM   19  N   UNL     1      -9.585  10.707  67.156  1.00  0.00    -0.163 NA 
HETATM   20  C   UNL     1     -11.051  12.295  65.894  1.00  0.00    -0.360 C  
HETATM   21  C   UNL     1     -10.167  11.051  65.850  1.00  0.00    -0.254 C  
HETATM   22  C   UNL     1     -10.244  13.490  66.382  1.00  0.00    -0.291 C  
HETATM   23  C   UNL     1      -9.533  13.178  67.697  1.00  0.00    -0.207 C  
HETATM   24  C   UNL     1      -8.794  11.836  67.663  1.00  0.00    -0.162 C  
ENDBRANCH  18  19
ENDBRANCH   5  18
TORSDOF 2
ENDMDL
MODEL       85
REMARK 921   NORMALIZED FREE ENERGY PREDICTED BY IDOCK:   -4.50 KCAL/MOL
REMARK 922        TOTAL FREE ENERGY PREDICTED BY IDOCK:   -5.61 KCAL/MOL
REMARK 923 INTER-LIGAND FREE ENERGY PREDICTED BY IDOCK:   -5.07 KCAL/MOL
REMARK 924 INTRA-LIGAND FREE ENERGY PREDICTED BY IDOCK:   -0.55 KCAL/MOL
REMARK 927      BINDING AFFINITY PREDICTED BY RF-SCORE:    0.00 PKD
ROOT
HETATM    1  O   UNL     1      -8.767   8.273  71.275  1.00  0.00    -0.130 OA 
HETATM    2  C   UNL     1      -9.491   8.406  70.049  1.00  0.00    -0.164 C  
HETATM    3  H   UNL     1      -9.335   7.857  71.914  1.00  0.00     0.000 HD 
HETATM    4  C   UNL     1     -10.741   9.221  70.438  1.00  0.00    -0.300 A  
HETATM    5  C   UNL     1      -8.564   9.086  69.008  1.00  0.00    -0.134 C  
HETATM    6  C   UNL     1      -9.886   6.978  69.430  1.00  0.00    -0.160 C  
HETATM    7  C   UNL     1     -11.309   9.075  71.728  1.00  0.00    -0.447 A  
HETATM    8  C   UNL     1     -11.364  10.127  69.571  1.00  0.00    -0.260 A  
HETATM    9  C   UNL     1     -10.717   6.082  70.389  1.00  0.00    -0.358 C  
HETATM   10  C   UNL     1     -12.475  10.882  69.984  1.00  0.00    -0.332 A  
HETATM   11  C   UNL     1      -9.775   3.990  69.619  1.00  0.00    -0.245 C  
HETATM   12  C   UNL     1      -9.735   4.952  70.785  1.00  0.00    -0.268 C  
HETATM   13  C   UNL     1      -9.193   4.635  68.596  1.00  0.00    -0.173 C  
HETATM   14  C   UNL     1      -8.332   5.503  70.513  1.00  0.00    -0.116 C  
HETATM   15  C   UNL     1     -13.015  10.715  71.270  1.00  0.00    -0.513 A  
HETATM   16  C   UNL     1      -8.694   5.992  69.114  1.00  0.00    -0.120 C  
HETATM   17  C   UNL     1     -12.443   9.792  72.132  1.00  0.00    -0.303 A  
ENDROOT
BRANCH   5  18
HETATM   18  C   UNL     1      -7.948  10.466  69.309  1.00  0.00    -0.157 C  
BRANCH  18  19
HETATM   19  N   UNL     1      -7.402  11.027  68.052  1.00  0.00    -0.086 NA 
HETATM   20  C   UNL     1      -9.515  11.648  66.865  1.00  0.00    -0.195 C  
HETATM   21  C   UNL     1      -8.243  10.804  66.866  1.00  0.00    -0.130 C  
HETATM   22  C   UNL     1      -9.160  13.127  66.921  1.00  0.00    -0.231 C  
HETATM   23  C   UNL     1      -8.211  13.424  68.080  1.00  0.00    -0.160 C  
HETATM   24  C   UNL     1      -7.033  12.446  68.144  1.00  0.00    -0.087 C  
ENDBRANCH  18  19
ENDBRANCH   5  18
TORSDOF 2
ENDMDL
MODEL       86
REMARK 921   NORMALIZED FREE ENERGY PREDICTED BY IDOCK:   -4.48 KCAL/MOL
REMARK 922        TOTAL FREE ENERGY PREDICTED BY IDOCK:   -5.60 KCAL/MOL
REMARK 923 INTER-LIGAND FREE ENERGY PREDICTED BY IDOCK:   -4.92 KCAL/MOL
REMARK 924 INTRA-LIGAND FREE ENERGY PREDICTED BY IDOCK:   -0.68 KCAL/MOL
REMARK 927      BINDING AFFINITY PREDICTED BY RF-SCORE:    0.00 PKD
ROOT
HETATM    1  O   UNL     1      -8.999   6.853  69.199  1.00  0.00    -0.134 OA 
HETATM    2  C   UNL     1     -10.181   7.325  68.547  1.00  0.00    -0.181 C  
HETATM    3  H   UNL     1      -8.596   7.584  69.653  1.00  0.00     0.000 HD 
HETATM    4  C   UNL     1      -9.678   8.460  67.634  1.00  0.00    -0.201 A  
HETATM    5  C   UNL     1     -10.838   6.131  67.807  1.00  0.00    -0.413 C  
HETATM    6  C   UNL     1     -11.273   7.853  69.599  1.00  0.00     0.064 C  
HETATM    7  C   UNL     1      -8.574   9.254  68.032  1.00  0.00    -0.121 A  
HETATM    8  C   UNL     1     -10.258   8.760  66.395  1.00  0.00    -0.256 A  
HETATM    9  C   UNL     1     -10.755   8.978  70.537  1.00  0.00    -0.285 C  
HETATM   10  C   UNL     1      -9.737   9.775  65.575  1.00  0.00    -0.382 A  
HETATM   11  C   UNL     1     -12.068   8.300  72.453  1.00  0.00    -0.430 C  
HETATM   12  C   UNL     1     -10.653   8.289  71.921  1.00  0.00    -0.350 C  
HETATM   13  C   UNL     1     -12.755   7.450  71.674  1.00  0.00    -0.399 C  
HETATM   14  C   UNL     1     -10.582   6.787  71.635  1.00  0.00    -0.239 C  
HETATM   15  C   UNL     1      -8.641  10.545  65.999  1.00  0.00    -0.166 A  
HETATM   16  C   UNL     1     -11.771   6.816  70.681  1.00  0.00    -0.440 C  
HETATM   17  C   UNL     1      -8.077  10.297  67.241  1.00  0.00    -0.120 A  
ENDROOT
BRANCH   5  18
HETATM   18  C   UNL     1     -10.037   5.342  66.752  1.00  0.00    -0.214 C  
BRANCH  18  19
HETATM   19  N   UNL     1      -8.864   4.723  67.412  1.00  0.00    -0.103 NA 
HETATM   20  C   UNL     1      -9.034   2.378  66.556  1.00  0.00    -0.130 C  
HETATM   21  C   UNL     1      -9.039   3.307  67.768  1.00  0.00    -0.173 C  
HETATM   22  C   UNL     1      -7.721   2.517  65.798  1.00  0.00    -0.077 C  
HETATM   23  C   UNL     1      -7.423   3.979  65.471  1.00  0.00    -0.081 C  
HETATM   24  C   UNL     1      -7.604   4.903  66.680  1.00  0.00    -0.088 C  
ENDBRANCH  18  19
ENDBRANCH   5  18
TORSDOF 2
ENDMDL
MODEL       87
REMARK 921   NORMALIZED FREE ENERGY PREDICTED BY IDOCK:   -4.47 KCAL/MOL
REMARK 922        TOTAL FREE ENERGY PREDICTED BY IDOCK:   -5.58 KCAL/MOL
REMARK 923 INTER-LIGAND FREE ENERGY PREDICTED BY IDOCK:   -5.14 KCAL/MOL
REMARK 924 INTRA-LIGAND FREE ENERGY PREDICTED BY IDOCK:   -0.44 KCAL/MOL
REMARK 927      BINDING AFFINITY PREDICTED BY RF-SCORE:    0.00 PKD
ROOT
HETATM    1  O   UNL     1      -8.495  10.444  69.623  1.00  0.00    -0.305 OA 
HETATM    2  C   UNL     1      -9.446   9.488  69.149  1.00  0.00    -0.163 C  
HETATM    3  H   UNL     1      -7.889  10.000  70.206  1.00  0.00     0.000 HD 
HETATM    4  C   UNL     1     -10.079   8.919  70.435  1.00  0.00    -0.232 A  
HETATM    5  C   UNL     1     -10.434  10.214  68.198  1.00  0.00    -0.243 C  
HETATM    6  C   UNL     1      -8.750   8.336  68.273  1.00  0.00    -0.136 C  
HETATM    7  C   UNL     1      -9.305   8.808  71.616  1.00  0.00    -0.345 A  
HETATM    8  C   UNL     1     -11.413   8.500  70.510  1.00  0.00    -0.198 A  
HETATM    9  C   UNL     1      -7.623   7.570  69.019  1.00  0.00    -0.108 C  
HETATM   10  C   UNL     1     -11.960   8.029  71.716  1.00  0.00    -0.342 A  
HETATM   11  C   UNL     1      -6.258   7.203  67.055  1.00  0.00    -0.049 C  
HETATM   12  C   UNL     1      -6.326   8.039  68.313  1.00  0.00    -0.050 C  
HETATM   13  C   UNL     1      -7.268   7.631  66.281  1.00  0.00    -0.071 C  
HETATM   14  C   UNL     1      -6.678   9.363  67.630  1.00  0.00    -0.068 C  
HETATM   15  C   UNL     1     -11.166   7.931  72.871  1.00  0.00    -0.429 A  
HETATM   16  C   UNL     1      -7.949   8.806  66.997  1.00  0.00    -0.095 C  
HETATM   17  C   UNL     1      -9.831   8.299  72.810  1.00  0.00    -0.333 A  
ENDROOT
BRANCH   5  18
HETATM   18  C   UNL     1     -11.240  11.426  68.704  1.00  0.00    -0.243 C  
BRANCH  18  19
HETATM   19  N   UNL     1     -10.571  12.666  68.248  1.00  0.00    -0.230 NA 
HETATM   20  C   UNL     1     -10.591  12.319  65.770  1.00  0.00    -0.289 C  
HETATM   21  C   UNL     1      -9.756  12.510  67.033  1.00  0.00    -0.213 C  
HETATM   22  C   UNL     1     -11.514  13.513  65.570  1.00  0.00    -0.320 C  
HETATM   23  C   UNL     1     -12.333  13.795  66.827  1.00  0.00    -0.365 C  
HETATM   24  C   UNL     1     -11.477  13.812  68.098  1.00  0.00    -0.313 C  
ENDBRANCH  18  19
ENDBRANCH   5  18
TORSDOF 2
ENDMDL
MODEL       88
REMARK 921   NORMALIZED FREE ENERGY PREDICTED BY IDOCK:   -4.46 KCAL/MOL
REMARK 922        TOTAL FREE ENERGY PREDICTED BY IDOCK:   -5.57 KCAL/MOL
REMARK 923 INTER-LIGAND FREE ENERGY PREDICTED BY IDOCK:   -4.88 KCAL/MOL
REMARK 924 INTRA-LIGAND FREE ENERGY PREDICTED BY IDOCK:   -0.69 KCAL/MOL
REMARK 927      BINDING AFFINITY PREDICTED BY RF-SCORE:    0.00 PKD
ROOT
HETATM    1  O   UNL     1      -8.012   9.755  67.035  1.00  0.00    -0.105 OA 
HETATM    2  C   UNL     1      -9.025   9.053  66.311  1.00  0.00    -0.162 C  
HETATM    3  H   UNL     1      -7.301   9.150  67.216  1.00  0.00     0.000 HD 
HETATM    4  C   UNL     1      -9.394   7.871  67.230  1.00  0.00    -0.180 A  
HETATM    5  C   UNL     1     -10.185  10.039  66.016  1.00  0.00    -0.277 C  
HETATM    6  C   UNL     1      -8.497   8.547  64.881  1.00  0.00    -0.166 C  
HETATM    7  C   UNL     1      -8.406   7.284  68.060  1.00  0.00    -0.123 A  
HETATM    8  C   UNL     1     -10.683   7.330  67.302  1.00  0.00    -0.391 A  
HETATM    9  C   UNL     1      -7.239   7.638  64.958  1.00  0.00    -0.066 C  
HETATM   10  C   UNL     1     -10.983   6.282  68.188  1.00  0.00    -0.412 A  
HETATM   11  C   UNL     1      -6.272   8.411  62.879  1.00  0.00    -0.086 C  
HETATM   12  C   UNL     1      -6.107   8.522  64.378  1.00  0.00    -0.066 C  
HETATM   13  C   UNL     1      -7.416   9.052  62.592  1.00  0.00    -0.099 C  
HETATM   14  C   UNL     1      -6.598   9.967  64.505  1.00  0.00    -0.124 C  
HETATM   15  C   UNL     1      -9.982   5.721  68.998  1.00  0.00    -0.222 A  
HETATM   16  C   UNL     1      -7.961   9.656  63.894  1.00  0.00    -0.143 C  
HETATM   17  C   UNL     1      -8.687   6.210  68.913  1.00  0.00    -0.123 A  
ENDROOT
BRANCH   5  18
HETATM   18  C   UNL     1     -10.894  10.764  67.177  1.00  0.00    -0.277 C  
BRANCH  18  19
HETATM   19  N   UNL     1     -10.184  12.037  67.446  1.00  0.00    -0.199 NA 
HETATM   20  C   UNL     1     -11.469  13.604  65.978  1.00  0.00    -0.340 C  
HETATM   21  C   UNL     1     -10.124  12.958  66.301  1.00  0.00    -0.276 C  
HETATM   22  C   UNL     1     -11.977  14.381  67.184  1.00  0.00    -0.419 C  
HETATM   23  C   UNL     1     -11.983  13.512  68.440  1.00  0.00    -0.378 C  
HETATM   24  C   UNL     1     -10.668  12.749  68.635  1.00  0.00    -0.246 C  
ENDBRANCH  18  19
ENDBRANCH   5  18
TORSDOF 2
ENDMDL
MODEL       89
REMARK 921   NORMALIZED FREE ENERGY PREDICTED BY IDOCK:   -4.39 KCAL/MOL
REMARK 922        TOTAL FREE ENERGY PREDICTED BY IDOCK:   -5.49 KCAL/MOL
REMARK 923 INTER-LIGAND FREE ENERGY PREDICTED BY IDOCK:   -4.88 KCAL/MOL
REMARK 924 INTRA-LIGAND FREE ENERGY PREDICTED BY IDOCK:   -0.61 KCAL/MOL
REMARK 927      BINDING AFFINITY PREDICTED BY RF-SCORE:    0.00 PKD
ROOT
HETATM    1  O   UNL     1      -9.026   7.104  70.385  1.00  0.00    -0.153 OA 
HETATM    2  C   UNL     1     -10.014   7.206  69.357  1.00  0.00    -0.164 C  
HETATM    3  H   UNL     1      -8.843   7.978  70.712  1.00  0.00     0.000 HD 
HETATM    4  C   UNL     1      -9.388   8.168  68.328  1.00  0.00    -0.137 A  
HETATM    5  C   UNL     1     -10.312   5.780  68.824  1.00  0.00    -0.289 C  
HETATM    6  C   UNL     1     -11.408   7.770  69.922  1.00  0.00     0.008 C  
HETATM    7  C   UNL     1      -8.528   9.208  68.762  1.00  0.00    -0.130 A  
HETATM    8  C   UNL     1      -9.619   8.072  66.950  1.00  0.00    -0.265 A  
HETATM    9  C   UNL     1     -11.292   9.153  70.623  1.00  0.00    -0.323 C  
HETATM   10  C   UNL     1      -8.991   8.944  66.045  1.00  0.00    -0.235 A  
HETATM   11  C   UNL     1     -13.021   8.723  72.260  1.00  0.00    -0.462 C  
HETATM   12  C   UNL     1     -11.520   8.829  72.120  1.00  0.00    -0.421 C  
HETATM   13  C   UNL     1     -13.370   7.612  71.591  1.00  0.00    -0.400 C  
HETATM   14  C   UNL     1     -11.220   7.335  72.275  1.00  0.00    -0.305 C  
HETATM   15  C   UNL     1      -8.142   9.964  66.507  1.00  0.00    -0.117 A  
HETATM   16  C   UNL     1     -12.086   6.943  71.082  1.00  0.00    -0.428 C  
HETATM   17  C   UNL     1      -7.933  10.108  67.869  1.00  0.00    -0.101 A  
ENDROOT
BRANCH   5  18
HETATM   18  C   UNL     1      -9.169   4.917  68.254  1.00  0.00    -0.123 C  
BRANCH  18  19
HETATM   19  N   UNL     1      -9.752   3.884  67.367  1.00  0.00    -0.175 NA 
HETATM   20  C   UNL     1      -9.165   4.815  65.120  1.00  0.00    -0.148 C  
HETATM   21  C   UNL     1     -10.268   4.395  66.088  1.00  0.00    -0.203 C  
HETATM   22  C   UNL     1      -8.253   3.634  64.823  1.00  0.00    -0.090 C  
HETATM   23  C   UNL     1      -7.745   2.989  66.112  1.00  0.00    -0.077 C  
HETATM   24  C   UNL     1      -8.866   2.737  67.126  1.00  0.00    -0.142 C  
ENDBRANCH  18  19
ENDBRANCH   5  18
TORSDOF 2
ENDMDL
MODEL       90
REMARK 921   NORMALIZED FREE ENERGY PREDICTED BY IDOCK:   -4.38 KCAL/MOL
REMARK 922        TOTAL FREE ENERGY PREDICTED BY IDOCK:   -5.48 KCAL/MOL
REMARK 923 INTER-LIGAND FREE ENERGY PREDICTED BY IDOCK:   -4.80 KCAL/MOL
REMARK 924 INTRA-LIGAND FREE ENERGY PREDICTED BY IDOCK:   -0.69 KCAL/MOL
REMARK 927      BINDING AFFINITY PREDICTED BY RF-SCORE:    0.00 PKD
ROOT
HETATM    1  O   UNL     1      -8.999   7.020  70.955  1.00  0.00    -0.149 OA 
HETATM    2  C   UNL     1     -10.019   6.651  70.024  1.00  0.00    -0.172 C  
HETATM    3  H   UNL     1      -8.745   7.919  70.779  1.00  0.00     0.000 HD 
HETATM    4  C   UNL     1      -9.371   6.885  68.644  1.00  0.00    -0.135 A  
HETATM    5  C   UNL     1     -10.434   5.184  70.312  1.00  0.00    -0.296 C  
HETATM    6  C   UNL     1     -11.347   7.534  70.210  1.00  0.00    -0.219 C  
HETATM    7  C   UNL     1      -8.426   7.927  68.474  1.00  0.00    -0.128 A  
HETATM    8  C   UNL     1      -9.663   6.105  67.519  1.00  0.00    -0.126 A  
HETATM    9  C   UNL     1     -11.110   9.065  70.088  1.00  0.00    -0.228 C  
HETATM   10  C   UNL     1      -9.014   6.327  66.292  1.00  0.00    -0.164 A  
HETATM   11  C   UNL     1     -12.797   9.687  71.707  1.00  0.00    -0.514 C  
HETATM   12  C   UNL     1     -11.299   9.586  71.534  1.00  0.00    -0.456 C  
HETATM   13  C   UNL     1     -13.247   8.422  71.715  1.00  0.00    -0.376 C  
HETATM   14  C   UNL     1     -11.095   8.373  72.445  1.00  0.00    -0.431 C  
HETATM   15  C   UNL     1      -8.081   7.368  66.155  1.00  0.00    -0.117 A  
HETATM   16  C   UNL     1     -12.033   7.487  71.632  1.00  0.00    -0.333 C  
HETATM   17  C   UNL     1      -7.807   8.182  67.243  1.00  0.00    -0.105 A  
ENDROOT
BRANCH   5  18
HETATM   18  C   UNL     1      -9.377   4.063  70.277  1.00  0.00    -0.163 C  
BRANCH  18  19
HETATM   19  N   UNL     1      -8.720   3.988  71.602  1.00  0.00    -0.104 NA 
HETATM   20  C   UNL     1     -10.465   2.767  72.916  1.00  0.00    -0.239 C  
HETATM   21  C   UNL     1      -9.643   4.042  72.746  1.00  0.00    -0.132 C  
HETATM   22  C   UNL     1      -9.541   1.573  73.109  1.00  0.00    -0.101 C  
HETATM   23  C   UNL     1      -8.491   1.500  72.002  1.00  0.00    -0.053 C  
HETATM   24  C   UNL     1      -7.806   2.848  71.750  1.00  0.00    -0.053 C  
ENDBRANCH  18  19
ENDBRANCH   5  18
TORSDOF 2
ENDMDL
MODEL       91
REMARK 921   NORMALIZED FREE ENERGY PREDICTED BY IDOCK:   -4.38 KCAL/MOL
REMARK 922        TOTAL FREE ENERGY PREDICTED BY IDOCK:   -5.48 KCAL/MOL
REMARK 923 INTER-LIGAND FREE ENERGY PREDICTED BY IDOCK:   -5.01 KCAL/MOL
REMARK 924 INTRA-LIGAND FREE ENERGY PREDICTED BY IDOCK:   -0.47 KCAL/MOL
REMARK 927      BINDING AFFINITY PREDICTED BY RF-SCORE:    0.00 PKD
ROOT
HETATM    1  O   UNL     1     -10.599   7.803  66.363  1.00  0.00    -0.412 OA 
HETATM    2  C   UNL     1      -9.489   8.427  67.012  1.00  0.00    -0.174 C  
HETATM    3  H   UNL     1     -10.541   7.984  65.432  1.00  0.00     0.000 HD 
HETATM    4  C   UNL     1      -9.616   9.915  66.629  1.00  0.00    -0.235 A  
HETATM    5  C   UNL     1      -9.585   8.132  68.532  1.00  0.00    -0.153 C  
HETATM    6  C   UNL     1      -8.088   7.809  66.526  1.00  0.00    -0.111 C  
HETATM    7  C   UNL     1     -10.154  10.278  65.370  1.00  0.00    -0.354 A  
HETATM    8  C   UNL     1      -9.226  10.959  67.476  1.00  0.00    -0.153 A  
HETATM    9  C   UNL     1      -7.861   7.891  64.991  1.00  0.00    -0.120 C  
HETATM   10  C   UNL     1      -9.402  12.303  67.102  1.00  0.00    -0.196 A  
HETATM   11  C   UNL     1      -6.622   5.818  64.834  1.00  0.00    -0.042 C  
HETATM   12  C   UNL     1      -7.973   6.419  64.521  1.00  0.00    -0.117 C  
HETATM   13  C   UNL     1      -6.549   5.767  66.174  1.00  0.00    -0.051 C  
HETATM   14  C   UNL     1      -8.752   5.688  65.618  1.00  0.00    -0.151 C  
HETATM   15  C   UNL     1      -9.940  12.631  65.846  1.00  0.00    -0.274 A  
HETATM   16  C   UNL     1      -7.889   6.257  66.740  1.00  0.00    -0.104 C  
HETATM   17  C   UNL     1     -10.293  11.614  64.972  1.00  0.00    -0.329 A  
ENDROOT
BRANCH   5  18
HETATM   18  C   UNL     1     -10.844   8.544  69.319  1.00  0.00    -0.056 C  
BRANCH  18  19
HETATM   19  N   UNL     1     -10.430   9.348  70.491  1.00  0.00    -0.252 NA 
HETATM   20  C   UNL     1     -11.815   8.294  72.290  1.00  0.00    -0.451 C  
HETATM   21  C   UNL     1     -11.486   9.555  71.495  1.00  0.00    -0.395 C  
HETATM   22  C   UNL     1     -10.570   7.791  73.008  1.00  0.00    -0.441 C  
HETATM   23  C   UNL     1      -9.398   7.636  72.042  1.00  0.00    -0.182 C  
HETATM   24  C   UNL     1      -9.207   8.864  71.145  1.00  0.00    -0.256 C  
ENDBRANCH  18  19
ENDBRANCH   5  18
TORSDOF 2
ENDMDL
MODEL       92
REMARK 921   NORMALIZED FREE ENERGY PREDICTED BY IDOCK:   -4.36 KCAL/MOL
REMARK 922        TOTAL FREE ENERGY PREDICTED BY IDOCK:   -5.46 KCAL/MOL
REMARK 923 INTER-LIGAND FREE ENERGY PREDICTED BY IDOCK:   -4.73 KCAL/MOL
REMARK 924 INTRA-LIGAND FREE ENERGY PREDICTED BY IDOCK:   -0.73 KCAL/MOL
REMARK 927      BINDING AFFINITY PREDICTED BY RF-SCORE:    0.00 PKD
ROOT
HETATM    1  O   UNL     1      -7.949  11.281  68.210  1.00  0.00    -0.119 OA 
HETATM    2  C   UNL     1      -9.109  10.465  68.025  1.00  0.00    -0.136 C  
HETATM    3  H   UNL     1      -7.241  10.728  68.519  1.00  0.00     0.000 HD 
HETATM    4  C   UNL     1      -9.341   9.822  69.407  1.00  0.00    -0.212 A  
HETATM    5  C   UNL     1     -10.265  11.369  67.521  1.00  0.00    -0.210 C  
HETATM    6  C   UNL     1      -8.883   9.355  66.887  1.00  0.00    -0.141 C  
HETATM    7  C   UNL     1      -8.236   9.521  70.242  1.00  0.00    -0.209 A  
HETATM    8  C   UNL     1     -10.613   9.514  69.904  1.00  0.00    -0.269 A  
HETATM    9  C   UNL     1      -7.670   8.420  67.148  1.00  0.00    -0.097 C  
HETATM   10  C   UNL     1     -10.779   8.970  71.189  1.00  0.00    -0.358 A  
HETATM   11  C   UNL     1      -7.088   8.144  64.816  1.00  0.00    -0.079 C  
HETATM   12  C   UNL     1      -6.636   8.846  66.076  1.00  0.00    -0.065 C  
HETATM   13  C   UNL     1      -8.241   8.736  64.464  1.00  0.00    -0.168 C  
HETATM   14  C   UNL     1      -7.038  10.260  65.647  1.00  0.00    -0.137 C  
HETATM   15  C   UNL     1      -9.663   8.683  71.994  1.00  0.00    -0.391 A  
HETATM   16  C   UNL     1      -8.503   9.884  65.449  1.00  0.00    -0.155 C  
HETATM   17  C   UNL     1      -8.391   8.938  71.506  1.00  0.00    -0.163 A  
ENDROOT
BRANCH   5  18
HETATM   18  C   UNL     1     -10.710  12.587  68.354  1.00  0.00    -0.240 C  
BRANCH  18  19
HETATM   19  N   UNL     1      -9.706  13.664  68.195  1.00  0.00    -0.224 NA 
HETATM   20  C   UNL     1     -10.631  14.871  66.209  1.00  0.00    -0.309 C  
HETATM   21  C   UNL     1      -9.470  14.080  66.804  1.00  0.00    -0.282 C  
HETATM   22  C   UNL     1     -10.890  16.121  67.039  1.00  0.00    -0.194 C  
HETATM   23  C   UNL     1     -11.057  15.778  68.517  1.00  0.00    -0.335 C  
HETATM   24  C   UNL     1      -9.958  14.842  69.033  1.00  0.00    -0.235 C  
ENDBRANCH  18  19
ENDBRANCH   5  18
TORSDOF 2
ENDMDL
MODEL       93
REMARK 921   NORMALIZED FREE ENERGY PREDICTED BY IDOCK:   -4.34 KCAL/MOL
REMARK 922        TOTAL FREE ENERGY PREDICTED BY IDOCK:   -5.44 KCAL/MOL
REMARK 923 INTER-LIGAND FREE ENERGY PREDICTED BY IDOCK:   -4.76 KCAL/MOL
REMARK 924 INTRA-LIGAND FREE ENERGY PREDICTED BY IDOCK:   -0.69 KCAL/MOL
REMARK 927      BINDING AFFINITY PREDICTED BY RF-SCORE:    0.00 PKD
ROOT
HETATM    1  O   UNL     1      -9.708   7.437  70.886  1.00  0.00    -0.170 OA 
HETATM    2  C   UNL     1     -10.667   7.347  69.829  1.00  0.00    -0.241 C  
HETATM    3  H   UNL     1      -9.525   8.356  71.045  1.00  0.00     0.000 HD 
HETATM    4  C   UNL     1     -10.002   8.092  68.654  1.00  0.00    -0.200 A  
HETATM    5  C   UNL     1     -10.965   5.847  69.568  1.00  0.00    -0.438 C  
HETATM    6  C   UNL     1     -12.069   8.016  70.235  1.00  0.00     0.385 C  
HETATM    7  C   UNL     1      -9.143   9.190  68.906  1.00  0.00    -0.139 A  
HETATM    8  C   UNL     1     -10.196   7.735  67.314  1.00  0.00    -0.343 A  
HETATM    9  C   UNL     1     -11.958   9.506  70.663  1.00  0.00    -0.266 C  
HETATM   10  C   UNL     1      -9.533   8.415  66.277  1.00  0.00    -0.292 A  
HETATM   11  C   UNL     1     -13.736   9.406  72.301  1.00  0.00    -0.495 C  
HETATM   12  C   UNL     1     -12.230   9.475  72.187  1.00  0.00    -0.282 C  
HETATM   13  C   UNL     1     -14.078   8.190  71.846  1.00  0.00    -0.493 C  
HETATM   14  C   UNL     1     -11.951   8.037  72.633  1.00  0.00    -0.334 C  
HETATM   15  C   UNL     1      -8.687   9.500  66.561  1.00  0.00    -0.147 A  
HETATM   16  C   UNL     1     -12.788   7.428  71.512  1.00  0.00    -0.416 C  
HETATM   17  C   UNL     1      -8.513   9.900  67.877  1.00  0.00    -0.121 A  
ENDROOT
BRANCH   5  18
HETATM   18  C   UNL     1      -9.817   4.885  69.207  1.00  0.00    -0.201 C  
BRANCH  18  19
HETATM   19  N   UNL     1      -9.109   4.500  70.450  1.00  0.00    -0.104 NA 
HETATM   20  C   UNL     1      -9.137   2.006  70.248  1.00  0.00    -0.161 C  
HETATM   21  C   UNL     1      -9.564   3.235  71.047  1.00  0.00    -0.164 C  
HETATM   22  C   UNL     1      -7.620   1.959  70.137  1.00  0.00    -0.042 C  
HETATM   23  C   UNL     1      -7.062   3.277  69.607  1.00  0.00    -0.041 C  
HETATM   24  C   UNL     1      -7.646   4.497  70.327  1.00  0.00    -0.050 C  
ENDBRANCH  18  19
ENDBRANCH   5  18
TORSDOF 2
ENDMDL
MODEL       94
REMARK 921   NORMALIZED FREE ENERGY PREDICTED BY IDOCK:   -4.29 KCAL/MOL
REMARK 922        TOTAL FREE ENERGY PREDICTED BY IDOCK:   -5.38 KCAL/MOL
REMARK 923 INTER-LIGAND FREE ENERGY PREDICTED BY IDOCK:   -4.82 KCAL/MOL
REMARK 924 INTRA-LIGAND FREE ENERGY PREDICTED BY IDOCK:   -0.56 KCAL/MOL
REMARK 927      BINDING AFFINITY PREDICTED BY RF-SCORE:    0.00 PKD
ROOT
HETATM    1  O   UNL     1      -9.691   6.231  70.356  1.00  0.00    -0.163 OA 
HETATM    2  C   UNL     1      -9.060   7.508  70.483  1.00  0.00    -0.156 C  
HETATM    3  H   UNL     1      -9.853   5.890  71.229  1.00  0.00     0.000 HD 
HETATM    4  C   UNL     1      -7.794   7.221  71.315  1.00  0.00    -0.096 A  
HETATM    5  C   UNL     1      -8.795   8.064  69.059  1.00  0.00    -0.145 C  
HETATM    6  C   UNL     1     -10.014   8.577  71.208  1.00  0.00    -0.284 C  
HETATM    7  C   UNL     1      -7.809   6.199  72.297  1.00  0.00    -0.101 A  
HETATM    8  C   UNL     1      -6.595   7.924  71.152  1.00  0.00    -0.038 A  
HETATM    9  C   UNL     1     -10.502   8.135  72.616  1.00  0.00    -0.401 C  
HETATM   10  C   UNL     1      -5.452   7.597  71.903  1.00  0.00    -0.036 A  
HETATM   11  C   UNL     1     -12.665   9.207  72.454  1.00  0.00    -0.410 C  
HETATM   12  C   UNL     1     -12.010   7.845  72.412  1.00  0.00    -0.373 C  
HETATM   13  C   UNL     1     -12.262   9.838  71.340  1.00  0.00    -0.486 C  
HETATM   14  C   UNL     1     -12.189   7.607  70.910  1.00  0.00    -0.194 C  
HETATM   15  C   UNL     1      -5.498   6.578  72.868  1.00  0.00    -0.037 A  
HETATM   16  C   UNL     1     -11.408   8.859  70.523  1.00  0.00    -0.268 C  
HETATM   17  C   UNL     1      -6.687   5.896  73.079  1.00  0.00    -0.074 A  
ENDROOT
BRANCH   5  18
HETATM   18  C   UNL     1      -7.950   7.250  68.060  1.00  0.00    -0.119 C  
BRANCH  18  19
HETATM   19  N   UNL     1      -8.597   7.312  66.729  1.00  0.00    -0.123 NA 
HETATM   20  C   UNL     1      -9.005   4.882  66.298  1.00  0.00    -0.121 C  
HETATM   21  C   UNL     1      -8.309   6.166  65.854  1.00  0.00    -0.140 C  
HETATM   22  C   UNL     1     -10.513   5.089  66.325  1.00  0.00    -0.352 C  
HETATM   23  C   UNL     1     -10.888   6.321  67.145  1.00  0.00    -0.460 C  
HETATM   24  C   UNL     1     -10.046   7.549  66.782  1.00  0.00    -0.243 C  
ENDBRANCH  18  19
ENDBRANCH   5  18
TORSDOF 2
ENDMDL
MODEL       95
REMARK 921   NORMALIZED FREE ENERGY PREDICTED BY IDOCK:   -4.27 KCAL/MOL
REMARK 922        TOTAL FREE ENERGY PREDICTED BY IDOCK:   -5.36 KCAL/MOL
REMARK 923 INTER-LIGAND FREE ENERGY PREDICTED BY IDOCK:   -4.80 KCAL/MOL
REMARK 924 INTRA-LIGAND FREE ENERGY PREDICTED BY IDOCK:   -0.56 KCAL/MOL
REMARK 927      BINDING AFFINITY PREDICTED BY RF-SCORE:    0.00 PKD
ROOT
HETATM    1  O   UNL     1      -8.708  14.664  66.122  1.00  0.00    -0.441 OA 
HETATM    2  C   UNL     1      -9.432  13.903  67.093  1.00  0.00    -0.246 C  
HETATM    3  H   UNL     1      -8.289  14.059  65.521  1.00  0.00     0.000 HD 
HETATM    4  C   UNL     1      -8.364  12.989  67.727  1.00  0.00    -0.175 A  
HETATM    5  C   UNL     1     -10.115  14.890  68.075  1.00  0.00    -0.221 C  
HETATM    6  C   UNL     1     -10.616  13.051  66.422  1.00  0.00    -0.294 C  
HETATM    7  C   UNL     1      -7.277  12.523  66.946  1.00  0.00     0.141 A  
HETATM    8  C   UNL     1      -8.400  12.585  69.067  1.00  0.00     0.408 A  
HETATM    9  C   UNL     1     -10.142  12.083  65.303  1.00  0.00    -0.289 C  
HETATM   10  C   UNL     1      -7.380  11.787  69.613  1.00  0.00     0.368 A  
HETATM   11  C   UNL     1     -12.143  12.293  63.958  1.00  0.00    -0.563 C  
HETATM   12  C   UNL     1     -10.694  12.721  64.004  1.00  0.00    -0.457 C  
HETATM   13  C   UNL     1     -12.745  12.944  64.966  1.00  0.00    -0.474 C  
HETATM   14  C   UNL     1     -10.952  14.192  64.338  1.00  0.00    -0.240 C  
HETATM   15  C   UNL     1      -6.315  11.341  68.813  1.00  0.00    -0.051 A  
HETATM   16  C   UNL     1     -11.707  13.865  65.622  1.00  0.00    -0.362 C  
HETATM   17  C   UNL     1      -6.279  11.692  67.472  1.00  0.00    -0.083 A  
ENDROOT
BRANCH   5  18
HETATM   18  C   UNL     1      -9.265  15.910  68.857  1.00  0.00    -0.232 C  
BRANCH  18  19
HETATM   19  N   UNL     1      -9.965  17.216  68.852  1.00  0.00    -0.300 NA 
HETATM   20  C   UNL     1      -8.248  18.659  67.744  1.00  0.00    -0.273 C  
HETATM   21  C   UNL     1      -9.083  18.384  68.992  1.00  0.00    -0.057 C  
HETATM   22  C   UNL     1      -9.160  18.896  66.549  1.00  0.00    -0.333 C  
HETATM   23  C   UNL     1     -10.170  17.762  66.391  1.00  0.00    -0.365 C  
HETATM   24  C   UNL     1     -10.866  17.404  67.708  1.00  0.00    -0.257 C  
ENDBRANCH  18  19
ENDBRANCH   5  18
TORSDOF 2
ENDMDL
MODEL       96
REMARK 921   NORMALIZED FREE ENERGY PREDICTED BY IDOCK:   -4.27 KCAL/MOL
REMARK 922        TOTAL FREE ENERGY PREDICTED BY IDOCK:   -5.36 KCAL/MOL
REMARK 923 INTER-LIGAND FREE ENERGY PREDICTED BY IDOCK:   -5.08 KCAL/MOL
REMARK 924 INTRA-LIGAND FREE ENERGY PREDICTED BY IDOCK:   -0.28 KCAL/MOL
REMARK 927      BINDING AFFINITY PREDICTED BY RF-SCORE:    0.00 PKD
ROOT
HETATM    1  O   UNL     1      -9.857   6.489  74.480  1.00  0.00    -0.288 OA 
HETATM    2  C   UNL     1      -9.469   6.069  73.170  1.00  0.00    -0.142 C  
HETATM    3  H   UNL     1      -9.276   6.078  75.110  1.00  0.00     0.000 HD 
HETATM    4  C   UNL     1      -9.551   4.531  73.227  1.00  0.00    -0.144 A  
HETATM    5  C   UNL     1     -10.418   6.739  72.142  1.00  0.00    -0.231 C  
HETATM    6  C   UNL     1      -7.988   6.568  72.798  1.00  0.00    -0.102 C  
HETATM    7  C   UNL     1      -9.267   3.851  74.437  1.00  0.00    -0.113 A  
HETATM    8  C   UNL     1      -9.907   3.742  72.127  1.00  0.00    -0.238 A  
HETATM    9  C   UNL     1      -6.895   6.103  73.800  1.00  0.00    -0.080 C  
HETATM   10  C   UNL     1     -10.014   2.345  72.238  1.00  0.00    -0.227 A  
HETATM   11  C   UNL     1      -5.529   8.089  73.584  1.00  0.00    -0.050 C  
HETATM   12  C   UNL     1      -6.487   7.406  74.533  1.00  0.00    -0.086 C  
HETATM   13  C   UNL     1      -6.273   8.480  72.537  1.00  0.00    -0.078 C  
HETATM   14  C   UNL     1      -7.654   8.377  74.340  1.00  0.00    -0.260 C  
HETATM   15  C   UNL     1      -9.725   1.700  73.452  1.00  0.00    -0.105 A  
HETATM   16  C   UNL     1      -7.736   8.126  72.837  1.00  0.00    -0.190 C  
HETATM   17  C   UNL     1      -9.328   2.456  74.544  1.00  0.00    -0.106 A  
ENDROOT
BRANCH   5  18
HETATM   18  C   UNL     1     -11.941   6.518  72.243  1.00  0.00    -0.231 C  
BRANCH  18  19
HETATM   19  N   UNL     1     -12.604   7.283  71.162  1.00  0.00    -0.345 NA 
HETATM   20  C   UNL     1     -13.875   8.972  72.500  1.00  0.00    -0.491 C  
HETATM   21  C   UNL     1     -13.931   7.811  71.511  1.00  0.00    -0.374 C  
HETATM   22  C   UNL     1     -13.050  10.112  71.919  1.00  0.00    -0.571 C  
HETATM   23  C   UNL     1     -11.683   9.622  71.448  1.00  0.00    -0.478 C  
HETATM   24  C   UNL     1     -11.774   8.353  70.593  1.00  0.00    -0.147 C  
ENDBRANCH  18  19
ENDBRANCH   5  18
TORSDOF 2
ENDMDL
MODEL       97
REMARK 921   NORMALIZED FREE ENERGY PREDICTED BY IDOCK:   -4.26 KCAL/MOL
REMARK 922        TOTAL FREE ENERGY PREDICTED BY IDOCK:   -5.35 KCAL/MOL
REMARK 923 INTER-LIGAND FREE ENERGY PREDICTED BY IDOCK:   -4.92 KCAL/MOL
REMARK 924 INTRA-LIGAND FREE ENERGY PREDICTED BY IDOCK:   -0.43 KCAL/MOL
REMARK 927      BINDING AFFINITY PREDICTED BY RF-SCORE:    0.00 PKD
ROOT
HETATM    1  O   UNL     1     -10.912   6.733  66.481  1.00  0.00    -0.513 OA 
HETATM    2  C   UNL     1      -9.652   6.833  67.149  1.00  0.00    -0.144 C  
HETATM    3  H   UNL     1     -10.775   6.914  65.558  1.00  0.00     0.000 HD 
HETATM    4  C   UNL     1      -9.168   8.262  66.830  1.00  0.00    -0.197 A  
HETATM    5  C   UNL     1      -9.875   6.538  68.656  1.00  0.00    -0.143 C  
HETATM    6  C   UNL     1      -8.610   5.726  66.629  1.00  0.00    -0.118 C  
HETATM    7  C   UNL     1      -9.502   8.862  65.591  1.00  0.00    -0.230 A  
HETATM    8  C   UNL     1      -8.402   9.027  67.718  1.00  0.00    -0.117 A  
HETATM    9  C   UNL     1      -8.352   5.774  65.097  1.00  0.00    -0.146 C  
HETATM   10  C   UNL     1      -8.022  10.342  67.402  1.00  0.00    -0.107 A  
HETATM   11  C   UNL     1      -8.044   3.387  64.845  1.00  0.00    -0.090 C  
HETATM   12  C   UNL     1      -9.038   4.491  64.566  1.00  0.00    -0.148 C  
HETATM   13  C   UNL     1      -8.013   3.255  66.181  1.00  0.00    -0.088 C  
HETATM   14  C   UNL     1     -10.057   4.088  65.636  1.00  0.00    -0.127 C  
HETATM   15  C   UNL     1      -8.369  10.910  66.165  1.00  0.00    -0.168 A  
HETATM   16  C   UNL     1      -9.051   4.218  66.775  1.00  0.00    -0.141 C  
HETATM   17  C   UNL     1      -9.090  10.157  65.251  1.00  0.00    -0.234 A  
ENDROOT
BRANCH   5  18
HETATM   18  C   UNL     1     -10.873   7.387  69.467  1.00  0.00    -0.189 C  
BRANCH  18  19
HETATM   19  N   UNL     1     -11.522   6.521  70.478  1.00  0.00    -0.364 NA 
HETATM   20  C   UNL     1      -9.805   6.564  72.297  1.00  0.00    -0.166 C  
HETATM   21  C   UNL     1     -10.590   5.726  71.292  1.00  0.00    -0.257 C  
HETATM   22  C   UNL     1     -10.763   7.280  73.239  1.00  0.00    -0.428 C  
HETATM   23  C   UNL     1     -11.822   8.060  72.463  1.00  0.00    -0.419 C  
HETATM   24  C   UNL     1     -12.468   7.228  71.350  1.00  0.00    -0.383 C  
ENDBRANCH  18  19
ENDBRANCH   5  18
TORSDOF 2
ENDMDL
MODEL       98
REMARK 921   NORMALIZED FREE ENERGY PREDICTED BY IDOCK:   -4.23 KCAL/MOL
REMARK 922        TOTAL FREE ENERGY PREDICTED BY IDOCK:   -5.32 KCAL/MOL
REMARK 923 INTER-LIGAND FREE ENERGY PREDICTED BY IDOCK:   -5.26 KCAL/MOL
REMARK 924 INTRA-LIGAND FREE ENERGY PREDICTED BY IDOCK:   -0.06 KCAL/MOL
REMARK 927      BINDING AFFINITY PREDICTED BY RF-SCORE:    0.00 PKD
ROOT
HETATM    1  O   UNL     1     -11.753   7.445  70.102  1.00  0.00    -0.493 OA 
HETATM    2  C   UNL     1     -10.849   7.973  71.076  1.00  0.00    -0.235 C  
HETATM    3  H   UNL     1     -12.544   7.165  70.549  1.00  0.00     0.000 HD 
HETATM    4  C   UNL     1     -10.657   6.816  72.076  1.00  0.00    -0.239 A  
HETATM    5  C   UNL     1      -9.559   8.429  70.346  1.00  0.00    -0.180 C  
HETATM    6  C   UNL     1     -11.442   9.282  71.793  1.00  0.00    -0.448 C  
HETATM    7  C   UNL     1     -11.720   5.915  72.330  1.00  0.00    -0.307 A  
HETATM    8  C   UNL     1      -9.458   6.590  72.764  1.00  0.00    -0.150 A  
HETATM    9  C   UNL     1     -12.817   9.058  72.480  1.00  0.00    -0.408 C  
HETATM   10  C   UNL     1      -9.314   5.495  73.633  1.00  0.00    -0.137 A  
HETATM   11  C   UNL     1     -13.658  11.283  72.037  1.00  0.00    -0.134 C  
HETATM   12  C   UNL     1     -13.809   9.847  71.589  1.00  0.00    -0.125 C  
HETATM   13  C   UNL     1     -12.433  11.660  71.638  1.00  0.00    -0.154 C  
HETATM   14  C   UNL     1     -13.116  10.008  70.234  1.00  0.00     0.123 C  
HETATM   15  C   UNL     1     -10.388   4.619  73.864  1.00  0.00    -0.279 A  
HETATM   16  C   UNL     1     -11.810  10.496  70.855  1.00  0.00    -0.455 C  
HETATM   17  C   UNL     1     -11.599   4.846  73.228  1.00  0.00    -0.276 A  
ENDROOT
BRANCH   5  18
HETATM   18  C   UNL     1      -8.757   7.423  69.498  1.00  0.00    -0.137 C  
BRANCH  18  19
HETATM   19  N   UNL     1      -8.289   8.103  68.269  1.00  0.00    -0.125 NA 
HETATM   20  C   UNL     1     -10.366   8.026  66.876  1.00  0.00    -0.408 C  
HETATM   21  C   UNL     1      -8.904   7.613  67.026  1.00  0.00    -0.128 C  
HETATM   22  C   UNL     1     -10.485   9.543  66.896  1.00  0.00    -0.279 C  
HETATM   23  C   UNL     1      -9.787  10.136  68.118  1.00  0.00    -0.164 C  
HETATM   24  C   UNL     1      -8.379   9.568  68.327  1.00  0.00    -0.118 C  
ENDBRANCH  18  19
ENDBRANCH   5  18
TORSDOF 2
ENDMDL
MODEL       99
REMARK 921   NORMALIZED FREE ENERGY PREDICTED BY IDOCK:   -4.21 KCAL/MOL
REMARK 922        TOTAL FREE ENERGY PREDICTED BY IDOCK:   -5.29 KCAL/MOL
REMARK 923 INTER-LIGAND FREE ENERGY PREDICTED BY IDOCK:   -5.14 KCAL/MOL
REMARK 924 INTRA-LIGAND FREE ENERGY PREDICTED BY IDOCK:   -0.15 KCAL/MOL
REMARK 927      BINDING AFFINITY PREDICTED BY RF-SCORE:    0.00 PKD
ROOT
HETATM    1  O   UNL     1      -9.720  14.158  66.266  1.00  0.00    -0.284 OA 
HETATM    2  C   UNL     1      -9.045  14.626  67.436  1.00  0.00    -0.197 C  
HETATM    3  H   UNL     1      -9.834  13.218  66.343  1.00  0.00     0.000 HD 
HETATM    4  C   UNL     1      -7.737  13.811  67.468  1.00  0.00    -0.187 A  
HETATM    5  C   UNL     1      -8.858  16.160  67.310  1.00  0.00    -0.202 C  
HETATM    6  C   UNL     1      -9.920  14.392  68.763  1.00  0.00    -0.223 C  
HETATM    7  C   UNL     1      -7.717  12.484  66.971  1.00  0.00    -0.044 A  
HETATM    8  C   UNL     1      -6.531  14.318  67.967  1.00  0.00    -0.158 A  
HETATM    9  C   UNL     1     -10.327  12.911  68.998  1.00  0.00     0.040 C  
HETATM   10  C   UNL     1      -5.352  13.554  67.935  1.00  0.00    -0.095 A  
HETATM   11  C   UNL     1     -12.465  13.421  70.009  1.00  0.00    -0.202 C  
HETATM   12  C   UNL     1     -11.853  12.900  68.729  1.00  0.00    -0.353 C  
HETATM   13  C   UNL     1     -12.118  14.716  70.076  1.00  0.00    -0.383 C  
HETATM   14  C   UNL     1     -12.137  14.140  67.878  1.00  0.00    -0.309 C  
HETATM   15  C   UNL     1      -5.365  12.241  67.434  1.00  0.00    -0.116 A  
HETATM   16  C   UNL     1     -11.347  15.066  68.796  1.00  0.00    -0.306 C  
HETATM   17  C   UNL     1      -6.556  11.700  66.975  1.00  0.00    -0.144 A  
ENDROOT
BRANCH   5  18
HETATM   18  C   UNL     1      -8.103  16.747  66.101  1.00  0.00    -0.258 C  
BRANCH  18  19
HETATM   19  N   UNL     1      -8.287  18.217  66.093  1.00  0.00    -0.482 NA 
HETATM   20  C   UNL     1      -7.638  18.778  68.444  1.00  0.00    -0.329 C  
HETATM   21  C   UNL     1      -8.729  18.785  67.376  1.00  0.00    -0.273 C  
HETATM   22  C   UNL     1      -6.434  19.576  67.964  1.00  0.00    -0.260 C  
HETATM   23  C   UNL     1      -5.969  19.101  66.589  1.00  0.00    -0.175 C  
HETATM   24  C   UNL     1      -7.125  18.961  65.592  1.00  0.00    -0.196 C  
ENDBRANCH  18  19
ENDBRANCH   5  18
TORSDOF 2
ENDMDL
MODEL      100
REMARK 921   NORMALIZED FREE ENERGY PREDICTED BY IDOCK:   -4.21 KCAL/MOL
REMARK 922        TOTAL FREE ENERGY PREDICTED BY IDOCK:   -5.29 KCAL/MOL
REMARK 923 INTER-LIGAND FREE ENERGY PREDICTED BY IDOCK:   -4.80 KCAL/MOL
REMARK 924 INTRA-LIGAND FREE ENERGY PREDICTED BY IDOCK:   -0.49 KCAL/MOL
REMARK 927      BINDING AFFINITY PREDICTED BY RF-SCORE:    0.00 PKD
ROOT
HETATM    1  O   UNL     1     -11.027   8.005  68.536  1.00  0.00    -0.422 OA 
HETATM    2  C   UNL     1      -9.971   8.598  69.295  1.00  0.00    -0.195 C  
HETATM    3  H   UNL     1     -11.854   8.341  68.860  1.00  0.00     0.000 HD 
HETATM    4  C   UNL     1     -10.299   8.221  70.754  1.00  0.00    -0.221 A  
HETATM    5  C   UNL     1      -8.621   8.048  68.765  1.00  0.00    -0.128 C  
HETATM    6  C   UNL     1      -9.912  10.190  69.095  1.00  0.00    -0.221 C  
HETATM    7  C   UNL     1     -11.649   8.092  71.165  1.00  0.00    -0.307 A  
HETATM    8  C   UNL     1      -9.317   7.986  71.724  1.00  0.00    -0.218 A  
HETATM    9  C   UNL     1     -11.237  10.921  69.453  1.00  0.00    -0.335 C  
HETATM   10  C   UNL     1      -9.663   7.601  73.030  1.00  0.00    -0.301 A  
HETATM   11  C   UNL     1     -11.008  12.643  67.768  1.00  0.00    -0.266 C  
HETATM   12  C   UNL     1     -11.786  11.384  68.081  1.00  0.00    -0.355 C  
HETATM   13  C   UNL     1      -9.748  12.242  67.538  1.00  0.00    -0.190 C  
HETATM   14  C   UNL     1     -11.109  10.493  67.037  1.00  0.00    -0.183 C  
HETATM   15  C   UNL     1     -11.011   7.480  73.407  1.00  0.00    -0.259 A  
HETATM   16  C   UNL     1      -9.716  10.710  67.618  1.00  0.00    -0.186 C  
HETATM   17  C   UNL     1     -12.003   7.751  72.477  1.00  0.00    -0.304 A  
ENDROOT
BRANCH   5  18
HETATM   18  C   UNL     1      -8.358   6.529  68.755  1.00  0.00    -0.122 C  
BRANCH  18  19
HETATM   19  N   UNL     1      -7.334   6.231  67.727  1.00  0.00    -0.083 NA 
HETATM   20  C   UNL     1      -8.409   4.305  66.546  1.00  0.00    -0.101 C  
HETATM   21  C   UNL     1      -7.225   4.809  67.366  1.00  0.00    -0.073 C  
HETATM   22  C   UNL     1      -8.533   5.111  65.260  1.00  0.00    -0.144 C  
HETATM   23  C   UNL     1      -8.562   6.611  65.548  1.00  0.00    -0.101 C  
HETATM   24  C   UNL     1      -7.453   7.047  66.513  1.00  0.00    -0.081 C  
ENDBRANCH  18  19
ENDBRANCH   5  18
TORSDOF 2
ENDMDL
MODEL      101
REMARK 921   NORMALIZED FREE ENERGY PREDICTED BY IDOCK:   -4.19 KCAL/MOL
REMARK 922        TOTAL FREE ENERGY PREDICTED BY IDOCK:   -5.28 KCAL/MOL
REMARK 923 INTER-LIGAND FREE ENERGY PREDICTED BY IDOCK:   -4.64 KCAL/MOL
REMARK 924 INTRA-LIGAND FREE ENERGY PREDICTED BY IDOCK:   -0.64 KCAL/MOL
REMARK 927      BINDING AFFINITY PREDICTED BY RF-SCORE:    0.00 PKD
ROOT
HETATM    1  O   UNL     1      -9.523   7.382  69.814  1.00  0.00    -0.160 OA 
HETATM    2  C   UNL     1      -9.134   8.663  70.317  1.00  0.00    -0.162 C  
HETATM    3  H   UNL     1      -9.604   6.785  70.549  1.00  0.00     0.000 HD 
HETATM    4  C   UNL     1      -7.822   8.386  71.078  1.00  0.00    -0.106 A  
HETATM    5  C   UNL     1      -9.001   9.637  69.117  1.00  0.00    -0.154 C  
HETATM    6  C   UNL     1     -10.254   9.292  71.280  1.00  0.00    -0.383 C  
HETATM    7  C   UNL     1      -7.631   7.143  71.731  1.00  0.00    -0.087 A  
HETATM    8  C   UNL     1      -6.775   9.311  71.161  1.00  0.00    -0.074 A  
HETATM    9  C   UNL     1     -10.627   8.390  72.488  1.00  0.00    -0.368 C  
HETATM   10  C   UNL     1      -5.579   8.998  71.829  1.00  0.00    -0.060 A  
HETATM   11  C   UNL     1     -12.953   9.054  72.559  1.00  0.00    -0.429 C  
HETATM   12  C   UNL     1     -12.060   7.902  72.158  1.00  0.00    -0.371 C  
HETATM   13  C   UNL     1     -12.693  10.037  71.682  1.00  0.00    -0.535 C  
HETATM   14  C   UNL     1     -12.220   8.070  70.645  1.00  0.00     0.080 C  
HETATM   15  C   UNL     1      -5.420   7.756  72.466  1.00  0.00    -0.036 A  
HETATM   16  C   UNL     1     -11.689   9.500  70.653  1.00  0.00    -0.330 C  
HETATM   17  C   UNL     1      -6.459   6.839  72.435  1.00  0.00    -0.058 A  
ENDROOT
BRANCH   5  18
HETATM   18  C   UNL     1      -8.039   9.307  67.959  1.00  0.00    -0.104 C  
BRANCH  18  19
HETATM   19  N   UNL     1      -8.762   8.485  66.961  1.00  0.00    -0.124 NA 
HETATM   20  C   UNL     1     -10.274  10.204  65.951  1.00  0.00    -0.281 C  
HETATM   21  C   UNL     1     -10.155   8.894  66.725  1.00  0.00    -0.280 C  
HETATM   22  C   UNL     1      -9.583  10.076  64.600  1.00  0.00    -0.363 C  
HETATM   23  C   UNL     1      -8.152   9.567  64.757  1.00  0.00    -0.130 C  
HETATM   24  C   UNL     1      -8.058   8.347  65.680  1.00  0.00    -0.125 C  
ENDBRANCH  18  19
ENDBRANCH   5  18
TORSDOF 2
ENDMDL
MODEL      102
REMARK 921   NORMALIZED FREE ENERGY PREDICTED BY IDOCK:   -4.17 KCAL/MOL
REMARK 922        TOTAL FREE ENERGY PREDICTED BY IDOCK:   -5.25 KCAL/MOL
REMARK 923 INTER-LIGAND FREE ENERGY PREDICTED BY IDOCK:   -4.84 KCAL/MOL
REMARK 924 INTRA-LIGAND FREE ENERGY PREDICTED BY IDOCK:   -0.41 KCAL/MOL
REMARK 927      BINDING AFFINITY PREDICTED BY RF-SCORE:    0.00 PKD
ROOT
HETATM    1  O   UNL     1      -8.193  12.388  69.021  1.00  0.00    -0.343 OA 
HETATM    2  C   UNL     1      -9.015  11.551  68.205  1.00  0.00    -0.177 C  
HETATM    3  H   UNL     1      -7.692  12.961  68.452  1.00  0.00     0.000 HD 
HETATM    4  C   UNL     1      -8.017  10.834  67.275  1.00  0.00    -0.117 A  
HETATM    5  C   UNL     1      -9.832  10.615  69.135  1.00  0.00    -0.217 C  
HETATM    6  C   UNL     1     -10.093  12.401  67.372  1.00  0.00    -0.205 C  
HETATM    7  C   UNL     1      -6.834  11.495  66.861  1.00  0.00    -0.138 A  
HETATM    8  C   UNL     1      -8.209   9.529  66.805  1.00  0.00    -0.113 A  
HETATM    9  C   UNL     1      -9.468  13.498  66.466  1.00  0.00    -0.265 C  
HETATM   10  C   UNL     1      -7.249   8.899  65.995  1.00  0.00    -0.089 A  
HETATM   11  C   UNL     1     -11.293  15.067  66.717  1.00  0.00    -0.293 C  
HETATM   12  C   UNL     1      -9.868  14.824  67.160  1.00  0.00    -0.232 C  
HETATM   13  C   UNL     1     -12.025  14.112  67.311  1.00  0.00    -0.449 C  
HETATM   14  C   UNL     1     -10.192  14.456  68.610  1.00  0.00    -0.245 C  
HETATM   15  C   UNL     1      -6.086   9.582  65.602  1.00  0.00    -0.064 A  
HETATM   16  C   UNL     1     -11.092  13.291  68.211  1.00  0.00    -0.294 C  
HETATM   17  C   UNL     1      -5.893  10.890  66.018  1.00  0.00    -0.143 A  
ENDROOT
BRANCH   5  18
HETATM   18  C   UNL     1      -9.102   9.687  70.126  1.00  0.00    -0.240 C  
BRANCH  18  19
HETATM   19  N   UNL     1     -10.114   8.942  70.911  1.00  0.00    -0.221 NA 
HETATM   20  C   UNL     1      -9.586   6.591  70.236  1.00  0.00    -0.172 C  
HETATM   21  C   UNL     1     -10.613   7.720  70.263  1.00  0.00    -0.231 C  
HETATM   22  C   UNL     1      -9.165   6.236  71.655  1.00  0.00    -0.147 C  
HETATM   23  C   UNL     1      -8.716   7.475  72.426  1.00  0.00    -0.155 C  
HETATM   24  C   UNL     1      -9.698   8.643  72.288  1.00  0.00    -0.286 C  
ENDBRANCH  18  19
ENDBRANCH   5  18
TORSDOF 2
ENDMDL
MODEL      103
REMARK 921   NORMALIZED FREE ENERGY PREDICTED BY IDOCK:   -4.16 KCAL/MOL
REMARK 922        TOTAL FREE ENERGY PREDICTED BY IDOCK:   -5.23 KCAL/MOL
REMARK 923 INTER-LIGAND FREE ENERGY PREDICTED BY IDOCK:   -4.56 KCAL/MOL
REMARK 924 INTRA-LIGAND FREE ENERGY PREDICTED BY IDOCK:   -0.67 KCAL/MOL
REMARK 927      BINDING AFFINITY PREDICTED BY RF-SCORE:    0.00 PKD
ROOT
HETATM    1  O   UNL     1     -10.468   8.681  66.535  1.00  0.00    -0.272 OA 
HETATM    2  C   UNL     1      -9.445   8.880  67.514  1.00  0.00    -0.141 C  
HETATM    3  H   UNL     1     -11.302   8.608  66.986  1.00  0.00     0.000 HD 
HETATM    4  C   UNL     1      -9.575   7.660  68.447  1.00  0.00    -0.155 A  
HETATM    5  C   UNL     1      -8.084   9.000  66.778  1.00  0.00    -0.111 C  
HETATM    6  C   UNL     1      -9.642  10.259  68.313  1.00  0.00    -0.151 C  
HETATM    7  C   UNL     1     -10.845   7.078  68.679  1.00  0.00    -0.191 A  
HETATM    8  C   UNL     1      -8.481   7.071  69.094  1.00  0.00    -0.129 A  
HETATM    9  C   UNL     1     -11.020  10.388  69.019  1.00  0.00    -0.282 C  
HETATM   10  C   UNL     1      -8.641   5.932  69.901  1.00  0.00    -0.129 A  
HETATM   11  C   UNL     1     -11.209  12.781  68.713  1.00  0.00    -0.327 C  
HETATM   12  C   UNL     1     -11.759  11.472  68.195  1.00  0.00    -0.357 C  
HETATM   13  C   UNL     1      -9.931  12.824  68.305  1.00  0.00    -0.230 C  
HETATM   14  C   UNL     1     -11.059  11.510  66.834  1.00  0.00    -0.366 C  
HETATM   15  C   UNL     1      -9.915   5.378  70.111  1.00  0.00    -0.301 A  
HETATM   16  C   UNL     1      -9.665  11.580  67.448  1.00  0.00    -0.191 C  
HETATM   17  C   UNL     1     -11.019   5.969  69.517  1.00  0.00    -0.467 A  
ENDROOT
BRANCH   5  18
HETATM   18  C   UNL     1      -7.602   7.860  65.860  1.00  0.00    -0.083 C  
BRANCH  18  19
HETATM   19  N   UNL     1      -8.256   8.005  64.539  1.00  0.00    -0.130 NA 
HETATM   20  C   UNL     1      -6.886   9.845  63.541  1.00  0.00    -0.123 C  
HETATM   21  C   UNL     1      -8.262   9.375  64.006  1.00  0.00    -0.163 C  
HETATM   22  C   UNL     1      -6.357   8.917  62.456  1.00  0.00    -0.095 C  
HETATM   23  C   UNL     1      -6.404   7.458  62.904  1.00  0.00    -0.054 C  
HETATM   24  C   UNL     1      -7.754   7.074  63.520  1.00  0.00    -0.114 C  
ENDBRANCH  18  19
ENDBRANCH   5  18
TORSDOF 2
ENDMDL
MODEL      104
REMARK 921   NORMALIZED FREE ENERGY PREDICTED BY IDOCK:   -4.15 KCAL/MOL
REMARK 922        TOTAL FREE ENERGY PREDICTED BY IDOCK:   -5.23 KCAL/MOL
REMARK 923 INTER-LIGAND FREE ENERGY PREDICTED BY IDOCK:   -4.54 KCAL/MOL
REMARK 924 INTRA-LIGAND FREE ENERGY PREDICTED BY IDOCK:   -0.69 KCAL/MOL
REMARK 927      BINDING AFFINITY PREDICTED BY RF-SCORE:    0.00 PKD
ROOT
HETATM    1  O   UNL     1     -10.423   7.331  66.512  1.00  0.00    -0.493 OA 
HETATM    2  C   UNL     1      -9.281   7.558  67.342  1.00  0.00    -0.132 C  
HETATM    3  H   UNL     1     -11.185   7.693  66.948  1.00  0.00     0.000 HD 
HETATM    4  C   UNL     1      -9.649   6.883  68.679  1.00  0.00    -0.133 A  
HETATM    5  C   UNL     1      -8.036   6.966  66.631  1.00  0.00    -0.110 C  
HETATM    6  C   UNL     1      -8.982   9.124  67.534  1.00  0.00    -0.131 C  
HETATM    7  C   UNL     1     -10.998   6.853  69.110  1.00  0.00    -0.240 A  
HETATM    8  C   UNL     1      -8.704   6.274  69.514  1.00  0.00    -0.132 A  
HETATM    9  C   UNL     1     -10.176   9.927  68.121  1.00  0.00    -0.210 C  
HETATM   10  C   UNL     1      -9.092   5.631  70.702  1.00  0.00    -0.168 A  
HETATM   11  C   UNL     1      -9.704  11.961  66.898  1.00  0.00    -0.212 C  
HETATM   12  C   UNL     1     -10.662  10.791  66.931  1.00  0.00    -0.309 C  
HETATM   13  C   UNL     1      -8.522  11.452  66.517  1.00  0.00    -0.170 C  
HETATM   14  C   UNL     1     -10.139  10.098  65.670  1.00  0.00    -0.324 C  
HETATM   15  C   UNL     1     -10.438   5.618  71.102  1.00  0.00    -0.306 A  
HETATM   16  C   UNL     1      -8.723   9.959  66.220  1.00  0.00    -0.152 C  
HETATM   17  C   UNL     1     -11.387   6.252  70.314  1.00  0.00    -0.457 A  
ENDROOT
BRANCH   5  18
HETATM   18  C   UNL     1      -8.009   5.476  66.238  1.00  0.00    -0.105 C  
BRANCH  18  19
HETATM   19  N   UNL     1      -8.902   5.274  65.075  1.00  0.00    -0.141 NA 
HETATM   20  C   UNL     1      -7.421   3.920  63.581  1.00  0.00    -0.055 C  
HETATM   21  C   UNL     1      -8.213   5.210  63.777  1.00  0.00    -0.126 C  
HETATM   22  C   UNL     1      -8.350   2.718  63.683  1.00  0.00    -0.086 C  
HETATM   23  C   UNL     1      -9.171   2.761  64.969  1.00  0.00    -0.145 C  
HETATM   24  C   UNL     1      -9.813   4.131  65.213  1.00  0.00    -0.208 C  
ENDBRANCH  18  19
ENDBRANCH   5  18
TORSDOF 2
ENDMDL
MODEL      105
REMARK 921   NORMALIZED FREE ENERGY PREDICTED BY IDOCK:   -4.14 KCAL/MOL
REMARK 922        TOTAL FREE ENERGY PREDICTED BY IDOCK:   -5.21 KCAL/MOL
REMARK 923 INTER-LIGAND FREE ENERGY PREDICTED BY IDOCK:   -4.66 KCAL/MOL
REMARK 924 INTRA-LIGAND FREE ENERGY PREDICTED BY IDOCK:   -0.55 KCAL/MOL
REMARK 927      BINDING AFFINITY PREDICTED BY RF-SCORE:    0.00 PKD
ROOT
HETATM    1  O   UNL     1      -9.834   9.582  70.741  1.00  0.00    -0.272 OA 
HETATM    2  C   UNL     1     -10.645   9.136  69.652  1.00  0.00    -0.228 C  
HETATM    3  H   UNL     1     -10.195  10.398  71.068  1.00  0.00     0.000 HD 
HETATM    4  C   UNL     1     -10.613  10.309  68.653  1.00  0.00    -0.232 A  
HETATM    5  C   UNL     1     -10.055   7.804  69.119  1.00  0.00    -0.196 C  
HETATM    6  C   UNL     1     -12.144   8.802  70.123  1.00  0.00     0.481 C  
HETATM    7  C   UNL     1     -10.516  11.641  69.127  1.00  0.00    -0.099 A  
HETATM    8  C   UNL     1     -10.668  10.134  67.265  1.00  0.00    -0.316 A  
HETATM    9  C   UNL     1     -12.870   9.990  70.813  1.00  0.00    -0.341 C  
HETATM   10  C   UNL     1     -10.590  11.231  66.390  1.00  0.00    -0.316 A  
HETATM   11  C   UNL     1     -14.147   8.619  72.344  1.00  0.00    -0.449 C  
HETATM   12  C   UNL     1     -12.962   9.556  72.297  1.00  0.00    -0.466 C  
HETATM   13  C   UNL     1     -13.769   7.523  71.668  1.00  0.00    -0.465 C  
HETATM   14  C   UNL     1     -11.882   8.488  72.488  1.00  0.00    -0.398 C  
HETATM   15  C   UNL     1     -10.493  12.540  66.892  1.00  0.00    -0.244 A  
HETATM   16  C   UNL     1     -12.304   7.706  71.248  1.00  0.00    -0.334 C  
HETATM   17  C   UNL     1     -10.481  12.743  68.263  1.00  0.00    -0.250 A  
ENDROOT
BRANCH   5  18
HETATM   18  C   UNL     1      -8.594   7.750  68.631  1.00  0.00    -0.129 C  
BRANCH  18  19
HETATM   19  N   UNL     1      -7.908   6.627  69.311  1.00  0.00    -0.108 NA 
HETATM   20  C   UNL     1      -5.655   7.637  69.716  1.00  0.00    -0.023 C  
HETATM   21  C   UNL     1      -6.466   6.536  69.038  1.00  0.00    -0.043 C  
HETATM   22  C   UNL     1      -5.855   7.578  71.224  1.00  0.00    -0.035 C  
HETATM   23  C   UNL     1      -7.339   7.578  71.585  1.00  0.00    -0.075 C  
HETATM   24  C   UNL     1      -8.147   6.571  70.759  1.00  0.00    -0.120 C  
ENDBRANCH  18  19
ENDBRANCH   5  18
TORSDOF 2
ENDMDL
MODEL      106
REMARK 921   NORMALIZED FREE ENERGY PREDICTED BY IDOCK:   -4.06 KCAL/MOL
REMARK 922        TOTAL FREE ENERGY PREDICTED BY IDOCK:   -5.12 KCAL/MOL
REMARK 923 INTER-LIGAND FREE ENERGY PREDICTED BY IDOCK:   -4.77 KCAL/MOL
REMARK 924 INTRA-LIGAND FREE ENERGY PREDICTED BY IDOCK:   -0.35 KCAL/MOL
REMARK 927      BINDING AFFINITY PREDICTED BY RF-SCORE:    0.00 PKD
ROOT
HETATM    1  O   UNL     1     -11.152   8.801  68.289  1.00  0.00    -0.456 OA 
HETATM    2  C   UNL     1      -9.962   8.192  68.796  1.00  0.00    -0.189 C  
HETATM    3  H   UNL     1     -11.824   8.133  68.220  1.00  0.00     0.000 HD 
HETATM    4  C   UNL     1      -9.658   7.066  67.788  1.00  0.00    -0.138 A  
HETATM    5  C   UNL     1      -8.866   9.284  68.908  1.00  0.00    -0.135 C  
HETATM    6  C   UNL     1     -10.171   7.616  70.280  1.00  0.00    -0.205 C  
HETATM    7  C   UNL     1     -10.720   6.397  67.131  1.00  0.00    -0.433 A  
HETATM    8  C   UNL     1      -8.358   6.656  67.467  1.00  0.00    -0.121 A  
HETATM    9  C   UNL     1     -11.330   6.589  70.402  1.00  0.00    -0.443 C  
HETATM   10  C   UNL     1      -8.127   5.656  66.508  1.00  0.00    -0.105 A  
HETATM   11  C   UNL     1     -11.970   7.233  72.645  1.00  0.00    -0.061 C  
HETATM   12  C   UNL     1     -12.415   7.349  71.205  1.00  0.00    -0.343 C  
HETATM   13  C   UNL     1     -10.858   7.978  72.742  1.00  0.00    -0.438 C  
HETATM   14  C   UNL     1     -12.094   8.836  71.038  1.00  0.00    -0.262 C  
HETATM   15  C   UNL     1      -9.202   5.011  65.874  1.00  0.00    -0.159 A  
HETATM   16  C   UNL     1     -10.620   8.652  71.384  1.00  0.00    -0.334 C  
HETATM   17  C   UNL     1     -10.500   5.368  66.206  1.00  0.00    -0.277 A  
ENDROOT
BRANCH   5  18
HETATM   18  C   UNL     1      -8.453  10.092  67.663  1.00  0.00    -0.118 C  
BRANCH  18  19
HETATM   19  N   UNL     1      -6.975  10.101  67.570  1.00  0.00    -0.084 NA 
HETATM   20  C   UNL     1      -6.511  12.552  67.773  1.00  0.00    -0.120 C  
HETATM   21  C   UNL     1      -6.409  11.292  66.918  1.00  0.00    -0.125 C  
HETATM   22  C   UNL     1      -5.783  12.345  69.094  1.00  0.00    -0.071 C  
HETATM   23  C   UNL     1      -6.254  11.072  69.793  1.00  0.00    -0.113 C  
HETATM   24  C   UNL     1      -6.296   9.864  68.851  1.00  0.00    -0.041 C  
ENDBRANCH  18  19
ENDBRANCH   5  18
TORSDOF 2
ENDMDL
MODEL      107
REMARK 921   NORMALIZED FREE ENERGY PREDICTED BY IDOCK:   -4.05 KCAL/MOL
REMARK 922        TOTAL FREE ENERGY PREDICTED BY IDOCK:   -5.11 KCAL/MOL
REMARK 923 INTER-LIGAND FREE ENERGY PREDICTED BY IDOCK:   -4.54 KCAL/MOL
REMARK 924 INTRA-LIGAND FREE ENERGY PREDICTED BY IDOCK:   -0.57 KCAL/MOL
REMARK 927      BINDING AFFINITY PREDICTED BY RF-SCORE:    0.00 PKD
ROOT
HETATM    1  O   UNL     1     -10.734   7.298  69.621  1.00  0.00    -0.231 OA 
HETATM    2  C   UNL     1      -9.686   8.143  70.104  1.00  0.00    -0.175 C  
HETATM    3  H   UNL     1     -10.407   6.407  69.588  1.00  0.00     0.000 HD 
HETATM    4  C   UNL     1      -8.528   7.910  69.113  1.00  0.00    -0.137 A  
HETATM    5  C   UNL     1     -10.219   9.598  70.158  1.00  0.00    -0.313 C  
HETATM    6  C   UNL     1      -9.262   7.767  71.607  1.00  0.00    -0.168 C  
HETATM    7  C   UNL     1      -8.361   6.641  68.505  1.00  0.00    -0.122 A  
HETATM    8  C   UNL     1      -7.609   8.906  68.762  1.00  0.00    -0.091 A  
HETATM    9  C   UNL     1      -8.816   6.290  71.787  1.00  0.00    -0.137 C  
HETATM   10  C   UNL     1      -6.596   8.661  67.820  1.00  0.00    -0.062 A  
HETATM   11  C   UNL     1      -9.686   6.062  74.034  1.00  0.00    -0.194 C  
HETATM   12  C   UNL     1      -9.967   5.653  72.606  1.00  0.00    -0.198 C  
HETATM   13  C   UNL     1      -9.898   7.387  74.080  1.00  0.00    -0.190 C  
HETATM   14  C   UNL     1     -11.181   6.561  72.396  1.00  0.00    -0.310 C  
HETATM   15  C   UNL     1      -6.456   7.392  67.233  1.00  0.00    -0.060 A  
HETATM   16  C   UNL     1     -10.399   7.835  72.700  1.00  0.00    -0.352 C  
HETATM   17  C   UNL     1      -7.327   6.376  67.598  1.00  0.00    -0.088 A  
ENDROOT
BRANCH   5  18
HETATM   18  C   UNL     1     -10.770  10.265  68.883  1.00  0.00    -0.227 C  
BRANCH  18  19
HETATM   19  N   UNL     1     -10.541  11.725  68.973  1.00  0.00    -0.178 NA 
HETATM   20  C   UNL     1      -9.045  12.083  66.999  1.00  0.00    -0.191 C  
HETATM   21  C   UNL     1      -9.215  12.166  68.513  1.00  0.00    -0.099 C  
HETATM   22  C   UNL     1     -10.095  12.943  66.309  1.00  0.00    -0.281 C  
HETATM   23  C   UNL     1     -11.499  12.604  66.803  1.00  0.00    -0.410 C  
HETATM   24  C   UNL     1     -11.586  12.533  68.331  1.00  0.00    -0.322 C  
ENDBRANCH  18  19
ENDBRANCH   5  18
TORSDOF 2
ENDMDL
MODEL      108
REMARK 921   NORMALIZED FREE ENERGY PREDICTED BY IDOCK:   -4.03 KCAL/MOL
REMARK 922        TOTAL FREE ENERGY PREDICTED BY IDOCK:   -5.10 KCAL/MOL
REMARK 923 INTER-LIGAND FREE ENERGY PREDICTED BY IDOCK:   -4.78 KCAL/MOL
REMARK 924 INTRA-LIGAND FREE ENERGY PREDICTED BY IDOCK:   -0.32 KCAL/MOL
REMARK 927      BINDING AFFINITY PREDICTED BY RF-SCORE:    0.00 PKD
ROOT
HETATM    1  O   UNL     1      -9.567   4.547  73.014  1.00  0.00    -0.127 OA 
HETATM    2  C   UNL     1      -9.305   5.554  72.034  1.00  0.00    -0.147 C  
HETATM    3  H   UNL     1      -8.921   3.857  72.913  1.00  0.00     0.000 HD 
HETATM    4  C   UNL     1      -9.367   4.797  70.692  1.00  0.00    -0.218 A  
HETATM    5  C   UNL     1     -10.359   6.680  72.200  1.00  0.00    -0.222 C  
HETATM    6  C   UNL     1      -7.874   6.247  72.256  1.00  0.00    -0.104 C  
HETATM    7  C   UNL     1      -8.957   3.443  70.623  1.00  0.00    -0.165 A  
HETATM    8  C   UNL     1      -9.822   5.382  69.504  1.00  0.00    -0.264 A  
HETATM    9  C   UNL     1      -6.682   5.249  72.256  1.00  0.00    -0.061 C  
HETATM   10  C   UNL     1      -9.904   4.640  68.313  1.00  0.00    -0.168 A  
HETATM   11  C   UNL     1      -5.364   6.469  73.878  1.00  0.00    -0.042 C  
HETATM   12  C   UNL     1      -6.217   5.229  73.733  1.00  0.00    -0.057 C  
HETATM   13  C   UNL     1      -6.212   7.505  73.780  1.00  0.00    -0.068 C  
HETATM   14  C   UNL     1      -7.407   5.733  74.554  1.00  0.00    -0.087 C  
HETATM   15  C   UNL     1      -9.490   3.298  68.277  1.00  0.00    -0.214 A  
HETATM   16  C   UNL     1      -7.635   6.943  73.653  1.00  0.00    -0.086 C  
HETATM   17  C   UNL     1      -8.994   2.709  69.430  1.00  0.00    -0.170 A  
ENDROOT
BRANCH   5  18
HETATM   18  C   UNL     1     -11.861   6.350  72.104  1.00  0.00    -0.314 C  
BRANCH  18  19
HETATM   19  N   UNL     1     -12.458   7.162  71.018  1.00  0.00    -0.348 NA 
HETATM   20  C   UNL     1     -14.041   8.592  72.325  1.00  0.00    -0.491 C  
HETATM   21  C   UNL     1     -13.863   7.538  71.237  1.00  0.00    -0.256 C  
HETATM   22  C   UNL     1     -13.266   9.852  71.963  1.00  0.00    -0.555 C  
HETATM   23  C   UNL     1     -11.811   9.529  71.633  1.00  0.00    -0.468 C  
HETATM   24  C   UNL     1     -11.673   8.351  70.663  1.00  0.00    -0.147 C  
ENDBRANCH  18  19
ENDBRANCH   5  18
TORSDOF 2
ENDMDL
MODEL      109
REMARK 921   NORMALIZED FREE ENERGY PREDICTED BY IDOCK:   -3.92 KCAL/MOL
REMARK 922        TOTAL FREE ENERGY PREDICTED BY IDOCK:   -4.97 KCAL/MOL
REMARK 923 INTER-LIGAND FREE ENERGY PREDICTED BY IDOCK:   -4.39 KCAL/MOL
REMARK 924 INTRA-LIGAND FREE ENERGY PREDICTED BY IDOCK:   -0.59 KCAL/MOL
REMARK 927      BINDING AFFINITY PREDICTED BY RF-SCORE:    0.00 PKD
ROOT
HETATM    1  O   UNL     1      -9.491  12.545  68.328  1.00  0.00    -0.210 OA 
HETATM    2  C   UNL     1      -8.555  11.669  67.696  1.00  0.00    -0.142 C  
HETATM    3  H   UNL     1      -9.365  12.488  69.268  1.00  0.00     0.000 HD 
HETATM    4  C   UNL     1      -8.858  10.288  68.310  1.00  0.00    -0.126 A  
HETATM    5  C   UNL     1      -8.760  11.762  66.161  1.00  0.00    -0.057 C  
HETATM    6  C   UNL     1      -7.037  12.117  67.970  1.00  0.00    -0.096 C  
HETATM    7  C   UNL     1      -9.314  10.193  69.648  1.00  0.00    -0.215 A  
HETATM    8  C   UNL     1      -8.713   9.087  67.605  1.00  0.00    -0.124 A  
HETATM    9  C   UNL     1      -6.669  12.213  69.477  1.00  0.00    -0.017 C  
HETATM   10  C   UNL     1      -9.045   7.854  68.192  1.00  0.00    -0.133 A  
HETATM   11  C   UNL     1      -5.131  14.063  69.217  1.00  0.00    -0.078 C  
HETATM   12  C   UNL     1      -6.517  13.735  69.724  1.00  0.00    -0.079 C  
HETATM   13  C   UNL     1      -5.188  13.916  67.884  1.00  0.00    -0.067 C  
HETATM   14  C   UNL     1      -7.288  14.421  68.593  1.00  0.00    -0.123 C  
HETATM   15  C   UNL     1      -9.495   7.793  69.521  1.00  0.00    -0.160 A  
HETATM   16  C   UNL     1      -6.636  13.572  67.507  1.00  0.00    -0.130 C  
HETATM   17  C   UNL     1      -9.605   8.964  70.255  1.00  0.00    -0.212 A  
ENDROOT
BRANCH   5  18
HETATM   18  C   UNL     1     -10.140  11.451  65.548  1.00  0.00    -0.247 C  
BRANCH  18  19
HETATM   19  N   UNL     1     -10.410  12.427  64.468  1.00  0.00    -0.313 NA 
HETATM   20  C   UNL     1     -12.897  12.641  64.647  1.00  0.00    -0.361 C  
HETATM   21  C   UNL     1     -11.701  12.243  63.786  1.00  0.00    -0.478 C  
HETATM   22  C   UNL     1     -12.782  14.102  65.056  1.00  0.00    -0.336 C  
HETATM   23  C   UNL     1     -11.426  14.393  65.694  1.00  0.00    -0.336 C  
HETATM   24  C   UNL     1     -10.257  13.829  64.878  1.00  0.00    -0.348 C  
ENDBRANCH  18  19
ENDBRANCH   5  18
TORSDOF 2
ENDMDL
MODEL      110
REMARK 921   NORMALIZED FREE ENERGY PREDICTED BY IDOCK:   -3.92 KCAL/MOL
REMARK 922        TOTAL FREE ENERGY PREDICTED BY IDOCK:   -4.97 KCAL/MOL
REMARK 923 INTER-LIGAND FREE ENERGY PREDICTED BY IDOCK:   -4.49 KCAL/MOL
REMARK 924 INTRA-LIGAND FREE ENERGY PREDICTED BY IDOCK:   -0.48 KCAL/MOL
REMARK 927      BINDING AFFINITY PREDICTED BY RF-SCORE:    0.00 PKD
ROOT
HETATM    1  O   UNL     1     -11.205   7.560  67.930  1.00  0.00    -0.464 OA 
HETATM    2  C   UNL     1      -9.953   7.621  68.618  1.00  0.00    -0.174 C  
HETATM    3  H   UNL     1     -11.704   8.339  68.148  1.00  0.00     0.000 HD 
HETATM    4  C   UNL     1     -10.347   7.747  70.104  1.00  0.00    -0.218 A  
HETATM    5  C   UNL     1      -9.139   6.349  68.263  1.00  0.00    -0.114 C  
HETATM    6  C   UNL     1      -9.065   8.868  68.135  1.00  0.00    -0.142 C  
HETATM    7  C   UNL     1     -11.530   8.436  70.467  1.00  0.00    -0.189 A  
HETATM    8  C   UNL     1      -9.588   7.201  71.146  1.00  0.00    -0.164 A  
HETATM    9  C   UNL     1      -9.771  10.244  68.289  1.00  0.00    -0.154 C  
HETATM   10  C   UNL     1     -10.009   7.302  72.483  1.00  0.00    -0.213 A  
HETATM   11  C   UNL     1      -8.756  11.241  66.332  1.00  0.00    -0.180 C  
HETATM   12  C   UNL     1     -10.066  10.675  66.831  1.00  0.00    -0.260 C  
HETATM   13  C   UNL     1      -7.920  10.195  66.239  1.00  0.00    -0.118 C  
HETATM   14  C   UNL     1     -10.032   9.389  66.001  1.00  0.00    -0.352 C  
HETATM   15  C   UNL     1     -11.189   7.992  72.810  1.00  0.00    -0.448 A  
HETATM   16  C   UNL     1      -8.707   8.927  66.598  1.00  0.00    -0.140 C  
HETATM   17  C   UNL     1     -11.935   8.579  71.800  1.00  0.00    -0.393 A  
ENDROOT
BRANCH   5  18
HETATM   18  C   UNL     1      -9.730   4.953  68.542  1.00  0.00    -0.155 C  
BRANCH  18  19
HETATM   19  N   UNL     1      -8.754   4.175  69.339  1.00  0.00    -0.080 NA 
HETATM   20  C   UNL     1      -9.269   1.852  68.566  1.00  0.00    -0.228 C  
HETATM   21  C   UNL     1      -9.215   2.835  69.732  1.00  0.00    -0.135 C  
HETATM   22  C   UNL     1      -7.890   1.713  67.937  1.00  0.00    -0.058 C  
HETATM   23  C   UNL     1      -7.303   3.077  67.582  1.00  0.00    -0.054 C  
HETATM   24  C   UNL     1      -7.421   4.087  68.729  1.00  0.00    -0.055 C  
ENDBRANCH  18  19
ENDBRANCH   5  18
TORSDOF 2
ENDMDL
MODEL      111
REMARK 921   NORMALIZED FREE ENERGY PREDICTED BY IDOCK:   -3.92 KCAL/MOL
REMARK 922        TOTAL FREE ENERGY PREDICTED BY IDOCK:   -4.96 KCAL/MOL
REMARK 923 INTER-LIGAND FREE ENERGY PREDICTED BY IDOCK:   -4.26 KCAL/MOL
REMARK 924 INTRA-LIGAND FREE ENERGY PREDICTED BY IDOCK:   -0.70 KCAL/MOL
REMARK 927      BINDING AFFINITY PREDICTED BY RF-SCORE:    0.00 PKD
ROOT
HETATM    1  O   UNL     1     -10.186   7.052  66.793  1.00  0.00    -0.282 OA 
HETATM    2  C   UNL     1      -8.802   6.807  67.051  1.00  0.00    -0.115 C  
HETATM    3  H   UNL     1     -10.303   7.149  65.855  1.00  0.00     0.000 HD 
HETATM    4  C   UNL     1      -8.083   8.020  66.427  1.00  0.00    -0.107 A  
HETATM    5  C   UNL     1      -8.612   6.649  68.582  1.00  0.00    -0.125 C  
HETATM    6  C   UNL     1      -8.307   5.427  66.396  1.00  0.00    -0.110 C  
HETATM    7  C   UNL     1      -8.616   8.643  65.272  1.00  0.00    -0.206 A  
HETATM    8  C   UNL     1      -6.904   8.564  66.952  1.00  0.00    -0.069 A  
HETATM    9  C   UNL     1      -8.538   5.337  64.862  1.00  0.00    -0.145 C  
HETATM   10  C   UNL     1      -6.308   9.699  66.376  1.00  0.00    -0.069 A  
HETATM   11  C   UNL     1      -8.967   2.956  64.836  1.00  0.00    -0.133 C  
HETATM   12  C   UNL     1      -9.669   4.289  64.718  1.00  0.00    -0.170 C  
HETATM   13  C   UNL     1      -8.555   2.873  66.111  1.00  0.00    -0.119 C  
HETATM   14  C   UNL     1     -10.370   4.242  66.079  1.00  0.00    -0.112 C  
HETATM   15  C   UNL     1      -6.862  10.295  65.230  1.00  0.00    -0.131 A  
HETATM   16  C   UNL     1      -9.062   4.118  66.853  1.00  0.00    -0.152 C  
HETATM   17  C   UNL     1      -8.005   9.748  64.666  1.00  0.00    -0.139 A  
ENDROOT
BRANCH   5  18
HETATM   18  C   UNL     1      -9.044   7.783  69.533  1.00  0.00    -0.146 C  
BRANCH  18  19
HETATM   19  N   UNL     1     -10.516   7.932  69.455  1.00  0.00    -0.225 NA 
HETATM   20  C   UNL     1     -11.209   6.807  71.580  1.00  0.00    -0.300 C  
HETATM   21  C   UNL     1     -11.276   6.825  70.055  1.00  0.00    -0.328 C  
HETATM   22  C   UNL     1     -11.754   8.113  72.141  1.00  0.00    -0.418 C  
HETATM   23  C   UNL     1     -11.073   9.318  71.497  1.00  0.00    -0.443 C  
HETATM   24  C   UNL     1     -11.012   9.215  69.969  1.00  0.00    -0.220 C  
ENDBRANCH  18  19
ENDBRANCH   5  18
TORSDOF 2
ENDMDL
MODEL      112
REMARK 921   NORMALIZED FREE ENERGY PREDICTED BY IDOCK:   -3.90 KCAL/MOL
REMARK 922        TOTAL FREE ENERGY PREDICTED BY IDOCK:   -4.95 KCAL/MOL
REMARK 923 INTER-LIGAND FREE ENERGY PREDICTED BY IDOCK:   -4.67 KCAL/MOL
REMARK 924 INTRA-LIGAND FREE ENERGY PREDICTED BY IDOCK:   -0.28 KCAL/MOL
REMARK 927      BINDING AFFINITY PREDICTED BY RF-SCORE:    0.00 PKD
ROOT
HETATM    1  O   UNL     1      -7.927   6.390  70.809  1.00  0.00    -0.107 OA 
HETATM    2  C   UNL     1      -9.049   6.540  69.936  1.00  0.00    -0.143 C  
HETATM    3  H   UNL     1      -8.202   5.881  71.564  1.00  0.00     0.000 HD 
HETATM    4  C   UNL     1     -10.123   7.210  70.816  1.00  0.00    -0.197 A  
HETATM    5  C   UNL     1      -8.600   7.370  68.705  1.00  0.00    -0.129 C  
HETATM    6  C   UNL     1      -9.553   5.128  69.362  1.00  0.00    -0.225 C  
HETATM    7  C   UNL     1     -10.180   6.927  72.203  1.00  0.00    -0.213 A  
HETATM    8  C   UNL     1     -11.069   8.113  70.316  1.00  0.00    -0.221 A  
HETATM    9  C   UNL     1      -9.930   4.097  70.462  1.00  0.00    -0.177 C  
HETATM   10  C   UNL     1     -12.001   8.735  71.164  1.00  0.00    -0.331 A  
HETATM   11  C   UNL     1      -9.202   2.156  69.213  1.00  0.00    -0.187 C  
HETATM   12  C   UNL     1      -8.804   3.036  70.376  1.00  0.00    -0.146 C  
HETATM   13  C   UNL     1      -9.066   2.919  68.117  1.00  0.00    -0.226 C  
HETATM   14  C   UNL     1      -7.629   3.729  69.681  1.00  0.00    -0.052 C  
HETATM   15  C   UNL     1     -12.032   8.432  72.536  1.00  0.00    -0.418 A  
HETATM   16  C   UNL     1      -8.497   4.277  68.553  1.00  0.00    -0.103 C  
HETATM   17  C   UNL     1     -11.135   7.508  73.048  1.00  0.00    -0.413 A  
ENDROOT
BRANCH   5  18
HETATM   18  C   UNL     1      -8.001   8.776  68.901  1.00  0.00    -0.105 C  
BRANCH  18  19
HETATM   19  N   UNL     1      -8.225   9.564  67.667  1.00  0.00    -0.120 NA 
HETATM   20  C   UNL     1     -10.645   9.089  67.246  1.00  0.00    -0.301 C  
HETATM   21  C   UNL     1      -9.209   8.984  66.740  1.00  0.00    -0.157 C  
HETATM   22  C   UNL     1     -11.013  10.549  67.472  1.00  0.00    -0.365 C  
HETATM   23  C   UNL     1      -9.983  11.247  68.357  1.00  0.00    -0.201 C  
HETATM   24  C   UNL     1      -8.542  10.977  67.911  1.00  0.00    -0.133 C  
ENDBRANCH  18  19
ENDBRANCH   5  18
TORSDOF 2
ENDMDL
MODEL      113
REMARK 921   NORMALIZED FREE ENERGY PREDICTED BY IDOCK:   -3.88 KCAL/MOL
REMARK 922        TOTAL FREE ENERGY PREDICTED BY IDOCK:   -4.92 KCAL/MOL
REMARK 923 INTER-LIGAND FREE ENERGY PREDICTED BY IDOCK:   -5.39 KCAL/MOL
REMARK 924 INTRA-LIGAND FREE ENERGY PREDICTED BY IDOCK:    0.46 KCAL/MOL
REMARK 927      BINDING AFFINITY PREDICTED BY RF-SCORE:    0.00 PKD
ROOT
HETATM    1  O   UNL     1      -9.736  12.646  68.925  1.00  0.00    -0.408 OA 
HETATM    2  C   UNL     1      -9.003  12.700  67.699  1.00  0.00    -0.186 C  
HETATM    3  H   UNL     1      -9.117  12.558  69.640  1.00  0.00     0.000 HD 
HETATM    4  C   UNL     1      -8.182  11.395  67.693  1.00  0.00    -0.128 A  
HETATM    5  C   UNL     1     -10.014  12.843  66.531  1.00  0.00    -0.259 C  
HETATM    6  C   UNL     1      -8.054  13.995  67.627  1.00  0.00    -0.180 C  
HETATM    7  C   UNL     1      -7.722  10.842  68.914  1.00  0.00    -0.135 A  
HETATM    8  C   UNL     1      -7.859  10.699  66.522  1.00  0.00    -0.140 A  
HETATM    9  C   UNL     1      -7.044  14.103  68.803  1.00  0.00    -0.107 C  
HETATM   10  C   UNL     1      -7.147   9.488  66.569  1.00  0.00    -0.085 A  
HETATM   11  C   UNL     1      -7.075  16.521  68.906  1.00  0.00    -0.200 C  
HETATM   12  C   UNL     1      -7.574  15.295  69.638  1.00  0.00    -0.176 C  
HETATM   13  C   UNL     1      -7.756  16.556  67.750  1.00  0.00    -0.165 C  
HETATM   14  C   UNL     1      -9.049  15.449  69.257  1.00  0.00    -0.260 C  
HETATM   15  C   UNL     1      -6.705   8.966  67.796  1.00  0.00    -0.066 A  
HETATM   16  C   UNL     1      -8.764  15.399  67.760  1.00  0.00    -0.167 C  
HETATM   17  C   UNL     1      -6.974   9.659  68.966  1.00  0.00    -0.058 A  
ENDROOT
BRANCH   5  18
HETATM   18  C   UNL     1     -11.120  11.787  66.337  1.00  0.00    -0.307 C  
BRANCH  18  19
HETATM   19  N   UNL     1     -12.388  12.481  66.016  1.00  0.00    -0.574 NA 
HETATM   20  C   UNL     1     -11.571  14.827  65.718  1.00  0.00    -0.290 C  
HETATM   21  C   UNL     1     -12.466  13.869  66.499  1.00  0.00    -0.321 C  
HETATM   22  C   UNL     1     -11.956  14.817  64.245  1.00  0.00    -0.387 C  
HETATM   23  C   UNL     1     -11.986  13.394  63.691  1.00  0.00    -0.504 C  
HETATM   24  C   UNL     1     -12.756  12.425  64.596  1.00  0.00    -0.283 C  
ENDBRANCH  18  19
ENDBRANCH   5  18
TORSDOF 2
ENDMDL
MODEL      114
REMARK 921   NORMALIZED FREE ENERGY PREDICTED BY IDOCK:   -3.87 KCAL/MOL
REMARK 922        TOTAL FREE ENERGY PREDICTED BY IDOCK:   -4.91 KCAL/MOL
REMARK 923 INTER-LIGAND FREE ENERGY PREDICTED BY IDOCK:   -4.29 KCAL/MOL
REMARK 924 INTRA-LIGAND FREE ENERGY PREDICTED BY IDOCK:   -0.62 KCAL/MOL
REMARK 927      BINDING AFFINITY PREDICTED BY RF-SCORE:    0.00 PKD
ROOT
HETATM    1  O   UNL     1     -10.151   4.625  70.362  1.00  0.00    -0.237 OA 
HETATM    2  C   UNL     1      -9.521   5.885  70.118  1.00  0.00    -0.160 C  
HETATM    3  H   UNL     1     -11.012   4.638  69.960  1.00  0.00     0.000 HD 
HETATM    4  C   UNL     1     -10.500   6.916  70.714  1.00  0.00    -0.238 A  
HETATM    5  C   UNL     1      -8.115   5.862  70.774  1.00  0.00    -0.119 C  
HETATM    6  C   UNL     1      -9.277   6.138  68.551  1.00  0.00    -0.115 C  
HETATM    7  C   UNL     1     -11.894   6.664  70.690  1.00  0.00    -0.443 A  
HETATM    8  C   UNL     1     -10.084   8.118  71.299  1.00  0.00    -0.240 A  
HETATM    9  C   UNL     1     -10.569   6.067  67.691  1.00  0.00    -0.336 C  
HETATM   10  C   UNL     1     -11.010   9.008  71.869  1.00  0.00    -0.423 A  
HETATM   11  C   UNL     1      -9.491   5.136  65.736  1.00  0.00    -0.153 C  
HETATM   12  C   UNL     1     -10.403   4.758  66.880  1.00  0.00    -0.202 C  
HETATM   13  C   UNL     1      -8.292   5.373  66.291  1.00  0.00    -0.115 C  
HETATM   14  C   UNL     1      -9.384   3.915  67.651  1.00  0.00    -0.232 C  
HETATM   15  C   UNL     1     -12.387   8.729  71.830  1.00  0.00    -0.429 A  
HETATM   16  C   UNL     1      -8.397   5.070  67.792  1.00  0.00    -0.105 C  
HETATM   17  C   UNL     1     -12.827   7.566  71.218  1.00  0.00    -0.331 A  
ENDROOT
BRANCH   5  18
HETATM   18  C   UNL     1      -7.974   5.582  72.283  1.00  0.00    -0.107 C  
BRANCH  18  19
HETATM   19  N   UNL     1      -6.886   4.597  72.484  1.00  0.00    -0.058 NA 
HETATM   20  C   UNL     1      -7.890   3.154  74.265  1.00  0.00    -0.065 C  
HETATM   21  C   UNL     1      -6.760   4.097  73.862  1.00  0.00    -0.057 C  
HETATM   22  C   UNL     1      -7.927   1.954  73.328  1.00  0.00    -0.045 C  
HETATM   23  C   UNL     1      -7.968   2.395  71.867  1.00  0.00    -0.052 C  
HETATM   24  C   UNL     1      -6.923   3.469  71.545  1.00  0.00    -0.031 C  
ENDBRANCH  18  19
ENDBRANCH   5  18
TORSDOF 2
ENDMDL
MODEL      115
REMARK 921   NORMALIZED FREE ENERGY PREDICTED BY IDOCK:   -3.78 KCAL/MOL
REMARK 922        TOTAL FREE ENERGY PREDICTED BY IDOCK:   -4.81 KCAL/MOL
REMARK 923 INTER-LIGAND FREE ENERGY PREDICTED BY IDOCK:   -4.08 KCAL/MOL
REMARK 924 INTRA-LIGAND FREE ENERGY PREDICTED BY IDOCK:   -0.74 KCAL/MOL
REMARK 927      BINDING AFFINITY PREDICTED BY RF-SCORE:    0.00 PKD
ROOT
HETATM    1  O   UNL     1      -8.145   9.460  67.436  1.00  0.00    -0.109 OA 
HETATM    2  C   UNL     1      -9.090   9.463  66.362  1.00  0.00    -0.161 C  
HETATM    3  H   UNL     1      -7.608  10.240  67.363  1.00  0.00     0.000 HD 
HETATM    4  C   UNL     1      -8.217   9.536  65.094  1.00  0.00    -0.134 A  
HETATM    5  C   UNL     1      -9.967   8.189  66.481  1.00  0.00    -0.302 C  
HETATM    6  C   UNL     1     -10.099  10.709  66.458  1.00  0.00    -0.275 C  
HETATM    7  C   UNL     1      -6.985  10.236  65.121  1.00  0.00    -0.122 A  
HETATM    8  C   UNL     1      -8.573   8.930  63.883  1.00  0.00    -0.110 A  
HETATM    9  C   UNL     1      -9.392  12.093  66.486  1.00  0.00    -0.229 C  
HETATM   10  C   UNL     1      -7.724   8.984  62.765  1.00  0.00    -0.114 A  
HETATM   11  C   UNL     1     -11.018  13.147  67.936  1.00  0.00    -0.271 C  
HETATM   12  C   UNL     1      -9.612  12.591  67.937  1.00  0.00    -0.206 C  
HETATM   13  C   UNL     1     -11.828  12.087  67.790  1.00  0.00    -0.308 C  
HETATM   14  C   UNL     1      -9.916  11.340  68.766  1.00  0.00    -0.203 C  
HETATM   15  C   UNL     1      -6.509   9.687  62.823  1.00  0.00    -0.103 A  
HETATM   16  C   UNL     1     -10.956  10.823  67.778  1.00  0.00    -0.354 C  
HETATM   17  C   UNL     1      -6.154  10.333  63.997  1.00  0.00    -0.120 A  
ENDROOT
BRANCH   5  18
HETATM   18  C   UNL     1      -9.306   6.796  66.484  1.00  0.00    -0.161 C  
BRANCH  18  19
HETATM   19  N   UNL     1      -8.701   6.561  67.816  1.00  0.00    -0.116 NA 
HETATM   20  C   UNL     1     -10.497   5.203  68.908  1.00  0.00    -0.131 C  
HETATM   21  C   UNL     1      -9.667   6.484  68.922  1.00  0.00    -0.130 C  
HETATM   22  C   UNL     1      -9.582   3.989  68.993  1.00  0.00    -0.223 C  
HETATM   23  C   UNL     1      -8.491   4.042  67.927  1.00  0.00    -0.103 C  
HETATM   24  C   UNL     1      -7.795   5.406  67.862  1.00  0.00    -0.092 C  
ENDBRANCH  18  19
ENDBRANCH   5  18
TORSDOF 2
ENDMDL
MODEL      116
REMARK 921   NORMALIZED FREE ENERGY PREDICTED BY IDOCK:   -3.78 KCAL/MOL
REMARK 922        TOTAL FREE ENERGY PREDICTED BY IDOCK:   -4.81 KCAL/MOL
REMARK 923 INTER-LIGAND FREE ENERGY PREDICTED BY IDOCK:   -4.37 KCAL/MOL
REMARK 924 INTRA-LIGAND FREE ENERGY PREDICTED BY IDOCK:   -0.45 KCAL/MOL
REMARK 927      BINDING AFFINITY PREDICTED BY RF-SCORE:    0.00 PKD
ROOT
HETATM    1  O   UNL     1     -10.823   5.117  70.026  1.00  0.00    -0.169 OA 
HETATM    2  C   UNL     1      -9.472   5.507  69.769  1.00  0.00    -0.149 C  
HETATM    3  H   UNL     1     -10.938   4.222  69.725  1.00  0.00     0.000 HD 
HETATM    4  C   UNL     1      -9.304   5.305  68.249  1.00  0.00    -0.143 A  
HETATM    5  C   UNL     1      -9.285   6.967  70.259  1.00  0.00    -0.156 C  
HETATM    6  C   UNL     1      -8.425   4.620  70.602  1.00  0.00    -0.108 C  
HETATM    7  C   UNL     1     -10.010   4.268  67.591  1.00  0.00    -0.084 A  
HETATM    8  C   UNL     1      -8.478   6.111  67.456  1.00  0.00    -0.108 A  
HETATM    9  C   UNL     1      -8.545   3.092  70.343  1.00  0.00    -0.111 C  
HETATM   10  C   UNL     1      -8.391   5.918  66.067  1.00  0.00    -0.128 A  
HETATM   11  C   UNL     1      -7.940   2.433  72.592  1.00  0.00    -0.054 C  
HETATM   12  C   UNL     1      -9.131   2.538  71.666  1.00  0.00    -0.155 C  
HETATM   13  C   UNL     1      -7.575   3.697  72.858  1.00  0.00    -0.061 C  
HETATM   14  C   UNL     1      -9.793   3.730  72.362  1.00  0.00    -0.223 C  
HETATM   15  C   UNL     1      -9.104   4.880  65.443  1.00  0.00    -0.155 A  
HETATM   16  C   UNL     1      -8.579   4.634  72.173  1.00  0.00    -0.123 C  
HETATM   17  C   UNL     1      -9.895   4.041  66.213  1.00  0.00    -0.177 A  
ENDROOT
BRANCH   5  18
HETATM   18  C   UNL     1     -10.183   8.088  69.701  1.00  0.00    -0.208 C  
BRANCH  18  19
HETATM   19  N   UNL     1     -10.160   9.230  70.645  1.00  0.00    -0.254 NA 
HETATM   20  C   UNL     1     -12.179  10.499  69.887  1.00  0.00    -0.289 C  
HETATM   21  C   UNL     1     -10.666  10.494  70.088  1.00  0.00    -0.171 C  
HETATM   22  C   UNL     1     -12.882  10.251  71.215  1.00  0.00    -0.522 C  
HETATM   23  C   UNL     1     -12.344   8.997  71.900  1.00  0.00    -0.455 C  
HETATM   24  C   UNL     1     -10.812   8.953  71.931  1.00  0.00    -0.363 C  
ENDBRANCH  18  19
ENDBRANCH   5  18
TORSDOF 2
ENDMDL
MODEL      117
REMARK 921   NORMALIZED FREE ENERGY PREDICTED BY IDOCK:   -3.72 KCAL/MOL
REMARK 922        TOTAL FREE ENERGY PREDICTED BY IDOCK:   -4.74 KCAL/MOL
REMARK 923 INTER-LIGAND FREE ENERGY PREDICTED BY IDOCK:   -4.03 KCAL/MOL
REMARK 924 INTRA-LIGAND FREE ENERGY PREDICTED BY IDOCK:   -0.72 KCAL/MOL
REMARK 927      BINDING AFFINITY PREDICTED BY RF-SCORE:    0.00 PKD
ROOT
HETATM    1  O   UNL     1     -10.537   6.388  68.941  1.00  0.00    -0.200 OA 
HETATM    2  C   UNL     1      -9.454   6.769  69.793  1.00  0.00    -0.144 C  
HETATM    3  H   UNL     1     -11.346   6.708  69.325  1.00  0.00     0.000 HD 
HETATM    4  C   UNL     1      -9.815   6.153  71.159  1.00  0.00    -0.210 A  
HETATM    5  C   UNL     1      -8.135   6.246  69.166  1.00  0.00    -0.110 C  
HETATM    6  C   UNL     1      -9.300   8.365  69.886  1.00  0.00    -0.155 C  
HETATM    7  C   UNL     1     -11.172   6.031  71.545  1.00  0.00    -0.326 A  
HETATM    8  C   UNL     1      -8.855   5.687  72.066  1.00  0.00    -0.138 A  
HETATM    9  C   UNL     1     -10.582   9.095  70.375  1.00  0.00    -0.275 C  
HETATM   10  C   UNL     1      -9.232   5.092  73.282  1.00  0.00    -0.131 A  
HETATM   11  C   UNL     1     -10.240  11.078  69.032  1.00  0.00    -0.217 C  
HETATM   12  C   UNL     1     -11.093   9.832  69.113  1.00  0.00    -0.158 C  
HETATM   13  C   UNL     1      -9.004  10.653  68.728  1.00  0.00    -0.172 C  
HETATM   14  C   UNL     1     -10.462   9.107  67.921  1.00  0.00    -0.293 C  
HETATM   15  C   UNL     1     -10.588   4.985  73.636  1.00  0.00    -0.321 A  
HETATM   16  C   UNL     1      -9.063   9.132  68.527  1.00  0.00    -0.132 C  
HETATM   17  C   UNL     1     -11.555   5.478  72.774  1.00  0.00    -0.298 A  
ENDROOT
BRANCH   5  18
HETATM   18  C   UNL     1      -7.962   4.742  68.879  1.00  0.00    -0.076 C  
BRANCH  18  19
HETATM   19  N   UNL     1      -8.956   4.336  67.859  1.00  0.00    -0.115 NA 
HETATM   20  C   UNL     1      -7.452   3.798  65.932  1.00  0.00    -0.077 C  
HETATM   21  C   UNL     1      -8.584   4.668  66.475  1.00  0.00    -0.112 C  
HETATM   22  C   UNL     1      -7.856   2.331  65.975  1.00  0.00    -0.077 C  
HETATM   23  C   UNL     1      -8.343   1.931  67.365  1.00  0.00    -0.084 C  
HETATM   24  C   UNL     1      -9.356   2.925  67.944  1.00  0.00    -0.205 C  
ENDBRANCH  18  19
ENDBRANCH   5  18
TORSDOF 2
ENDMDL
MODEL      118
REMARK 921   NORMALIZED FREE ENERGY PREDICTED BY IDOCK:   -3.54 KCAL/MOL
REMARK 922        TOTAL FREE ENERGY PREDICTED BY IDOCK:   -4.54 KCAL/MOL
REMARK 923 INTER-LIGAND FREE ENERGY PREDICTED BY IDOCK:   -4.34 KCAL/MOL
REMARK 924 INTRA-LIGAND FREE ENERGY PREDICTED BY IDOCK:   -0.20 KCAL/MOL
REMARK 927      BINDING AFFINITY PREDICTED BY RF-SCORE:    0.00 PKD
ROOT
HETATM    1  O   UNL     1     -11.507   7.412  70.026  1.00  0.00    -0.450 OA 
HETATM    2  C   UNL     1     -10.560   8.013  70.912  1.00  0.00    -0.213 C  
HETATM    3  H   UNL     1     -12.260   7.137  70.536  1.00  0.00     0.000 HD 
HETATM    4  C   UNL     1     -10.273   6.916  71.956  1.00  0.00    -0.206 A  
HETATM    5  C   UNL     1      -9.330   8.462  70.079  1.00  0.00    -0.159 C  
HETATM    6  C   UNL     1     -11.143   9.343  71.597  1.00  0.00    -0.409 C  
HETATM    7  C   UNL     1     -11.293   6.004  72.323  1.00  0.00    -0.353 A  
HETATM    8  C   UNL     1      -9.029   6.757  72.578  1.00  0.00    -0.138 A  
HETATM    9  C   UNL     1     -12.467   9.122  72.380  1.00  0.00    -0.350 C  
HETATM   10  C   UNL     1      -8.800   5.713  73.491  1.00  0.00    -0.122 A  
HETATM   11  C   UNL     1     -13.395  11.299  71.877  1.00  0.00    -0.413 C  
HETATM   12  C   UNL     1     -13.533   9.838  71.514  1.00  0.00    -0.417 C  
HETATM   13  C   UNL     1     -12.208  11.685  71.383  1.00  0.00    -0.029 C  
HETATM   14  C   UNL     1     -12.930   9.944  70.111  1.00  0.00     0.298 C  
HETATM   15  C   UNL     1      -9.833   4.824  73.834  1.00  0.00    -0.174 A  
HETATM   16  C   UNL     1     -11.603  10.497  70.623  1.00  0.00    -0.445 C  
HETATM   17  C   UNL     1     -11.087   4.988  73.265  1.00  0.00    -0.406 A  
ENDROOT
BRANCH   5  18
HETATM   18  C   UNL     1      -8.554   7.432  69.236  1.00  0.00    -0.137 C  
BRANCH  18  19
HETATM   19  N   UNL     1      -7.149   7.884  69.109  1.00  0.00    -0.067 NA 
HETATM   20  C   UNL     1      -6.508   8.087  71.519  1.00  0.00    -0.041 C  
HETATM   21  C   UNL     1      -6.699   8.789  70.177  1.00  0.00    -0.040 C  
HETATM   22  C   UNL     1      -5.483   6.970  71.383  1.00  0.00    -0.028 C  
HETATM   23  C   UNL     1      -5.835   6.034  70.229  1.00  0.00    -0.017 C  
HETATM   24  C   UNL     1      -6.184   6.789  68.942  1.00  0.00    -0.027 C  
ENDBRANCH  18  19
ENDBRANCH   5  18
TORSDOF 2
ENDMDL
MODEL      119
REMARK 921   NORMALIZED FREE ENERGY PREDICTED BY IDOCK:   -3.48 KCAL/MOL
REMARK 922        TOTAL FREE ENERGY PREDICTED BY IDOCK:   -4.48 KCAL/MOL
REMARK 923 INTER-LIGAND FREE ENERGY PREDICTED BY IDOCK:   -4.08 KCAL/MOL
REMARK 924 INTRA-LIGAND FREE ENERGY PREDICTED BY IDOCK:   -0.40 KCAL/MOL
REMARK 927      BINDING AFFINITY PREDICTED BY RF-SCORE:    0.00 PKD
ROOT
HETATM    1  O   UNL     1     -10.501   6.666  72.308  1.00  0.00    -0.200 OA 
HETATM    2  C   UNL     1      -9.390   5.970  71.737  1.00  0.00    -0.148 C  
HETATM    3  H   UNL     1     -10.581   6.406  73.218  1.00  0.00     0.000 HD 
HETATM    4  C   UNL     1      -9.722   4.482  71.963  1.00  0.00    -0.229 A  
HETATM    5  C   UNL     1      -9.261   6.394  70.251  1.00  0.00    -0.158 C  
HETATM    6  C   UNL     1      -8.005   6.380  72.439  1.00  0.00    -0.102 C  
HETATM    7  C   UNL     1     -10.452   4.085  73.111  1.00  0.00    -0.251 A  
HETATM    8  C   UNL     1      -9.341   3.469  71.075  1.00  0.00    -0.213 A  
HETATM    9  C   UNL     1      -7.983   6.150  73.976  1.00  0.00    -0.099 C  
HETATM   10  C   UNL     1      -9.706   2.130  71.299  1.00  0.00    -0.201 A  
HETATM   11  C   UNL     1      -6.560   8.045  74.468  1.00  0.00    -0.132 C  
HETATM   12  C   UNL     1      -7.997   7.583  74.564  1.00  0.00    -0.223 C  
HETATM   13  C   UNL     1      -6.314   8.193  73.157  1.00  0.00    -0.089 C  
HETATM   14  C   UNL     1      -8.548   8.485  73.456  1.00  0.00    -0.028 C  
HETATM   15  C   UNL     1     -10.430   1.769  72.447  1.00  0.00    -0.215 A  
HETATM   16  C   UNL     1      -7.615   7.909  72.395  1.00  0.00    -0.121 C  
HETATM   17  C   UNL     1     -10.781   2.747  73.365  1.00  0.00    -0.282 A  
ENDROOT
BRANCH   5  18
HETATM   18  C   UNL     1     -10.447   6.196  69.287  1.00  0.00    -0.254 C  
BRANCH  18  19
HETATM   19  N   UNL     1     -10.110   6.813  67.984  1.00  0.00    -0.151 NA 
HETATM   20  C   UNL     1      -8.409   5.189  67.128  1.00  0.00    -0.107 C  
HETATM   21  C   UNL     1      -8.714   6.621  67.559  1.00  0.00    -0.118 C  
HETATM   22  C   UNL     1      -9.315   4.789  65.972  1.00  0.00    -0.156 C  
HETATM   23  C   UNL     1     -10.783   5.045  66.305  1.00  0.00    -0.262 C  
HETATM   24  C   UNL     1     -11.020   6.440  66.894  1.00  0.00    -0.341 C  
ENDBRANCH  18  19
ENDBRANCH   5  18
TORSDOF 2
ENDMDL
MODEL      120
REMARK 921   NORMALIZED FREE ENERGY PREDICTED BY IDOCK:   -3.48 KCAL/MOL
REMARK 922        TOTAL FREE ENERGY PREDICTED BY IDOCK:   -4.48 KCAL/MOL
REMARK 923 INTER-LIGAND FREE ENERGY PREDICTED BY IDOCK:   -4.01 KCAL/MOL
REMARK 924 INTRA-LIGAND FREE ENERGY PREDICTED BY IDOCK:   -0.47 KCAL/MOL
REMARK 927      BINDING AFFINITY PREDICTED BY RF-SCORE:    0.00 PKD
ROOT
HETATM    1  O   UNL     1      -9.456   6.825  70.328  1.00  0.00    -0.162 OA 
HETATM    2  C   UNL     1      -9.015   8.060  70.898  1.00  0.00    -0.140 C  
HETATM    3  H   UNL     1      -9.757   6.262  71.031  1.00  0.00     0.000 HD 
HETATM    4  C   UNL     1      -7.928   7.641  71.908  1.00  0.00    -0.105 A  
HETATM    5  C   UNL     1      -8.522   8.978  69.749  1.00  0.00    -0.132 C  
HETATM    6  C   UNL     1     -10.216   8.849  71.615  1.00  0.00    -0.415 C  
HETATM    7  C   UNL     1      -8.032   6.401  72.586  1.00  0.00    -0.104 A  
HETATM    8  C   UNL     1      -6.809   8.430  72.200  1.00  0.00    -0.095 A  
HETATM    9  C   UNL     1     -10.935   8.032  72.724  1.00  0.00    -0.449 C  
HETATM   10  C   UNL     1      -5.820   7.987  73.095  1.00  0.00    -0.058 A  
HETATM   11  C   UNL     1     -13.123   8.984  72.325  1.00  0.00    -0.508 C  
HETATM   12  C   UNL     1     -12.323   7.719  72.113  1.00  0.00    -0.303 C  
HETATM   13  C   UNL     1     -12.570   9.903  71.518  1.00  0.00    -0.513 C  
HETATM   14  C   UNL     1     -12.155   7.866  70.598  1.00  0.00    -0.003 C  
HETATM   15  C   UNL     1      -5.952   6.752  73.752  1.00  0.00    -0.062 A  
HETATM   16  C   UNL     1     -11.457   9.218  70.713  1.00  0.00    -0.351 C  
HETATM   17  C   UNL     1      -7.073   5.972  73.513  1.00  0.00    -0.085 A  
ENDROOT
BRANCH   5  18
HETATM   18  C   UNL     1      -7.399   8.500  68.809  1.00  0.00    -0.090 C  
BRANCH  18  19
HETATM   19  N   UNL     1      -6.293   9.485  68.850  1.00  0.00    -0.043 NA 
HETATM   20  C   UNL     1      -5.742   9.667  66.416  1.00  0.00    -0.053 C  
HETATM   21  C   UNL     1      -5.264   9.294  67.817  1.00  0.00    -0.034 C  
HETATM   22  C   UNL     1      -6.178  11.125  66.385  1.00  0.00    -0.127 C  
HETATM   23  C   UNL     1      -7.185  11.425  67.493  1.00  0.00    -0.107 C  
HETATM   24  C   UNL     1      -6.741  10.884  68.856  1.00  0.00    -0.067 C  
ENDBRANCH  18  19
ENDBRANCH   5  18
TORSDOF 2
ENDMDL
MODEL      121
REMARK 921   NORMALIZED FREE ENERGY PREDICTED BY IDOCK:   -3.33 KCAL/MOL
REMARK 922        TOTAL FREE ENERGY PREDICTED BY IDOCK:   -4.32 KCAL/MOL
REMARK 923 INTER-LIGAND FREE ENERGY PREDICTED BY IDOCK:   -3.84 KCAL/MOL
REMARK 924 INTRA-LIGAND FREE ENERGY PREDICTED BY IDOCK:   -0.48 KCAL/MOL
REMARK 927      BINDING AFFINITY PREDICTED BY RF-SCORE:    0.00 PKD
ROOT
HETATM    1  O   UNL     1     -10.276   4.546  71.035  1.00  0.00    -0.183 OA 
HETATM    2  C   UNL     1      -9.303   5.404  70.434  1.00  0.00    -0.159 C  
HETATM    3  H   UNL     1     -10.234   4.660  71.978  1.00  0.00     0.000 HD 
HETATM    4  C   UNL     1      -7.972   4.976  71.083  1.00  0.00    -0.101 A  
HETATM    5  C   UNL     1      -9.372   5.217  68.896  1.00  0.00    -0.168 C  
HETATM    6  C   UNL     1      -9.623   6.954  70.709  1.00  0.00    -0.167 C  
HETATM    7  C   UNL     1      -7.955   4.506  72.420  1.00  0.00    -0.094 A  
HETATM    8  C   UNL     1      -6.744   5.018  70.412  1.00  0.00    -0.040 A  
HETATM    9  C   UNL     1      -9.728   7.320  72.216  1.00  0.00    -0.177 C  
HETATM   10  C   UNL     1      -5.562   4.575  71.029  1.00  0.00    -0.011 A  
HETATM   11  C   UNL     1     -11.427   9.017  71.919  1.00  0.00    -0.440 C  
HETATM   12  C   UNL     1     -11.236   7.605  72.423  1.00  0.00    -0.372 C  
HETATM   13  C   UNL     1     -11.249   8.955  70.590  1.00  0.00    -0.308 C  
HETATM   14  C   UNL     1     -11.957   6.905  71.268  1.00  0.00    -0.402 C  
HETATM   15  C   UNL     1      -5.578   4.114  72.356  1.00  0.00    -0.007 A  
HETATM   16  C   UNL     1     -11.024   7.485  70.210  1.00  0.00    -0.264 C  
HETATM   17  C   UNL     1      -6.774   4.103  73.057  1.00  0.00    -0.047 A  
ENDROOT
BRANCH   5  18
HETATM   18  C   UNL     1      -9.168   3.818  68.281  1.00  0.00    -0.162 C  
BRANCH  18  19
HETATM   19  N   UNL     1      -8.200   3.927  67.165  1.00  0.00    -0.098 NA 
HETATM   20  C   UNL     1      -8.979   2.062  65.691  1.00  0.00    -0.110 C  
HETATM   21  C   UNL     1      -7.848   2.647  66.533  1.00  0.00    -0.076 C  
HETATM   22  C   UNL     1      -9.371   3.039  64.592  1.00  0.00    -0.147 C  
HETATM   23  C   UNL     1      -9.665   4.425  65.163  1.00  0.00    -0.186 C  
HETATM   24  C   UNL     1      -8.583   4.904  66.137  1.00  0.00    -0.116 C  
ENDBRANCH  18  19
ENDBRANCH   5  18
TORSDOF 2
ENDMDL
MODEL      122
REMARK 921   NORMALIZED FREE ENERGY PREDICTED BY IDOCK:   -3.29 KCAL/MOL
REMARK 922        TOTAL FREE ENERGY PREDICTED BY IDOCK:   -4.27 KCAL/MOL
REMARK 923 INTER-LIGAND FREE ENERGY PREDICTED BY IDOCK:   -3.86 KCAL/MOL
REMARK 924 INTRA-LIGAND FREE ENERGY PREDICTED BY IDOCK:   -0.41 KCAL/MOL
REMARK 927      BINDING AFFINITY PREDICTED BY RF-SCORE:    0.00 PKD
ROOT
HETATM    1  O   UNL     1      -7.510  12.420  69.113  1.00  0.00    -0.314 OA 
HETATM    2  C   UNL     1      -8.165  12.289  67.849  1.00  0.00    -0.161 C  
HETATM    3  H   UNL     1      -7.570  11.588  69.568  1.00  0.00     0.000 HD 
HETATM    4  C   UNL     1      -9.597  11.847  68.212  1.00  0.00    -0.201 A  
HETATM    5  C   UNL     1      -8.068  13.647  67.106  1.00  0.00    -0.094 C  
HETATM    6  C   UNL     1      -7.436  11.213  66.906  1.00  0.00    -0.138 C  
HETATM    7  C   UNL     1      -9.821  11.038  69.353  1.00  0.00     0.021 A  
HETATM    8  C   UNL     1     -10.723  12.212  67.465  1.00  0.00    -0.265 A  
HETATM    9  C   UNL     1      -7.315   9.799  67.539  1.00  0.00    -0.090 C  
HETATM   10  C   UNL     1     -12.015  11.823  67.859  1.00  0.00    -0.168 A  
HETATM   11  C   UNL     1      -5.191   9.269  66.507  1.00  0.00    -0.040 C  
HETATM   12  C   UNL     1      -5.801   9.654  67.835  1.00  0.00    -0.040 C  
HETATM   13  C   UNL     1      -5.306  10.355  65.727  1.00  0.00    -0.079 C  
HETATM   14  C   UNL     1      -5.246  11.080  67.880  1.00  0.00    -0.039 C  
HETATM   15  C   UNL     1     -12.204  11.020  68.996  1.00  0.00    -0.167 A  
HETATM   16  C   UNL     1      -5.917  11.482  66.571  1.00  0.00    -0.101 C  
HETATM   17  C   UNL     1     -11.100  10.609  69.728  1.00  0.00    -0.358 A  
ENDROOT
BRANCH   5  18
HETATM   18  C   UNL     1      -8.625  14.926  67.762  1.00  0.00    -0.167 C  
BRANCH  18  19
HETATM   19  N   UNL     1      -8.300  16.084  66.898  1.00  0.00    -0.217 NA 
HETATM   20  C   UNL     1      -9.020  17.977  68.367  1.00  0.00    -0.286 C  
HETATM   21  C   UNL     1      -9.206  17.233  67.047  1.00  0.00    -0.243 C  
HETATM   22  C   UNL     1      -7.590  18.484  68.484  1.00  0.00    -0.328 C  
HETATM   23  C   UNL     1      -6.583  17.360  68.250  1.00  0.00    -0.174 C  
HETATM   24  C   UNL     1      -6.905  16.531  67.001  1.00  0.00    -0.213 C  
ENDBRANCH  18  19
ENDBRANCH   5  18
TORSDOF 2
ENDMDL
MODEL      123
REMARK 921   NORMALIZED FREE ENERGY PREDICTED BY IDOCK:   -3.17 KCAL/MOL
REMARK 922        TOTAL FREE ENERGY PREDICTED BY IDOCK:   -4.13 KCAL/MOL
REMARK 923 INTER-LIGAND FREE ENERGY PREDICTED BY IDOCK:   -3.73 KCAL/MOL
REMARK 924 INTRA-LIGAND FREE ENERGY PREDICTED BY IDOCK:   -0.41 KCAL/MOL
REMARK 927      BINDING AFFINITY PREDICTED BY RF-SCORE:    0.00 PKD
ROOT
HETATM    1  O   UNL     1      -8.720  15.103  66.432  1.00  0.00    -0.390 OA 
HETATM    2  C   UNL     1      -8.474  14.454  67.682  1.00  0.00    -0.185 C  
HETATM    3  H   UNL     1      -9.131  15.942  66.607  1.00  0.00     0.000 HD 
HETATM    4  C   UNL     1      -9.865  14.374  68.343  1.00  0.00    -0.234 A  
HETATM    5  C   UNL     1      -7.805  13.085  67.396  1.00  0.00    -0.166 C  
HETATM    6  C   UNL     1      -7.435  15.278  68.588  1.00  0.00    -0.126 C  
HETATM    7  C   UNL     1     -10.821  15.393  68.109  1.00  0.00    -0.285 A  
HETATM    8  C   UNL     1     -10.254  13.321  69.181  1.00  0.00     0.189 A  
HETATM    9  C   UNL     1      -7.872  16.740  68.879  1.00  0.00    -0.244 C  
HETATM   10  C   UNL     1     -11.548  13.267  69.726  1.00  0.00    -0.297 A  
HETATM   11  C   UNL     1      -5.629  17.648  68.895  1.00  0.00    -0.172 C  
HETATM   12  C   UNL     1      -6.881  17.594  68.050  1.00  0.00    -0.193 C  
HETATM   13  C   UNL     1      -5.130  16.401  68.885  1.00  0.00    -0.109 C  
HETATM   14  C   UNL     1      -6.327  16.661  66.970  1.00  0.00    -0.222 C  
HETATM   15  C   UNL     1     -12.474  14.293  69.475  1.00  0.00    -0.169 A  
HETATM   16  C   UNL     1      -6.011  15.547  67.963  1.00  0.00    -0.151 C  
HETATM   17  C   UNL     1     -12.098  15.368  68.684  1.00  0.00    -0.126 A  
ENDROOT
BRANCH   5  18
HETATM   18  C   UNL     1      -8.513  12.054  66.495  1.00  0.00    -0.065 C  
BRANCH  18  19
HETATM   19  N   UNL     1      -7.849  10.741  66.663  1.00  0.00    -0.134 NA 
HETATM   20  C   UNL     1      -8.938   9.432  64.829  1.00  0.00    -0.241 C  
HETATM   21  C   UNL     1      -8.691   9.582  66.328  1.00  0.00    -0.143 C  
HETATM   22  C   UNL     1      -7.612   9.282  64.095  1.00  0.00    -0.113 C  
HETATM   23  C   UNL     1      -6.646  10.405  64.463  1.00  0.00    -0.023 C  
HETATM   24  C   UNL     1      -6.556  10.634  65.976  1.00  0.00    -0.128 C  
ENDBRANCH  18  19
ENDBRANCH   5  18
TORSDOF 2
ENDMDL
MODEL      124
REMARK 921   NORMALIZED FREE ENERGY PREDICTED BY IDOCK:   -3.07 KCAL/MOL
REMARK 922        TOTAL FREE ENERGY PREDICTED BY IDOCK:   -4.02 KCAL/MOL
REMARK 923 INTER-LIGAND FREE ENERGY PREDICTED BY IDOCK:   -3.54 KCAL/MOL
REMARK 924 INTRA-LIGAND FREE ENERGY PREDICTED BY IDOCK:   -0.49 KCAL/MOL
REMARK 927      BINDING AFFINITY PREDICTED BY RF-SCORE:    0.00 PKD
ROOT
HETATM    1  O   UNL     1      -7.844   5.491  66.540  1.00  0.00    -0.099 OA 
HETATM    2  C   UNL     1      -9.264   5.443  66.701  1.00  0.00    -0.132 C  
HETATM    3  H   UNL     1      -7.477   4.683  66.880  1.00  0.00     0.000 HD 
HETATM    4  C   UNL     1      -9.463   5.222  68.214  1.00  0.00    -0.155 A  
HETATM    5  C   UNL     1      -9.862   6.762  66.147  1.00  0.00     0.097 C  
HETATM    6  C   UNL     1      -9.923   4.258  65.839  1.00  0.00    -0.232 C  
HETATM    7  C   UNL     1      -8.516   4.469  68.951  1.00  0.00    -0.093 A  
HETATM    8  C   UNL     1     -10.551   5.741  68.926  1.00  0.00    -0.337 A  
HETATM    9  C   UNL     1      -9.351   2.850  66.160  1.00  0.00    -0.053 C  
HETATM   10  C   UNL     1     -10.668   5.553  70.314  1.00  0.00    -0.333 A  
HETATM   11  C   UNL     1      -9.565   1.999  63.905  1.00  0.00    -0.129 C  
HETATM   12  C   UNL     1      -8.533   2.486  64.896  1.00  0.00    -0.096 C  
HETATM   13  C   UNL     1     -10.287   3.080  63.572  1.00  0.00    -0.202 C  
HETATM   14  C   UNL     1      -8.229   3.814  64.198  1.00  0.00    -0.090 C  
HETATM   15  C   UNL     1      -9.712   4.801  71.017  1.00  0.00    -0.257 A  
HETATM   16  C   UNL     1      -9.674   4.296  64.281  1.00  0.00    -0.110 C  
HETATM   17  C   UNL     1      -8.649   4.239  70.326  1.00  0.00    -0.102 A  
ENDROOT
BRANCH   5  18
HETATM   18  C   UNL     1      -9.399   8.117  66.717  1.00  0.00    -0.183 C  
BRANCH  18  19
HETATM   19  N   UNL     1     -10.565   9.028  66.785  1.00  0.00    -0.190 NA 
HETATM   20  C   UNL     1     -10.061  10.270  68.898  1.00  0.00    -0.216 C  
HETATM   21  C   UNL     1     -11.016   9.344  68.149  1.00  0.00    -0.045 C  
HETATM   22  C   UNL     1      -9.901  11.579  68.138  1.00  0.00    -0.197 C  
HETATM   23  C   UNL     1      -9.519  11.329  66.680  1.00  0.00    -0.204 C  
HETATM   24  C   UNL     1     -10.400  10.266  66.014  1.00  0.00    -0.178 C  
ENDBRANCH  18  19
ENDBRANCH   5  18
TORSDOF 2
ENDMDL
MODEL      125
REMARK 921   NORMALIZED FREE ENERGY PREDICTED BY IDOCK:   -3.07 KCAL/MOL
REMARK 922        TOTAL FREE ENERGY PREDICTED BY IDOCK:   -4.02 KCAL/MOL
REMARK 923 INTER-LIGAND FREE ENERGY PREDICTED BY IDOCK:   -3.42 KCAL/MOL
REMARK 924 INTRA-LIGAND FREE ENERGY PREDICTED BY IDOCK:   -0.60 KCAL/MOL
REMARK 927      BINDING AFFINITY PREDICTED BY RF-SCORE:    0.00 PKD
ROOT
HETATM    1  O   UNL     1      -8.118   8.515  70.372  1.00  0.00    -0.097 OA 
HETATM    2  C   UNL     1      -9.344   7.882  70.000  1.00  0.00    -0.157 C  
HETATM    3  H   UNL     1      -7.518   7.846  70.682  1.00  0.00     0.000 HD 
HETATM    4  C   UNL     1      -9.792   7.148  71.281  1.00  0.00    -0.178 A  
HETATM    5  C   UNL     1     -10.323   8.974  69.495  1.00  0.00    -0.211 C  
HETATM    6  C   UNL     1      -9.143   6.862  68.775  1.00  0.00    -0.133 C  
HETATM    7  C   UNL     1      -8.823   6.627  72.173  1.00  0.00    -0.134 A  
HETATM    8  C   UNL     1     -11.136   6.966  71.628  1.00  0.00    -0.271 A  
HETATM    9  C   UNL     1      -8.086   5.755  69.043  1.00  0.00    -0.101 C  
HETATM   10  C   UNL     1     -11.496   6.331  72.829  1.00  0.00    -0.199 A  
HETATM   11  C   UNL     1      -7.311   5.624  66.754  1.00  0.00    -0.083 C  
HETATM   12  C   UNL     1      -6.905   6.139  68.117  1.00  0.00    -0.067 C  
HETATM   13  C   UNL     1      -8.340   6.394  66.367  1.00  0.00    -0.119 C  
HETATM   14  C   UNL     1      -7.084   7.627  67.806  1.00  0.00    -0.085 C  
HETATM   15  C   UNL     1     -10.512   5.825  73.694  1.00  0.00    -0.286 A  
HETATM   16  C   UNL     1      -8.557   7.469  67.441  1.00  0.00    -0.118 C  
HETATM   17  C   UNL     1      -9.175   5.954  73.350  1.00  0.00    -0.131 A  
ENDROOT
BRANCH   5  18
HETATM   18  C   UNL     1     -10.697  10.156  70.410  1.00  0.00    -0.266 C  
BRANCH  18  19
HETATM   19  N   UNL     1     -12.035  10.656  70.018  1.00  0.00    -0.311 NA 
HETATM   20  C   UNL     1     -13.387   9.972  72.009  1.00  0.00    -0.513 C  
HETATM   21  C   UNL     1     -13.159   9.842  70.505  1.00  0.00     0.083 C  
HETATM   22  C   UNL     1     -13.663  11.424  72.371  1.00  0.00     0.370 C  
HETATM   23  C   UNL     1     -12.580  12.348  71.818  1.00  0.00    -0.121 C  
HETATM   24  C   UNL     1     -12.263  12.069  70.345  1.00  0.00    -0.294 C  
ENDBRANCH  18  19
ENDBRANCH   5  18
TORSDOF 2
ENDMDL
MODEL      126
REMARK 921   NORMALIZED FREE ENERGY PREDICTED BY IDOCK:   -2.79 KCAL/MOL
REMARK 922        TOTAL FREE ENERGY PREDICTED BY IDOCK:   -3.71 KCAL/MOL
REMARK 923 INTER-LIGAND FREE ENERGY PREDICTED BY IDOCK:   -3.11 KCAL/MOL
REMARK 924 INTRA-LIGAND FREE ENERGY PREDICTED BY IDOCK:   -0.60 KCAL/MOL
REMARK 927      BINDING AFFINITY PREDICTED BY RF-SCORE:    0.00 PKD
ROOT
HETATM    1  O   UNL     1     -10.054  11.695  67.231  1.00  0.00    -0.196 OA 
HETATM    2  C   UNL     1      -9.222  11.063  68.207  1.00  0.00    -0.165 C  
HETATM    3  H   UNL     1     -10.463  12.453  67.632  1.00  0.00     0.000 HD 
HETATM    4  C   UNL     1     -10.182  10.746  69.371  1.00  0.00    -0.187 A  
HETATM    5  C   UNL     1      -8.555   9.825  67.551  1.00  0.00    -0.125 C  
HETATM    6  C   UNL     1      -8.020  12.020  68.676  1.00  0.00    -0.082 C  
HETATM    7  C   UNL     1     -11.276  11.605  69.641  1.00  0.00    -0.249 A  
HETATM    8  C   UNL     1     -10.038   9.625  70.198  1.00  0.00    -0.311 A  
HETATM    9  C   UNL     1      -8.488  13.387  69.248  1.00  0.00     0.734 C  
HETATM   10  C   UNL     1     -10.963   9.352  71.219  1.00  0.00    -0.440 A  
HETATM   11  C   UNL     1      -6.590  14.640  68.422  1.00  0.00    -0.102 C  
HETATM   12  C   UNL     1      -8.061  14.408  68.164  1.00  0.00    -0.137 C  
HETATM   13  C   UNL     1      -5.978  13.490  68.098  1.00  0.00    -0.115 C  
HETATM   14  C   UNL     1      -7.891  13.601  66.874  1.00  0.00     0.274 C  
HETATM   15  C   UNL     1     -12.039  10.223  71.462  1.00  0.00    -0.407 A  
HETATM   16  C   UNL     1      -7.040  12.528  67.547  1.00  0.00    -0.151 C  
HETATM   17  C   UNL     1     -12.178  11.363  70.684  1.00  0.00    -0.484 A  
ENDROOT
BRANCH   5  18
HETATM   18  C   UNL     1      -9.430   8.717  66.933  1.00  0.00    -0.180 C  
BRANCH  18  19
HETATM   19  N   UNL     1      -8.611   7.491  66.788  1.00  0.00    -0.122 NA 
HETATM   20  C   UNL     1      -9.432   6.150  68.734  1.00  0.00    -0.128 C  
HETATM   21  C   UNL     1      -8.251   6.841  68.057  1.00  0.00    -0.114 C  
HETATM   22  C   UNL     1     -10.017   5.092  67.809  1.00  0.00    -0.198 C  
HETATM   23  C   UNL     1     -10.334   5.673  66.433  1.00  0.00    -0.241 C  
HETATM   24  C   UNL     1      -9.178   6.502  65.863  1.00  0.00     0.012 C  
ENDBRANCH  18  19
ENDBRANCH   5  18
TORSDOF 2
ENDMDL
MODEL      127
REMARK 921   NORMALIZED FREE ENERGY PREDICTED BY IDOCK:   -2.78 KCAL/MOL
REMARK 922        TOTAL FREE ENERGY PREDICTED BY IDOCK:   -3.70 KCAL/MOL
REMARK 923 INTER-LIGAND FREE ENERGY PREDICTED BY IDOCK:   -3.10 KCAL/MOL
REMARK 924 INTRA-LIGAND FREE ENERGY PREDICTED BY IDOCK:   -0.60 KCAL/MOL
REMARK 927      BINDING AFFINITY PREDICTED BY RF-SCORE:    0.00 PKD
ROOT
HETATM    1  O   UNL     1     -10.031   7.042  68.324  1.00  0.00    -0.145 OA 
HETATM    2  C   UNL     1      -8.799   7.165  67.610  1.00  0.00    -0.119 C  
HETATM    3  H   UNL     1     -10.744   7.062  67.696  1.00  0.00     0.000 HD 
HETATM    4  C   UNL     1      -8.945   8.488  66.832  1.00  0.00    -0.166 A  
HETATM    5  C   UNL     1      -7.636   7.134  68.636  1.00  0.00    -0.111 C  
HETATM    6  C   UNL     1      -8.555   5.923  66.622  1.00  0.00    -0.119 C  
HETATM    7  C   UNL     1     -10.220   8.901  66.370  1.00  0.00    -0.273 A  
HETATM    8  C   UNL     1      -7.866   9.335  66.551  1.00  0.00    -0.100 A  
HETATM    9  C   UNL     1      -9.695   5.704  65.589  1.00  0.00     0.134 C  
HETATM   10  C   UNL     1      -8.054  10.554  65.878  1.00  0.00    -0.154 A  
HETATM   11  C   UNL     1      -9.497   3.293  65.540  1.00  0.00    -0.107 C  
HETATM   12  C   UNL     1     -10.382   4.400  66.066  1.00  0.00    -0.210 C  
HETATM   13  C   UNL     1      -8.355   3.377  66.240  1.00  0.00    -0.103 C  
HETATM   14  C   UNL     1     -10.004   4.244  67.542  1.00  0.00    -0.100 C  
HETATM   15  C   UNL     1      -9.331  10.935  65.432  1.00  0.00    -0.240 A  
HETATM   16  C   UNL     1      -8.521   4.490  67.284  1.00  0.00    -0.104 C  
HETATM   17  C   UNL     1     -10.409  10.093  65.659  1.00  0.00    -0.210 A  
ENDROOT
BRANCH   5  18
HETATM   18  C   UNL     1      -7.589   8.167  69.779  1.00  0.00    -0.090 C  
BRANCH  18  19
HETATM   19  N   UNL     1      -7.189   7.478  71.027  1.00  0.00    -0.065 NA 
HETATM   20  C   UNL     1      -9.050   8.162  72.553  1.00  0.00    -0.302 C  
HETATM   21  C   UNL     1      -7.552   8.189  72.262  1.00  0.00    -0.117 C  
HETATM   22  C   UNL     1      -9.532   6.724  72.676  1.00  0.00    -0.152 C  
HETATM   23  C   UNL     1      -9.113   5.894  71.465  1.00  0.00    -0.150 C  
HETATM   24  C   UNL     1      -7.635   6.081  71.105  1.00  0.00    -0.100 C  
ENDBRANCH  18  19
ENDBRANCH   5  18
TORSDOF 2
ENDMDL
MODEL      128
REMARK 921   NORMALIZED FREE ENERGY PREDICTED BY IDOCK:   -2.75 KCAL/MOL
REMARK 922        TOTAL FREE ENERGY PREDICTED BY IDOCK:   -3.66 KCAL/MOL
REMARK 923 INTER-LIGAND FREE ENERGY PREDICTED BY IDOCK:   -4.33 KCAL/MOL
REMARK 924 INTRA-LIGAND FREE ENERGY PREDICTED BY IDOCK:    0.67 KCAL/MOL
REMARK 927      BINDING AFFINITY PREDICTED BY RF-SCORE:    0.00 PKD
ROOT
HETATM    1  O   UNL     1      -7.654  16.602  66.178  1.00  0.00    -0.259 OA 
HETATM    2  C   UNL     1      -8.500  17.350  67.055  1.00  0.00    -0.225 C  
HETATM    3  H   UNL     1      -7.233  15.916  66.682  1.00  0.00     0.000 HD 
HETATM    4  C   UNL     1      -7.548  17.846  68.162  1.00  0.00    -0.260 A  
HETATM    5  C   UNL     1      -9.188  18.470  66.232  1.00  0.00    -0.231 C  
HETATM    6  C   UNL     1      -9.685  16.447  67.656  1.00  0.00    -0.238 C  
HETATM    7  C   UNL     1      -6.439  17.055  68.550  1.00  0.00    -0.164 A  
HETATM    8  C   UNL     1      -7.714  19.070  68.822  1.00  0.00    -0.382 A  
HETATM    9  C   UNL     1      -9.193  15.184  68.416  1.00  0.00    -0.189 C  
HETATM   10  C   UNL     1      -6.795  19.503  69.793  1.00  0.00    -0.221 A  
HETATM   11  C   UNL     1     -11.066  13.792  67.778  1.00  0.00    -0.288 C  
HETATM   12  C   UNL     1      -9.599  14.012  67.488  1.00  0.00    -0.228 C  
HETATM   13  C   UNL     1     -11.698  14.873  67.295  1.00  0.00    -0.308 C  
HETATM   14  C   UNL     1      -9.782  14.625  66.097  1.00  0.00    -0.344 C  
HETATM   15  C   UNL     1      -5.704  18.695  70.156  1.00  0.00    -0.229 A  
HETATM   16  C   UNL     1     -10.653  15.766  66.612  1.00  0.00    -0.307 C  
HETATM   17  C   UNL     1      -5.543  17.459  69.548  1.00  0.00    -0.207 A  
ENDROOT
BRANCH   5  18
HETATM   18  C   UNL     1      -8.333  19.496  65.462  1.00  0.00     0.470 C  
BRANCH  18  19
HETATM   19  N   UNL     1      -6.904  19.140  65.623  1.00  0.00    -0.308 NA 
HETATM   20  C   UNL     1      -5.976  19.943  63.443  1.00  0.00    -0.175 C  
HETATM   21  C   UNL     1      -6.223  18.761  64.376  1.00  0.00     0.299 C  
HETATM   22  C   UNL     1      -5.127  20.993  64.145  1.00  0.00    -0.233 C  
HETATM   23  C   UNL     1      -5.725  21.375  65.497  1.00  0.00    -0.123 C  
HETATM   24  C   UNL     1      -6.114  20.152  66.336  1.00  0.00    -0.175 C  
ENDBRANCH  18  19
ENDBRANCH   5  18
TORSDOF 2
ENDMDL
MODEL      129
REMARK 921   NORMALIZED FREE ENERGY PREDICTED BY IDOCK:   -2.71 KCAL/MOL
REMARK 922        TOTAL FREE ENERGY PREDICTED BY IDOCK:   -3.61 KCAL/MOL
REMARK 923 INTER-LIGAND FREE ENERGY PREDICTED BY IDOCK:   -3.42 KCAL/MOL
REMARK 924 INTRA-LIGAND FREE ENERGY PREDICTED BY IDOCK:   -0.19 KCAL/MOL
REMARK 927      BINDING AFFINITY PREDICTED BY RF-SCORE:    0.00 PKD
ROOT
HETATM    1  O   UNL     1      -7.404   4.912  66.290  1.00  0.00    -0.076 OA 
HETATM    2  C   UNL     1      -8.652   5.533  65.975  1.00  0.00    -0.134 C  
HETATM    3  H   UNL     1      -7.581   4.059  66.670  1.00  0.00     0.000 HD 
HETATM    4  C   UNL     1      -9.406   5.563  67.320  1.00  0.00    -0.114 A  
HETATM    5  C   UNL     1      -8.362   6.924  65.355  1.00  0.00    -0.122 C  
HETATM    6  C   UNL     1      -9.465   4.709  64.861  1.00  0.00    -0.107 C  
HETATM    7  C   UNL     1      -9.207   4.529  68.267  1.00  0.00    -0.174 A  
HETATM    8  C   UNL     1     -10.298   6.583  67.674  1.00  0.00    -0.239 A  
HETATM    9  C   UNL     1      -9.743   3.230  65.246  1.00  0.00    -0.031 C  
HETATM   10  C   UNL     1     -10.928   6.594  68.930  1.00  0.00    -0.325 A  
HETATM   11  C   UNL     1      -9.585   2.374  62.988  1.00  0.00    -0.091 C  
HETATM   12  C   UNL     1      -8.826   2.421  64.294  1.00  0.00    -0.101 C  
HETATM   13  C   UNL     1      -9.577   3.631  62.518  1.00  0.00    -0.106 C  
HETATM   14  C   UNL     1      -7.738   3.396  63.834  1.00  0.00    -0.079 C  
HETATM   15  C   UNL     1     -10.709   5.553  69.849  1.00  0.00    -0.358 A  
HETATM   16  C   UNL     1      -8.739   4.490  63.476  1.00  0.00    -0.132 C  
HETATM   17  C   UNL     1      -9.865   4.509  69.503  1.00  0.00    -0.277 A  
ENDROOT
BRANCH   5  18
HETATM   18  C   UNL     1      -7.539   7.962  66.143  1.00  0.00    -0.083 C  
BRANCH  18  19
HETATM   19  N   UNL     1      -8.022   9.318  65.792  1.00  0.00    -0.108 NA 
HETATM   20  C   UNL     1      -6.134  10.128  64.365  1.00  0.00    -0.137 C  
HETATM   21  C   UNL     1      -6.961  10.323  65.633  1.00  0.00    -0.133 C  
HETATM   22  C   UNL     1      -7.035  10.193  63.140  1.00  0.00    -0.132 C  
HETATM   23  C   UNL     1      -8.218   9.236  63.271  1.00  0.00    -0.176 C  
HETATM   24  C   UNL     1      -8.919   9.348  64.630  1.00  0.00    -0.187 C  
ENDBRANCH  18  19
ENDBRANCH   5  18
TORSDOF 2
ENDMDL
MODEL      130
REMARK 921   NORMALIZED FREE ENERGY PREDICTED BY IDOCK:   -2.67 KCAL/MOL
REMARK 922        TOTAL FREE ENERGY PREDICTED BY IDOCK:   -3.57 KCAL/MOL
REMARK 923 INTER-LIGAND FREE ENERGY PREDICTED BY IDOCK:   -3.04 KCAL/MOL
REMARK 924 INTRA-LIGAND FREE ENERGY PREDICTED BY IDOCK:   -0.53 KCAL/MOL
REMARK 927      BINDING AFFINITY PREDICTED BY RF-SCORE:    0.00 PKD
ROOT
HETATM    1  O   UNL     1      -9.598   5.038  68.890  1.00  0.00    -0.130 OA 
HETATM    2  C   UNL     1      -8.807   6.034  69.543  1.00  0.00    -0.125 C  
HETATM    3  H   UNL     1      -9.072   4.252  68.796  1.00  0.00     0.000 HD 
HETATM    4  C   UNL     1      -7.568   6.184  68.637  1.00  0.00    -0.092 A  
HETATM    5  C   UNL     1      -9.666   7.316  69.696  1.00  0.00    -0.159 C  
HETATM    6  C   UNL     1      -8.399   5.590  71.032  1.00  0.00    -0.121 C  
HETATM    7  C   UNL     1      -7.074   5.065  67.922  1.00  0.00    -0.062 A  
HETATM    8  C   UNL     1      -6.886   7.395  68.468  1.00  0.00    -0.073 A  
HETATM    9  C   UNL     1      -7.634   4.240  71.102  1.00  0.00    -0.066 C  
HETATM   10  C   UNL     1      -5.788   7.495  67.596  1.00  0.00    -0.036 A  
HETATM   11  C   UNL     1      -8.563   3.563  73.231  1.00  0.00    -0.086 C  
HETATM   12  C   UNL     1      -8.653   3.270  71.751  1.00  0.00    -0.103 C  
HETATM   13  C   UNL     1      -9.079   4.792  73.391  1.00  0.00    -0.110 C  
HETATM   14  C   UNL     1     -10.031   3.901  71.528  1.00  0.00    -0.209 C  
HETATM   15  C   UNL     1      -5.322   6.366  66.901  1.00  0.00    -0.012 A  
HETATM   16  C   UNL     1      -9.586   5.273  72.024  1.00  0.00    -0.189 C  
HETATM   17  C   UNL     1      -5.953   5.146  67.085  1.00  0.00    -0.026 A  
ENDROOT
BRANCH   5  18
HETATM   18  C   UNL     1     -10.278   7.986  68.450  1.00  0.00    -0.207 C  
BRANCH  18  19
HETATM   19  N   UNL     1     -10.719   9.352  68.813  1.00  0.00    -0.204 NA 
HETATM   20  C   UNL     1      -8.510  10.494  69.097  1.00  0.00    -0.152 C  
HETATM   21  C   UNL     1      -9.823  10.058  69.742  1.00  0.00    -0.235 C  
HETATM   22  C   UNL     1      -8.790  11.415  67.918  1.00  0.00    -0.149 C  
HETATM   23  C   UNL     1      -9.788  10.786  66.948  1.00  0.00    -0.224 C  
HETATM   24  C   UNL     1     -11.017  10.209  67.659  1.00  0.00    -0.268 C  
ENDBRANCH  18  19
ENDBRANCH   5  18
TORSDOF 2
ENDMDL
MODEL      131
REMARK 921   NORMALIZED FREE ENERGY PREDICTED BY IDOCK:   -2.62 KCAL/MOL
REMARK 922        TOTAL FREE ENERGY PREDICTED BY IDOCK:   -3.52 KCAL/MOL
REMARK 923 INTER-LIGAND FREE ENERGY PREDICTED BY IDOCK:   -4.73 KCAL/MOL
REMARK 924 INTRA-LIGAND FREE ENERGY PREDICTED BY IDOCK:    1.21 KCAL/MOL
REMARK 927      BINDING AFFINITY PREDICTED BY RF-SCORE:    0.00 PKD
ROOT
HETATM    1  O   UNL     1      -8.737  13.967  66.764  1.00  0.00    -0.378 OA 
HETATM    2  C   UNL     1     -10.160  13.857  66.680  1.00  0.00    -0.273 C  
HETATM    3  H   UNL     1      -8.451  13.537  67.562  1.00  0.00     0.000 HD 
HETATM    4  C   UNL     1     -10.665  14.503  67.985  1.00  0.00    -0.243 A  
HETATM    5  C   UNL     1     -10.627  14.559  65.378  1.00  0.00    -0.385 C  
HETATM    6  C   UNL     1     -10.635  12.328  66.555  1.00  0.00    -0.263 C  
HETATM    7  C   UNL     1      -9.892  14.407  69.168  1.00  0.00    -0.040 A  
HETATM    8  C   UNL     1     -11.874  15.205  68.074  1.00  0.00    -0.225 A  
HETATM    9  C   UNL     1     -10.146  11.418  67.717  1.00  0.00    -0.198 C  
HETATM   10  C   UNL     1     -12.272  15.817  69.274  1.00  0.00    -0.120 A  
HETATM   11  C   UNL     1      -9.899   9.430  66.360  1.00  0.00    -0.337 C  
HETATM   12  C   UNL     1      -9.089  10.503  67.051  1.00  0.00    -0.156 C  
HETATM   13  C   UNL     1     -10.533  10.047  65.350  1.00  0.00     0.041 C  
HETATM   14  C   UNL     1      -8.643  11.234  65.782  1.00  0.00    -0.067 C  
HETATM   15  C   UNL     1     -11.483  15.704  70.431  1.00  0.00    -0.369 A  
HETATM   16  C   UNL     1     -10.072  11.511  65.327  1.00  0.00    -0.314 C  
HETATM   17  C   UNL     1     -10.304  14.977  70.380  1.00  0.00     0.063 A  
ENDROOT
BRANCH   5  18
HETATM   18  C   UNL     1     -10.283  16.042  65.137  1.00  0.00    -0.113 C  
BRANCH  18  19
HETATM   19  N   UNL     1      -9.974  16.676  66.440  1.00  0.00    -0.287 NA 
HETATM   20  C   UNL     1      -8.038  18.128  65.802  1.00  0.00     0.172 C  
HETATM   21  C   UNL     1      -8.549  16.969  66.655  1.00  0.00    -0.252 C  
HETATM   22  C   UNL     1      -8.832  19.390  66.109  1.00  0.00    -0.301 C  
HETATM   23  C   UNL     1     -10.334  19.140  65.994  1.00  0.00    -0.538 C  
HETATM   24  C   UNL     1     -10.779  17.870  66.728  1.00  0.00    -0.149 C  
ENDBRANCH  18  19
ENDBRANCH   5  18
TORSDOF 2
ENDMDL
MODEL      132
REMARK 921   NORMALIZED FREE ENERGY PREDICTED BY IDOCK:   -2.62 KCAL/MOL
REMARK 922        TOTAL FREE ENERGY PREDICTED BY IDOCK:   -3.51 KCAL/MOL
REMARK 923 INTER-LIGAND FREE ENERGY PREDICTED BY IDOCK:   -3.74 KCAL/MOL
REMARK 924 INTRA-LIGAND FREE ENERGY PREDICTED BY IDOCK:    0.22 KCAL/MOL
REMARK 927      BINDING AFFINITY PREDICTED BY RF-SCORE:    0.00 PKD
ROOT
HETATM    1  O   UNL     1     -10.874   8.275  68.529  1.00  0.00    -0.417 OA 
HETATM    2  C   UNL     1      -9.717   8.540  69.326  1.00  0.00    -0.173 C  
HETATM    3  H   UNL     1     -11.594   8.799  68.863  1.00  0.00     0.000 HD 
HETATM    4  C   UNL     1     -10.162   8.194  70.761  1.00  0.00    -0.215 A  
HETATM    5  C   UNL     1      -8.544   7.685  68.780  1.00  0.00    -0.129 C  
HETATM    6  C   UNL     1      -9.247  10.071  69.206  1.00  0.00    -0.212 C  
HETATM    7  C   UNL     1     -11.508   8.399  71.154  1.00  0.00    -0.314 A  
HETATM    8  C   UNL     1      -9.294   7.669  71.726  1.00  0.00    -0.176 A  
HETATM    9  C   UNL     1     -10.345  11.101  69.589  1.00  0.00     0.084 C  
HETATM   10  C   UNL     1      -9.755   7.327  73.009  1.00  0.00    -0.231 A  
HETATM   11  C   UNL     1      -9.646  12.781  67.993  1.00  0.00    -0.217 C  
HETATM   12  C   UNL     1     -10.728  11.754  68.237  1.00  0.00    -0.246 C  
HETATM   13  C   UNL     1      -8.526  12.080  67.754  1.00  0.00    -0.157 C  
HETATM   14  C   UNL     1     -10.282  10.766  67.155  1.00  0.00    -0.255 C  
HETATM   15  C   UNL     1     -11.096   7.542  73.368  1.00  0.00    -0.147 A  
HETATM   16  C   UNL     1      -8.892  10.589  67.758  1.00  0.00    -0.125 C  
HETATM   17  C   UNL     1     -11.965   8.102  72.445  1.00  0.00    -0.431 A  
ENDROOT
BRANCH   5  18
HETATM   18  C   UNL     1      -8.682   6.152  68.697  1.00  0.00    -0.112 C  
BRANCH  18  19
HETATM   19  N   UNL     1      -8.051   5.553  69.895  1.00  0.00    -0.095 NA 
HETATM   20  C   UNL     1      -6.591   3.820  68.834  1.00  0.00    -0.041 C  
HETATM   21  C   UNL     1      -7.754   4.117  69.777  1.00  0.00    -0.053 C  
HETATM   22  C   UNL     1      -5.332   4.524  69.319  1.00  0.00    -0.008 C  
HETATM   23  C   UNL     1      -5.586   6.012  69.553  1.00  0.00    -0.012 C  
HETATM   24  C   UNL     1      -6.860   6.272  70.365  1.00  0.00    -0.055 C  
ENDBRANCH  18  19
ENDBRANCH   5  18
TORSDOF 2
ENDMDL
MODEL      133
REMARK 921   NORMALIZED FREE ENERGY PREDICTED BY IDOCK:   -2.51 KCAL/MOL
REMARK 922        TOTAL FREE ENERGY PREDICTED BY IDOCK:   -3.39 KCAL/MOL
REMARK 923 INTER-LIGAND FREE ENERGY PREDICTED BY IDOCK:   -2.80 KCAL/MOL
REMARK 924 INTRA-LIGAND FREE ENERGY PREDICTED BY IDOCK:   -0.60 KCAL/MOL
REMARK 927      BINDING AFFINITY PREDICTED BY RF-SCORE:    0.00 PKD
ROOT
HETATM    1  O   UNL     1      -6.815   5.169  66.530  1.00  0.00    -0.059 OA 
HETATM    2  C   UNL     1      -8.139   4.708  66.809  1.00  0.00    -0.103 C  
HETATM    3  H   UNL     1      -6.276   4.416  66.313  1.00  0.00     0.000 HD 
HETATM    4  C   UNL     1      -7.950   3.691  67.952  1.00  0.00    -0.080 A  
HETATM    5  C   UNL     1      -9.018   5.935  67.163  1.00  0.00    -0.113 C  
HETATM    6  C   UNL     1      -8.819   4.029  65.522  1.00  0.00    -0.123 C  
HETATM    7  C   UNL     1      -6.767   2.914  68.021  1.00  0.00    -0.037 A  
HETATM    8  C   UNL     1      -8.901   3.486  68.960  1.00  0.00    -0.159 A  
HETATM    9  C   UNL     1      -8.008   2.844  64.929  1.00  0.00    -0.082 C  
HETATM   10  C   UNL     1      -8.666   2.580  70.008  1.00  0.00    -0.125 A  
HETATM   11  C   UNL     1      -8.628   3.271  62.630  1.00  0.00    -0.078 C  
HETATM   12  C   UNL     1      -7.466   3.399  63.589  1.00  0.00    -0.059 C  
HETATM   13  C   UNL     1      -9.543   4.159  63.047  1.00  0.00    -0.136 C  
HETATM   14  C   UNL     1      -7.511   4.924  63.719  1.00  0.00    -0.060 C  
HETATM   15  C   UNL     1      -7.482   1.825  70.049  1.00  0.00    -0.036 A  
HETATM   16  C   UNL     1      -8.947   4.931  64.233  1.00  0.00    -0.065 C  
HETATM   17  C   UNL     1      -6.544   1.978  69.039  1.00  0.00    -0.029 A  
ENDROOT
BRANCH   5  18
HETATM   18  C   UNL     1      -8.617   6.859  68.330  1.00  0.00    -0.125 C  
BRANCH  18  19
HETATM   19  N   UNL     1      -9.750   7.765  68.630  1.00  0.00    -0.154 NA 
HETATM   20  C   UNL     1     -11.085   6.337  70.192  1.00  0.00    -0.443 C  
HETATM   21  C   UNL     1     -11.033   7.084  68.862  1.00  0.00    -0.118 C  
HETATM   22  C   UNL     1     -10.848   7.305  71.343  1.00  0.00    -0.251 C  
HETATM   23  C   UNL     1      -9.573   8.118  71.129  1.00  0.00    -0.196 C  
HETATM   24  C   UNL     1      -9.483   8.713  69.719  1.00  0.00    -0.166 C  
ENDBRANCH  18  19
ENDBRANCH   5  18
TORSDOF 2
ENDMDL
MODEL      134
REMARK 921   NORMALIZED FREE ENERGY PREDICTED BY IDOCK:   -2.51 KCAL/MOL
REMARK 922        TOTAL FREE ENERGY PREDICTED BY IDOCK:   -3.39 KCAL/MOL
REMARK 923 INTER-LIGAND FREE ENERGY PREDICTED BY IDOCK:   -2.94 KCAL/MOL
REMARK 924 INTRA-LIGAND FREE ENERGY PREDICTED BY IDOCK:   -0.45 KCAL/MOL
REMARK 927      BINDING AFFINITY PREDICTED BY RF-SCORE:    0.00 PKD
ROOT
HETATM    1  O   UNL     1      -6.957   4.239  68.664  1.00  0.00    -0.050 OA 
HETATM    2  C   UNL     1      -8.362   3.982  68.733  1.00  0.00    -0.078 C  
HETATM    3  H   UNL     1      -6.499   3.407  68.713  1.00  0.00     0.000 HD 
HETATM    4  C   UNL     1      -8.540   3.218  70.060  1.00  0.00    -0.111 A  
HETATM    5  C   UNL     1      -9.109   5.339  68.654  1.00  0.00    -0.129 C  
HETATM    6  C   UNL     1      -8.874   3.118  67.480  1.00  0.00    -0.160 C  
HETATM    7  C   UNL     1      -7.513   2.359  70.526  1.00  0.00    -0.036 A  
HETATM    8  C   UNL     1      -9.684   3.328  70.860  1.00  0.00    -0.187 A  
HETATM    9  C   UNL     1      -8.141   1.759  67.309  1.00  0.00    -0.067 C  
HETATM   10  C   UNL     1      -9.783   2.646  72.085  1.00  0.00    -0.216 A  
HETATM   11  C   UNL     1      -8.245   1.748  64.891  1.00  0.00    -0.079 C  
HETATM   12  C   UNL     1      -7.281   1.960  66.036  1.00  0.00    -0.056 C  
HETATM   13  C   UNL     1      -9.087   2.792  64.928  1.00  0.00    -0.139 C  
HETATM   14  C   UNL     1      -7.133   3.474  65.866  1.00  0.00    -0.063 C  
HETATM   15  C   UNL     1      -8.748   1.802  72.519  1.00  0.00    -0.069 A  
HETATM   16  C   UNL     1      -8.624   3.735  66.048  1.00  0.00    -0.113 C  
HETATM   17  C   UNL     1      -7.623   1.642  71.724  1.00  0.00    -0.040 A  
ENDROOT
BRANCH   5  18
HETATM   18  C   UNL     1      -8.810   6.444  69.686  1.00  0.00    -0.137 C  
BRANCH  18  19
HETATM   19  N   UNL     1     -10.062   7.186  69.964  1.00  0.00    -0.186 NA 
HETATM   20  C   UNL     1      -9.140   9.338  70.846  1.00  0.00    -0.288 C  
HETATM   21  C   UNL     1      -9.990   8.099  71.115  1.00  0.00    -0.180 C  
HETATM   22  C   UNL     1      -9.706  10.112  69.664  1.00  0.00    -0.250 C  
HETATM   23  C   UNL     1      -9.896   9.206  68.450  1.00  0.00    -0.181 C  
HETATM   24  C   UNL     1     -10.607   7.893  68.798  1.00  0.00    -0.127 C  
ENDBRANCH  18  19
ENDBRANCH   5  18
TORSDOF 2
ENDMDL
MODEL      135
REMARK 921   NORMALIZED FREE ENERGY PREDICTED BY IDOCK:   -2.47 KCAL/MOL
REMARK 922        TOTAL FREE ENERGY PREDICTED BY IDOCK:   -3.35 KCAL/MOL
REMARK 923 INTER-LIGAND FREE ENERGY PREDICTED BY IDOCK:   -3.25 KCAL/MOL
REMARK 924 INTRA-LIGAND FREE ENERGY PREDICTED BY IDOCK:   -0.10 KCAL/MOL
REMARK 927      BINDING AFFINITY PREDICTED BY RF-SCORE:    0.00 PKD
ROOT
HETATM    1  O   UNL     1     -10.535   5.208  70.144  1.00  0.00    -0.286 OA 
HETATM    2  C   UNL     1      -9.215   5.756  70.131  1.00  0.00    -0.151 C  
HETATM    3  H   UNL     1     -10.956   5.424  69.320  1.00  0.00     0.000 HD 
HETATM    4  C   UNL     1      -9.436   7.263  69.887  1.00  0.00    -0.157 A  
HETATM    5  C   UNL     1      -8.528   5.405  71.477  1.00  0.00    -0.127 C  
HETATM    6  C   UNL     1      -8.306   5.099  68.982  1.00  0.00    -0.087 C  
HETATM    7  C   UNL     1     -10.526   7.700  69.095  1.00  0.00    -0.220 A  
HETATM    8  C   UNL     1      -8.605   8.254  70.422  1.00  0.00    -0.134 A  
HETATM    9  C   UNL     1      -8.901   5.233  67.553  1.00  0.00    -0.105 C  
HETATM   10  C   UNL     1      -8.871   9.618  70.210  1.00  0.00    -0.253 A  
HETATM   11  C   UNL     1      -8.043   3.117  66.751  1.00  0.00    -0.080 C  
HETATM   12  C   UNL     1      -9.325   3.787  67.191  1.00  0.00    -0.223 C  
HETATM   13  C   UNL     1      -7.292   3.008  67.858  1.00  0.00    -0.053 C  
HETATM   14  C   UNL     1      -9.465   3.047  68.524  1.00  0.00    -0.204 C  
HETATM   15  C   UNL     1      -9.960  10.019  69.419  1.00  0.00    -0.239 A  
HETATM   16  C   UNL     1      -8.115   3.533  69.042  1.00  0.00    -0.071 C  
HETATM   17  C   UNL     1     -10.773   9.055  68.843  1.00  0.00    -0.149 A  
ENDROOT
BRANCH   5  18
HETATM   18  C   UNL     1      -9.174   5.838  72.808  1.00  0.00    -0.136 C  
BRANCH  18  19
HETATM   19  N   UNL     1      -8.146   5.786  73.873  1.00  0.00    -0.110 NA 
HETATM   20  C   UNL     1      -6.067   6.155  72.531  1.00  0.00    -0.038 C  
HETATM   21  C   UNL     1      -6.854   5.225  73.450  1.00  0.00    -0.075 C  
HETATM   22  C   UNL     1      -5.800   7.479  73.234  1.00  0.00    -0.048 C  
HETATM   23  C   UNL     1      -7.090   8.083  73.783  1.00  0.00    -0.164 C  
HETATM   24  C   UNL     1      -7.934   7.067  74.560  1.00  0.00    -0.143 C  
ENDBRANCH  18  19
ENDBRANCH   5  18
TORSDOF 2
ENDMDL
MODEL      136
REMARK 921   NORMALIZED FREE ENERGY PREDICTED BY IDOCK:   -2.42 KCAL/MOL
REMARK 922        TOTAL FREE ENERGY PREDICTED BY IDOCK:   -3.29 KCAL/MOL
REMARK 923 INTER-LIGAND FREE ENERGY PREDICTED BY IDOCK:   -4.58 KCAL/MOL
REMARK 924 INTRA-LIGAND FREE ENERGY PREDICTED BY IDOCK:    1.29 KCAL/MOL
REMARK 927      BINDING AFFINITY PREDICTED BY RF-SCORE:    0.00 PKD
ROOT
HETATM    1  O   UNL     1      -8.180  15.708  66.228  1.00  0.00    -0.333 OA 
HETATM    2  C   UNL     1      -8.673  15.541  67.560  1.00  0.00    -0.172 C  
HETATM    3  H   UNL     1      -7.838  14.873  65.930  1.00  0.00     0.000 HD 
HETATM    4  C   UNL     1      -7.457  15.017  68.349  1.00  0.00    -0.113 A  
HETATM    5  C   UNL     1      -9.232  16.903  68.047  1.00  0.00    -0.235 C  
HETATM    6  C   UNL     1      -9.903  14.509  67.616  1.00  0.00    -0.223 C  
HETATM    7  C   UNL     1      -6.498  14.194  67.707  1.00  0.00    -0.181 A  
HETATM    8  C   UNL     1      -7.231  15.317  69.697  1.00  0.00    -0.187 A  
HETATM    9  C   UNL     1      -9.575  13.104  67.041  1.00  0.00    -0.241 C  
HETATM   10  C   UNL     1      -6.084  14.854  70.364  1.00  0.00    -0.137 A  
HETATM   11  C   UNL     1     -11.791  12.698  66.156  1.00  0.00    -0.477 C  
HETATM   12  C   UNL     1     -10.385  13.046  65.721  1.00  0.00    -0.296 C  
HETATM   13  C   UNL     1     -12.244  13.777  66.813  1.00  0.00    -0.440 C  
HETATM   14  C   UNL     1     -10.670  14.501  65.342  1.00  0.00    -0.372 C  
HETATM   15  C   UNL     1      -5.151  14.040  69.699  1.00  0.00    -0.087 A  
HETATM   16  C   UNL     1     -11.165  14.866  66.738  1.00  0.00    -0.338 C  
HETATM   17  C   UNL     1      -5.374  13.692  68.376  1.00  0.00    -0.098 A  
ENDROOT
BRANCH   5  18
HETATM   18  C   UNL     1      -8.322  18.147  68.067  1.00  0.00    -0.261 C  
BRANCH  18  19
HETATM   19  N   UNL     1      -7.164  17.874  68.949  1.00  0.00    -0.271 NA 
HETATM   20  C   UNL     1      -5.405  19.277  67.854  1.00  0.00    -0.174 C  
HETATM   21  C   UNL     1      -5.860  17.880  68.268  1.00  0.00    -0.168 C  
HETATM   22  C   UNL     1      -5.303  20.176  69.078  1.00  0.00    -0.250 C  
HETATM   23  C   UNL     1      -6.595  20.152  69.891  1.00  0.00    -0.272 C  
HETATM   24  C   UNL     1      -7.109  18.730  70.141  1.00  0.00     0.740 C  
ENDBRANCH  18  19
ENDBRANCH   5  18
TORSDOF 2
ENDMDL
MODEL      137
REMARK 921   NORMALIZED FREE ENERGY PREDICTED BY IDOCK:   -2.38 KCAL/MOL
REMARK 922        TOTAL FREE ENERGY PREDICTED BY IDOCK:   -3.24 KCAL/MOL
REMARK 923 INTER-LIGAND FREE ENERGY PREDICTED BY IDOCK:   -3.27 KCAL/MOL
REMARK 924 INTRA-LIGAND FREE ENERGY PREDICTED BY IDOCK:    0.03 KCAL/MOL
REMARK 927      BINDING AFFINITY PREDICTED BY RF-SCORE:    0.00 PKD
ROOT
HETATM    1  O   UNL     1      -5.727  16.441  67.030  1.00  0.00    -0.279 OA 
HETATM    2  C   UNL     1      -7.006  16.787  67.566  1.00  0.00    -0.143 C  
HETATM    3  H   UNL     1      -5.156  16.202  67.751  1.00  0.00     0.000 HD 
HETATM    4  C   UNL     1      -6.702  17.926  68.560  1.00  0.00    -0.227 A  
HETATM    5  C   UNL     1      -7.938  17.178  66.389  1.00  0.00    -0.346 C  
HETATM    6  C   UNL     1      -7.707  15.539  68.293  1.00  0.00    -0.115 C  
HETATM    7  C   UNL     1      -5.473  17.940  69.266  1.00  0.00    -0.196 A  
HETATM    8  C   UNL     1      -7.588  18.980  68.812  1.00  0.00    -0.375 A  
HETATM    9  C   UNL     1      -6.857  14.914  69.434  1.00  0.00    -0.164 C  
HETATM   10  C   UNL     1      -7.249  20.020  69.694  1.00  0.00    -0.016 A  
HETATM   11  C   UNL     1      -7.613  12.645  69.063  1.00  0.00     0.146 C  
HETATM   12  C   UNL     1      -6.416  13.545  68.859  1.00  0.00    -0.102 C  
HETATM   13  C   UNL     1      -8.558  13.103  68.226  1.00  0.00    -0.166 C  
HETATM   14  C   UNL     1      -6.543  13.670  67.338  1.00  0.00     0.011 C  
HETATM   15  C   UNL     1      -6.022  20.006  70.378  1.00  0.00    -0.378 A  
HETATM   16  C   UNL     1      -7.951  14.253  67.411  1.00  0.00    -0.211 C  
HETATM   17  C   UNL     1      -5.146  18.950  70.179  1.00  0.00    -0.201 A  
ENDROOT
BRANCH   5  18
HETATM   18  C   UNL     1      -7.535  18.319  65.434  1.00  0.00     0.482 C  
BRANCH  18  19
HETATM   19  N   UNL     1      -6.067  18.503  65.506  1.00  0.00    -0.229 NA 
HETATM   20  C   UNL     1      -5.590  19.338  63.196  1.00  0.00    -0.261 C  
HETATM   21  C   UNL     1      -5.356  18.252  64.243  1.00  0.00     0.147 C  
HETATM   22  C   UNL     1      -5.136  20.687  63.734  1.00  0.00    -0.221 C  
HETATM   23  C   UNL     1      -5.766  20.981  65.094  1.00  0.00    -0.261 C  
HETATM   24  C   UNL     1      -5.655  19.798  66.062  1.00  0.00    -0.165 C  
ENDBRANCH  18  19
ENDBRANCH   5  18
TORSDOF 2
ENDMDL
MODEL      138
REMARK 921   NORMALIZED FREE ENERGY PREDICTED BY IDOCK:   -2.37 KCAL/MOL
REMARK 922        TOTAL FREE ENERGY PREDICTED BY IDOCK:   -3.24 KCAL/MOL
REMARK 923 INTER-LIGAND FREE ENERGY PREDICTED BY IDOCK:   -3.50 KCAL/MOL
REMARK 924 INTRA-LIGAND FREE ENERGY PREDICTED BY IDOCK:    0.27 KCAL/MOL
REMARK 927      BINDING AFFINITY PREDICTED BY RF-SCORE:    0.00 PKD
ROOT
HETATM    1  O   UNL     1     -10.383   4.862  68.563  1.00  0.00    -0.088 OA 
HETATM    2  C   UNL     1      -9.224   5.564  69.019  1.00  0.00    -0.119 C  
HETATM    3  H   UNL     1     -10.130   4.311  67.831  1.00  0.00     0.000 HD 
HETATM    4  C   UNL     1      -8.731   6.325  67.772  1.00  0.00    -0.113 A  
HETATM    5  C   UNL     1      -9.638   6.463  70.213  1.00  0.00    -0.177 C  
HETATM    6  C   UNL     1      -8.102   4.563  69.583  1.00  0.00    -0.060 C  
HETATM    7  C   UNL     1      -8.911   5.764  66.483  1.00  0.00    -0.128 A  
HETATM    8  C   UNL     1      -8.104   7.575  67.836  1.00  0.00    -0.119 A  
HETATM    9  C   UNL     1      -7.646   3.486  68.560  1.00  0.00    -0.053 C  
HETATM   10  C   UNL     1      -7.711   8.252  66.669  1.00  0.00    -0.093 A  
HETATM   11  C   UNL     1      -7.261   1.757  70.208  1.00  0.00    -0.033 C  
HETATM   12  C   UNL     1      -8.231   2.168  69.125  1.00  0.00    -0.068 C  
HETATM   13  C   UNL     1      -7.403   2.665  71.186  1.00  0.00    -0.033 C  
HETATM   14  C   UNL     1      -9.373   2.583  70.056  1.00  0.00    -0.186 C  
HETATM   15  C   UNL     1      -7.904   7.669  65.405  1.00  0.00    -0.115 A  
HETATM   16  C   UNL     1      -8.529   3.626  70.780  1.00  0.00    -0.101 C  
HETATM   17  C   UNL     1      -8.483   6.413  65.318  1.00  0.00    -0.102 A  
ENDROOT
BRANCH   5  18
HETATM   18  C   UNL     1     -10.751   7.515  70.037  1.00  0.00    -0.240 C  
BRANCH  18  19
HETATM   19  N   UNL     1     -10.545   8.595  71.029  1.00  0.00    -0.210 NA 
HETATM   20  C   UNL     1     -11.255   7.437  73.130  1.00  0.00    -0.294 C  
HETATM   21  C   UNL     1     -11.495   8.584  72.152  1.00  0.00    -0.376 C  
HETATM   22  C   UNL     1      -9.848   7.526  73.703  1.00  0.00    -0.348 C  
HETATM   23  C   UNL     1      -8.805   7.633  72.592  1.00  0.00    -0.198 C  
HETATM   24  C   UNL     1      -9.171   8.683  71.538  1.00  0.00    -0.246 C  
ENDBRANCH  18  19
ENDBRANCH   5  18
TORSDOF 2
ENDMDL
MODEL      139
REMARK 921   NORMALIZED FREE ENERGY PREDICTED BY IDOCK:   -2.34 KCAL/MOL
REMARK 922        TOTAL FREE ENERGY PREDICTED BY IDOCK:   -3.21 KCAL/MOL
REMARK 923 INTER-LIGAND FREE ENERGY PREDICTED BY IDOCK:   -3.33 KCAL/MOL
REMARK 924 INTRA-LIGAND FREE ENERGY PREDICTED BY IDOCK:    0.12 KCAL/MOL
REMARK 927      BINDING AFFINITY PREDICTED BY RF-SCORE:    0.00 PKD
ROOT
HETATM    1  O   UNL     1      -8.828   6.710  72.516  1.00  0.00    -0.129 OA 
HETATM    2  C   UNL     1      -9.045   6.600  71.107  1.00  0.00    -0.152 C  
HETATM    3  H   UNL     1      -8.917   7.624  72.762  1.00  0.00     0.000 HD 
HETATM    4  C   UNL     1      -7.994   7.546  70.490  1.00  0.00    -0.098 A  
HETATM    5  C   UNL     1      -8.899   5.109  70.707  1.00  0.00    -0.154 C  
HETATM    6  C   UNL     1     -10.538   7.028  70.698  1.00  0.00    -0.246 C  
HETATM    7  C   UNL     1      -7.603   8.718  71.183  1.00  0.00    -0.134 A  
HETATM    8  C   UNL     1      -7.381   7.306  69.255  1.00  0.00    -0.087 A  
HETATM    9  C   UNL     1     -10.926   8.467  71.137  1.00  0.00    -0.306 C  
HETATM   10  C   UNL     1      -6.396   8.173  68.752  1.00  0.00    -0.045 A  
HETATM   11  C   UNL     1     -13.255   7.959  71.548  1.00  0.00    -0.342 C  
HETATM   12  C   UNL     1     -11.958   8.242  72.270  1.00  0.00    -0.448 C  
HETATM   13  C   UNL     1     -13.091   6.761  70.964  1.00  0.00    -0.004 C  
HETATM   14  C   UNL     1     -11.720   6.817  72.776  1.00  0.00    -0.028 C  
HETATM   15  C   UNL     1      -6.029   9.328  69.463  1.00  0.00    -0.033 A  
HETATM   16  C   UNL     1     -11.714   6.220  71.372  1.00  0.00    -0.316 C  
HETATM   17  C   UNL     1      -6.653   9.610  70.669  1.00  0.00    -0.114 A  
ENDROOT
BRANCH   5  18
HETATM   18  C   UNL     1      -7.591   4.354  71.012  1.00  0.00    -0.063 C  
BRANCH  18  19
HETATM   19  N   UNL     1      -7.925   3.083  71.696  1.00  0.00    -0.056 NA 
HETATM   20  C   UNL     1      -8.449   3.916  73.996  1.00  0.00    -0.090 C  
HETATM   21  C   UNL     1      -7.559   3.039  73.120  1.00  0.00    -0.055 C  
HETATM   22  C   UNL     1      -9.902   3.478  73.867  1.00  0.00    -0.155 C  
HETATM   23  C   UNL     1     -10.332   3.412  72.403  1.00  0.00    -0.153 C  
HETATM   24  C   UNL     1      -9.322   2.664  71.526  1.00  0.00    -0.129 C  
ENDBRANCH  18  19
ENDBRANCH   5  18
TORSDOF 2
ENDMDL
MODEL      140
REMARK 921   NORMALIZED FREE ENERGY PREDICTED BY IDOCK:   -2.32 KCAL/MOL
REMARK 922        TOTAL FREE ENERGY PREDICTED BY IDOCK:   -3.19 KCAL/MOL
REMARK 923 INTER-LIGAND FREE ENERGY PREDICTED BY IDOCK:   -2.67 KCAL/MOL
REMARK 924 INTRA-LIGAND FREE ENERGY PREDICTED BY IDOCK:   -0.52 KCAL/MOL
REMARK 927      BINDING AFFINITY PREDICTED BY RF-SCORE:    0.00 PKD
ROOT
HETATM    1  O   UNL     1      -9.571   6.193  71.332  1.00  0.00    -0.159 OA 
HETATM    2  C   UNL     1      -8.446   5.446  71.802  1.00  0.00    -0.127 C  
HETATM    3  H   UNL     1     -10.160   6.338  72.064  1.00  0.00     0.000 HD 
HETATM    4  C   UNL     1      -9.067   4.168  72.402  1.00  0.00    -0.143 A  
HETATM    5  C   UNL     1      -7.485   5.209  70.608  1.00  0.00    -0.070 C  
HETATM    6  C   UNL     1      -7.602   6.263  72.897  1.00  0.00    -0.096 C  
HETATM    7  C   UNL     1     -10.344   4.221  73.012  1.00  0.00    -0.239 A  
HETATM    8  C   UNL     1      -8.429   2.922  72.374  1.00  0.00    -0.078 A  
HETATM    9  C   UNL     1      -8.435   6.713  74.130  1.00  0.00    -0.151 C  
HETATM   10  C   UNL     1      -9.053   1.775  72.893  1.00  0.00    -0.078 A  
HETATM   11  C   UNL     1      -7.225   8.779  74.480  1.00  0.00    -0.102 C  
HETATM   12  C   UNL     1      -8.543   8.249  73.963  1.00  0.00    -0.173 C  
HETATM   13  C   UNL     1      -6.301   8.382  73.591  1.00  0.00    -0.132 C  
HETATM   14  C   UNL     1      -8.279   8.528  72.481  1.00  0.00    -0.144 C  
HETATM   15  C   UNL     1     -10.321   1.859  73.492  1.00  0.00    -0.186 A  
HETATM   16  C   UNL     1      -7.025   7.661  72.445  1.00  0.00    -0.071 C  
HETATM   17  C   UNL     1     -10.954   3.090  73.571  1.00  0.00    -0.323 A  
ENDROOT
BRANCH   5  18
HETATM   18  C   UNL     1      -7.993   4.493  69.341  1.00  0.00    -0.061 C  
BRANCH  18  19
HETATM   19  N   UNL     1      -6.879   3.710  68.759  1.00  0.00    -0.045 NA 
HETATM   20  C   UNL     1      -8.027   1.534  68.304  1.00  0.00    -0.058 C  
HETATM   21  C   UNL     1      -6.921   2.270  69.056  1.00  0.00    -0.040 C  
HETATM   22  C   UNL     1      -7.838   1.702  66.803  1.00  0.00    -0.066 C  
HETATM   23  C   UNL     1      -7.694   3.174  66.425  1.00  0.00    -0.077 C  
HETATM   24  C   UNL     1      -6.694   3.917  67.317  1.00  0.00    -0.047 C  
ENDBRANCH  18  19
ENDBRANCH   5  18
TORSDOF 2
ENDMDL
MODEL      141
REMARK 921   NORMALIZED FREE ENERGY PREDICTED BY IDOCK:   -2.26 KCAL/MOL
REMARK 922        TOTAL FREE ENERGY PREDICTED BY IDOCK:   -3.12 KCAL/MOL
REMARK 923 INTER-LIGAND FREE ENERGY PREDICTED BY IDOCK:   -2.80 KCAL/MOL
REMARK 924 INTRA-LIGAND FREE ENERGY PREDICTED BY IDOCK:   -0.31 KCAL/MOL
REMARK 927      BINDING AFFINITY PREDICTED BY RF-SCORE:    0.00 PKD
ROOT
HETATM    1  O   UNL     1      -7.807  14.602  67.105  1.00  0.00    -0.246 OA 
HETATM    2  C   UNL     1      -8.254  13.689  68.111  1.00  0.00    -0.158 C  
HETATM    3  H   UNL     1      -7.967  15.487  67.413  1.00  0.00     0.000 HD 
HETATM    4  C   UNL     1      -9.739  14.050  68.314  1.00  0.00    -0.225 A  
HETATM    5  C   UNL     1      -7.994  12.245  67.607  1.00  0.00    -0.161 C  
HETATM    6  C   UNL     1      -7.417  13.843  69.472  1.00  0.00     0.284 C  
HETATM    7  C   UNL     1     -10.170  15.391  68.157  1.00  0.00    -0.230 A  
HETATM    8  C   UNL     1     -10.718  13.106  68.647  1.00  0.00    -0.274 A  
HETATM    9  C   UNL     1      -7.445  15.277  70.072  1.00  0.00     0.083 C  
HETATM   10  C   UNL     1     -12.068  13.474  68.778  1.00  0.00    -0.305 A  
HETATM   11  C   UNL     1      -5.201  15.190  70.973  1.00  0.00    -0.134 C  
HETATM   12  C   UNL     1      -6.005  15.800  69.847  1.00  0.00    -0.166 C  
HETATM   13  C   UNL     1      -5.153  13.874  70.713  1.00  0.00    -0.107 C  
HETATM   14  C   UNL     1      -5.418  14.942  68.724  1.00  0.00    -0.088 C  
HETATM   15  C   UNL     1     -12.463  14.812  68.616  1.00  0.00     0.156 A  
HETATM   16  C   UNL     1      -5.856  13.631  69.370  1.00  0.00    -0.093 C  
HETATM   17  C   UNL     1     -11.506  15.773  68.329  1.00  0.00    -0.338 A  
ENDROOT
BRANCH   5  18
HETATM   18  C   UNL     1      -8.609  11.771  66.276  1.00  0.00    -0.062 C  
BRANCH  18  19
HETATM   19  N   UNL     1      -8.343  10.322  66.119  1.00  0.00    -0.135 NA 
HETATM   20  C   UNL     1      -9.264   9.446  68.274  1.00  0.00    -0.133 C  
HETATM   21  C   UNL     1      -8.043   9.616  67.374  1.00  0.00    -0.110 C  
HETATM   22  C   UNL     1     -10.348   8.668  67.541  1.00  0.00    -0.336 C  
HETATM   23  C   UNL     1     -10.653   9.293  66.182  1.00  0.00     0.233 C  
HETATM   24  C   UNL     1      -9.386   9.602  65.377  1.00  0.00    -0.259 C  
ENDBRANCH  18  19
ENDBRANCH   5  18
TORSDOF 2
ENDMDL
MODEL      142
REMARK 921   NORMALIZED FREE ENERGY PREDICTED BY IDOCK:   -1.93 KCAL/MOL
REMARK 922        TOTAL FREE ENERGY PREDICTED BY IDOCK:   -2.75 KCAL/MOL
REMARK 923 INTER-LIGAND FREE ENERGY PREDICTED BY IDOCK:   -3.45 KCAL/MOL
REMARK 924 INTRA-LIGAND FREE ENERGY PREDICTED BY IDOCK:    0.70 KCAL/MOL
REMARK 927      BINDING AFFINITY PREDICTED BY RF-SCORE:    0.00 PKD
ROOT
HETATM    1  O   UNL     1      -7.864  14.803  67.101  1.00  0.00    -0.213 OA 
HETATM    2  C   UNL     1      -8.410  15.809  67.957  1.00  0.00    -0.152 C  
HETATM    3  H   UNL     1      -7.625  14.054  67.635  1.00  0.00     0.000 HD 
HETATM    4  C   UNL     1      -7.293  16.074  68.986  1.00  0.00    -0.191 A  
HETATM    5  C   UNL     1      -8.800  17.032  67.085  1.00  0.00    -0.232 C  
HETATM    6  C   UNL     1      -9.764  15.319  68.668  1.00  0.00    -0.212 C  
HETATM    7  C   UNL     1      -6.432  15.022  69.384  1.00  0.00    -0.135 A  
HETATM    8  C   UNL     1      -7.067  17.329  69.564  1.00  0.00     0.041 A  
HETATM    9  C   UNL     1      -9.607  14.013  69.494  1.00  0.00     0.641 C  
HETATM   10  C   UNL     1      -6.008  17.534  70.465  1.00  0.00     0.223 A  
HETATM   11  C   UNL     1     -11.832  13.181  69.032  1.00  0.00    -0.358 C  
HETATM   12  C   UNL     1     -10.382  12.956  68.669  1.00  0.00    -0.202 C  
HETATM   13  C   UNL     1     -12.159  14.369  68.500  1.00  0.00    -0.278 C  
HETATM   14  C   UNL     1     -10.465  13.516  67.246  1.00  0.00    -0.248 C  
HETATM   15  C   UNL     1      -5.171  16.470  70.839  1.00  0.00    -0.146 A  
HETATM   16  C   UNL     1     -10.946  14.886  67.714  1.00  0.00    -0.294 C  
HETATM   17  C   UNL     1      -5.402  15.208  70.314  1.00  0.00    -0.122 A  
ENDROOT
BRANCH   5  18
HETATM   18  C   UNL     1      -7.737  17.724  66.210  1.00  0.00    -0.273 C  
BRANCH  18  19
HETATM   19  N   UNL     1      -8.003  19.181  66.204  1.00  0.00    -0.366 NA 
HETATM   20  C   UNL     1      -8.765  19.525  68.562  1.00  0.00    -0.388 C  
HETATM   21  C   UNL     1      -9.108  19.606  67.077  1.00  0.00    -0.326 C  
HETATM   22  C   UNL     1      -7.558  20.402  68.866  1.00  0.00     0.275 C  
HETATM   23  C   UNL     1      -6.392  20.081  67.934  1.00  0.00    -0.269 C  
HETATM   24  C   UNL     1      -6.816  20.006  66.463  1.00  0.00    -0.221 C  
ENDBRANCH  18  19
ENDBRANCH   5  18
TORSDOF 2
ENDMDL
MODEL      143
REMARK 921   NORMALIZED FREE ENERGY PREDICTED BY IDOCK:   -1.78 KCAL/MOL
REMARK 922        TOTAL FREE ENERGY PREDICTED BY IDOCK:   -2.58 KCAL/MOL
REMARK 923 INTER-LIGAND FREE ENERGY PREDICTED BY IDOCK:   -3.95 KCAL/MOL
REMARK 924 INTRA-LIGAND FREE ENERGY PREDICTED BY IDOCK:    1.37 KCAL/MOL
REMARK 927      BINDING AFFINITY PREDICTED BY RF-SCORE:    0.00 PKD
ROOT
HETATM    1  O   UNL     1      -7.642  17.733  68.488  1.00  0.00    -0.258 OA 
HETATM    2  C   UNL     1      -8.476  17.382  67.380  1.00  0.00    -0.206 C  
HETATM    3  H   UNL     1      -6.758  17.437  68.302  1.00  0.00     0.000 HD 
HETATM    4  C   UNL     1      -8.313  15.854  67.256  1.00  0.00    -0.211 A  
HETATM    5  C   UNL     1      -9.918  17.865  67.683  1.00  0.00    -0.324 C  
HETATM    6  C   UNL     1      -8.028  18.134  66.034  1.00  0.00    -0.150 C  
HETATM    7  C   UNL     1      -7.081  15.242  67.597  1.00  0.00    -0.206 A  
HETATM    8  C   UNL     1      -9.340  15.007  66.822  1.00  0.00    -0.271 A  
HETATM    9  C   UNL     1      -6.550  17.878  65.629  1.00  0.00    -0.194 C  
HETATM   10  C   UNL     1      -9.161  13.615  66.768  1.00  0.00    -0.251 A  
HETATM   11  C   UNL     1      -6.190  20.074  64.679  1.00  0.00    -0.320 C  
HETATM   12  C   UNL     1      -5.853  19.237  65.891  1.00  0.00    -0.191 C  
HETATM   13  C   UNL     1      -7.507  20.320  64.762  1.00  0.00     0.571 C  
HETATM   14  C   UNL     1      -6.752  19.983  66.880  1.00  0.00    -0.245 C  
HETATM   15  C   UNL     1      -7.927  13.039  67.113  1.00  0.00    -0.095 A  
HETATM   16  C   UNL     1      -8.020  19.712  66.076  1.00  0.00    -0.337 C  
HETATM   17  C   UNL     1      -6.881  13.859  67.504  1.00  0.00    -0.148 A  
ENDROOT
BRANCH   5  18
HETATM   18  C   UNL     1     -10.643  17.377  68.953  1.00  0.00    -0.243 C  
BRANCH  18  19
HETATM   19  N   UNL     1     -10.712  15.898  68.922  1.00  0.00    -0.238 NA 
HETATM   20  C   UNL     1     -10.575  15.375  71.365  1.00  0.00     0.349 C  
HETATM   21  C   UNL     1      -9.945  15.227  69.983  1.00  0.00    -0.107 C  
HETATM   22  C   UNL     1     -11.983  14.796  71.361  1.00  0.00    -0.403 C  
HETATM   23  C   UNL     1     -12.818  15.381  70.224  1.00  0.00    -0.277 C  
HETATM   24  C   UNL     1     -12.080  15.366  68.881  1.00  0.00    -0.198 C  
ENDBRANCH  18  19
ENDBRANCH   5  18
TORSDOF 2
ENDMDL
MODEL      144
REMARK 921   NORMALIZED FREE ENERGY PREDICTED BY IDOCK:   -1.65 KCAL/MOL
REMARK 922        TOTAL FREE ENERGY PREDICTED BY IDOCK:   -2.43 KCAL/MOL
REMARK 923 INTER-LIGAND FREE ENERGY PREDICTED BY IDOCK:   -3.34 KCAL/MOL
REMARK 924 INTRA-LIGAND FREE ENERGY PREDICTED BY IDOCK:    0.91 KCAL/MOL
REMARK 927      BINDING AFFINITY PREDICTED BY RF-SCORE:    0.00 PKD
ROOT
HETATM    1  O   UNL     1     -10.089   7.169  72.885  1.00  0.00    -0.180 OA 
HETATM    2  C   UNL     1      -9.225   6.418  72.028  1.00  0.00    -0.148 C  
HETATM    3  H   UNL     1      -9.988   6.842  73.771  1.00  0.00     0.000 HD 
HETATM    4  C   UNL     1      -9.666   4.956  72.237  1.00  0.00    -0.207 A  
HETATM    5  C   UNL     1      -9.390   6.952  70.581  1.00  0.00    -0.162 C  
HETATM    6  C   UNL     1      -7.678   6.628  72.406  1.00  0.00    -0.095 C  
HETATM    7  C   UNL     1     -10.155   4.537  73.499  1.00  0.00    -0.200 A  
HETATM    8  C   UNL     1      -9.618   3.990  71.225  1.00  0.00    -0.245 A  
HETATM    9  C   UNL     1      -7.333   6.269  73.878  1.00  0.00    -0.086 C  
HETATM   10  C   UNL     1     -10.074   2.679  71.449  1.00  0.00     0.076 A  
HETATM   11  C   UNL     1      -5.627   7.965  74.132  1.00  0.00    -0.065 C  
HETATM   12  C   UNL     1      -7.047   7.641  74.537  1.00  0.00    -0.140 C  
HETATM   13  C   UNL     1      -5.670   8.199  72.811  1.00  0.00    -0.051 C  
HETATM   14  C   UNL     1      -7.728   8.683  73.646  1.00  0.00     0.033 C  
HETATM   15  C   UNL     1     -10.553   2.295  72.712  1.00  0.00    -0.213 A  
HETATM   16  C   UNL     1      -7.136   8.110  72.363  1.00  0.00    -0.106 C  
HETATM   17  C   UNL     1     -10.570   3.222  73.743  1.00  0.00    -0.274 A  
ENDROOT
BRANCH   5  18
HETATM   18  C   UNL     1     -10.780   6.954  69.915  1.00  0.00    -0.246 C  
BRANCH  18  19
HETATM   19  N   UNL     1     -11.005   8.277  69.289  1.00  0.00    -0.039 NA 
HETATM   20  C   UNL     1      -9.357   9.674  70.550  1.00  0.00    -0.227 C  
HETATM   21  C   UNL     1     -10.819   9.422  70.193  1.00  0.00    -0.249 C  
HETATM   22  C   UNL     1      -8.549   9.933  69.286  1.00  0.00    -0.169 C  
HETATM   23  C   UNL     1      -8.762   8.826  68.257  1.00  0.00    -0.135 C  
HETATM   24  C   UNL     1     -10.242   8.488  68.052  1.00  0.00    -0.213 C  
ENDBRANCH  18  19
ENDBRANCH   5  18
TORSDOF 2
ENDMDL
MODEL      145
REMARK 921   NORMALIZED FREE ENERGY PREDICTED BY IDOCK:   -1.43 KCAL/MOL
REMARK 922        TOTAL FREE ENERGY PREDICTED BY IDOCK:   -2.19 KCAL/MOL
REMARK 923 INTER-LIGAND FREE ENERGY PREDICTED BY IDOCK:   -3.21 KCAL/MOL
REMARK 924 INTRA-LIGAND FREE ENERGY PREDICTED BY IDOCK:    1.02 KCAL/MOL
REMARK 927      BINDING AFFINITY PREDICTED BY RF-SCORE:    0.00 PKD
ROOT
HETATM    1  O   UNL     1      -9.520  12.178  68.914  1.00  0.00    -0.408 OA 
HETATM    2  C   UNL     1      -8.614  11.376  68.152  1.00  0.00    -0.153 C  
HETATM    3  H   UNL     1      -9.271  12.120  69.830  1.00  0.00     0.000 HD 
HETATM    4  C   UNL     1      -8.741   9.971  68.774  1.00  0.00    -0.136 A  
HETATM    5  C   UNL     1      -9.021  11.469  66.658  1.00  0.00    -0.185 C  
HETATM    6  C   UNL     1      -7.109  11.928  68.239  1.00  0.00    -0.081 C  
HETATM    7  C   UNL     1      -9.013   9.831  70.157  1.00  0.00    -0.235 A  
HETATM    8  C   UNL     1      -8.604   8.790  68.034  1.00  0.00    -0.134 A  
HETATM    9  C   UNL     1      -6.558  12.035  69.688  1.00  0.00    -0.043 C  
HETATM   10  C   UNL     1      -8.772   7.531  68.635  1.00  0.00    -0.128 A  
HETATM   11  C   UNL     1      -5.198  13.992  69.270  1.00  0.00    -0.081 C  
HETATM   12  C   UNL     1      -6.481  13.561  69.942  1.00  0.00    -0.013 C  
HETATM   13  C   UNL     1      -5.415  13.854  67.952  1.00  0.00    -0.091 C  
HETATM   14  C   UNL     1      -7.436  14.202  68.932  1.00  0.00    -0.112 C  
HETATM   15  C   UNL     1      -9.043   7.426  70.010  1.00  0.00    -0.148 A  
HETATM   16  C   UNL     1      -6.871  13.412  67.756  1.00  0.00    -0.163 C  
HETATM   17  C   UNL     1      -9.139   8.579  70.773  1.00  0.00    -0.196 A  
ENDROOT
BRANCH   5  18
HETATM   18  C   UNL     1     -10.443  11.067  66.220  1.00  0.00    -0.254 C  
BRANCH  18  19
HETATM   19  N   UNL     1     -10.340  10.064  65.134  1.00  0.00    -0.095 NA 
HETATM   20  C   UNL     1      -9.260  11.432  63.339  1.00  0.00    -0.149 C  
HETATM   21  C   UNL     1     -10.473  10.615  63.777  1.00  0.00     0.005 C  
HETATM   22  C   UNL     1      -8.008  10.567  63.378  1.00  0.00    -0.051 C  
HETATM   23  C   UNL     1      -7.848   9.885  64.735  1.00  0.00    -0.141 C  
HETATM   24  C   UNL     1      -9.142   9.219  65.215  1.00  0.00    -0.215 C  
ENDBRANCH  18  19
ENDBRANCH   5  18
TORSDOF 2
ENDMDL
MODEL      146
REMARK 921   NORMALIZED FREE ENERGY PREDICTED BY IDOCK:   -0.73 KCAL/MOL
REMARK 922        TOTAL FREE ENERGY PREDICTED BY IDOCK:   -1.40 KCAL/MOL
REMARK 923 INTER-LIGAND FREE ENERGY PREDICTED BY IDOCK:   -3.31 KCAL/MOL
REMARK 924 INTRA-LIGAND FREE ENERGY PREDICTED BY IDOCK:    1.90 KCAL/MOL
REMARK 927      BINDING AFFINITY PREDICTED BY RF-SCORE:    0.00 PKD
ROOT
HETATM    1  O   UNL     1      -9.090  14.275  69.360  1.00  0.00    -0.370 OA 
HETATM    2  C   UNL     1      -8.838  14.410  67.959  1.00  0.00    -0.178 C  
HETATM    3  H   UNL     1     -10.026  14.356  69.504  1.00  0.00     0.000 HD 
HETATM    4  C   UNL     1      -9.436  15.785  67.601  1.00  0.00    -0.218 A  
HETATM    5  C   UNL     1      -7.311  14.278  67.723  1.00  0.00    -0.185 C  
HETATM    6  C   UNL     1      -9.523  13.229  67.113  1.00  0.00    -0.240 C  
HETATM    7  C   UNL     1     -10.577  16.263  68.291  1.00  0.00    -0.300 A  
HETATM    8  C   UNL     1      -8.900  16.618  66.610  1.00  0.00    -0.280 A  
HETATM    9  C   UNL     1     -11.059  13.112  67.320  1.00  0.00    -0.305 C  
HETATM   10  C   UNL     1      -9.452  17.884  66.348  1.00  0.00    -0.278 A  
HETATM   11  C   UNL     1     -11.137  10.705  67.087  1.00  0.00    -0.267 C  
HETATM   12  C   UNL     1     -11.224  11.799  68.126  1.00  0.00    -0.320 C  
HETATM   13  C   UNL     1      -9.864  10.711  66.660  1.00  0.00    -0.245 C  
HETATM   14  C   UNL     1      -9.865  11.535  68.779  1.00  0.00    -0.153 C  
HETATM   15  C   UNL     1     -10.584  18.330  67.051  1.00  0.00    -0.375 A  
HETATM   16  C   UNL     1      -9.094  11.755  67.481  1.00  0.00    -0.175 C  
HETATM   17  C   UNL     1     -11.159  17.505  68.006  1.00  0.00     0.016 A  
ENDROOT
BRANCH   5  18
HETATM   18  C   UNL     1      -6.336  15.231  68.441  1.00  0.00    -0.107 C  
BRANCH  18  19
HETATM   19  N   UNL     1      -6.933  15.636  69.735  1.00  0.00    -0.161 NA 
HETATM   20  C   UNL     1      -5.141  17.140  70.623  1.00  0.00    -0.262 C  
HETATM   21  C   UNL     1      -5.959  15.866  70.813  1.00  0.00     0.245 C  
HETATM   22  C   UNL     1      -6.065  18.348  70.555  1.00  0.00     0.199 C  
HETATM   23  C   UNL     1      -7.163  18.146  69.514  1.00  0.00     0.139 C  
HETATM   24  C   UNL     1      -7.848  16.780  69.636  1.00  0.00     0.512 C  
ENDBRANCH  18  19
ENDBRANCH   5  18
TORSDOF 2
ENDMDL
MODEL      147
REMARK 921   NORMALIZED FREE ENERGY PREDICTED BY IDOCK:   -0.51 KCAL/MOL
REMARK 922        TOTAL FREE ENERGY PREDICTED BY IDOCK:   -1.17 KCAL/MOL
REMARK 923 INTER-LIGAND FREE ENERGY PREDICTED BY IDOCK:   -0.73 KCAL/MOL
REMARK 924 INTRA-LIGAND FREE ENERGY PREDICTED BY IDOCK:   -0.44 KCAL/MOL
REMARK 927      BINDING AFFINITY PREDICTED BY RF-SCORE:    0.00 PKD
ROOT
HETATM    1  O   UNL     1      -8.812  11.327  69.528  1.00  0.00    -0.300 OA 
HETATM    2  C   UNL     1      -9.848  10.433  69.115  1.00  0.00    -0.223 C  
HETATM    3  H   UNL     1      -8.753  12.030  68.891  1.00  0.00     0.000 HD 
HETATM    4  C   UNL     1      -9.424   9.995  67.698  1.00  0.00    -0.163 A  
HETATM    5  C   UNL     1      -9.944   9.285  70.153  1.00  0.00    -0.251 C  
HETATM    6  C   UNL     1     -11.286  11.148  69.106  1.00  0.00    -0.340 C  
HETATM    7  C   UNL     1      -8.718  10.893  66.861  1.00  0.00    -0.144 A  
HETATM    8  C   UNL     1      -9.698   8.725  67.176  1.00  0.00    -0.248 A  
HETATM    9  C   UNL     1     -11.356  12.417  68.212  1.00  0.00    -0.332 C  
HETATM   10  C   UNL     1      -9.252   8.354  65.895  1.00  0.00    -0.217 A  
HETATM   11  C   UNL     1     -12.924  13.603  69.622  1.00  0.00     0.764 C  
HETATM   12  C   UNL     1     -11.465  13.581  69.229  1.00  0.00    -0.345 C  
HETATM   13  C   UNL     1     -13.126  12.481  70.332  1.00  0.00     0.554 C  
HETATM   14  C   UNL     1     -10.931  13.030  70.554  1.00  0.00     1.662 C  
HETATM   15  C   UNL     1      -8.553   9.268  65.089  1.00  0.00    -0.194 A  
HETATM   16  C   UNL     1     -11.777  11.763  70.475  1.00  0.00    -0.146 C  
HETATM   17  C   UNL     1      -8.309  10.547  65.567  1.00  0.00    -0.170 A  
ENDROOT
BRANCH   5  18
HETATM   18  C   UNL     1      -8.708   8.417  70.459  1.00  0.00    -0.147 C  
BRANCH  18  19
HETATM   19  N   UNL     1      -8.309   8.637  71.868  1.00  0.00    -0.286 NA 
HETATM   20  C   UNL     1      -7.781   6.295  72.572  1.00  0.00    -0.102 C  
HETATM   21  C   UNL     1      -8.648   7.533  72.780  1.00  0.00    -0.120 C  
HETATM   22  C   UNL     1      -6.314   6.645  72.780  1.00  0.00    -0.055 C  
HETATM   23  C   UNL     1      -5.907   7.847  71.929  1.00  0.00    -0.036 C  
HETATM   24  C   UNL     1      -6.899   9.010  72.038  1.00  0.00     0.113 C  
ENDBRANCH  18  19
ENDBRANCH   5  18
TORSDOF 2
ENDMDL
MODEL      148
REMARK 921   NORMALIZED FREE ENERGY PREDICTED BY IDOCK:   -0.35 KCAL/MOL
REMARK 922        TOTAL FREE ENERGY PREDICTED BY IDOCK:   -0.98 KCAL/MOL
REMARK 923 INTER-LIGAND FREE ENERGY PREDICTED BY IDOCK:   -1.25 KCAL/MOL
REMARK 924 INTRA-LIGAND FREE ENERGY PREDICTED BY IDOCK:    0.27 KCAL/MOL
REMARK 927      BINDING AFFINITY PREDICTED BY RF-SCORE:    0.00 PKD
ROOT
HETATM    1  O   UNL     1      -9.039   7.504  64.756  1.00  0.00    -0.085 OA 
HETATM    2  C   UNL     1      -8.657   8.329  65.859  1.00  0.00    -0.150 C  
HETATM    3  H   UNL     1      -9.986   7.533  64.675  1.00  0.00     0.000 HD 
HETATM    4  C   UNL     1      -9.431   7.740  67.055  1.00  0.00    -0.210 A  
HETATM    5  C   UNL     1      -7.112   8.281  65.991  1.00  0.00    -0.069 C  
HETATM    6  C   UNL     1      -9.036   9.870  65.611  1.00  0.00    -0.205 C  
HETATM    7  C   UNL     1     -10.707   7.157  66.855  1.00  0.00    -0.363 A  
HETATM    8  C   UNL     1      -8.934   7.741  68.364  1.00  0.00    -0.132 A  
HETATM    9  C   UNL     1     -10.543  10.112  65.324  1.00  0.00     0.162 C  
HETATM   10  C   UNL     1      -9.656   7.152  69.416  1.00  0.00    -0.153 A  
HETATM   11  C   UNL     1     -10.192  11.961  63.803  1.00  0.00    -0.442 C  
HETATM   12  C   UNL     1     -10.577  10.499  63.824  1.00  0.00     0.309 C  
HETATM   13  C   UNL     1      -8.898  11.999  64.158  1.00  0.00     0.979 C  
HETATM   14  C   UNL     1      -9.275   9.962  63.224  1.00  0.00    -0.274 C  
HETATM   15  C   UNL     1     -10.918   6.581  69.185  1.00  0.00    -0.380 A  
HETATM   16  C   UNL     1      -8.411  10.554  64.333  1.00  0.00    -0.097 C  
HETATM   17  C   UNL     1     -11.452   6.607  67.906  1.00  0.00     0.164 A  
ENDROOT
BRANCH   5  18
HETATM   18  C   UNL     1      -6.397   6.930  66.182  1.00  0.00    -0.050 C  
BRANCH  18  19
HETATM   19  N   UNL     1      -7.271   5.852  65.663  1.00  0.00    -0.073 NA 
HETATM   20  C   UNL     1      -5.775   4.833  63.935  1.00  0.00    -0.017 C  
HETATM   21  C   UNL     1      -7.089   5.551  64.235  1.00  0.00    -0.049 C  
HETATM   22  C   UNL     1      -5.709   3.523  64.707  1.00  0.00    -0.014 C  
HETATM   23  C   UNL     1      -5.979   3.743  66.194  1.00  0.00    -0.023 C  
HETATM   24  C   UNL     1      -7.216   4.611  66.446  1.00  0.00    -0.076 C  
ENDBRANCH  18  19
ENDBRANCH   5  18
TORSDOF 2
ENDMDL
MODEL      149
REMARK 921   NORMALIZED FREE ENERGY PREDICTED BY IDOCK:    0.61 KCAL/MOL
REMARK 922        TOTAL FREE ENERGY PREDICTED BY IDOCK:    0.09 KCAL/MOL
REMARK 923 INTER-LIGAND FREE ENERGY PREDICTED BY IDOCK:    0.34 KCAL/MOL
REMARK 924 INTRA-LIGAND FREE ENERGY PREDICTED BY IDOCK:   -0.26 KCAL/MOL
REMARK 927      BINDING AFFINITY PREDICTED BY RF-SCORE:    0.00 PKD
ROOT
HETATM    1  O   UNL     1      -8.084  14.156  66.840  1.00  0.00    -0.382 OA 
HETATM    2  C   UNL     1      -8.871  14.316  68.022  1.00  0.00    -0.178 C  
HETATM    3  H   UNL     1      -7.793  15.016  66.556  1.00  0.00     0.000 HD 
HETATM    4  C   UNL     1      -9.999  15.278  67.597  1.00  0.00    -0.222 A  
HETATM    5  C   UNL     1      -9.346  12.914  68.485  1.00  0.00    -0.075 C  
HETATM    6  C   UNL     1      -8.009  14.918  69.237  1.00  0.00    -0.153 C  
HETATM    7  C   UNL     1      -9.748  16.276  66.623  1.00  0.00    -0.266 A  
HETATM    8  C   UNL     1     -11.294  15.220  68.124  1.00  0.00    -0.346 A  
HETATM    9  C   UNL     1      -7.332  16.279  68.917  1.00  0.00    -0.198 C  
HETATM   10  C   UNL     1     -12.303  16.088  67.673  1.00  0.00     1.403 A  
HETATM   11  C   UNL     1      -5.364  15.876  70.266  1.00  0.00    -0.154 C  
HETATM   12  C   UNL     1      -5.825  15.931  68.828  1.00  0.00    -0.101 C  
HETATM   13  C   UNL     1      -5.955  14.793  70.796  1.00  0.00    -0.105 C  
HETATM   14  C   UNL     1      -5.759  14.425  68.561  1.00  0.00    -0.096 C  
HETATM   15  C   UNL     1     -12.023  17.068  66.705  1.00  0.00     2.421 A  
HETATM   16  C   UNL     1      -6.740  14.089  69.680  1.00  0.00    -0.064 C  
HETATM   17  C   UNL     1     -10.736  17.174  66.199  1.00  0.00    -0.094 A  
ENDROOT
BRANCH   5  18
HETATM   18  C   UNL     1     -10.163  12.023  67.528  1.00  0.00    -0.198 C  
BRANCH  18  19
HETATM   19  N   UNL     1     -10.045  10.616  67.973  1.00  0.00    -0.154 NA 
HETATM   20  C   UNL     1      -8.432   9.726  66.280  1.00  0.00    -0.129 C  
HETATM   21  C   UNL     1      -9.829   9.646  66.888  1.00  0.00    -0.200 C  
HETATM   22  C   UNL     1      -7.381   9.476  67.353  1.00  0.00    -0.087 C  
HETATM   23  C   UNL     1      -7.594  10.388  68.559  1.00  0.00    -0.095 C  
HETATM   24  C   UNL     1      -9.051  10.407  69.034  1.00  0.00    -0.187 C  
ENDBRANCH  18  19
ENDBRANCH   5  18
TORSDOF 2
ENDMDL
MODEL      150
REMARK 921   NORMALIZED FREE ENERGY PREDICTED BY IDOCK:    0.78 KCAL/MOL
REMARK 922        TOTAL FREE ENERGY PREDICTED BY IDOCK:    0.28 KCAL/MOL
REMARK 923 INTER-LIGAND FREE ENERGY PREDICTED BY IDOCK:   -0.71 KCAL/MOL
REMARK 924 INTRA-LIGAND FREE ENERGY PREDICTED BY IDOCK:    0.99 KCAL/MOL
REMARK 927      BINDING AFFINITY PREDICTED BY RF-SCORE:    0.00 PKD
ROOT
HETATM    1  O   UNL     1      -7.573  14.250  66.984  1.00  0.00    -0.333 OA 
HETATM    2  C   UNL     1      -8.435  14.681  68.039  1.00  0.00    -0.154 C  
HETATM    3  H   UNL     1      -6.800  14.803  66.984  1.00  0.00     0.000 HD 
HETATM    4  C   UNL     1      -8.698  16.168  67.727  1.00  0.00    -0.174 A  
HETATM    5  C   UNL     1      -9.696  13.779  68.038  1.00  0.00    -0.232 C  
HETATM    6  C   UNL     1      -7.754  14.493  69.482  1.00  0.00     0.065 C  
HETATM    7  C   UNL     1      -7.695  16.948  67.101  1.00  0.00    -0.210 A  
HETATM    8  C   UNL     1      -9.905  16.811  68.026  1.00  0.00    -0.265 A  
HETATM    9  C   UNL     1      -6.393  15.225  69.638  1.00  0.00    -0.154 C  
HETATM   10  C   UNL     1     -10.117  18.157  67.682  1.00  0.00    -0.367 A  
HETATM   11  C   UNL     1      -5.409  13.567  71.101  1.00  0.00    -0.189 C  
HETATM   12  C   UNL     1      -5.356  14.075  69.678  1.00  0.00    -0.092 C  
HETATM   13  C   UNL     1      -6.609  12.979  71.232  1.00  0.00     2.252 C  
HETATM   14  C   UNL     1      -6.044  12.869  69.033  1.00  0.00    -0.089 C  
HETATM   15  C   UNL     1      -9.102  18.904  67.061  1.00  0.00    -0.310 A  
HETATM   16  C   UNL     1      -7.311  13.027  69.867  1.00  0.00     1.031 C  
HETATM   17  C   UNL     1      -7.882  18.302  66.793  1.00  0.00    -0.255 A  
ENDROOT
BRANCH   5  18
HETATM   18  C   UNL     1     -10.568  13.675  66.771  1.00  0.00    -0.273 C  
BRANCH  18  19
HETATM   19  N   UNL     1     -10.647  12.253  66.364  1.00  0.00    -0.237 NA 
HETATM   20  C   UNL     1      -8.218  11.665  66.250  1.00  0.00     0.012 C  
HETATM   21  C   UNL     1      -9.543  11.799  65.505  1.00  0.00    -0.201 C  
HETATM   22  C   UNL     1      -8.362  10.675  67.397  1.00  0.00    -0.119 C  
HETATM   23  C   UNL     1      -9.550  11.030  68.288  1.00  0.00    -0.172 C  
HETATM   24  C   UNL     1     -10.823  11.321  67.486  1.00  0.00    -0.245 C  
ENDBRANCH  18  19
ENDBRANCH   5  18
TORSDOF 2
ENDMDL
MODEL      151
REMARK 921   NORMALIZED FREE ENERGY PREDICTED BY IDOCK:    4.49 KCAL/MOL
REMARK 922        TOTAL FREE ENERGY PREDICTED BY IDOCK:    4.42 KCAL/MOL
REMARK 923 INTER-LIGAND FREE ENERGY PREDICTED BY IDOCK:    2.54 KCAL/MOL
REMARK 924 INTRA-LIGAND FREE ENERGY PREDICTED BY IDOCK:    1.88 KCAL/MOL
REMARK 927      BINDING AFFINITY PREDICTED BY RF-SCORE:    0.00 PKD
ROOT
HETATM    1  O   UNL     1      -8.271  16.017  69.092  1.00  0.00    -0.226 OA 
HETATM    2  C   UNL     1      -8.092  15.735  67.701  1.00  0.00    -0.147 C  
HETATM    3  H   UNL     1      -9.145  15.741  69.343  1.00  0.00     0.000 HD 
HETATM    4  C   UNL     1      -9.240  16.501  67.013  1.00  0.00    -0.233 A  
HETATM    5  C   UNL     1      -6.666  16.186  67.292  1.00  0.00    -0.233 C  
HETATM    6  C   UNL     1      -8.167  14.160  67.396  1.00  0.00    -0.207 C  
HETATM    7  C   UNL     1     -10.481  16.664  67.676  1.00  0.00    -0.320 A  
HETATM    8  C   UNL     1      -9.124  17.067  65.737  1.00  0.00     0.101 A  
HETATM    9  C   UNL     1      -9.489  13.489  67.861  1.00  0.00    -0.215 C  
HETATM   10  C   UNL     1     -10.182  17.796  65.167  1.00  0.00     0.892 A  
HETATM   11  C   UNL     1      -8.476  11.366  68.433  1.00  0.00    -0.155 C  
HETATM   12  C   UNL     1      -9.056  12.612  69.063  1.00  0.00     0.496 C  
HETATM   13  C   UNL     1      -7.337  11.756  67.840  1.00  0.00    -0.098 C  
HETATM   14  C   UNL     1      -7.729  13.199  69.552  1.00  0.00     0.777 C  
HETATM   15  C   UNL     1     -11.401  17.941  65.851  1.00  0.00     1.205 A  
HETATM   16  C   UNL     1      -7.126  13.244  68.151  1.00  0.00    -0.111 C  
HETATM   17  C   UNL     1     -11.555  17.352  67.096  1.00  0.00     1.252 A  
ENDROOT
BRANCH   5  18
HETATM   18  C   UNL     1      -6.229  17.648  67.507  1.00  0.00    -0.157 C  
BRANCH  18  19
HETATM   19  N   UNL     1      -6.533  18.035  68.904  1.00  0.00    -0.221 NA 
HETATM   20  C   UNL     1      -6.154  20.506  68.794  1.00  0.00    -0.373 C  
HETATM   21  C   UNL     1      -5.746  19.170  69.410  1.00  0.00    -0.234 C  
HETATM   22  C   UNL     1      -7.623  20.784  69.080  1.00  0.00     1.023 C  
HETATM   23  C   UNL     1      -8.501  19.607  68.662  1.00  0.00    -0.310 C  
HETATM   24  C   UNL     1      -7.960  18.262  69.162  1.00  0.00     0.030 C  
ENDBRANCH  18  19
ENDBRANCH   5  18
TORSDOF 2
ENDMDL
MODEL      152
REMARK 921   NORMALIZED FREE ENERGY PREDICTED BY IDOCK:   23.91 KCAL/MOL
REMARK 922        TOTAL FREE ENERGY PREDICTED BY IDOCK:   26.12 KCAL/MOL
REMARK 923 INTER-LIGAND FREE ENERGY PREDICTED BY IDOCK:   25.78 KCAL/MOL
REMARK 924 INTRA-LIGAND FREE ENERGY PREDICTED BY IDOCK:    0.34 KCAL/MOL
REMARK 927      BINDING AFFINITY PREDICTED BY RF-SCORE:    0.00 PKD
ROOT
HETATM    1  O   UNL     1     -11.140   8.253  69.664  1.00  0.00    -0.421 OA 
HETATM    2  C   UNL     1     -10.476   9.345  70.305  1.00  0.00    -0.251 C  
HETATM    3  H   UNL     1     -12.053   8.489  69.543  1.00  0.00     0.000 HD 
HETATM    4  C   UNL     1     -11.273   9.558  71.607  1.00  0.00    -0.378 A  
HETATM    5  C   UNL     1      -8.987   8.959  70.504  1.00  0.00    -0.224 C  
HETATM    6  C   UNL     1     -10.476  10.664  69.389  1.00  0.00    -0.252 C  
HETATM    7  C   UNL     1     -12.665   9.300  71.636  1.00  0.00    -0.442 A  
HETATM    8  C   UNL     1     -10.686   9.999  72.800  1.00  0.00     5.056 A  
HETATM    9  C   UNL     1     -11.893  11.140  68.967  1.00  0.00    -0.418 C  
HETATM   10  C   UNL     1     -11.444  10.136  73.975  1.00  0.00    14.411 A  
HETATM   11  C   UNL     1     -11.215  11.981  66.801  1.00  0.00    -0.376 C  
HETATM   12  C   UNL     1     -11.951  10.830  67.450  1.00  0.00     0.997 C  
HETATM   13  C   UNL     1      -9.928  11.832  67.153  1.00  0.00    -0.221 C  
HETATM   14  C   UNL     1     -10.878   9.768  67.199  1.00  0.00    -0.207 C  
HETATM   15  C   UNL     1     -12.824   9.872  73.971  1.00  0.00     9.198 A  
HETATM   16  C   UNL     1      -9.806  10.535  67.965  1.00  0.00    -0.166 C  
HETATM   17  C   UNL     1     -13.436   9.477  72.792  1.00  0.00    -0.085 A  
ENDROOT
BRANCH   5  18
HETATM   18  C   UNL     1      -8.619   7.691  71.299  1.00  0.00    -0.120 C  
BRANCH  18  19
HETATM   19  N   UNL     1      -7.228   7.307  70.965  1.00  0.00    -0.072 NA 
HETATM   20  C   UNL     1      -6.385   9.441  69.966  1.00  0.00    -0.047 C  
HETATM   21  C   UNL     1      -6.686   7.958  69.762  1.00  0.00    -0.038 C  
HETATM   22  C   UNL     1      -5.379   9.619  71.095  1.00  0.00    -0.059 C  
HETATM   23  C   UNL     1      -5.831   8.891  72.358  1.00  0.00    -0.071 C  
HETATM   24  C   UNL     1      -6.285   7.453  72.081  1.00  0.00    -0.040 C  
ENDBRANCH  18  19
ENDBRANCH   5  18
TORSDOF 2
ENDMDL
MODEL      153
REMARK 921   NORMALIZED FREE ENERGY PREDICTED BY IDOCK:   27.91 KCAL/MOL
REMARK 922        TOTAL FREE ENERGY PREDICTED BY IDOCK:   30.59 KCAL/MOL
REMARK 923 INTER-LIGAND FREE ENERGY PREDICTED BY IDOCK:   31.19 KCAL/MOL
REMARK 924 INTRA-LIGAND FREE ENERGY PREDICTED BY IDOCK:   -0.61 KCAL/MOL
REMARK 927      BINDING AFFINITY PREDICTED BY RF-SCORE:    0.00 PKD
ROOT
HETATM    1  O   UNL     1     -12.001   8.898  69.690  1.00  0.00    -0.038 OA 
HETATM    2  C   UNL     1     -11.342   9.989  70.337  1.00  0.00    -0.320 C  
HETATM    3  H   UNL     1     -12.912   9.134  69.558  1.00  0.00     0.000 HD 
HETATM    4  C   UNL     1     -12.153  10.204  71.630  1.00  0.00    -0.373 A  
HETATM    5  C   UNL     1      -9.855   9.602  70.552  1.00  0.00    -0.294 C  
HETATM    6  C   UNL     1     -11.331  11.308  69.421  1.00  0.00    -0.360 C  
HETATM    7  C   UNL     1     -13.546   9.947  71.644  1.00  0.00    -0.340 A  
HETATM    8  C   UNL     1     -11.579  10.644  72.829  1.00  0.00     5.175 A  
HETATM    9  C   UNL     1     -12.744  11.785  68.983  1.00  0.00     0.963 C  
HETATM   10  C   UNL     1     -12.350  10.783  73.996  1.00  0.00    14.441 A  
HETATM   11  C   UNL     1     -12.041  12.624  66.825  1.00  0.00    -0.236 C  
HETATM   12  C   UNL     1     -12.785  11.475  67.466  1.00  0.00     3.021 C  
HETATM   13  C   UNL     1     -10.758  12.475  67.190  1.00  0.00    -0.263 C  
HETATM   14  C   UNL     1     -11.710  10.411  67.227  1.00  0.00     0.973 C  
HETATM   15  C   UNL     1     -13.730  10.520  73.978  1.00  0.00     9.036 A  
HETATM   16  C   UNL     1     -10.646  11.178  68.004  1.00  0.00    -0.233 C  
HETATM   17  C   UNL     1     -14.329  10.124  72.792  1.00  0.00     1.162 A  
ENDROOT
BRANCH   5  18
HETATM   18  C   UNL     1      -9.497   8.334  71.352  1.00  0.00    -0.175 C  
BRANCH  18  19
HETATM   19  N   UNL     1      -8.466   7.577  70.605  1.00  0.00    -0.130 NA 
HETATM   20  C   UNL     1      -9.351   5.247  70.824  1.00  0.00    -0.205 C  
HETATM   21  C   UNL     1      -8.213   6.221  71.115  1.00  0.00    -0.123 C  
HETATM   22  C   UNL     1      -9.584   5.151  69.323  1.00  0.00    -0.223 C  
HETATM   23  C   UNL     1      -9.767   6.535  68.702  1.00  0.00    -0.128 C  
HETATM   24  C   UNL     1      -8.694   7.531  69.155  1.00  0.00    -0.136 C  
ENDBRANCH  18  19
ENDBRANCH   5  18
TORSDOF 2
ENDMDL
