MODEL        1
REMARK 921   NORMALIZED FREE ENERGY PREDICTED BY IDOCK:   -7.33 KCAL/MOL
REMARK 922        TOTAL FREE ENERGY PREDICTED BY IDOCK:   -9.39 KCAL/MOL
REMARK 923 INTER-LIGAND FREE ENERGY PREDICTED BY IDOCK:   -9.05 KCAL/MOL
REMARK 924 INTRA-LIGAND FREE ENERGY PREDICTED BY IDOCK:   -0.34 KCAL/MOL
REMARK 927      BINDING AFFINITY PREDICTED BY RF-SCORE:    0.00 PKD
ROOT
HETATM    1  C   UNL     1     -11.256   8.062  72.335  1.00  0.00    -0.432 C  
HETATM    2  C   UNL     1     -10.680   8.034  70.950  1.00  0.00    -0.221 C  
HETATM    3  O   UNL     1     -10.908   7.151  70.133  1.00  0.00    -0.243 OA 
ENDROOT
BRANCH   2   4
HETATM    4  O   UNL     1      -9.861   9.153  70.778  1.00  0.00    -0.225 OA 
BRANCH   4   5
HETATM    5  C   UNL     1     -10.294  10.119  69.856  1.00  0.00    -0.261 A  
HETATM    6  C   UNL     1     -11.638  10.463  69.764  1.00  0.00    -0.339 A  
HETATM    7  C   UNL     1     -12.034  11.465  68.885  1.00  0.00    -0.371 A  
HETATM    8  C   UNL     1     -11.090  12.177  68.120  1.00  0.00    -0.295 A  
HETATM    9  C   UNL     1     -11.599  13.268  67.167  1.00  0.00    -0.402 C  
HETATM   10  C   UNL     1      -9.729  11.854  68.268  1.00  0.00    -0.200 A  
HETATM   11  C   UNL     1     -11.606  12.832  65.696  1.00  0.00    -0.370 A  
HETATM   12  C   UNL     1      -9.331  10.818  69.127  1.00  0.00    -0.141 A  
HETATM   13  C   UNL     1     -11.142  14.691  67.529  1.00  0.00    -0.319 A  
HETATM   14  C   UNL     1     -10.445  12.511  64.991  1.00  0.00    -0.323 A  
HETATM   15  C   UNL     1     -10.420  15.542  66.680  1.00  0.00    -0.299 A  
HETATM   16  C   UNL     1     -10.546  12.059  63.675  1.00  0.00    -0.503 A  
HETATM   17  C   UNL     1     -10.137  16.866  67.061  1.00  0.00    -0.289 A  
HETATM   18  C   UNL     1     -11.800  11.921  63.091  1.00  0.00    -0.269 A  
HETATM   19  C   UNL     1     -10.587  17.360  68.288  1.00  0.00    -0.366 A  
HETATM   20  C   UNL     1     -11.275  16.528  69.161  1.00  0.00    -0.221 A  
HETATM   21  C   UNL     1     -12.906  12.248  63.849  1.00  0.00    -0.298 A  
HETATM   22  C   UNL     1     -11.545  15.209  68.782  1.00  0.00    -0.369 A  
HETATM   23  N   UNL     1     -12.835  12.703  65.120  1.00  0.00    -0.743 NA 
BRANCH  19  24
HETATM   24  O   UNL     1     -10.226  18.685  68.624  1.00  0.00    -0.375 OA 
BRANCH  24  25
HETATM   25  C   UNL     1      -8.946  19.182  68.356  1.00  0.00    -0.349 C  
HETATM   26  O   UNL     1      -7.892  18.802  68.848  1.00  0.00    -0.319 OA 
HETATM   27  C   UNL     1      -9.041  20.259  67.311  1.00  0.00    -0.504 C  
ENDBRANCH  24  25
ENDBRANCH  19  24
ENDBRANCH   4   5
ENDBRANCH   2   4
TORSDOF 4
ENDMDL
MODEL        2
REMARK 921   NORMALIZED FREE ENERGY PREDICTED BY IDOCK:   -7.31 KCAL/MOL
REMARK 922        TOTAL FREE ENERGY PREDICTED BY IDOCK:   -9.36 KCAL/MOL
REMARK 923 INTER-LIGAND FREE ENERGY PREDICTED BY IDOCK:   -8.91 KCAL/MOL
REMARK 924 INTRA-LIGAND FREE ENERGY PREDICTED BY IDOCK:   -0.44 KCAL/MOL
REMARK 927      BINDING AFFINITY PREDICTED BY RF-SCORE:    0.00 PKD
ROOT
HETATM    1  C   UNL     1     -11.883   8.064  72.378  1.00  0.00    -0.429 C  
HETATM    2  C   UNL     1     -11.174   8.111  71.057  1.00  0.00    -0.258 C  
HETATM    3  O   UNL     1     -11.306   7.267  70.180  1.00  0.00    -0.266 OA 
ENDROOT
BRANCH   2   4
HETATM    4  O   UNL     1     -10.363   9.248  71.019  1.00  0.00    -0.269 OA 
BRANCH   4   5
HETATM    5  C   UNL     1     -10.636  10.188  70.012  1.00  0.00    -0.287 A  
HETATM    6  C   UNL     1     -11.906  10.737  69.876  1.00  0.00    -0.413 A  
HETATM    7  C   UNL     1     -12.137  11.710  68.910  1.00  0.00    -0.253 A  
HETATM    8  C   UNL     1     -11.092  12.189  68.096  1.00  0.00    -0.295 A  
HETATM    9  C   UNL     1     -11.421  13.261  67.046  1.00  0.00    -0.378 C  
HETATM   10  C   UNL     1      -9.802  11.663  68.285  1.00  0.00    -0.199 A  
HETATM   11  C   UNL     1     -11.505  12.705  65.619  1.00  0.00    -0.350 A  
HETATM   12  C   UNL     1      -9.575  10.654  69.235  1.00  0.00    -0.164 A  
HETATM   13  C   UNL     1     -10.736  14.617  67.289  1.00  0.00    -0.290 A  
HETATM   14  C   UNL     1     -10.414  12.139  64.957  1.00  0.00    -0.326 A  
HETATM   15  C   UNL     1      -9.888  15.261  66.377  1.00  0.00    -0.295 A  
HETATM   16  C   UNL     1     -10.593  11.596  63.683  1.00  0.00    -0.493 A  
HETATM   17  C   UNL     1      -9.391  16.550  66.644  1.00  0.00    -0.279 A  
HETATM   18  C   UNL     1     -11.854  11.615  63.100  1.00  0.00    -0.098 A  
HETATM   19  C   UNL     1      -9.749  17.215  67.819  1.00  0.00    -0.271 A  
HETATM   20  C   UNL     1     -10.560  16.586  68.754  1.00  0.00    -0.322 A  
HETATM   21  C   UNL     1     -12.890  12.183  63.817  1.00  0.00    -0.333 A  
HETATM   22  C   UNL     1     -11.044  15.300  68.488  1.00  0.00    -0.284 A  
HETATM   23  N   UNL     1     -12.741  12.728  65.044  1.00  0.00    -0.760 NA 
BRANCH  19  24
HETATM   24  O   UNL     1      -9.176  18.487  68.042  1.00  0.00    -0.283 OA 
BRANCH  24  25
HETATM   25  C   UNL     1      -9.940  19.656  67.960  1.00  0.00    -0.427 C  
HETATM   26  O   UNL     1     -10.418  20.289  68.893  1.00  0.00    -0.284 OA 
HETATM   27  C   UNL     1     -10.063  20.069  66.520  1.00  0.00    -0.606 C  
ENDBRANCH  24  25
ENDBRANCH  19  24
ENDBRANCH   4   5
ENDBRANCH   2   4
TORSDOF 4
ENDMDL
MODEL        3
REMARK 921   NORMALIZED FREE ENERGY PREDICTED BY IDOCK:   -7.11 KCAL/MOL
REMARK 922        TOTAL FREE ENERGY PREDICTED BY IDOCK:   -9.12 KCAL/MOL
REMARK 923 INTER-LIGAND FREE ENERGY PREDICTED BY IDOCK:   -8.63 KCAL/MOL
REMARK 924 INTRA-LIGAND FREE ENERGY PREDICTED BY IDOCK:   -0.48 KCAL/MOL
REMARK 927      BINDING AFFINITY PREDICTED BY RF-SCORE:    0.00 PKD
ROOT
HETATM    1  C   UNL     1      -6.022  19.197  66.778  1.00  0.00    -0.169 C  
HETATM    2  C   UNL     1      -7.348  18.542  66.524  1.00  0.00    -0.232 C  
HETATM    3  O   UNL     1      -7.555  17.749  65.613  1.00  0.00    -0.541 OA 
ENDROOT
BRANCH   2   4
HETATM    4  O   UNL     1      -8.266  18.995  67.474  1.00  0.00    -0.271 OA 
BRANCH   4   5
HETATM    5  C   UNL     1      -9.168  18.048  67.985  1.00  0.00    -0.272 A  
HETATM    6  C   UNL     1     -10.498  18.040  67.579  1.00  0.00    -0.408 A  
HETATM    7  C   UNL     1     -11.358  17.056  68.054  1.00  0.00     0.146 A  
HETATM    8  C   UNL     1     -10.894  16.032  68.903  1.00  0.00    -0.286 A  
HETATM    9  C   UNL     1     -11.902  14.981  69.393  1.00  0.00    -0.358 C  
HETATM   10  C   UNL     1      -9.534  16.024  69.259  1.00  0.00    -0.245 A  
HETATM   11  C   UNL     1     -12.343  15.198  70.845  1.00  0.00    -0.354 A  
HETATM   12  C   UNL     1      -8.672  17.038  68.810  1.00  0.00    -0.244 A  
HETATM   13  C   UNL     1     -11.621  13.554  68.894  1.00  0.00    -0.364 A  
HETATM   14  C   UNL     1     -11.466  15.118  71.928  1.00  0.00    -0.457 A  
HETATM   15  C   UNL     1     -11.417  12.441  69.722  1.00  0.00    -0.220 A  
HETATM   16  C   UNL     1     -11.937  15.395  73.213  1.00  0.00    -0.566 A  
HETATM   17  C   UNL     1     -11.271  11.154  69.173  1.00  0.00    -0.328 A  
HETATM   18  C   UNL     1     -13.266  15.757  73.393  1.00  0.00    -0.653 A  
HETATM   19  C   UNL     1     -11.345  10.963  67.791  1.00  0.00    -0.292 A  
HETATM   20  C   UNL     1     -11.513  12.053  66.948  1.00  0.00    -0.402 A  
HETATM   21  C   UNL     1     -14.076  15.824  72.276  1.00  0.00    -0.368 A  
HETATM   22  C   UNL     1     -11.647  13.332  67.498  1.00  0.00    -0.388 A  
HETATM   23  N   UNL     1     -13.649  15.548  71.024  1.00  0.00    -0.553 NA 
BRANCH  19  24
HETATM   24  O   UNL     1     -11.144   9.650  67.308  1.00  0.00    -0.151 OA 
BRANCH  24  25
HETATM   25  C   UNL     1      -9.859   9.145  67.081  1.00  0.00    -0.195 C  
HETATM   26  O   UNL     1      -9.119   8.620  67.904  1.00  0.00    -0.139 OA 
HETATM   27  C   UNL     1      -9.513   9.301  65.627  1.00  0.00    -0.324 C  
ENDBRANCH  24  25
ENDBRANCH  19  24
ENDBRANCH   4   5
ENDBRANCH   2   4
TORSDOF 4
ENDMDL
MODEL        4
REMARK 921   NORMALIZED FREE ENERGY PREDICTED BY IDOCK:   -6.95 KCAL/MOL
REMARK 922        TOTAL FREE ENERGY PREDICTED BY IDOCK:   -8.91 KCAL/MOL
REMARK 923 INTER-LIGAND FREE ENERGY PREDICTED BY IDOCK:   -8.58 KCAL/MOL
REMARK 924 INTRA-LIGAND FREE ENERGY PREDICTED BY IDOCK:   -0.33 KCAL/MOL
REMARK 927      BINDING AFFINITY PREDICTED BY RF-SCORE:    0.00 PKD
ROOT
HETATM    1  C   UNL     1      -6.143   6.382  66.913  1.00  0.00    -0.025 C  
HETATM    2  C   UNL     1      -6.105   7.881  66.889  1.00  0.00    -0.053 C  
HETATM    3  O   UNL     1      -5.633   8.538  65.970  1.00  0.00    -0.041 OA 
ENDROOT
BRANCH   2   4
HETATM    4  O   UNL     1      -6.676   8.367  68.068  1.00  0.00    -0.063 OA 
BRANCH   4   5
HETATM    5  C   UNL     1      -7.810   9.184  67.933  1.00  0.00    -0.100 A  
HETATM    6  C   UNL     1      -9.045   8.637  67.604  1.00  0.00    -0.145 A  
HETATM    7  C   UNL     1     -10.166   9.459  67.534  1.00  0.00    -0.288 A  
HETATM    8  C   UNL     1     -10.083  10.831  67.841  1.00  0.00    -0.197 A  
HETATM    9  C   UNL     1     -11.360  11.678  67.738  1.00  0.00    -0.356 C  
HETATM   10  C   UNL     1      -8.836  11.355  68.225  1.00  0.00    -0.167 A  
HETATM   11  C   UNL     1     -11.407  12.550  66.478  1.00  0.00    -0.334 A  
HETATM   12  C   UNL     1      -7.697  10.536  68.261  1.00  0.00    -0.101 A  
HETATM   13  C   UNL     1     -11.844  12.259  69.077  1.00  0.00    -0.358 A  
HETATM   14  C   UNL     1     -10.495  13.577  66.227  1.00  0.00    -0.290 A  
HETATM   15  C   UNL     1     -12.032  13.624  69.337  1.00  0.00    -0.394 A  
HETATM   16  C   UNL     1     -10.568  14.279  65.023  1.00  0.00    -0.444 A  
HETATM   17  C   UNL     1     -12.579  14.054  70.560  1.00  0.00    -0.399 A  
HETATM   18  C   UNL     1     -11.539  13.939  64.088  1.00  0.00    -0.323 A  
HETATM   19  C   UNL     1     -12.960  13.124  71.529  1.00  0.00    -0.321 A  
HETATM   20  C   UNL     1     -12.753  11.769  71.310  1.00  0.00    -0.420 A  
HETATM   21  C   UNL     1     -12.403  12.907  64.398  1.00  0.00    -0.398 A  
HETATM   22  C   UNL     1     -12.199  11.347  70.097  1.00  0.00    -0.401 A  
HETATM   23  N   UNL     1     -12.362  12.221  65.562  1.00  0.00    -0.566 NA 
BRANCH  19  24
HETATM   24  O   UNL     1     -13.459  13.630  72.751  1.00  0.00    -0.624 OA 
BRANCH  24  25
HETATM   25  C   UNL     1     -13.392  14.993  73.057  1.00  0.00    -0.467 C  
HETATM   26  O   UNL     1     -14.120  15.880  72.631  1.00  0.00    -0.544 OA 
HETATM   27  C   UNL     1     -12.288  15.225  74.052  1.00  0.00    -0.767 C  
ENDBRANCH  24  25
ENDBRANCH  19  24
ENDBRANCH   4   5
ENDBRANCH   2   4
TORSDOF 4
ENDMDL
MODEL        5
REMARK 921   NORMALIZED FREE ENERGY PREDICTED BY IDOCK:   -6.95 KCAL/MOL
REMARK 922        TOTAL FREE ENERGY PREDICTED BY IDOCK:   -8.91 KCAL/MOL
REMARK 923 INTER-LIGAND FREE ENERGY PREDICTED BY IDOCK:   -8.45 KCAL/MOL
REMARK 924 INTRA-LIGAND FREE ENERGY PREDICTED BY IDOCK:   -0.46 KCAL/MOL
REMARK 927      BINDING AFFINITY PREDICTED BY RF-SCORE:    0.00 PKD
ROOT
HETATM    1  C   UNL     1     -11.508   6.639  70.149  1.00  0.00    -0.444 C  
HETATM    2  C   UNL     1     -11.892   7.698  71.139  1.00  0.00    -0.293 C  
HETATM    3  O   UNL     1     -12.929   7.681  71.791  1.00  0.00    -0.330 OA 
ENDROOT
BRANCH   2   4
HETATM    4  O   UNL     1     -10.892   8.672  71.171  1.00  0.00    -0.234 OA 
BRANCH   4   5
HETATM    5  C   UNL     1     -10.980   9.703  70.222  1.00  0.00    -0.285 A  
HETATM    6  C   UNL     1     -12.107  10.515  70.157  1.00  0.00    -0.380 A  
HETATM    7  C   UNL     1     -12.147  11.567  69.248  1.00  0.00    -0.344 A  
HETATM    8  C   UNL     1     -11.042  11.859  68.424  1.00  0.00    -0.292 A  
HETATM    9  C   UNL     1     -11.158  13.033  67.440  1.00  0.00    -0.302 C  
HETATM   10  C   UNL     1      -9.891  11.062  68.543  1.00  0.00    -0.194 A  
HETATM   11  C   UNL     1     -11.391  12.588  65.991  1.00  0.00    -0.344 A  
HETATM   12  C   UNL     1      -9.862   9.976  69.433  1.00  0.00    -0.240 A  
HETATM   13  C   UNL     1     -10.195  14.197  67.726  1.00  0.00    -0.242 A  
HETATM   14  C   UNL     1     -10.462  11.841  65.265  1.00  0.00    -0.320 A  
HETATM   15  C   UNL     1      -9.250  14.697  66.819  1.00  0.00    -0.285 A  
HETATM   16  C   UNL     1     -10.782  11.420  63.973  1.00  0.00    -0.450 A  
HETATM   17  C   UNL     1      -8.483  15.834  67.133  1.00  0.00    -0.235 A  
HETATM   18  C   UNL     1     -12.023  11.738  63.435  1.00  0.00    -0.443 A  
HETATM   19  C   UNL     1      -8.665  16.494  68.351  1.00  0.00    -0.218 A  
HETATM   20  C   UNL     1      -9.570  15.999  69.280  1.00  0.00    -0.255 A  
HETATM   21  C   UNL     1     -12.897  12.472  64.213  1.00  0.00    -0.255 A  
HETATM   22  C   UNL     1     -10.322  14.862  68.967  1.00  0.00    -0.245 A  
HETATM   23  N   UNL     1     -12.607  12.904  65.460  1.00  0.00    -0.583 NA 
BRANCH  19  24
HETATM   24  O   UNL     1      -7.828  17.601  68.617  1.00  0.00    -0.276 OA 
BRANCH  24  25
HETATM   25  C   UNL     1      -8.255  18.912  68.380  1.00  0.00    -0.342 C  
HETATM   26  O   UNL     1      -9.135  19.518  68.977  1.00  0.00    -0.355 OA 
HETATM   27  C   UNL     1      -7.428  19.512  67.278  1.00  0.00    -0.260 C  
ENDBRANCH  24  25
ENDBRANCH  19  24
ENDBRANCH   4   5
ENDBRANCH   2   4
TORSDOF 4
ENDMDL
MODEL        6
REMARK 921   NORMALIZED FREE ENERGY PREDICTED BY IDOCK:   -6.85 KCAL/MOL
REMARK 922        TOTAL FREE ENERGY PREDICTED BY IDOCK:   -8.80 KCAL/MOL
REMARK 923 INTER-LIGAND FREE ENERGY PREDICTED BY IDOCK:   -8.32 KCAL/MOL
REMARK 924 INTRA-LIGAND FREE ENERGY PREDICTED BY IDOCK:   -0.47 KCAL/MOL
REMARK 927      BINDING AFFINITY PREDICTED BY RF-SCORE:    0.00 PKD
ROOT
HETATM    1  C   UNL     1     -11.766   8.170  72.556  1.00  0.00    -0.457 C  
HETATM    2  C   UNL     1     -11.189   8.155  71.171  1.00  0.00    -0.257 C  
HETATM    3  O   UNL     1     -11.497   7.340  70.311  1.00  0.00    -0.271 OA 
ENDROOT
BRANCH   2   4
HETATM    4  O   UNL     1     -10.266   9.197  71.054  1.00  0.00    -0.251 OA 
BRANCH   4   5
HETATM    5  C   UNL     1     -10.507  10.148  70.050  1.00  0.00    -0.274 A  
HETATM    6  C   UNL     1     -11.707  10.847  70.006  1.00  0.00    -0.427 A  
HETATM    7  C   UNL     1     -11.899  11.827  69.037  1.00  0.00    -0.379 A  
HETATM    8  C   UNL     1     -10.877  12.161  68.128  1.00  0.00    -0.256 A  
HETATM    9  C   UNL     1     -11.161  13.250  67.082  1.00  0.00    -0.327 C  
HETATM   10  C   UNL     1      -9.650  11.482  68.224  1.00  0.00    -0.189 A  
HETATM   11  C   UNL     1     -11.433  12.687  65.682  1.00  0.00    -0.350 A  
HETATM   12  C   UNL     1      -9.466  10.468  69.177  1.00  0.00    -0.205 A  
HETATM   13  C   UNL     1     -10.298  14.514  67.233  1.00  0.00    -0.260 A  
HETATM   14  C   UNL     1     -10.480  11.981  64.946  1.00  0.00    -0.325 A  
HETATM   15  C   UNL     1      -9.459  15.035  66.238  1.00  0.00    -0.342 A  
HETATM   16  C   UNL     1     -10.832  11.445  63.706  1.00  0.00    -0.468 A  
HETATM   17  C   UNL     1      -8.787  16.256  66.431  1.00  0.00    -0.346 A  
HETATM   18  C   UNL     1     -12.126  11.611  63.229  1.00  0.00    -0.255 A  
HETATM   19  C   UNL     1      -8.961  16.978  67.614  1.00  0.00    -0.221 A  
HETATM   20  C   UNL     1      -9.760  16.468  68.628  1.00  0.00    -0.247 A  
HETATM   21  C   UNL     1     -13.020  12.313  64.014  1.00  0.00    -0.186 A  
HETATM   22  C   UNL     1     -10.417  15.248  68.436  1.00  0.00    -0.236 A  
HETATM   23  N   UNL     1     -12.702  12.854  65.210  1.00  0.00    -0.688 NA 
BRANCH  19  24
HETATM   24  O   UNL     1      -8.220  18.173  67.757  1.00  0.00    -0.236 OA 
BRANCH  24  25
HETATM   25  C   UNL     1      -7.210  18.295  68.718  1.00  0.00    -0.279 C  
HETATM   26  O   UNL     1      -6.451  17.415  69.102  1.00  0.00    -0.217 OA 
HETATM   27  C   UNL     1      -7.155  19.716  69.203  1.00  0.00    -0.378 C  
ENDBRANCH  24  25
ENDBRANCH  19  24
ENDBRANCH   4   5
ENDBRANCH   2   4
TORSDOF 4
ENDMDL
MODEL        7
REMARK 921   NORMALIZED FREE ENERGY PREDICTED BY IDOCK:   -6.72 KCAL/MOL
REMARK 922        TOTAL FREE ENERGY PREDICTED BY IDOCK:   -8.64 KCAL/MOL
REMARK 923 INTER-LIGAND FREE ENERGY PREDICTED BY IDOCK:   -8.47 KCAL/MOL
REMARK 924 INTRA-LIGAND FREE ENERGY PREDICTED BY IDOCK:   -0.17 KCAL/MOL
REMARK 927      BINDING AFFINITY PREDICTED BY RF-SCORE:    0.00 PKD
ROOT
HETATM    1  C   UNL     1      -8.188   7.638  69.840  1.00  0.00    -0.130 C  
HETATM    2  C   UNL     1      -8.359   8.874  70.673  1.00  0.00    -0.166 C  
HETATM    3  O   UNL     1      -7.432   9.473  71.204  1.00  0.00    -0.324 OA 
ENDROOT
BRANCH   2   4
HETATM    4  O   UNL     1      -9.717   9.195  70.734  1.00  0.00    -0.228 OA 
BRANCH   4   5
HETATM    5  C   UNL     1     -10.188  10.139  69.807  1.00  0.00    -0.247 A  
HETATM    6  C   UNL     1     -11.543  10.437  69.723  1.00  0.00    -0.339 A  
HETATM    7  C   UNL     1     -11.978  11.419  68.839  1.00  0.00    -0.371 A  
HETATM    8  C   UNL     1     -11.064  12.154  68.060  1.00  0.00    -0.292 A  
HETATM    9  C   UNL     1     -11.616  13.220  67.101  1.00  0.00    -0.402 C  
HETATM   10  C   UNL     1      -9.693  11.877  68.200  1.00  0.00    -0.194 A  
HETATM   11  C   UNL     1     -11.621  12.770  65.635  1.00  0.00    -0.370 A  
HETATM   12  C   UNL     1      -9.254  10.861  69.064  1.00  0.00    -0.128 A  
HETATM   13  C   UNL     1     -11.203  14.660  67.448  1.00  0.00    -0.351 A  
HETATM   14  C   UNL     1     -10.455  12.481  64.923  1.00  0.00    -0.328 A  
HETATM   15  C   UNL     1     -10.515  15.526  66.586  1.00  0.00    -0.299 A  
HETATM   16  C   UNL     1     -10.552  12.014  63.612  1.00  0.00    -0.503 A  
HETATM   17  C   UNL     1     -10.272  16.862  66.953  1.00  0.00    -0.296 A  
HETATM   18  C   UNL     1     -11.805  11.831  63.039  1.00  0.00    -0.003 A  
HETATM   19  C   UNL     1     -10.728  17.351  68.179  1.00  0.00    -0.343 A  
HETATM   20  C   UNL     1     -11.382  16.506  69.065  1.00  0.00    -0.181 A  
HETATM   21  C   UNL     1     -12.916  12.129  63.804  1.00  0.00    -0.220 A  
HETATM   22  C   UNL     1     -11.612  15.175  68.699  1.00  0.00    -0.358 A  
HETATM   23  N   UNL     1     -12.849  12.596  65.070  1.00  0.00    -0.816 NA 
BRANCH  19  24
HETATM   24  O   UNL     1     -10.408  18.690  68.500  1.00  0.00    -0.360 OA 
BRANCH  24  25
HETATM   25  C   UNL     1      -9.150  19.229  68.209  1.00  0.00    -0.345 C  
HETATM   26  O   UNL     1      -8.072  18.863  68.657  1.00  0.00    -0.337 OA 
HETATM   27  C   UNL     1      -9.304  20.335  67.202  1.00  0.00    -0.536 C  
ENDBRANCH  24  25
ENDBRANCH  19  24
ENDBRANCH   4   5
ENDBRANCH   2   4
TORSDOF 4
ENDMDL
MODEL        8
REMARK 921   NORMALIZED FREE ENERGY PREDICTED BY IDOCK:   -6.70 KCAL/MOL
REMARK 922        TOTAL FREE ENERGY PREDICTED BY IDOCK:   -8.60 KCAL/MOL
REMARK 923 INTER-LIGAND FREE ENERGY PREDICTED BY IDOCK:   -8.37 KCAL/MOL
REMARK 924 INTRA-LIGAND FREE ENERGY PREDICTED BY IDOCK:   -0.23 KCAL/MOL
REMARK 927      BINDING AFFINITY PREDICTED BY RF-SCORE:    0.00 PKD
ROOT
HETATM    1  C   UNL     1      -5.981  21.047  67.490  1.00  0.00    -0.374 C  
HETATM    2  C   UNL     1      -7.309  20.587  66.965  1.00  0.00    -0.322 C  
HETATM    3  O   UNL     1      -7.501  20.232  65.808  1.00  0.00    -0.276 OA 
ENDROOT
BRANCH   2   4
HETATM    4  O   UNL     1      -8.249  20.646  67.996  1.00  0.00    -0.038 OA 
BRANCH   4   5
HETATM    5  C   UNL     1      -9.050  19.510  68.190  1.00  0.00    -0.339 A  
HETATM    6  C   UNL     1     -10.366  19.482  67.745  1.00  0.00    -0.575 A  
HETATM    7  C   UNL     1     -11.121  18.324  67.896  1.00  0.00     0.116 A  
HETATM    8  C   UNL     1     -10.560  17.156  68.447  1.00  0.00    -0.371 A  
HETATM    9  C   UNL     1     -11.453  15.915  68.588  1.00  0.00    -0.391 C  
HETATM   10  C   UNL     1      -9.210  17.186  68.841  1.00  0.00    -0.200 A  
HETATM   11  C   UNL     1     -11.931  15.673  70.025  1.00  0.00    -0.368 A  
HETATM   12  C   UNL     1      -8.457  18.365  68.724  1.00  0.00    -0.252 A  
HETATM   13  C   UNL     1     -11.016  14.718  67.727  1.00  0.00    -0.294 A  
HETATM   14  C   UNL     1     -11.062  15.384  71.078  1.00  0.00    -0.377 A  
HETATM   15  C   UNL     1     -10.703  13.445  68.223  1.00  0.00    -0.273 A  
HETATM   16  C   UNL     1     -11.574  15.244  72.370  1.00  0.00    -0.515 A  
HETATM   17  C   UNL     1     -10.414  12.383  67.347  1.00  0.00    -0.229 A  
HETATM   18  C   UNL     1     -12.936  15.407  72.589  1.00  0.00    -0.521 A  
HETATM   19  C   UNL     1     -10.452  12.578  65.965  1.00  0.00    -0.258 A  
HETATM   20  C   UNL     1     -10.727  13.836  65.448  1.00  0.00    -0.320 A  
HETATM   21  C   UNL     1     -13.736  15.701  71.503  1.00  0.00    -0.338 A  
HETATM   22  C   UNL     1     -11.003  14.892  66.323  1.00  0.00    -0.338 A  
HETATM   23  N   UNL     1     -13.269  15.827  70.241  1.00  0.00    -0.118 NA 
BRANCH  19  24
HETATM   24  O   UNL     1     -10.106  11.478  65.147  1.00  0.00    -0.244 OA 
BRANCH  24  25
HETATM   25  C   UNL     1     -10.496  11.416  63.805  1.00  0.00    -0.399 C  
HETATM   26  O   UNL     1     -11.573  11.759  63.335  1.00  0.00    -0.410 OA 
HETATM   27  C   UNL     1      -9.354  10.891  62.980  1.00  0.00    -0.349 C  
ENDBRANCH  24  25
ENDBRANCH  19  24
ENDBRANCH   4   5
ENDBRANCH   2   4
TORSDOF 4
ENDMDL
MODEL        9
REMARK 921   NORMALIZED FREE ENERGY PREDICTED BY IDOCK:   -6.67 KCAL/MOL
REMARK 922        TOTAL FREE ENERGY PREDICTED BY IDOCK:   -8.57 KCAL/MOL
REMARK 923 INTER-LIGAND FREE ENERGY PREDICTED BY IDOCK:   -8.20 KCAL/MOL
REMARK 924 INTRA-LIGAND FREE ENERGY PREDICTED BY IDOCK:   -0.37 KCAL/MOL
REMARK 927      BINDING AFFINITY PREDICTED BY RF-SCORE:    0.00 PKD
ROOT
HETATM    1  C   UNL     1     -12.178  15.246  73.715  1.00  0.00    -0.706 C  
HETATM    2  C   UNL     1     -13.029  15.714  72.572  1.00  0.00    -0.452 C  
HETATM    3  O   UNL     1     -14.251  15.628  72.550  1.00  0.00    -0.557 OA 
ENDROOT
BRANCH   2   4
HETATM    4  O   UNL     1     -12.202  16.234  71.574  1.00  0.00    -0.391 OA 
BRANCH   4   5
HETATM    5  C   UNL     1     -11.759  15.339  70.586  1.00  0.00    -0.332 A  
HETATM    6  C   UNL     1     -10.479  15.443  70.055  1.00  0.00    -0.301 A  
HETATM    7  C   UNL     1     -10.043  14.509  69.121  1.00  0.00    -0.145 A  
HETATM    8  C   UNL     1     -10.858  13.426  68.740  1.00  0.00    -0.275 A  
HETATM    9  C   UNL     1     -10.313  12.436  67.700  1.00  0.00    -0.223 C  
HETATM   10  C   UNL     1     -12.129  13.306  69.329  1.00  0.00    -0.291 A  
HETATM   11  C   UNL     1     -10.913  12.635  66.302  1.00  0.00    -0.283 A  
HETATM   12  C   UNL     1     -12.586  14.268  70.244  1.00  0.00    -0.378 A  
HETATM   13  C   UNL     1     -10.101  11.009  68.233  1.00  0.00    -0.191 A  
HETATM   14  C   UNL     1     -12.268  12.455  66.022  1.00  0.00    -0.169 A  
HETATM   15  C   UNL     1     -10.696   9.857  67.701  1.00  0.00    -0.339 A  
HETATM   16  C   UNL     1     -12.744  12.722  64.737  1.00  0.00    -0.469 A  
HETATM   17  C   UNL     1     -10.360   8.582  68.191  1.00  0.00    -0.258 A  
HETATM   18  C   UNL     1     -11.864  13.174  63.761  1.00  0.00    -0.546 A  
HETATM   19  C   UNL     1      -9.411   8.443  69.206  1.00  0.00    -0.155 A  
HETATM   20  C   UNL     1      -8.831   9.570  69.773  1.00  0.00    -0.211 A  
HETATM   21  C   UNL     1     -10.538  13.338  64.110  1.00  0.00    -0.309 A  
HETATM   22  C   UNL     1      -9.177  10.837  69.290  1.00  0.00    -0.068 A  
HETATM   23  N   UNL     1     -10.050  13.073  65.342  1.00  0.00    -0.279 NA 
BRANCH  19  24
HETATM   24  O   UNL     1      -9.157   7.136  69.680  1.00  0.00    -0.141 OA 
BRANCH  24  25
HETATM   25  C   UNL     1     -10.186   6.323  70.166  1.00  0.00    -0.189 C  
HETATM   26  O   UNL     1     -10.803   5.467  69.544  1.00  0.00    -0.311 OA 
HETATM   27  C   UNL     1     -10.413   6.624  71.621  1.00  0.00    -0.232 C  
ENDBRANCH  24  25
ENDBRANCH  19  24
ENDBRANCH   4   5
ENDBRANCH   2   4
TORSDOF 4
ENDMDL
MODEL       10
REMARK 921   NORMALIZED FREE ENERGY PREDICTED BY IDOCK:   -6.62 KCAL/MOL
REMARK 922        TOTAL FREE ENERGY PREDICTED BY IDOCK:   -8.51 KCAL/MOL
REMARK 923 INTER-LIGAND FREE ENERGY PREDICTED BY IDOCK:   -8.07 KCAL/MOL
REMARK 924 INTRA-LIGAND FREE ENERGY PREDICTED BY IDOCK:   -0.43 KCAL/MOL
REMARK 927      BINDING AFFINITY PREDICTED BY RF-SCORE:    0.00 PKD
ROOT
HETATM    1  C   UNL     1      -8.491  11.002  62.349  1.00  0.00    -0.319 C  
HETATM    2  C   UNL     1      -9.031  10.025  63.352  1.00  0.00    -0.257 C  
HETATM    3  O   UNL     1      -8.515   8.941  63.595  1.00  0.00    -0.187 OA 
ENDROOT
BRANCH   2   4
HETATM    4  O   UNL     1     -10.188  10.557  63.925  1.00  0.00    -0.303 OA 
BRANCH   4   5
HETATM    5  C   UNL     1     -10.050  11.766  64.626  1.00  0.00    -0.272 A  
HETATM    6  C   UNL     1     -10.642  12.932  64.155  1.00  0.00    -0.442 A  
HETATM    7  C   UNL     1     -10.542  14.104  64.898  1.00  0.00    -0.449 A  
HETATM    8  C   UNL     1      -9.893  14.120  66.148  1.00  0.00    -0.326 A  
HETATM    9  C   UNL     1      -9.816  15.451  66.911  1.00  0.00    -0.251 C  
HETATM   10  C   UNL     1      -9.349  12.918  66.633  1.00  0.00    -0.240 A  
HETATM   11  C   UNL     1      -8.435  16.115  66.831  1.00  0.00    -0.230 A  
HETATM   12  C   UNL     1      -9.417  11.742  65.869  1.00  0.00    -0.239 A  
HETATM   13  C   UNL     1     -10.583  15.463  68.243  1.00  0.00    -0.253 A  
HETATM   14  C   UNL     1      -7.281  15.539  67.365  1.00  0.00    -0.241 A  
HETATM   15  C   UNL     1     -10.014  15.742  69.494  1.00  0.00    -0.283 A  
HETATM   16  C   UNL     1      -6.053  16.179  67.191  1.00  0.00    -0.101 A  
HETATM   17  C   UNL     1     -10.818  15.833  70.645  1.00  0.00    -0.281 A  
HETATM   18  C   UNL     1      -5.995  17.371  66.478  1.00  0.00    -0.245 A  
HETATM   19  C   UNL     1     -12.201  15.662  70.556  1.00  0.00    -0.399 A  
HETATM   20  C   UNL     1     -12.785  15.352  69.335  1.00  0.00     0.216 A  
HETATM   21  C   UNL     1      -7.175  17.878  65.970  1.00  0.00    -0.290 A  
HETATM   22  C   UNL     1     -11.981  15.252  68.195  1.00  0.00    -0.099 A  
HETATM   23  N   UNL     1      -8.378  17.287  66.137  1.00  0.00    -0.484 NA 
BRANCH  19  24
HETATM   24  O   UNL     1     -12.939  15.722  71.760  1.00  0.00    -0.448 OA 
BRANCH  24  25
HETATM   25  C   UNL     1     -12.815  14.732  72.741  1.00  0.00    -0.434 C  
HETATM   26  O   UNL     1     -12.334  14.861  73.859  1.00  0.00    -0.535 OA 
HETATM   27  C   UNL     1     -13.413  13.450  72.232  1.00  0.00    -0.683 C  
ENDBRANCH  24  25
ENDBRANCH  19  24
ENDBRANCH   4   5
ENDBRANCH   2   4
TORSDOF 4
ENDMDL
MODEL       11
REMARK 921   NORMALIZED FREE ENERGY PREDICTED BY IDOCK:   -6.50 KCAL/MOL
REMARK 922        TOTAL FREE ENERGY PREDICTED BY IDOCK:   -8.36 KCAL/MOL
REMARK 923 INTER-LIGAND FREE ENERGY PREDICTED BY IDOCK:   -8.00 KCAL/MOL
REMARK 924 INTRA-LIGAND FREE ENERGY PREDICTED BY IDOCK:   -0.35 KCAL/MOL
REMARK 927      BINDING AFFINITY PREDICTED BY RF-SCORE:    0.00 PKD
ROOT
HETATM    1  C   UNL     1      -9.177   8.388  66.227  1.00  0.00    -0.263 C  
HETATM    2  C   UNL     1     -10.292   8.880  67.103  1.00  0.00    -0.281 C  
HETATM    3  O   UNL     1     -10.603   8.361  68.168  1.00  0.00    -0.197 OA 
ENDROOT
BRANCH   2   4
HETATM    4  O   UNL     1     -10.889   9.987  66.497  1.00  0.00    -0.087 OA 
BRANCH   4   5
HETATM    5  C   UNL     1     -10.812  11.207  67.189  1.00  0.00    -0.273 A  
HETATM    6  C   UNL     1      -9.761  11.464  68.061  1.00  0.00    -0.190 A  
HETATM    7  C   UNL     1      -9.673  12.702  68.689  1.00  0.00    -0.050 A  
HETATM    8  C   UNL     1     -10.605  13.723  68.418  1.00  0.00    -0.261 A  
HETATM    9  C   UNL     1     -10.450  15.063  69.152  1.00  0.00    -0.247 C  
HETATM   10  C   UNL     1     -11.629  13.463  67.490  1.00  0.00    -0.382 A  
HETATM   11  C   UNL     1     -11.451  15.245  70.299  1.00  0.00    -0.297 A  
HETATM   12  C   UNL     1     -11.740  12.202  66.883  1.00  0.00    -0.374 A  
HETATM   13  C   UNL     1     -10.130  16.255  68.234  1.00  0.00    -0.243 A  
HETATM   14  C   UNL     1     -12.832  15.311  70.102  1.00  0.00    -0.213 A  
HETATM   15  C   UNL     1     -10.903  17.421  68.134  1.00  0.00    -0.273 A  
HETATM   16  C   UNL     1     -13.677  15.410  71.208  1.00  0.00    -0.558 A  
HETATM   17  C   UNL     1     -10.474  18.502  67.344  1.00  0.00    -0.455 A  
HETATM   18  C   UNL     1     -13.135  15.428  72.487  1.00  0.00    -0.518 A  
HETATM   19  C   UNL     1      -9.260  18.437  66.658  1.00  0.00    -0.304 A  
HETATM   20  C   UNL     1      -8.492  17.282  66.712  1.00  0.00    -0.275 A  
HETATM   21  C   UNL     1     -11.761  15.350  72.608  1.00  0.00    -0.453 A  
HETATM   22  C   UNL     1      -8.928  16.205  67.491  1.00  0.00    -0.197 A  
HETATM   23  N   UNL     1     -10.920  15.268  71.554  1.00  0.00    -0.217 NA 
BRANCH  19  24
HETATM   24  O   UNL     1      -8.915  19.543  65.847  1.00  0.00    -0.406 OA 
BRANCH  24  25
HETATM   25  C   UNL     1      -7.593  19.989  65.746  1.00  0.00    -0.269 C  
HETATM   26  O   UNL     1      -6.828  19.816  64.805  1.00  0.00    -0.353 OA 
HETATM   27  C   UNL     1      -7.237  20.775  66.977  1.00  0.00    -0.369 C  
ENDBRANCH  24  25
ENDBRANCH  19  24
ENDBRANCH   4   5
ENDBRANCH   2   4
TORSDOF 4
ENDMDL
MODEL       12
REMARK 921   NORMALIZED FREE ENERGY PREDICTED BY IDOCK:   -6.48 KCAL/MOL
REMARK 922        TOTAL FREE ENERGY PREDICTED BY IDOCK:   -8.34 KCAL/MOL
REMARK 923 INTER-LIGAND FREE ENERGY PREDICTED BY IDOCK:   -7.84 KCAL/MOL
REMARK 924 INTRA-LIGAND FREE ENERGY PREDICTED BY IDOCK:   -0.49 KCAL/MOL
REMARK 927      BINDING AFFINITY PREDICTED BY RF-SCORE:    0.00 PKD
ROOT
HETATM    1  C   UNL     1     -10.536  19.353  67.144  1.00  0.00    -0.596 C  
HETATM    2  C   UNL     1      -9.450  19.043  68.131  1.00  0.00    -0.335 C  
HETATM    3  O   UNL     1      -8.380  19.636  68.178  1.00  0.00    -0.308 OA 
ENDROOT
BRANCH   2   4
HETATM    4  O   UNL     1      -9.867  17.989  68.947  1.00  0.00    -0.352 OA 
BRANCH   4   5
HETATM    5  C   UNL     1      -9.884  16.709  68.370  1.00  0.00    -0.252 A  
HETATM    6  C   UNL     1      -8.805  16.252  67.622  1.00  0.00    -0.195 A  
HETATM    7  C   UNL     1      -8.820  14.958  67.111  1.00  0.00    -0.235 A  
HETATM    8  C   UNL     1      -9.889  14.082  67.379  1.00  0.00    -0.240 A  
HETATM    9  C   UNL     1      -9.840  12.670  66.777  1.00  0.00    -0.236 C  
HETATM   10  C   UNL     1     -10.945  14.544  68.183  1.00  0.00    -0.261 A  
HETATM   11  C   UNL     1     -10.759  12.498  65.562  1.00  0.00    -0.271 A  
HETATM   12  C   UNL     1     -10.950  15.861  68.670  1.00  0.00    -0.320 A  
HETATM   13  C   UNL     1      -9.746  11.541  67.817  1.00  0.00    -0.180 A  
HETATM   14  C   UNL     1     -12.149  12.610  65.635  1.00  0.00    -0.502 A  
HETATM   15  C   UNL     1     -10.662  10.486  67.942  1.00  0.00    -0.305 A  
HETATM   16  C   UNL     1     -12.907  12.506  64.468  1.00  0.00    -0.352 A  
HETATM   17  C   UNL     1     -10.436   9.442  68.856  1.00  0.00    -0.236 A  
HETATM   18  C   UNL     1     -12.268  12.305  63.250  1.00  0.00    -0.528 A  
HETATM   19  C   UNL     1      -9.283   9.430  69.643  1.00  0.00    -0.185 A  
HETATM   20  C   UNL     1      -8.377  10.479  69.564  1.00  0.00    -0.075 A  
HETATM   21  C   UNL     1     -10.890  12.213  63.250  1.00  0.00    -0.321 A  
HETATM   22  C   UNL     1      -8.611  11.521  68.661  1.00  0.00    -0.109 A  
HETATM   23  N   UNL     1     -10.134  12.296  64.367  1.00  0.00    -0.291 NA 
BRANCH  19  24
HETATM   24  O   UNL     1      -9.144   8.373  70.572  1.00  0.00    -0.142 OA 
BRANCH  24  25
HETATM   25  C   UNL     1      -9.274   8.589  71.948  1.00  0.00    -0.255 C  
HETATM   26  O   UNL     1      -8.379   8.860  72.738  1.00  0.00    -0.385 OA 
HETATM   27  C   UNL     1     -10.723   8.480  72.333  1.00  0.00    -0.376 C  
ENDBRANCH  24  25
ENDBRANCH  19  24
ENDBRANCH   4   5
ENDBRANCH   2   4
TORSDOF 4
ENDMDL
MODEL       13
REMARK 921   NORMALIZED FREE ENERGY PREDICTED BY IDOCK:   -6.33 KCAL/MOL
REMARK 922        TOTAL FREE ENERGY PREDICTED BY IDOCK:   -8.14 KCAL/MOL
REMARK 923 INTER-LIGAND FREE ENERGY PREDICTED BY IDOCK:   -7.65 KCAL/MOL
REMARK 924 INTRA-LIGAND FREE ENERGY PREDICTED BY IDOCK:   -0.50 KCAL/MOL
REMARK 927      BINDING AFFINITY PREDICTED BY RF-SCORE:    0.00 PKD
ROOT
HETATM    1  C   UNL     1      -8.873   4.211  63.501  1.00  0.00    -0.123 C  
HETATM    2  C   UNL     1     -10.050   3.706  64.283  1.00  0.00    -0.212 C  
HETATM    3  O   UNL     1     -11.139   3.447  63.788  1.00  0.00    -0.300 OA 
ENDROOT
BRANCH   2   4
HETATM    4  O   UNL     1      -9.687   3.601  65.628  1.00  0.00    -0.168 OA 
BRANCH   4   5
HETATM    5  C   UNL     1      -9.688   4.787  66.380  1.00  0.00    -0.195 A  
HETATM    6  C   UNL     1      -8.495   5.372  66.787  1.00  0.00    -0.107 A  
HETATM    7  C   UNL     1      -8.520   6.578  67.480  1.00  0.00    -0.120 A  
HETATM    8  C   UNL     1      -9.733   7.246  67.734  1.00  0.00    -0.167 A  
HETATM    9  C   UNL     1      -9.685   8.572  68.509  1.00  0.00    -0.174 C  
HETATM   10  C   UNL     1     -10.925   6.667  67.266  1.00  0.00    -0.456 A  
HETATM   11  C   UNL     1     -10.120   8.433  69.973  1.00  0.00    -0.192 A  
HETATM   12  C   UNL     1     -10.906   5.431  66.599  1.00  0.00    -0.220 A  
HETATM   13  C   UNL     1     -10.143   9.796  67.699  1.00  0.00    -0.236 A  
HETATM   14  C   UNL     1     -11.409   8.054  70.352  1.00  0.00    -0.190 A  
HETATM   15  C   UNL     1     -11.190  10.653  68.064  1.00  0.00    -0.373 A  
HETATM   16  C   UNL     1     -11.703   7.886  71.706  1.00  0.00    -0.329 A  
HETATM   17  C   UNL     1     -11.469  11.809  67.312  1.00  0.00    -0.373 A  
HETATM   18  C   UNL     1     -10.707   8.086  72.654  1.00  0.00    -0.426 A  
HETATM   19  C   UNL     1     -10.692  12.130  66.197  1.00  0.00    -0.272 A  
HETATM   20  C   UNL     1      -9.671  11.281  65.794  1.00  0.00    -0.263 A  
HETATM   21  C   UNL     1      -9.452   8.451  72.208  1.00  0.00    -0.297 A  
HETATM   22  C   UNL     1      -9.405  10.127  66.539  1.00  0.00    -0.200 A  
HETATM   23  N   UNL     1      -9.145   8.634  70.904  1.00  0.00    -0.170 NA 
BRANCH  19  24
HETATM   24  O   UNL     1     -11.058  13.282  65.464  1.00  0.00    -0.281 OA 
BRANCH  24  25
HETATM   25  C   UNL     1     -12.291  13.368  64.809  1.00  0.00    -0.396 C  
HETATM   26  O   UNL     1     -13.280  13.987  65.182  1.00  0.00    -0.768 OA 
HETATM   27  C   UNL     1     -12.222  12.605  63.516  1.00  0.00    -0.638 C  
ENDBRANCH  24  25
ENDBRANCH  19  24
ENDBRANCH   4   5
ENDBRANCH   2   4
TORSDOF 4
ENDMDL
MODEL       14
REMARK 921   NORMALIZED FREE ENERGY PREDICTED BY IDOCK:   -6.27 KCAL/MOL
REMARK 922        TOTAL FREE ENERGY PREDICTED BY IDOCK:   -8.07 KCAL/MOL
REMARK 923 INTER-LIGAND FREE ENERGY PREDICTED BY IDOCK:   -7.63 KCAL/MOL
REMARK 924 INTRA-LIGAND FREE ENERGY PREDICTED BY IDOCK:   -0.44 KCAL/MOL
REMARK 927      BINDING AFFINITY PREDICTED BY RF-SCORE:    0.00 PKD
ROOT
HETATM    1  C   UNL     1     -13.541  13.293  72.416  1.00  0.00    -0.694 C  
HETATM    2  C   UNL     1     -13.108  14.545  73.120  1.00  0.00    -0.446 C  
HETATM    3  O   UNL     1     -12.693  14.572  74.272  1.00  0.00    -0.265 OA 
ENDROOT
BRANCH   2   4
HETATM    4  O   UNL     1     -13.270  15.630  72.256  1.00  0.00    -0.419 OA 
BRANCH   4   5
HETATM    5  C   UNL     1     -12.423  15.680  71.137  1.00  0.00    -0.448 A  
HETATM    6  C   UNL     1     -11.057  15.461  71.268  1.00  0.00    -0.341 A  
HETATM    7  C   UNL     1     -10.248  15.458  70.137  1.00  0.00    -0.216 A  
HETATM    8  C   UNL     1     -10.795  15.622  68.850  1.00  0.00    -0.252 A  
HETATM    9  C   UNL     1      -9.841  15.612  67.646  1.00  0.00    -0.227 C  
HETATM   10  C   UNL     1     -12.187  15.787  68.732  1.00  0.00     0.088 A  
HETATM   11  C   UNL     1      -9.566  17.011  67.081  1.00  0.00    -0.253 A  
HETATM   12  C   UNL     1     -13.001  15.828  69.875  1.00  0.00     0.457 A  
HETATM   13  C   UNL     1     -10.054  14.436  66.679  1.00  0.00    -0.276 A  
HETATM   14  C   UNL     1     -10.558  17.812  66.512  1.00  0.00    -0.220 A  
HETATM   15  C   UNL     1     -10.341  14.563  65.312  1.00  0.00    -0.435 A  
HETATM   16  C   UNL     1     -10.235  19.100  66.082  1.00  0.00    -0.535 A  
HETATM   17  C   UNL     1     -10.415  13.428  64.484  1.00  0.00    -0.431 A  
HETATM   18  C   UNL     1      -8.937  19.570  66.238  1.00  0.00    -0.400 A  
HETATM   19  C   UNL     1     -10.186  12.155  65.010  1.00  0.00    -0.283 A  
HETATM   20  C   UNL     1      -9.933  11.999  66.366  1.00  0.00    -0.240 A  
HETATM   21  C   UNL     1      -8.009  18.728  66.816  1.00  0.00    -0.255 A  
HETATM   22  C   UNL     1      -9.871  13.129  67.187  1.00  0.00    -0.235 A  
HETATM   23  N   UNL     1      -8.291  17.472  67.228  1.00  0.00    -0.209 NA 
BRANCH  19  24
HETATM   24  O   UNL     1     -10.322  11.058  64.129  1.00  0.00    -0.326 OA 
BRANCH  24  25
HETATM   25  C   UNL     1      -9.226  10.259  63.785  1.00  0.00    -0.275 C  
HETATM   26  O   UNL     1      -8.742   9.349  64.446  1.00  0.00    -0.188 OA 
HETATM   27  C   UNL     1      -8.731  10.657  62.422  1.00  0.00    -0.307 C  
ENDBRANCH  24  25
ENDBRANCH  19  24
ENDBRANCH   4   5
ENDBRANCH   2   4
TORSDOF 4
ENDMDL
MODEL       15
REMARK 921   NORMALIZED FREE ENERGY PREDICTED BY IDOCK:   -6.26 KCAL/MOL
REMARK 922        TOTAL FREE ENERGY PREDICTED BY IDOCK:   -8.06 KCAL/MOL
REMARK 923 INTER-LIGAND FREE ENERGY PREDICTED BY IDOCK:   -7.78 KCAL/MOL
REMARK 924 INTRA-LIGAND FREE ENERGY PREDICTED BY IDOCK:   -0.27 KCAL/MOL
REMARK 927      BINDING AFFINITY PREDICTED BY RF-SCORE:    0.00 PKD
ROOT
HETATM    1  C   UNL     1      -6.898   7.863  74.244  1.00  0.00    -0.142 C  
HETATM    2  C   UNL     1      -8.376   7.669  74.070  1.00  0.00    -0.215 C  
HETATM    3  O   UNL     1      -8.980   6.666  74.431  1.00  0.00    -0.157 OA 
ENDROOT
BRANCH   2   4
HETATM    4  O   UNL     1      -8.910   8.794  73.439  1.00  0.00    -0.245 OA 
BRANCH   4   5
HETATM    5  C   UNL     1      -9.291   8.647  72.096  1.00  0.00    -0.273 A  
HETATM    6  C   UNL     1     -10.604   8.339  71.759  1.00  0.00    -0.325 A  
HETATM    7  C   UNL     1     -10.971   8.257  70.420  1.00  0.00    -0.244 A  
HETATM    8  C   UNL     1     -10.046   8.530  69.394  1.00  0.00    -0.205 A  
HETATM    9  C   UNL     1     -10.519   8.415  67.937  1.00  0.00    -0.255 C  
HETATM   10  C   UNL     1      -8.736   8.894  69.754  1.00  0.00    -0.139 A  
HETATM   11  C   UNL     1     -10.038   7.134  67.244  1.00  0.00    -0.215 A  
HETATM   12  C   UNL     1      -8.354   8.942  71.105  1.00  0.00    -0.232 A  
HETATM   13  C   UNL     1     -10.510   9.742  67.161  1.00  0.00    -0.316 A  
HETATM   14  C   UNL     1      -8.690   6.853  67.013  1.00  0.00    -0.119 A  
HETATM   15  C   UNL     1      -9.802   9.971  65.972  1.00  0.00    -0.321 A  
HETATM   16  C   UNL     1      -8.334   5.633  66.436  1.00  0.00    -0.112 A  
HETATM   17  C   UNL     1      -9.938  11.186  65.277  1.00  0.00    -0.311 A  
HETATM   18  C   UNL     1      -9.324   4.712  66.112  1.00  0.00    -0.153 A  
HETATM   19  C   UNL     1     -10.796  12.180  65.753  1.00  0.00    -0.281 A  
HETATM   20  C   UNL     1     -11.482  11.992  66.945  1.00  0.00    -0.402 A  
HETATM   21  C   UNL     1     -10.636   5.053  66.376  1.00  0.00    -0.261 A  
HETATM   22  C   UNL     1     -11.336  10.786  67.639  1.00  0.00    -0.328 A  
HETATM   23  N   UNL     1     -11.008   6.232  66.920  1.00  0.00    -0.365 NA 
BRANCH  19  24
HETATM   24  O   UNL     1     -10.847  13.392  65.028  1.00  0.00    -0.298 OA 
BRANCH  24  25
HETATM   25  C   UNL     1     -11.939  13.709  64.213  1.00  0.00    -0.445 C  
HETATM   26  O   UNL     1     -12.451  14.811  64.065  1.00  0.00    -0.803 OA 
HETATM   27  C   UNL     1     -12.390  12.474  63.484  1.00  0.00    -0.623 C  
ENDBRANCH  24  25
ENDBRANCH  19  24
ENDBRANCH   4   5
ENDBRANCH   2   4
TORSDOF 4
ENDMDL
MODEL       16
REMARK 921   NORMALIZED FREE ENERGY PREDICTED BY IDOCK:   -6.23 KCAL/MOL
REMARK 922        TOTAL FREE ENERGY PREDICTED BY IDOCK:   -8.02 KCAL/MOL
REMARK 923 INTER-LIGAND FREE ENERGY PREDICTED BY IDOCK:   -7.53 KCAL/MOL
REMARK 924 INTRA-LIGAND FREE ENERGY PREDICTED BY IDOCK:   -0.49 KCAL/MOL
REMARK 927      BINDING AFFINITY PREDICTED BY RF-SCORE:    0.00 PKD
ROOT
HETATM    1  C   UNL     1      -6.013  18.027  68.308  1.00  0.00    -0.173 C  
HETATM    2  C   UNL     1      -5.586  16.743  67.660  1.00  0.00    -0.140 C  
HETATM    3  O   UNL     1      -5.128  16.669  66.527  1.00  0.00    -0.353 OA 
ENDROOT
BRANCH   2   4
HETATM    4  O   UNL     1      -5.807  15.691  68.551  1.00  0.00    -0.095 OA 
BRANCH   4   5
HETATM    5  C   UNL     1      -6.856  14.809  68.243  1.00  0.00    -0.114 A  
HETATM    6  C   UNL     1      -6.606  13.610  67.586  1.00  0.00    -0.176 A  
HETATM    7  C   UNL     1      -7.653  12.725  67.345  1.00  0.00    -0.152 A  
HETATM    8  C   UNL     1      -8.957  13.000  67.800  1.00  0.00    -0.191 A  
HETATM    9  C   UNL     1     -10.064  11.981  67.493  1.00  0.00    -0.205 C  
HETATM   10  C   UNL     1      -9.179  14.192  68.511  1.00  0.00    -0.187 A  
HETATM   11  C   UNL     1     -10.989  12.418  66.351  1.00  0.00    -0.276 A  
HETATM   12  C   UNL     1      -8.132  15.103  68.724  1.00  0.00    -0.166 A  
HETATM   13  C   UNL     1     -10.667  11.307  68.737  1.00  0.00    -0.240 A  
HETATM   14  C   UNL     1     -11.806  13.548  66.422  1.00  0.00    -0.435 A  
HETATM   15  C   UNL     1     -12.025  11.334  69.085  1.00  0.00    -0.405 A  
HETATM   16  C   UNL     1     -12.568  13.912  65.311  1.00  0.00    -0.508 A  
HETATM   17  C   UNL     1     -12.500  10.599  70.187  1.00  0.00    -0.342 A  
HETATM   18  C   UNL     1     -12.493  13.154  64.149  1.00  0.00    -0.348 A  
HETATM   19  C   UNL     1     -11.626   9.816  70.943  1.00  0.00    -0.361 A  
HETATM   20  C   UNL     1     -10.271   9.798  70.640  1.00  0.00    -0.290 A  
HETATM   21  C   UNL     1     -11.658  12.054  64.146  1.00  0.00    -0.379 A  
HETATM   22  C   UNL     1      -9.802  10.539  69.550  1.00  0.00    -0.170 A  
HETATM   23  N   UNL     1     -10.921  11.671  65.212  1.00  0.00    -0.290 NA 
BRANCH  19  24
HETATM   24  O   UNL     1     -12.165   9.142  72.062  1.00  0.00    -0.367 OA 
BRANCH  24  25
HETATM   25  C   UNL     1     -11.747   7.852  72.407  1.00  0.00    -0.367 C  
HETATM   26  O   UNL     1     -10.909   7.550  73.247  1.00  0.00    -0.386 OA 
HETATM   27  C   UNL     1     -12.526   6.846  71.606  1.00  0.00    -0.418 C  
ENDBRANCH  24  25
ENDBRANCH  19  24
ENDBRANCH   4   5
ENDBRANCH   2   4
TORSDOF 4
ENDMDL
MODEL       17
REMARK 921   NORMALIZED FREE ENERGY PREDICTED BY IDOCK:   -6.17 KCAL/MOL
REMARK 922        TOTAL FREE ENERGY PREDICTED BY IDOCK:   -7.95 KCAL/MOL
REMARK 923 INTER-LIGAND FREE ENERGY PREDICTED BY IDOCK:   -7.48 KCAL/MOL
REMARK 924 INTRA-LIGAND FREE ENERGY PREDICTED BY IDOCK:   -0.47 KCAL/MOL
REMARK 927      BINDING AFFINITY PREDICTED BY RF-SCORE:    0.00 PKD
ROOT
HETATM    1  C   UNL     1     -11.649  15.686  64.414  1.00  0.00    -0.250 C  
HETATM    2  C   UNL     1     -12.443  14.429  64.215  1.00  0.00    -0.272 C  
HETATM    3  O   UNL     1     -12.632  13.906  63.124  1.00  0.00    -0.775 OA 
ENDROOT
BRANCH   2   4
HETATM    4  O   UNL     1     -12.917  13.991  65.454  1.00  0.00    -0.726 OA 
BRANCH   4   5
HETATM    5  C   UNL     1     -12.002  13.320  66.281  1.00  0.00    -0.417 A  
HETATM    6  C   UNL     1     -11.571  13.888  67.474  1.00  0.00    -0.392 A  
HETATM    7  C   UNL     1     -10.711  13.178  68.305  1.00  0.00    -0.261 A  
HETATM    8  C   UNL     1     -10.306  11.868  67.984  1.00  0.00    -0.209 A  
HETATM    9  C   UNL     1      -9.351  11.145  68.945  1.00  0.00    -0.117 C  
HETATM   10  C   UNL     1     -10.796  11.288  66.800  1.00  0.00    -0.334 A  
HETATM   11  C   UNL     1      -7.904  11.101  68.440  1.00  0.00    -0.133 A  
HETATM   12  C   UNL     1     -11.635  12.017  65.942  1.00  0.00    -0.364 A  
HETATM   13  C   UNL     1      -9.953   9.903  69.621  1.00  0.00    -0.255 A  
HETATM   14  C   UNL     1      -7.523  10.429  67.277  1.00  0.00    -0.094 A  
HETATM   15  C   UNL     1      -9.419   8.609  69.543  1.00  0.00    -0.162 A  
HETATM   16  C   UNL     1      -6.195  10.494  66.853  1.00  0.00    -0.066 A  
HETATM   17  C   UNL     1      -9.981   7.552  70.282  1.00  0.00    -0.192 A  
HETATM   18  C   UNL     1      -5.276  11.236  67.585  1.00  0.00    -0.043 A  
HETATM   19  C   UNL     1     -11.074   7.781  71.121  1.00  0.00    -0.248 A  
HETATM   20  C   UNL     1     -11.643   9.045  71.191  1.00  0.00    -0.372 A  
HETATM   21  C   UNL     1      -5.723  11.882  68.720  1.00  0.00    -0.050 A  
HETATM   22  C   UNL     1     -11.086  10.090  70.446  1.00  0.00    -0.393 A  
HETATM   23  N   UNL     1      -6.999  11.823  69.161  1.00  0.00    -0.106 NA 
BRANCH  19  24
HETATM   24  O   UNL     1     -11.615   6.664  71.798  1.00  0.00    -0.272 OA 
BRANCH  24  25
HETATM   25  C   UNL     1     -11.067   6.204  73.000  1.00  0.00    -0.218 C  
HETATM   26  O   UNL     1     -10.520   6.877  73.864  1.00  0.00    -0.366 OA 
HETATM   27  C   UNL     1     -11.286   4.721  73.110  1.00  0.00    -0.390 C  
ENDBRANCH  24  25
ENDBRANCH  19  24
ENDBRANCH   4   5
ENDBRANCH   2   4
TORSDOF 4
ENDMDL
MODEL       18
REMARK 921   NORMALIZED FREE ENERGY PREDICTED BY IDOCK:   -6.11 KCAL/MOL
REMARK 922        TOTAL FREE ENERGY PREDICTED BY IDOCK:   -7.88 KCAL/MOL
REMARK 923 INTER-LIGAND FREE ENERGY PREDICTED BY IDOCK:   -7.61 KCAL/MOL
REMARK 924 INTRA-LIGAND FREE ENERGY PREDICTED BY IDOCK:   -0.27 KCAL/MOL
REMARK 927      BINDING AFFINITY PREDICTED BY RF-SCORE:    0.00 PKD
ROOT
HETATM    1  C   UNL     1     -10.583  19.614  66.349  1.00  0.00    -0.592 C  
HETATM    2  C   UNL     1      -9.454  19.728  67.331  1.00  0.00    -0.343 C  
HETATM    3  O   UNL     1      -8.571  20.573  67.261  1.00  0.00    -0.344 OA 
ENDROOT
BRANCH   2   4
HETATM    4  O   UNL     1      -9.588  18.725  68.293  1.00  0.00    -0.318 OA 
BRANCH   4   5
HETATM    5  C   UNL     1      -9.580  17.398  67.832  1.00  0.00    -0.267 A  
HETATM    6  C   UNL     1      -8.588  16.953  66.966  1.00  0.00    -0.229 A  
HETATM    7  C   UNL     1      -8.567  15.619  66.570  1.00  0.00    -0.335 A  
HETATM    8  C   UNL     1      -9.505  14.697  67.072  1.00  0.00    -0.249 A  
HETATM    9  C   UNL     1      -9.425  13.241  66.587  1.00  0.00    -0.262 C  
HETATM   10  C   UNL     1     -10.467  15.154  67.990  1.00  0.00    -0.247 A  
HETATM   11  C   UNL     1     -10.495  12.890  65.547  1.00  0.00    -0.289 A  
HETATM   12  C   UNL     1     -10.513  16.507  68.362  1.00  0.00    -0.307 A  
HETATM   13  C   UNL     1      -9.081  12.225  67.689  1.00  0.00    -0.184 A  
HETATM   14  C   UNL     1     -11.863  12.907  65.826  1.00  0.00    -0.469 A  
HETATM   15  C   UNL     1      -9.874  11.123  68.039  1.00  0.00    -0.185 A  
HETATM   16  C   UNL     1     -12.774  12.639  64.802  1.00  0.00    -0.460 A  
HETATM   17  C   UNL     1      -9.426  10.188  68.990  1.00  0.00    -0.195 A  
HETATM   18  C   UNL     1     -12.307  12.372  63.521  1.00  0.00    -0.648 A  
HETATM   19  C   UNL     1      -8.172  10.334  69.587  1.00  0.00    -0.133 A  
HETATM   20  C   UNL     1      -7.381  11.434  69.282  1.00  0.00    -0.042 A  
HETATM   21  C   UNL     1     -10.942  12.381  63.315  1.00  0.00    -0.267 A  
HETATM   22  C   UNL     1      -7.836  12.367  68.345  1.00  0.00    -0.142 A  
HETATM   23  N   UNL     1     -10.039  12.623  64.290  1.00  0.00    -0.307 NA 
BRANCH  19  24
HETATM   24  O   UNL     1      -7.807   9.381  70.566  1.00  0.00    -0.140 OA 
BRANCH  24  25
HETATM   25  C   UNL     1      -8.628   8.288  70.862  1.00  0.00    -0.137 C  
HETATM   26  O   UNL     1      -8.690   7.228  70.252  1.00  0.00    -0.144 OA 
HETATM   27  C   UNL     1      -9.425   8.586  72.101  1.00  0.00    -0.375 C  
ENDBRANCH  24  25
ENDBRANCH  19  24
ENDBRANCH   4   5
ENDBRANCH   2   4
TORSDOF 4
ENDMDL
MODEL       19
REMARK 921   NORMALIZED FREE ENERGY PREDICTED BY IDOCK:   -6.11 KCAL/MOL
REMARK 922        TOTAL FREE ENERGY PREDICTED BY IDOCK:   -7.88 KCAL/MOL
REMARK 923 INTER-LIGAND FREE ENERGY PREDICTED BY IDOCK:   -7.47 KCAL/MOL
REMARK 924 INTRA-LIGAND FREE ENERGY PREDICTED BY IDOCK:   -0.41 KCAL/MOL
REMARK 927      BINDING AFFINITY PREDICTED BY RF-SCORE:    0.00 PKD
ROOT
HETATM    1  C   UNL     1      -8.927   3.356  66.258  1.00  0.00    -0.149 C  
HETATM    2  C   UNL     1      -9.822   4.338  65.560  1.00  0.00    -0.215 C  
HETATM    3  O   UNL     1     -10.765   4.017  64.849  1.00  0.00    -0.215 OA 
ENDROOT
BRANCH   2   4
HETATM    4  O   UNL     1      -9.389   5.633  65.854  1.00  0.00    -0.159 OA 
BRANCH   4   5
HETATM    5  C   UNL     1      -9.588   6.085  67.168  1.00  0.00    -0.123 A  
HETATM    6  C   UNL     1      -8.572   6.735  67.859  1.00  0.00    -0.122 A  
HETATM    7  C   UNL     1      -8.812   7.226  69.138  1.00  0.00    -0.136 A  
HETATM    8  C   UNL     1     -10.086   7.123  69.729  1.00  0.00    -0.200 A  
HETATM    9  C   UNL     1     -10.277   7.683  71.146  1.00  0.00    -0.207 C  
HETATM   10  C   UNL     1     -11.117   6.512  68.994  1.00  0.00    -0.375 A  
HETATM   11  C   UNL     1     -10.321   6.596  72.227  1.00  0.00    -0.197 A  
HETATM   12  C   UNL     1     -10.867   5.983  67.718  1.00  0.00    -0.380 A  
HETATM   13  C   UNL     1     -11.251   8.871  71.232  1.00  0.00    -0.368 A  
HETATM   14  C   UNL     1     -11.319   5.621  72.287  1.00  0.00    -0.300 A  
HETATM   15  C   UNL     1     -12.404   8.907  72.028  1.00  0.00    -0.460 A  
HETATM   16  C   UNL     1     -11.246   4.627  73.264  1.00  0.00    -0.411 A  
HETATM   17  C   UNL     1     -13.178  10.078  72.121  1.00  0.00    -0.489 A  
HETATM   18  C   UNL     1     -10.178   4.614  74.152  1.00  0.00    -0.266 A  
HETATM   19  C   UNL     1     -12.797  11.232  71.433  1.00  0.00    -0.410 A  
HETATM   20  C   UNL     1     -11.678  11.213  70.611  1.00  0.00    -0.310 A  
HETATM   21  C   UNL     1      -9.222   5.603  74.029  1.00  0.00    -0.126 A  
HETATM   22  C   UNL     1     -10.918  10.042  70.513  1.00  0.00    -0.392 A  
HETATM   23  N   UNL     1      -9.276   6.585  73.103  1.00  0.00    -0.128 NA 
BRANCH  19  24
HETATM   24  O   UNL     1     -13.647  12.357  71.537  1.00  0.00    -0.050 OA 
BRANCH  24  25
HETATM   25  C   UNL     1     -13.142  13.660  71.469  1.00  0.00    -0.350 C  
HETATM   26  O   UNL     1     -12.852  14.284  70.457  1.00  0.00    -0.345 OA 
HETATM   27  C   UNL     1     -13.042  14.227  72.857  1.00  0.00    -0.589 C  
ENDBRANCH  24  25
ENDBRANCH  19  24
ENDBRANCH   4   5
ENDBRANCH   2   4
TORSDOF 4
ENDMDL
MODEL       20
REMARK 921   NORMALIZED FREE ENERGY PREDICTED BY IDOCK:   -6.08 KCAL/MOL
REMARK 922        TOTAL FREE ENERGY PREDICTED BY IDOCK:   -7.85 KCAL/MOL
REMARK 923 INTER-LIGAND FREE ENERGY PREDICTED BY IDOCK:   -7.34 KCAL/MOL
REMARK 924 INTRA-LIGAND FREE ENERGY PREDICTED BY IDOCK:   -0.50 KCAL/MOL
REMARK 927      BINDING AFFINITY PREDICTED BY RF-SCORE:    0.00 PKD
ROOT
HETATM    1  C   UNL     1      -9.792  18.431  66.337  1.00  0.00    -0.369 C  
HETATM    2  C   UNL     1     -10.706  17.357  65.825  1.00  0.00    -0.120 C  
HETATM    3  O   UNL     1     -11.103  17.292  64.669  1.00  0.00    -1.052 OA 
ENDROOT
BRANCH   2   4
HETATM    4  O   UNL     1     -11.014  16.486  66.873  1.00  0.00    -0.152 OA 
BRANCH   4   5
HETATM    5  C   UNL     1     -10.507  15.180  66.782  1.00  0.00    -0.283 A  
HETATM    6  C   UNL     1      -9.209  14.890  67.187  1.00  0.00    -0.231 A  
HETATM    7  C   UNL     1      -8.750  13.578  67.143  1.00  0.00    -0.222 A  
HETATM    8  C   UNL     1      -9.594  12.525  66.742  1.00  0.00    -0.231 A  
HETATM    9  C   UNL     1      -9.018  11.101  66.713  1.00  0.00    -0.169 C  
HETATM   10  C   UNL     1     -10.921  12.829  66.389  1.00  0.00    -0.305 A  
HETATM   11  C   UNL     1      -8.689  10.611  65.297  1.00  0.00    -0.187 A  
HETATM   12  C   UNL     1     -11.376  14.158  66.397  1.00  0.00    -0.342 A  
HETATM   13  C   UNL     1      -9.670  10.133  67.714  1.00  0.00    -0.176 A  
HETATM   14  C   UNL     1      -9.659  10.428  64.310  1.00  0.00    -0.377 A  
HETATM   15  C   UNL     1     -10.294   8.925  67.372  1.00  0.00    -0.337 A  
HETATM   16  C   UNL     1      -9.265  10.042  63.027  1.00  0.00    -0.313 A  
HETATM   17  C   UNL     1     -10.770   8.055  68.369  1.00  0.00    -0.070 A  
HETATM   18  C   UNL     1      -7.916   9.859  62.749  1.00  0.00    -0.134 A  
HETATM   19  C   UNL     1     -10.612   8.373  69.719  1.00  0.00    -0.221 A  
HETATM   20  C   UNL     1     -10.027   9.578  70.085  1.00  0.00    -0.285 A  
HETATM   21  C   UNL     1      -7.011  10.066  63.772  1.00  0.00    -0.124 A  
HETATM   22  C   UNL     1      -9.565  10.446  69.089  1.00  0.00    -0.226 A  
HETATM   23  N   UNL     1      -7.366  10.425  65.025  1.00  0.00    -0.110 NA 
BRANCH  19  24
HETATM   24  O   UNL     1     -11.155   7.473  70.665  1.00  0.00    -0.256 OA 
BRANCH  24  25
HETATM   25  C   UNL     1     -11.720   7.926  71.861  1.00  0.00    -0.297 C  
HETATM   26  O   UNL     1     -11.162   8.030  72.946  1.00  0.00    -0.401 OA 
HETATM   27  C   UNL     1     -13.150   8.321  71.617  1.00  0.00    -0.354 C  
ENDBRANCH  24  25
ENDBRANCH  19  24
ENDBRANCH   4   5
ENDBRANCH   2   4
TORSDOF 4
ENDMDL
MODEL       21
REMARK 921   NORMALIZED FREE ENERGY PREDICTED BY IDOCK:   -6.02 KCAL/MOL
REMARK 922        TOTAL FREE ENERGY PREDICTED BY IDOCK:   -7.76 KCAL/MOL
REMARK 923 INTER-LIGAND FREE ENERGY PREDICTED BY IDOCK:   -7.29 KCAL/MOL
REMARK 924 INTRA-LIGAND FREE ENERGY PREDICTED BY IDOCK:   -0.47 KCAL/MOL
REMARK 927      BINDING AFFINITY PREDICTED BY RF-SCORE:    0.00 PKD
ROOT
HETATM    1  C   UNL     1     -12.475  15.226  70.251  1.00  0.00    -0.405 C  
HETATM    2  C   UNL     1     -11.525  15.902  69.307  1.00  0.00    -0.374 C  
HETATM    3  O   UNL     1     -10.693  16.732  69.652  1.00  0.00    -0.327 OA 
ENDROOT
BRANCH   2   4
HETATM    4  O   UNL     1     -11.763  15.433  68.013  1.00  0.00    -0.336 OA 
BRANCH   4   5
HETATM    5  C   UNL     1     -11.130  14.235  67.646  1.00  0.00    -0.292 A  
HETATM    6  C   UNL     1      -9.820  13.975  68.031  1.00  0.00    -0.228 A  
HETATM    7  C   UNL     1      -9.235  12.755  67.707  1.00  0.00    -0.199 A  
HETATM    8  C   UNL     1      -9.964  11.755  67.036  1.00  0.00    -0.224 A  
HETATM    9  C   UNL     1      -9.252  10.434  66.705  1.00  0.00    -0.178 C  
HETATM   10  C   UNL     1     -11.305  12.014  66.703  1.00  0.00    -0.399 A  
HETATM   11  C   UNL     1      -8.844  10.319  65.231  1.00  0.00    -0.180 A  
HETATM   12  C   UNL     1     -11.886  13.258  66.997  1.00  0.00    -0.442 A  
HETATM   13  C   UNL     1      -9.830   9.205  67.426  1.00  0.00    -0.237 A  
HETATM   14  C   UNL     1      -9.769  10.287  64.185  1.00  0.00    -0.357 A  
HETATM   15  C   UNL     1     -10.326   8.060  66.787  1.00  0.00    -0.360 A  
HETATM   16  C   UNL     1      -9.310  10.248  62.867  1.00  0.00    -0.336 A  
HETATM   17  C   UNL     1     -10.739   6.941  67.533  1.00  0.00    -0.368 A  
HETATM   18  C   UNL     1      -7.943  10.256  62.616  1.00  0.00    -0.162 A  
HETATM   19  C   UNL     1     -10.643   6.948  68.927  1.00  0.00    -0.221 A  
HETATM   20  C   UNL     1     -10.186   8.081  69.586  1.00  0.00    -0.208 A  
HETATM   21  C   UNL     1      -7.086  10.297  63.698  1.00  0.00    -0.067 A  
HETATM   22  C   UNL     1      -9.788   9.195  68.839  1.00  0.00    -0.179 A  
HETATM   23  N   UNL     1      -7.504  10.320  64.983  1.00  0.00    -0.139 NA 
BRANCH  19  24
HETATM   24  O   UNL     1     -11.118   5.807  69.613  1.00  0.00    -0.372 OA 
BRANCH  24  25
HETATM   25  C   UNL     1     -10.270   5.028  70.407  1.00  0.00    -0.254 C  
HETATM   26  O   UNL     1     -10.103   5.120  71.616  1.00  0.00    -0.186 OA 
HETATM   27  C   UNL     1      -9.596   3.995  69.547  1.00  0.00    -0.265 C  
ENDBRANCH  24  25
ENDBRANCH  19  24
ENDBRANCH   4   5
ENDBRANCH   2   4
TORSDOF 4
ENDMDL
MODEL       22
REMARK 921   NORMALIZED FREE ENERGY PREDICTED BY IDOCK:   -5.99 KCAL/MOL
REMARK 922        TOTAL FREE ENERGY PREDICTED BY IDOCK:   -7.73 KCAL/MOL
REMARK 923 INTER-LIGAND FREE ENERGY PREDICTED BY IDOCK:   -7.44 KCAL/MOL
REMARK 924 INTRA-LIGAND FREE ENERGY PREDICTED BY IDOCK:   -0.30 KCAL/MOL
REMARK 927      BINDING AFFINITY PREDICTED BY RF-SCORE:    0.00 PKD
ROOT
HETATM    1  C   UNL     1     -12.304  15.472  74.406  1.00  0.00    -0.798 C  
HETATM    2  C   UNL     1     -13.216  15.305  73.226  1.00  0.00    -0.476 C  
HETATM    3  O   UNL     1     -14.233  15.965  73.050  1.00  0.00    -0.410 OA 
ENDROOT
BRANCH   2   4
HETATM    4  O   UNL     1     -12.714  14.292  72.406  1.00  0.00    -0.329 OA 
BRANCH   4   5
HETATM    5  C   UNL     1     -12.306  14.665  71.115  1.00  0.00    -0.335 A  
HETATM    6  C   UNL     1     -13.209  15.219  70.215  1.00  0.00    -0.054 A  
HETATM    7  C   UNL     1     -12.767  15.635  68.964  1.00  0.00     0.649 A  
HETATM    8  C   UNL     1     -11.407  15.553  68.608  1.00  0.00    -0.348 A  
HETATM    9  C   UNL     1     -10.991  16.027  67.207  1.00  0.00    -0.207 C  
HETATM   10  C   UNL     1     -10.499  15.042  69.552  1.00  0.00    -0.245 A  
HETATM   11  C   UNL     1     -10.723  14.873  66.233  1.00  0.00    -0.320 A  
HETATM   12  C   UNL     1     -10.948  14.587  70.802  1.00  0.00     0.252 A  
HETATM   13  C   UNL     1     -10.060  17.251  67.202  1.00  0.00    -0.297 A  
HETATM   14  C   UNL     1      -9.696  13.945  66.416  1.00  0.00    -0.309 A  
HETATM   15  C   UNL     1      -8.788  17.288  66.615  1.00  0.00    -0.280 A  
HETATM   16  C   UNL     1      -9.563  12.886  65.517  1.00  0.00     0.012 A  
HETATM   17  C   UNL     1      -8.051  18.486  66.570  1.00  0.00    -0.299 A  
HETATM   18  C   UNL     1     -10.460  12.764  64.462  1.00  0.00    -0.392 A  
HETATM   19  C   UNL     1      -8.586  19.663  67.096  1.00  0.00    -0.308 A  
HETATM   20  C   UNL     1      -9.829  19.646  67.714  1.00  0.00    -0.498 A  
HETATM   21  C   UNL     1     -11.456  13.713  64.347  1.00  0.00    -0.386 A  
HETATM   22  C   UNL     1     -10.553  18.450  67.766  1.00  0.00    -0.419 A  
HETATM   23  N   UNL     1     -11.599  14.755  65.195  1.00  0.00    -0.362 NA 
BRANCH  19  24
HETATM   24  O   UNL     1      -7.771  20.818  67.057  1.00  0.00    -0.294 OA 
BRANCH  24  25
HETATM   25  C   UNL     1      -6.520  20.849  67.682  1.00  0.00    -0.343 C  
HETATM   26  O   UNL     1      -6.275  20.580  68.851  1.00  0.00    -0.328 OA 
HETATM   27  C   UNL     1      -5.471  21.232  66.676  1.00  0.00    -0.314 C  
ENDBRANCH  24  25
ENDBRANCH  19  24
ENDBRANCH   4   5
ENDBRANCH   2   4
TORSDOF 4
ENDMDL
MODEL       23
REMARK 921   NORMALIZED FREE ENERGY PREDICTED BY IDOCK:   -5.99 KCAL/MOL
REMARK 922        TOTAL FREE ENERGY PREDICTED BY IDOCK:   -7.73 KCAL/MOL
REMARK 923 INTER-LIGAND FREE ENERGY PREDICTED BY IDOCK:   -7.46 KCAL/MOL
REMARK 924 INTRA-LIGAND FREE ENERGY PREDICTED BY IDOCK:   -0.27 KCAL/MOL
REMARK 927      BINDING AFFINITY PREDICTED BY RF-SCORE:    0.00 PKD
ROOT
HETATM    1  C   UNL     1     -12.642  15.405  73.955  1.00  0.00    -0.741 C  
HETATM    2  C   UNL     1     -13.298  14.857  72.722  1.00  0.00    -0.480 C  
HETATM    3  O   UNL     1     -13.805  13.745  72.655  1.00  0.00    -0.691 OA 
ENDROOT
BRANCH   2   4
HETATM    4  O   UNL     1     -13.217  15.811  71.705  1.00  0.00    -0.486 OA 
BRANCH   4   5
HETATM    5  C   UNL     1     -12.332  15.538  70.649  1.00  0.00    -0.416 A  
HETATM    6  C   UNL     1     -12.781  15.511  69.334  1.00  0.00     0.263 A  
HETATM    7  C   UNL     1     -11.874  15.297  68.301  1.00  0.00    -0.251 A  
HETATM    8  C   UNL     1     -10.497  15.158  68.558  1.00  0.00    -0.233 A  
HETATM    9  C   UNL     1      -9.554  14.920  67.369  1.00  0.00    -0.206 C  
HETATM   10  C   UNL     1     -10.054  15.244  69.890  1.00  0.00    -0.204 A  
HETATM   11  C   UNL     1      -9.092  13.463  67.245  1.00  0.00    -0.222 A  
HETATM   12  C   UNL     1     -10.972  15.423  70.938  1.00  0.00    -0.330 A  
HETATM   13  C   UNL     1      -8.546  16.055  67.123  1.00  0.00    -0.219 A  
HETATM   14  C   UNL     1      -8.316  12.825  68.215  1.00  0.00    -0.161 A  
HETATM   15  C   UNL     1      -7.152  15.900  67.106  1.00  0.00    -0.240 A  
HETATM   16  C   UNL     1      -7.995  11.476  68.055  1.00  0.00    -0.130 A  
HETATM   17  C   UNL     1      -6.313  16.977  66.768  1.00  0.00    -0.246 A  
HETATM   18  C   UNL     1      -8.463  10.786  66.943  1.00  0.00    -0.131 A  
HETATM   19  C   UNL     1      -6.858  18.216  66.426  1.00  0.00    -0.229 A  
HETATM   20  C   UNL     1      -8.233  18.406  66.467  1.00  0.00    -0.289 A  
HETATM   21  C   UNL     1      -9.232  11.478  66.029  1.00  0.00    -0.217 A  
HETATM   22  C   UNL     1      -9.063  17.334  66.814  1.00  0.00    -0.269 A  
HETATM   23  N   UNL     1      -9.545  12.787  66.152  1.00  0.00    -0.242 NA 
BRANCH  19  24
HETATM   24  O   UNL     1      -5.953  19.265  66.142  1.00  0.00    -0.161 OA 
BRANCH  24  25
HETATM   25  C   UNL     1      -6.398  20.574  65.930  1.00  0.00    -0.230 C  
HETATM   26  O   UNL     1      -6.889  21.328  66.761  1.00  0.00    -0.374 OA 
HETATM   27  C   UNL     1      -6.142  20.960  64.500  1.00  0.00    -0.326 C  
ENDBRANCH  24  25
ENDBRANCH  19  24
ENDBRANCH   4   5
ENDBRANCH   2   4
TORSDOF 4
ENDMDL
MODEL       24
REMARK 921   NORMALIZED FREE ENERGY PREDICTED BY IDOCK:   -5.97 KCAL/MOL
REMARK 922        TOTAL FREE ENERGY PREDICTED BY IDOCK:   -7.71 KCAL/MOL
REMARK 923 INTER-LIGAND FREE ENERGY PREDICTED BY IDOCK:   -7.33 KCAL/MOL
REMARK 924 INTRA-LIGAND FREE ENERGY PREDICTED BY IDOCK:   -0.38 KCAL/MOL
REMARK 927      BINDING AFFINITY PREDICTED BY RF-SCORE:    0.00 PKD
ROOT
HETATM    1  C   UNL     1     -12.427  15.696  74.108  1.00  0.00    -0.804 C  
HETATM    2  C   UNL     1     -13.343  15.275  72.997  1.00  0.00    -0.506 C  
HETATM    3  O   UNL     1     -14.290  15.943  72.602  1.00  0.00    -0.476 OA 
ENDROOT
BRANCH   2   4
HETATM    4  O   UNL     1     -12.937  14.025  72.525  1.00  0.00    -0.401 OA 
BRANCH   4   5
HETATM    5  C   UNL     1     -12.256  14.002  71.297  1.00  0.00    -0.310 A  
HETATM    6  C   UNL     1     -11.430  15.055  70.922  1.00  0.00    -0.330 A  
HETATM    7  C   UNL     1     -10.720  14.983  69.728  1.00  0.00    -0.260 A  
HETATM    8  C   UNL     1     -10.783  13.837  68.912  1.00  0.00    -0.249 A  
HETATM    9  C   UNL     1      -9.976  13.828  67.605  1.00  0.00    -0.238 C  
HETATM   10  C   UNL     1     -11.580  12.759  69.335  1.00  0.00    -0.361 A  
HETATM   11  C   UNL     1     -10.840  14.058  66.359  1.00  0.00    -0.299 A  
HETATM   12  C   UNL     1     -12.327  12.844  70.521  1.00  0.00    -0.362 A  
HETATM   13  C   UNL     1      -8.852  12.779  67.561  1.00  0.00    -0.187 A  
HETATM   14  C   UNL     1     -11.842  13.175  65.953  1.00  0.00    -0.453 A  
HETATM   15  C   UNL     1      -8.733  11.772  66.593  1.00  0.00    -0.186 A  
HETATM   16  C   UNL     1     -12.627  13.493  64.844  1.00  0.00    -0.392 A  
HETATM   17  C   UNL     1      -7.612  10.922  66.574  1.00  0.00    -0.142 A  
HETATM   18  C   UNL     1     -12.410  14.689  64.170  1.00  0.00    -0.294 A  
HETATM   19  C   UNL     1      -6.590  11.082  67.511  1.00  0.00    -0.068 A  
HETATM   20  C   UNL     1      -6.699  12.049  68.501  1.00  0.00    -0.066 A  
HETATM   21  C   UNL     1     -11.408  15.519  64.632  1.00  0.00    -0.357 A  
HETATM   22  C   UNL     1      -7.821  12.885  68.522  1.00  0.00    -0.099 A  
HETATM   23  N   UNL     1     -10.624  15.228  65.693  1.00  0.00    -0.337 NA 
BRANCH  19  24
HETATM   24  O   UNL     1      -5.516  10.163  67.460  1.00  0.00    -0.041 OA 
BRANCH  24  25
HETATM   25  C   UNL     1      -5.738   8.782  67.433  1.00  0.00    -0.039 C  
HETATM   26  O   UNL     1      -5.564   8.028  66.485  1.00  0.00    -0.031 OA 
HETATM   27  C   UNL     1      -6.198   8.327  68.790  1.00  0.00    -0.045 C  
ENDBRANCH  24  25
ENDBRANCH  19  24
ENDBRANCH   4   5
ENDBRANCH   2   4
TORSDOF 4
ENDMDL
MODEL       25
REMARK 921   NORMALIZED FREE ENERGY PREDICTED BY IDOCK:   -5.88 KCAL/MOL
REMARK 922        TOTAL FREE ENERGY PREDICTED BY IDOCK:   -7.60 KCAL/MOL
REMARK 923 INTER-LIGAND FREE ENERGY PREDICTED BY IDOCK:   -7.18 KCAL/MOL
REMARK 924 INTRA-LIGAND FREE ENERGY PREDICTED BY IDOCK:   -0.42 KCAL/MOL
REMARK 927      BINDING AFFINITY PREDICTED BY RF-SCORE:    0.00 PKD
ROOT
HETATM    1  C   UNL     1     -10.456  17.424  68.922  1.00  0.00    -0.312 C  
HETATM    2  C   UNL     1     -11.333  16.207  68.922  1.00  0.00    -0.350 C  
HETATM    3  O   UNL     1     -11.849  15.737  69.929  1.00  0.00    -0.342 OA 
ENDROOT
BRANCH   2   4
HETATM    4  O   UNL     1     -11.439  15.724  67.616  1.00  0.00    -0.254 OA 
BRANCH   4   5
HETATM    5  C   UNL     1     -10.869  14.468  67.355  1.00  0.00    -0.291 A  
HETATM    6  C   UNL     1      -9.574  14.175  67.767  1.00  0.00    -0.219 A  
HETATM    7  C   UNL     1      -9.053  12.904  67.550  1.00  0.00    -0.191 A  
HETATM    8  C   UNL     1      -9.832  11.888  66.965  1.00  0.00    -0.206 A  
HETATM    9  C   UNL     1      -9.190  10.509  66.752  1.00  0.00    -0.175 C  
HETATM   10  C   UNL     1     -11.159  12.186  66.606  1.00  0.00    -0.353 A  
HETATM   11  C   UNL     1      -8.789  10.247  65.295  1.00  0.00    -0.180 A  
HETATM   12  C   UNL     1     -11.675  13.479  66.790  1.00  0.00    -0.430 A  
HETATM   13  C   UNL     1      -9.829   9.378  67.573  1.00  0.00    -0.220 A  
HETATM   14  C   UNL     1      -9.714  10.173  64.252  1.00  0.00    -0.326 A  
HETATM   15  C   UNL     1     -10.385   8.209  67.033  1.00  0.00    -0.403 A  
HETATM   16  C   UNL     1      -9.259   9.998  62.944  1.00  0.00    -0.311 A  
HETATM   17  C   UNL     1     -10.853   7.181  67.871  1.00  0.00    -0.219 A  
HETATM   18  C   UNL     1      -7.894   9.913  62.698  1.00  0.00    -0.131 A  
HETATM   19  C   UNL     1     -10.757   7.303  69.259  1.00  0.00    -0.198 A  
HETATM   20  C   UNL     1     -10.242   8.464  69.820  1.00  0.00    -0.207 A  
HETATM   21  C   UNL     1      -7.036  10.003  63.776  1.00  0.00    -0.124 A  
HETATM   22  C   UNL     1      -9.787   9.487  68.982  1.00  0.00    -0.178 A  
HETATM   23  N   UNL     1      -7.450  10.158  65.052  1.00  0.00    -0.140 NA 
BRANCH  19  24
HETATM   24  O   UNL     1     -11.289   6.251  70.039  1.00  0.00    -0.380 OA 
BRANCH  24  25
HETATM   25  C   UNL     1     -12.032   6.506  71.197  1.00  0.00    -0.306 C  
HETATM   26  O   UNL     1     -13.067   7.153  71.279  1.00  0.00    -0.384 OA 
HETATM   27  C   UNL     1     -11.383   5.816  72.365  1.00  0.00    -0.348 C  
ENDBRANCH  24  25
ENDBRANCH  19  24
ENDBRANCH   4   5
ENDBRANCH   2   4
TORSDOF 4
ENDMDL
MODEL       26
REMARK 921   NORMALIZED FREE ENERGY PREDICTED BY IDOCK:   -5.80 KCAL/MOL
REMARK 922        TOTAL FREE ENERGY PREDICTED BY IDOCK:   -7.50 KCAL/MOL
REMARK 923 INTER-LIGAND FREE ENERGY PREDICTED BY IDOCK:   -7.08 KCAL/MOL
REMARK 924 INTRA-LIGAND FREE ENERGY PREDICTED BY IDOCK:   -0.42 KCAL/MOL
REMARK 927      BINDING AFFINITY PREDICTED BY RF-SCORE:    0.00 PKD
ROOT
HETATM    1  C   UNL     1     -10.927   5.497  73.282  1.00  0.00    -0.339 C  
HETATM    2  C   UNL     1      -9.869   6.554  73.159  1.00  0.00    -0.170 C  
HETATM    3  O   UNL     1      -9.656   7.410  74.008  1.00  0.00    -0.274 OA 
ENDROOT
BRANCH   2   4
HETATM    4  O   UNL     1      -9.205   6.390  71.941  1.00  0.00    -0.149 OA 
BRANCH   4   5
HETATM    5  C   UNL     1      -9.441   7.361  70.954  1.00  0.00    -0.165 A  
HETATM    6  C   UNL     1     -10.572   7.296  70.149  1.00  0.00    -0.245 A  
HETATM    7  C   UNL     1     -10.814   8.302  69.219  1.00  0.00    -0.063 A  
HETATM    8  C   UNL     1      -9.959   9.415  69.112  1.00  0.00    -0.184 A  
HETATM    9  C   UNL     1     -10.286  10.485  68.060  1.00  0.00    -0.195 C  
HETATM   10  C   UNL     1      -8.851   9.491  69.974  1.00  0.00    -0.246 A  
HETATM   11  C   UNL     1      -9.391  10.404  66.817  1.00  0.00    -0.156 A  
HETATM   12  C   UNL     1      -8.584   8.459  70.888  1.00  0.00    -0.167 A  
HETATM   13  C   UNL     1     -10.641  11.862  68.645  1.00  0.00    -0.259 A  
HETATM   14  C   UNL     1      -8.012  10.612  66.856  1.00  0.00    -0.124 A  
HETATM   15  C   UNL     1      -9.968  13.057  68.350  1.00  0.00    -0.216 A  
HETATM   16  C   UNL     1      -7.262  10.453  65.689  1.00  0.00    -0.146 A  
HETATM   17  C   UNL     1     -10.432  14.286  68.853  1.00  0.00    -0.241 A  
HETATM   18  C   UNL     1      -7.897  10.079  64.511  1.00  0.00    -0.145 A  
HETATM   19  C   UNL     1     -11.582  14.337  69.644  1.00  0.00    -0.296 A  
HETATM   20  C   UNL     1     -12.247  13.165  69.979  1.00  0.00    -0.323 A  
HETATM   21  C   UNL     1      -9.263   9.881  64.547  1.00  0.00    -0.261 A  
HETATM   22  C   UNL     1     -11.776  11.944  69.484  1.00  0.00    -0.410 A  
HETATM   23  N   UNL     1     -10.014  10.042  65.659  1.00  0.00    -0.288 NA 
BRANCH  19  24
HETATM   24  O   UNL     1     -11.962  15.600  70.152  1.00  0.00    -0.338 OA 
BRANCH  24  25
HETATM   25  C   UNL     1     -12.812  15.716  71.257  1.00  0.00    -0.487 C  
HETATM   26  O   UNL     1     -14.035  15.668  71.252  1.00  0.00    -0.570 OA 
HETATM   27  C   UNL     1     -11.987  15.871  72.504  1.00  0.00    -0.622 C  
ENDBRANCH  24  25
ENDBRANCH  19  24
ENDBRANCH   4   5
ENDBRANCH   2   4
TORSDOF 4
ENDMDL
MODEL       27
REMARK 921   NORMALIZED FREE ENERGY PREDICTED BY IDOCK:   -5.79 KCAL/MOL
REMARK 922        TOTAL FREE ENERGY PREDICTED BY IDOCK:   -7.49 KCAL/MOL
REMARK 923 INTER-LIGAND FREE ENERGY PREDICTED BY IDOCK:   -7.03 KCAL/MOL
REMARK 924 INTRA-LIGAND FREE ENERGY PREDICTED BY IDOCK:   -0.45 KCAL/MOL
REMARK 927      BINDING AFFINITY PREDICTED BY RF-SCORE:    0.00 PKD
ROOT
HETATM    1  C   UNL     1      -9.104   3.367  66.358  1.00  0.00    -0.166 C  
HETATM    2  C   UNL     1      -9.782   4.340  65.439  1.00  0.00    -0.200 C  
HETATM    3  O   UNL     1     -10.813   4.095  64.826  1.00  0.00    -0.258 OA 
ENDROOT
BRANCH   2   4
HETATM    4  O   UNL     1      -9.043   5.525  65.408  1.00  0.00    -0.141 OA 
BRANCH   4   5
HETATM    5  C   UNL     1      -9.188   6.392  66.503  1.00  0.00    -0.155 A  
HETATM    6  C   UNL     1      -8.087   7.049  67.041  1.00  0.00    -0.117 A  
HETATM    7  C   UNL     1      -8.265   7.948  68.087  1.00  0.00    -0.123 A  
HETATM    8  C   UNL     1      -9.550   8.246  68.581  1.00  0.00    -0.152 A  
HETATM    9  C   UNL     1      -9.671   9.245  69.741  1.00  0.00    -0.202 C  
HETATM   10  C   UNL     1     -10.657   7.613  67.987  1.00  0.00    -0.213 A  
HETATM   11  C   UNL     1      -9.935   8.573  71.094  1.00  0.00    -0.207 A  
HETATM   12  C   UNL     1     -10.477   6.678  66.956  1.00  0.00    -0.369 A  
HETATM   13  C   UNL     1     -10.416  10.542  69.385  1.00  0.00    -0.264 A  
HETATM   14  C   UNL     1     -11.093   7.844  71.369  1.00  0.00    -0.275 A  
HETATM   15  C   UNL     1     -11.562  11.014  70.040  1.00  0.00    -0.427 A  
HETATM   16  C   UNL     1     -11.225   7.207  72.604  1.00  0.00    -0.331 A  
HETATM   17  C   UNL     1     -12.114  12.266  69.711  1.00  0.00    -0.298 A  
HETATM   18  C   UNL     1     -10.197   7.298  73.535  1.00  0.00    -0.404 A  
HETATM   19  C   UNL     1     -11.515  13.067  68.737  1.00  0.00    -0.298 A  
HETATM   20  C   UNL     1     -10.399  12.609  68.050  1.00  0.00    -0.231 A  
HETATM   21  C   UNL     1      -9.076   8.028  73.193  1.00  0.00    -0.275 A  
HETATM   22  C   UNL     1      -9.861  11.359  68.373  1.00  0.00    -0.205 A  
HETATM   23  N   UNL     1      -8.930   8.665  72.010  1.00  0.00    -0.294 NA 
BRANCH  19  24
HETATM   24  O   UNL     1     -12.150  14.292  68.427  1.00  0.00    -0.335 OA 
BRANCH  24  25
HETATM   25  C   UNL     1     -11.569  15.520  68.762  1.00  0.00    -0.378 C  
HETATM   26  O   UNL     1     -11.044  16.318  67.996  1.00  0.00    -0.340 OA 
HETATM   27  C   UNL     1     -11.720  15.754  70.239  1.00  0.00    -0.373 C  
ENDBRANCH  24  25
ENDBRANCH  19  24
ENDBRANCH   4   5
ENDBRANCH   2   4
TORSDOF 4
ENDMDL
MODEL       28
REMARK 921   NORMALIZED FREE ENERGY PREDICTED BY IDOCK:   -5.77 KCAL/MOL
REMARK 922        TOTAL FREE ENERGY PREDICTED BY IDOCK:   -7.46 KCAL/MOL
REMARK 923 INTER-LIGAND FREE ENERGY PREDICTED BY IDOCK:   -7.02 KCAL/MOL
REMARK 924 INTRA-LIGAND FREE ENERGY PREDICTED BY IDOCK:   -0.45 KCAL/MOL
REMARK 927      BINDING AFFINITY PREDICTED BY RF-SCORE:    0.00 PKD
ROOT
HETATM    1  C   UNL     1     -11.105  16.174  64.617  1.00  0.00    -0.310 C  
HETATM    2  C   UNL     1     -12.035  14.999  64.681  1.00  0.00    -0.358 C  
HETATM    3  O   UNL     1     -12.540  14.473  63.698  1.00  0.00    -0.798 OA 
ENDROOT
BRANCH   2   4
HETATM    4  O   UNL     1     -12.217  14.637  66.018  1.00  0.00    -0.286 OA 
BRANCH   4   5
HETATM    5  C   UNL     1     -11.457  13.556  66.492  1.00  0.00    -0.339 A  
HETATM    6  C   UNL     1     -10.365  13.765  67.326  1.00  0.00    -0.253 A  
HETATM    7  C   UNL     1      -9.664  12.674  67.830  1.00  0.00    -0.206 A  
HETATM    8  C   UNL     1     -10.071  11.355  67.551  1.00  0.00    -0.205 A  
HETATM    9  C   UNL     1      -9.246  10.200  68.137  1.00  0.00    -0.137 C  
HETATM   10  C   UNL     1     -11.211  11.163  66.750  1.00  0.00    -0.215 A  
HETATM   11  C   UNL     1      -8.334   9.524  67.106  1.00  0.00    -0.131 A  
HETATM   12  C   UNL     1     -11.898  12.262  66.211  1.00  0.00    -0.387 A  
HETATM   13  C   UNL     1     -10.005   9.333  69.156  1.00  0.00    -0.181 A  
HETATM   14  C   UNL     1      -8.819   8.844  65.988  1.00  0.00    -0.206 A  
HETATM   15  C   UNL     1     -10.202   7.949  69.042  1.00  0.00    -0.216 A  
HETATM   16  C   UNL     1      -7.918   8.315  65.063  1.00  0.00    -0.141 A  
HETATM   17  C   UNL     1     -10.819   7.224  70.078  1.00  0.00    -0.271 A  
HETATM   18  C   UNL     1      -6.552   8.484  65.262  1.00  0.00    -0.063 A  
HETATM   19  C   UNL     1     -11.230   7.870  71.245  1.00  0.00    -0.255 A  
HETATM   20  C   UNL     1     -11.077   9.244  71.369  1.00  0.00    -0.437 A  
HETATM   21  C   UNL     1      -6.143   9.175  66.385  1.00  0.00    -0.063 A  
HETATM   22  C   UNL     1     -10.473   9.963  70.332  1.00  0.00    -0.347 A  
HETATM   23  N   UNL     1      -6.994   9.684  67.303  1.00  0.00    -0.084 NA 
BRANCH  19  24
HETATM   24  O   UNL     1     -11.883   7.086  72.223  1.00  0.00    -0.277 OA 
BRANCH  24  25
HETATM   25  C   UNL     1     -11.177   6.183  73.025  1.00  0.00    -0.172 C  
HETATM   26  O   UNL     1     -11.279   4.963  73.025  1.00  0.00    -0.279 OA 
HETATM   27  C   UNL     1     -10.208   6.940  73.891  1.00  0.00    -0.401 C  
ENDBRANCH  24  25
ENDBRANCH  19  24
ENDBRANCH   4   5
ENDBRANCH   2   4
TORSDOF 4
ENDMDL
MODEL       29
REMARK 921   NORMALIZED FREE ENERGY PREDICTED BY IDOCK:   -5.42 KCAL/MOL
REMARK 922        TOTAL FREE ENERGY PREDICTED BY IDOCK:   -7.02 KCAL/MOL
REMARK 923 INTER-LIGAND FREE ENERGY PREDICTED BY IDOCK:   -6.51 KCAL/MOL
REMARK 924 INTRA-LIGAND FREE ENERGY PREDICTED BY IDOCK:   -0.52 KCAL/MOL
REMARK 927      BINDING AFFINITY PREDICTED BY RF-SCORE:    0.00 PKD
ROOT
HETATM    1  C   UNL     1      -9.950  19.249  68.226  1.00  0.00    -0.497 C  
HETATM    2  C   UNL     1      -9.507  17.857  67.883  1.00  0.00    -0.272 C  
HETATM    3  O   UNL     1      -9.083  17.527  66.783  1.00  0.00    -0.246 OA 
ENDROOT
BRANCH   2   4
HETATM    4  O   UNL     1      -9.672  17.041  69.004  1.00  0.00    -0.259 OA 
BRANCH   4   5
HETATM    5  C   UNL     1     -10.035  15.705  68.768  1.00  0.00    -0.213 A  
HETATM    6  C   UNL     1     -11.339  15.373  68.420  1.00  0.00    -0.345 A  
HETATM    7  C   UNL     1     -11.660  14.050  68.133  1.00  0.00    -0.369 A  
HETATM    8  C   UNL     1     -10.675  13.045  68.138  1.00  0.00    -0.258 A  
HETATM    9  C   UNL     1     -11.103  11.605  67.816  1.00  0.00    -0.309 C  
HETATM   10  C   UNL     1      -9.350  13.409  68.438  1.00  0.00    -0.165 A  
HETATM   11  C   UNL     1     -11.203  10.711  69.058  1.00  0.00    -0.265 A  
HETATM   12  C   UNL     1      -9.030  14.736  68.764  1.00  0.00    -0.179 A  
HETATM   13  C   UNL     1     -10.492  11.036  66.525  1.00  0.00    -0.309 A  
HETATM   14  C   UNL     1     -10.104  10.393  69.858  1.00  0.00    -0.144 A  
HETATM   15  C   UNL     1      -9.715   9.871  66.450  1.00  0.00    -0.270 A  
HETATM   16  C   UNL     1     -10.295   9.627  71.010  1.00  0.00    -0.292 A  
HETATM   17  C   UNL     1      -9.286   9.371  65.207  1.00  0.00    -0.303 A  
HETATM   18  C   UNL     1     -11.575   9.204  71.349  1.00  0.00    -0.411 A  
HETATM   19  C   UNL     1      -9.643  10.021  64.024  1.00  0.00    -0.177 A  
HETATM   20  C   UNL     1     -10.382  11.195  64.072  1.00  0.00    -0.437 A  
HETATM   21  C   UNL     1     -12.616   9.563  70.516  1.00  0.00     0.110 A  
HETATM   22  C   UNL     1     -10.797  11.694  65.311  1.00  0.00    -0.340 A  
HETATM   23  N   UNL     1     -12.457  10.291  69.389  1.00  0.00     0.048 NA 
BRANCH  19  24
HETATM   24  O   UNL     1      -9.138   9.487  62.816  1.00  0.00    -0.259 OA 
BRANCH  24  25
HETATM   25  C   UNL     1      -7.764   9.334  62.604  1.00  0.00    -0.117 C  
HETATM   26  O   UNL     1      -7.142   8.281  62.551  1.00  0.00    -0.089 OA 
HETATM   27  C   UNL     1      -7.138  10.685  62.401  1.00  0.00    -0.136 C  
ENDBRANCH  24  25
ENDBRANCH  19  24
ENDBRANCH   4   5
ENDBRANCH   2   4
TORSDOF 4
ENDMDL
MODEL       30
REMARK 921   NORMALIZED FREE ENERGY PREDICTED BY IDOCK:   -5.42 KCAL/MOL
REMARK 922        TOTAL FREE ENERGY PREDICTED BY IDOCK:   -7.02 KCAL/MOL
REMARK 923 INTER-LIGAND FREE ENERGY PREDICTED BY IDOCK:   -6.62 KCAL/MOL
REMARK 924 INTRA-LIGAND FREE ENERGY PREDICTED BY IDOCK:   -0.40 KCAL/MOL
REMARK 927      BINDING AFFINITY PREDICTED BY RF-SCORE:    0.00 PKD
ROOT
HETATM    1  C   UNL     1     -12.987   7.120  71.299  1.00  0.00    -0.378 C  
HETATM    2  C   UNL     1     -11.628   6.507  71.464  1.00  0.00    -0.315 C  
HETATM    3  O   UNL     1     -10.985   6.541  72.505  1.00  0.00    -0.229 OA 
ENDROOT
BRANCH   2   4
HETATM    4  O   UNL     1     -11.245   5.924  70.254  1.00  0.00    -0.332 OA 
BRANCH   4   5
HETATM    5  C   UNL     1     -10.735   6.784  69.268  1.00  0.00    -0.253 A  
HETATM    6  C   UNL     1     -11.147   6.673  67.945  1.00  0.00    -0.310 A  
HETATM    7  C   UNL     1     -10.673   7.575  66.998  1.00  0.00    -0.367 A  
HETATM    8  C   UNL     1      -9.821   8.634  67.364  1.00  0.00    -0.249 A  
HETATM    9  C   UNL     1      -9.333   9.589  66.265  1.00  0.00    -0.242 C  
HETATM   10  C   UNL     1      -9.459   8.764  68.717  1.00  0.00    -0.142 A  
HETATM   11  C   UNL     1      -7.882   9.331  65.838  1.00  0.00    -0.099 A  
HETATM   12  C   UNL     1      -9.906   7.833  69.668  1.00  0.00    -0.182 A  
HETATM   13  C   UNL     1      -9.827  11.037  66.417  1.00  0.00    -0.252 A  
HETATM   14  C   UNL     1      -6.796   9.486  66.701  1.00  0.00    -0.084 A  
HETATM   15  C   UNL     1      -8.997  12.162  66.517  1.00  0.00    -0.179 A  
HETATM   16  C   UNL     1      -5.514   9.165  66.251  1.00  0.00    -0.044 A  
HETATM   17  C   UNL     1      -9.542  13.458  66.549  1.00  0.00    -0.277 A  
HETATM   18  C   UNL     1      -5.340   8.684  64.959  1.00  0.00    -0.039 A  
HETATM   19  C   UNL     1     -10.924  13.645  66.464  1.00  0.00    -0.295 A  
HETATM   20  C   UNL     1     -11.770  12.547  66.398  1.00  0.00    -0.458 A  
HETATM   21  C   UNL     1      -6.460   8.547  64.164  1.00  0.00    -0.071 A  
HETATM   22  C   UNL     1     -11.223  11.259  66.377  1.00  0.00    -0.190 A  
HETATM   23  N   UNL     1      -7.709   8.864  64.569  1.00  0.00    -0.113 NA 
BRANCH  19  24
HETATM   24  O   UNL     1     -11.403  14.972  66.548  1.00  0.00    -0.341 OA 
BRANCH  24  25
HETATM   25  C   UNL     1     -10.865  15.993  65.757  1.00  0.00    -0.230 C  
HETATM   26  O   UNL     1     -10.939  16.098  64.540  1.00  0.00    -0.645 OA 
HETATM   27  C   UNL     1     -10.195  17.006  66.643  1.00  0.00    -0.310 C  
ENDBRANCH  24  25
ENDBRANCH  19  24
ENDBRANCH   4   5
ENDBRANCH   2   4
TORSDOF 4
ENDMDL
MODEL       31
REMARK 921   NORMALIZED FREE ENERGY PREDICTED BY IDOCK:   -5.36 KCAL/MOL
REMARK 922        TOTAL FREE ENERGY PREDICTED BY IDOCK:   -6.95 KCAL/MOL
REMARK 923 INTER-LIGAND FREE ENERGY PREDICTED BY IDOCK:   -6.65 KCAL/MOL
REMARK 924 INTRA-LIGAND FREE ENERGY PREDICTED BY IDOCK:   -0.30 KCAL/MOL
REMARK 927      BINDING AFFINITY PREDICTED BY RF-SCORE:    0.00 PKD
ROOT
HETATM    1  C   UNL     1     -11.030   7.896  72.924  1.00  0.00    -0.452 C  
HETATM    2  C   UNL     1      -9.564   7.960  72.609  1.00  0.00    -0.227 C  
HETATM    3  O   UNL     1      -8.731   8.482  73.339  1.00  0.00    -0.331 OA 
ENDROOT
BRANCH   2   4
HETATM    4  O   UNL     1      -9.339   7.348  71.374  1.00  0.00    -0.143 OA 
BRANCH   4   5
HETATM    5  C   UNL     1      -9.454   8.158  70.233  1.00  0.00    -0.170 A  
HETATM    6  C   UNL     1     -10.536   8.024  69.371  1.00  0.00    -0.223 A  
HETATM    7  C   UNL     1     -10.659   8.878  68.281  1.00  0.00    -0.203 A  
HETATM    8  C   UNL     1      -9.731   9.914  68.060  1.00  0.00    -0.160 A  
HETATM    9  C   UNL     1      -9.926  10.817  66.833  1.00  0.00    -0.240 C  
HETATM   10  C   UNL     1      -8.674  10.070  68.974  1.00  0.00    -0.158 A  
HETATM   11  C   UNL     1      -8.965  10.490  65.683  1.00  0.00    -0.180 A  
HETATM   12  C   UNL     1      -8.527   9.186  70.055  1.00  0.00    -0.164 A  
HETATM   13  C   UNL     1     -10.229  12.287  67.168  1.00  0.00    -0.224 A  
HETATM   14  C   UNL     1      -7.580  10.630  65.785  1.00  0.00    -0.120 A  
HETATM   15  C   UNL     1      -9.467  13.382  66.736  1.00  0.00    -0.263 A  
HETATM   16  C   UNL     1      -6.772  10.247  64.712  1.00  0.00    -0.089 A  
HETATM   17  C   UNL     1      -9.882  14.698  67.007  1.00  0.00    -0.244 A  
HETATM   18  C   UNL     1      -7.357   9.721  63.566  1.00  0.00    -0.123 A  
HETATM   19  C   UNL     1     -11.073  14.935  67.698  1.00  0.00    -0.311 A  
HETATM   20  C   UNL     1     -11.828  13.868  68.166  1.00  0.00    -0.407 A  
HETATM   21  C   UNL     1      -8.733   9.604  63.538  1.00  0.00    -0.222 A  
HETATM   22  C   UNL     1     -11.406  12.561  67.903  1.00  0.00    -0.343 A  
HETATM   23  N   UNL     1      -9.538   9.980  64.556  1.00  0.00    -0.303 NA 
BRANCH  19  24
HETATM   24  O   UNL     1     -11.404  16.281  67.974  1.00  0.00    -0.313 OA 
BRANCH  24  25
HETATM   25  C   UNL     1     -10.585  17.335  67.552  1.00  0.00    -0.329 C  
HETATM   26  O   UNL     1     -10.522  17.812  66.427  1.00  0.00    -0.348 OA 
HETATM   27  C   UNL     1      -9.794  17.848  68.723  1.00  0.00    -0.354 C  
ENDBRANCH  24  25
ENDBRANCH  19  24
ENDBRANCH   4   5
ENDBRANCH   2   4
TORSDOF 4
ENDMDL
MODEL       32
REMARK 921   NORMALIZED FREE ENERGY PREDICTED BY IDOCK:   -5.34 KCAL/MOL
REMARK 922        TOTAL FREE ENERGY PREDICTED BY IDOCK:   -6.92 KCAL/MOL
REMARK 923 INTER-LIGAND FREE ENERGY PREDICTED BY IDOCK:   -6.46 KCAL/MOL
REMARK 924 INTRA-LIGAND FREE ENERGY PREDICTED BY IDOCK:   -0.47 KCAL/MOL
REMARK 927      BINDING AFFINITY PREDICTED BY RF-SCORE:    0.00 PKD
ROOT
HETATM    1  C   UNL     1     -11.297   6.607  71.445  1.00  0.00    -0.335 C  
HETATM    2  C   UNL     1      -9.823   6.373  71.286  1.00  0.00    -0.181 C  
HETATM    3  O   UNL     1      -9.006   6.526  72.185  1.00  0.00    -0.139 OA 
ENDROOT
BRANCH   2   4
HETATM    4  O   UNL     1      -9.568   5.972  69.972  1.00  0.00    -0.159 OA 
BRANCH   4   5
HETATM    5  C   UNL     1      -9.610   6.970  68.986  1.00  0.00    -0.141 A  
HETATM    6  C   UNL     1     -10.602   6.966  68.012  1.00  0.00    -0.273 A  
HETATM    7  C   UNL     1     -10.658   7.998  67.081  1.00  0.00    -0.367 A  
HETATM    8  C   UNL     1      -9.756   9.078  67.136  1.00  0.00    -0.237 A  
HETATM    9  C   UNL     1      -9.874  10.180  66.073  1.00  0.00    -0.308 C  
HETATM   10  C   UNL     1      -8.794   9.093  68.162  1.00  0.00    -0.129 A  
HETATM   11  C   UNL     1      -8.799  10.085  64.983  1.00  0.00    -0.186 A  
HETATM   12  C   UNL     1      -8.712   8.034  69.081  1.00  0.00    -0.137 A  
HETATM   13  C   UNL     1     -10.265  11.559  66.629  1.00  0.00    -0.254 A  
HETATM   14  C   UNL     1      -7.436  10.236  65.242  1.00  0.00    -0.141 A  
HETATM   15  C   UNL     1      -9.511  12.731  66.472  1.00  0.00    -0.253 A  
HETATM   16  C   UNL     1      -6.518  10.069  64.203  1.00  0.00    -0.131 A  
HETATM   17  C   UNL     1     -10.001  13.968  66.927  1.00  0.00    -0.263 A  
HETATM   18  C   UNL     1      -6.974   9.742  62.931  1.00  0.00    -0.116 A  
HETATM   19  C   UNL     1     -11.259  14.050  67.529  1.00  0.00    -0.309 A  
HETATM   20  C   UNL     1     -12.011  12.900  67.727  1.00  0.00    -0.336 A  
HETATM   21  C   UNL     1      -8.335   9.600  62.749  1.00  0.00    -0.162 A  
HETATM   22  C   UNL     1     -11.514  11.671  67.283  1.00  0.00    -0.350 A  
HETATM   23  N   UNL     1      -9.245   9.771  63.733  1.00  0.00    -0.242 NA 
BRANCH  19  24
HETATM   24  O   UNL     1     -11.667  15.318  68.003  1.00  0.00    -0.342 OA 
BRANCH  24  25
HETATM   25  C   UNL     1     -10.871  16.060  68.882  1.00  0.00    -0.286 C  
HETATM   26  O   UNL     1     -10.535  15.742  70.015  1.00  0.00    -0.295 OA 
HETATM   27  C   UNL     1     -10.432  17.328  68.205  1.00  0.00    -0.385 C  
ENDBRANCH  24  25
ENDBRANCH  19  24
ENDBRANCH   4   5
ENDBRANCH   2   4
TORSDOF 4
ENDMDL
MODEL       33
REMARK 921   NORMALIZED FREE ENERGY PREDICTED BY IDOCK:   -5.23 KCAL/MOL
REMARK 922        TOTAL FREE ENERGY PREDICTED BY IDOCK:   -6.80 KCAL/MOL
REMARK 923 INTER-LIGAND FREE ENERGY PREDICTED BY IDOCK:   -6.34 KCAL/MOL
REMARK 924 INTRA-LIGAND FREE ENERGY PREDICTED BY IDOCK:   -0.46 KCAL/MOL
REMARK 927      BINDING AFFINITY PREDICTED BY RF-SCORE:    0.00 PKD
ROOT
HETATM    1  C   UNL     1     -12.329  13.604  66.157  1.00  0.00    -0.476 C  
HETATM    2  C   UNL     1     -10.865  13.449  66.448  1.00  0.00    -0.289 C  
HETATM    3  O   UNL     1      -9.999  13.396  65.585  1.00  0.00    -0.285 OA 
ENDROOT
BRANCH   2   4
HETATM    4  O   UNL     1     -10.684  13.372  67.831  1.00  0.00    -0.238 OA 
BRANCH   4   5
HETATM    5  C   UNL     1     -10.607  12.086  68.389  1.00  0.00    -0.217 A  
HETATM    6  C   UNL     1     -11.745  11.452  68.874  1.00  0.00    -0.409 A  
HETATM    7  C   UNL     1     -11.654  10.154  69.368  1.00  0.00    -0.151 A  
HETATM    8  C   UNL     1     -10.435   9.449  69.340  1.00  0.00    -0.231 A  
HETATM    9  C   UNL     1     -10.407   8.022  69.907  1.00  0.00    -0.221 C  
HETATM   10  C   UNL     1      -9.307  10.087  68.795  1.00  0.00    -0.162 A  
HETATM   11  C   UNL     1      -9.763   7.935  71.296  1.00  0.00    -0.157 A  
HETATM   12  C   UNL     1      -9.388  11.409  68.330  1.00  0.00    -0.187 A  
HETATM   13  C   UNL     1     -10.103   6.932  68.865  1.00  0.00    -0.174 A  
HETATM   14  C   UNL     1      -8.423   8.246  71.535  1.00  0.00    -0.179 A  
HETATM   15  C   UNL     1      -9.037   6.024  68.942  1.00  0.00    -0.121 A  
HETATM   16  C   UNL     1      -7.933   8.205  72.842  1.00  0.00    -0.211 A  
HETATM   17  C   UNL     1      -8.901   4.994  67.994  1.00  0.00    -0.109 A  
HETATM   18  C   UNL     1      -8.788   7.869  73.885  1.00  0.00    -0.315 A  
HETATM   19  C   UNL     1      -9.838   4.850  66.969  1.00  0.00    -0.193 A  
HETATM   20  C   UNL     1     -10.883   5.756  66.850  1.00  0.00    -0.337 A  
HETATM   21  C   UNL     1     -10.104   7.582  73.577  1.00  0.00    -0.323 A  
HETATM   22  C   UNL     1     -11.009   6.785  67.789  1.00  0.00    -0.321 A  
HETATM   23  N   UNL     1     -10.599   7.600  72.320  1.00  0.00    -0.229 NA 
BRANCH  19  24
HETATM   24  O   UNL     1      -9.612   3.821  66.026  1.00  0.00    -0.181 OA 
BRANCH  24  25
HETATM   25  C   UNL     1      -9.823   4.025  64.658  1.00  0.00    -0.195 C  
HETATM   26  O   UNL     1     -10.817   3.719  64.013  1.00  0.00    -0.287 OA 
HETATM   27  C   UNL     1      -8.634   4.736  64.074  1.00  0.00    -0.137 C  
ENDBRANCH  24  25
ENDBRANCH  19  24
ENDBRANCH   4   5
ENDBRANCH   2   4
TORSDOF 4
ENDMDL
MODEL       34
REMARK 921   NORMALIZED FREE ENERGY PREDICTED BY IDOCK:   -5.22 KCAL/MOL
REMARK 922        TOTAL FREE ENERGY PREDICTED BY IDOCK:   -6.78 KCAL/MOL
REMARK 923 INTER-LIGAND FREE ENERGY PREDICTED BY IDOCK:   -6.46 KCAL/MOL
REMARK 924 INTRA-LIGAND FREE ENERGY PREDICTED BY IDOCK:   -0.32 KCAL/MOL
REMARK 927      BINDING AFFINITY PREDICTED BY RF-SCORE:    0.00 PKD
ROOT
HETATM    1  C   UNL     1      -9.618  19.147  68.109  1.00  0.00    -0.411 C  
HETATM    2  C   UNL     1     -10.188  17.925  67.453  1.00  0.00    -0.360 C  
HETATM    3  O   UNL     1     -10.486  17.862  66.267  1.00  0.00    -0.368 OA 
ENDROOT
BRANCH   2   4
HETATM    4  O   UNL     1     -10.320  16.916  68.410  1.00  0.00    -0.297 OA 
BRANCH   4   5
HETATM    5  C   UNL     1     -10.036  15.606  67.994  1.00  0.00    -0.222 A  
HETATM    6  C   UNL     1      -8.722  15.165  67.878  1.00  0.00    -0.157 A  
HETATM    7  C   UNL     1      -8.467  13.845  67.522  1.00  0.00    -0.200 A  
HETATM    8  C   UNL     1      -9.518  12.929  67.324  1.00  0.00    -0.216 A  
HETATM    9  C   UNL     1      -9.162  11.488  66.927  1.00  0.00    -0.181 C  
HETATM   10  C   UNL     1     -10.838  13.378  67.500  1.00  0.00    -0.276 A  
HETATM   11  C   UNL     1      -9.394  11.196  65.439  1.00  0.00    -0.219 A  
HETATM   12  C   UNL     1     -11.100  14.719  67.824  1.00  0.00    -0.306 A  
HETATM   13  C   UNL     1      -9.546  10.429  67.973  1.00  0.00    -0.156 A  
HETATM   14  C   UNL     1     -10.656  11.235  64.844  1.00  0.00    -0.364 A  
HETATM   15  C   UNL     1     -10.390   9.335  67.735  1.00  0.00    -0.292 A  
HETATM   16  C   UNL     1     -10.771  11.021  63.469  1.00  0.00    -0.230 A  
HETATM   17  C   UNL     1     -10.601   8.360  68.726  1.00  0.00    -0.154 A  
HETATM   18  C   UNL     1      -9.629  10.785  62.713  1.00  0.00    -0.337 A  
HETATM   19  C   UNL     1      -9.956   8.458  69.961  1.00  0.00    -0.188 A  
HETATM   20  C   UNL     1      -9.141   9.548  70.235  1.00  0.00    -0.296 A  
HETATM   21  C   UNL     1      -8.413  10.769  63.367  1.00  0.00    -0.042 A  
HETATM   22  C   UNL     1      -8.944  10.521  69.249  1.00  0.00    -0.148 A  
HETATM   23  N   UNL     1      -8.275  10.958  64.698  1.00  0.00     0.075 NA 
BRANCH  19  24
HETATM   24  O   UNL     1     -10.250   7.466  70.925  1.00  0.00    -0.193 OA 
BRANCH  24  25
HETATM   25  C   UNL     1     -11.146   6.427  70.652  1.00  0.00    -0.317 C  
HETATM   26  O   UNL     1     -12.368   6.484  70.677  1.00  0.00    -0.277 OA 
HETATM   27  C   UNL     1     -10.375   5.195  70.268  1.00  0.00    -0.331 C  
ENDBRANCH  24  25
ENDBRANCH  19  24
ENDBRANCH   4   5
ENDBRANCH   2   4
TORSDOF 4
ENDMDL
MODEL       35
REMARK 921   NORMALIZED FREE ENERGY PREDICTED BY IDOCK:   -5.17 KCAL/MOL
REMARK 922        TOTAL FREE ENERGY PREDICTED BY IDOCK:   -6.72 KCAL/MOL
REMARK 923 INTER-LIGAND FREE ENERGY PREDICTED BY IDOCK:   -6.37 KCAL/MOL
REMARK 924 INTRA-LIGAND FREE ENERGY PREDICTED BY IDOCK:   -0.35 KCAL/MOL
REMARK 927      BINDING AFFINITY PREDICTED BY RF-SCORE:    0.00 PKD
ROOT
HETATM    1  C   UNL     1      -9.566   5.991  74.565  1.00  0.00    -0.232 C  
HETATM    2  C   UNL     1     -10.707   6.020  73.591  1.00  0.00    -0.219 C  
HETATM    3  O   UNL     1     -11.265   5.018  73.162  1.00  0.00    -0.297 OA 
ENDROOT
BRANCH   2   4
HETATM    4  O   UNL     1     -10.997   7.349  73.272  1.00  0.00    -0.376 OA 
BRANCH   4   5
HETATM    5  C   UNL     1     -10.683   7.771  71.970  1.00  0.00    -0.231 A  
HETATM    6  C   UNL     1     -11.437   7.343  70.883  1.00  0.00    -0.311 A  
HETATM    7  C   UNL     1     -11.143   7.822  69.610  1.00  0.00    -0.052 A  
HETATM    8  C   UNL     1     -10.126   8.773  69.407  1.00  0.00    -0.203 A  
HETATM    9  C   UNL     1      -9.854   9.254  67.974  1.00  0.00    -0.191 C  
HETATM   10  C   UNL     1      -9.411   9.236  70.526  1.00  0.00    -0.316 A  
HETATM   11  C   UNL     1      -8.599   8.627  67.354  1.00  0.00    -0.134 A  
HETATM   12  C   UNL     1      -9.680   8.727  71.807  1.00  0.00    -0.380 A  
HETATM   13  C   UNL     1     -10.148  10.744  67.738  1.00  0.00    -0.201 A  
HETATM   14  C   UNL     1      -7.314   8.839  67.857  1.00  0.00    -0.088 A  
HETATM   15  C   UNL     1      -9.215  11.682  67.274  1.00  0.00    -0.170 A  
HETATM   16  C   UNL     1      -6.232   8.177  67.273  1.00  0.00    -0.055 A  
HETATM   17  C   UNL     1      -9.604  13.004  66.989  1.00  0.00    -0.236 A  
HETATM   18  C   UNL     1      -6.452   7.308  66.210  1.00  0.00    -0.048 A  
HETATM   19  C   UNL     1     -10.934  13.398  67.149  1.00  0.00    -0.280 A  
HETATM   20  C   UNL     1     -11.871  12.498  67.639  1.00  0.00    -0.381 A  
HETATM   21  C   UNL     1      -7.750   7.140  65.770  1.00  0.00    -0.099 A  
HETATM   22  C   UNL     1     -11.477  11.188  67.931  1.00  0.00    -0.359 A  
HETATM   23  N   UNL     1      -8.812   7.779  66.307  1.00  0.00    -0.153 NA 
BRANCH  19  24
HETATM   24  O   UNL     1     -11.244  14.752  66.887  1.00  0.00    -0.332 OA 
BRANCH  24  25
HETATM   25  C   UNL     1     -11.257  15.708  67.909  1.00  0.00    -0.328 C  
HETATM   26  O   UNL     1     -11.836  15.626  68.984  1.00  0.00    -0.376 OA 
HETATM   27  C   UNL     1     -10.398  16.874  67.509  1.00  0.00    -0.318 C  
ENDBRANCH  24  25
ENDBRANCH  19  24
ENDBRANCH   4   5
ENDBRANCH   2   4
TORSDOF 4
ENDMDL
MODEL       36
REMARK 921   NORMALIZED FREE ENERGY PREDICTED BY IDOCK:   -5.12 KCAL/MOL
REMARK 922        TOTAL FREE ENERGY PREDICTED BY IDOCK:   -6.65 KCAL/MOL
REMARK 923 INTER-LIGAND FREE ENERGY PREDICTED BY IDOCK:   -6.35 KCAL/MOL
REMARK 924 INTRA-LIGAND FREE ENERGY PREDICTED BY IDOCK:   -0.30 KCAL/MOL
REMARK 927      BINDING AFFINITY PREDICTED BY RF-SCORE:    0.00 PKD
ROOT
HETATM    1  C   UNL     1     -10.155  18.397  68.321  1.00  0.00    -0.410 C  
HETATM    2  C   UNL     1     -10.599  17.098  67.716  1.00  0.00    -0.360 C  
HETATM    3  O   UNL     1     -10.556  16.853  66.517  1.00  0.00    -0.280 OA 
ENDROOT
BRANCH   2   4
HETATM    4  O   UNL     1     -11.061  16.258  68.732  1.00  0.00    -0.323 OA 
BRANCH   4   5
HETATM    5  C   UNL     1     -10.903  14.877  68.534  1.00  0.00    -0.247 A  
HETATM    6  C   UNL     1     -12.005  14.062  68.305  1.00  0.00    -0.384 A  
HETATM    7  C   UNL     1     -11.819  12.706  68.053  1.00  0.00    -0.376 A  
HETATM    8  C   UNL     1     -10.526  12.152  67.975  1.00  0.00    -0.227 A  
HETATM    9  C   UNL     1     -10.396  10.646  67.698  1.00  0.00    -0.246 C  
HETATM   10  C   UNL     1      -9.422  13.003  68.155  1.00  0.00    -0.218 A  
HETATM   11  C   UNL     1     -10.048   9.829  68.948  1.00  0.00    -0.183 A  
HETATM   12  C   UNL     1      -9.609  14.364  68.446  1.00  0.00    -0.219 A  
HETATM   13  C   UNL     1      -9.719  10.304  66.360  1.00  0.00    -0.252 A  
HETATM   14  C   UNL     1      -8.851   9.983  69.650  1.00  0.00    -0.217 A  
HETATM   15  C   UNL     1      -8.566   9.520  66.223  1.00  0.00    -0.141 A  
HETATM   16  C   UNL     1      -8.641   9.246  70.817  1.00  0.00    -0.254 A  
HETATM   17  C   UNL     1      -8.079   9.174  64.949  1.00  0.00    -0.133 A  
HETATM   18  C   UNL     1      -9.631   8.382  71.269  1.00  0.00    -0.239 A  
HETATM   19  C   UNL     1      -8.750   9.594  63.799  1.00  0.00    -0.223 A  
HETATM   20  C   UNL     1      -9.876  10.400  63.907  1.00  0.00    -0.332 A  
HETATM   21  C   UNL     1     -10.794   8.286  70.531  1.00  0.00    -0.232 A  
HETATM   22  C   UNL     1     -10.349  10.750  65.176  1.00  0.00    -0.341 A  
HETATM   23  N   UNL     1     -11.015   8.976  69.390  1.00  0.00    -0.131 NA 
BRANCH  19  24
HETATM   24  O   UNL     1      -8.178   9.248  62.553  1.00  0.00    -0.136 OA 
BRANCH  24  25
HETATM   25  C   UNL     1      -7.359   8.123  62.415  1.00  0.00    -0.098 C  
HETATM   26  O   UNL     1      -6.137   8.107  62.343  1.00  0.00    -0.083 OA 
HETATM   27  C   UNL     1      -8.211   6.885  62.408  1.00  0.00    -0.063 C  
ENDBRANCH  24  25
ENDBRANCH  19  24
ENDBRANCH   4   5
ENDBRANCH   2   4
TORSDOF 4
ENDMDL
MODEL       37
REMARK 921   NORMALIZED FREE ENERGY PREDICTED BY IDOCK:   -5.08 KCAL/MOL
REMARK 922        TOTAL FREE ENERGY PREDICTED BY IDOCK:   -6.61 KCAL/MOL
REMARK 923 INTER-LIGAND FREE ENERGY PREDICTED BY IDOCK:   -6.48 KCAL/MOL
REMARK 924 INTRA-LIGAND FREE ENERGY PREDICTED BY IDOCK:   -0.13 KCAL/MOL
REMARK 927      BINDING AFFINITY PREDICTED BY RF-SCORE:    0.00 PKD
ROOT
HETATM    1  C   UNL     1      -7.477  18.912  66.287  1.00  0.00    -0.288 C  
HETATM    2  C   UNL     1      -8.850  18.339  66.478  1.00  0.00    -0.271 C  
HETATM    3  O   UNL     1      -9.815  18.990  66.859  1.00  0.00    -0.303 OA 
ENDROOT
BRANCH   2   4
HETATM    4  O   UNL     1      -8.821  16.979  66.163  1.00  0.00    -0.407 OA 
BRANCH   4   5
HETATM    5  C   UNL     1      -9.621  16.129  66.944  1.00  0.00    -0.230 A  
HETATM    6  C   UNL     1     -10.920  15.821  66.558  1.00  0.00    -0.165 A  
HETATM    7  C   UNL     1     -11.672  14.931  67.316  1.00  0.00    -0.308 A  
HETATM    8  C   UNL     1     -11.123  14.293  68.446  1.00  0.00    -0.274 A  
HETATM    9  C   UNL     1     -12.014  13.326  69.239  1.00  0.00    -0.354 C  
HETATM   10  C   UNL     1      -9.789  14.575  68.790  1.00  0.00    -0.220 A  
HETATM   11  C   UNL     1     -12.542  13.925  70.549  1.00  0.00    -0.312 A  
HETATM   12  C   UNL     1      -9.040  15.501  68.047  1.00  0.00    -0.182 A  
HETATM   13  C   UNL     1     -11.538  11.863  69.217  1.00  0.00    -0.376 A  
HETATM   14  C   UNL     1     -11.710  14.303  71.604  1.00  0.00     0.143 A  
HETATM   15  C   UNL     1     -11.234  11.101  70.354  1.00  0.00    -0.002 A  
HETATM   16  C   UNL     1     -12.267  14.902  72.734  1.00  0.00    -0.397 A  
HETATM   17  C   UNL     1     -10.906   9.738  70.239  1.00  0.00    -0.356 A  
HETATM   18  C   UNL     1     -13.638  15.126  72.787  1.00  0.00    -0.588 A  
HETATM   19  C   UNL     1     -10.896   9.117  68.988  1.00  0.00    -0.090 A  
HETATM   20  C   UNL     1     -11.160   9.857  67.843  1.00  0.00    -0.216 A  
HETATM   21  C   UNL     1     -14.400  14.734  71.704  1.00  0.00    -0.557 A  
HETATM   22  C   UNL     1     -11.474  11.215  67.962  1.00  0.00    -0.366 A  
HETATM   23  N   UNL     1     -13.887  14.139  70.605  1.00  0.00     0.324 NA 
BRANCH  19  24
HETATM   24  O   UNL     1     -10.513   7.757  68.944  1.00  0.00    -0.213 OA 
BRANCH  24  25
HETATM   25  C   UNL     1      -9.626   7.218  69.882  1.00  0.00    -0.163 C  
HETATM   26  O   UNL     1      -9.828   7.060  71.079  1.00  0.00    -0.181 OA 
HETATM   27  C   UNL     1      -8.359   6.805  69.187  1.00  0.00    -0.125 C  
ENDBRANCH  24  25
ENDBRANCH  19  24
ENDBRANCH   4   5
ENDBRANCH   2   4
TORSDOF 4
ENDMDL
MODEL       38
REMARK 921   NORMALIZED FREE ENERGY PREDICTED BY IDOCK:   -5.07 KCAL/MOL
REMARK 922        TOTAL FREE ENERGY PREDICTED BY IDOCK:   -6.60 KCAL/MOL
REMARK 923 INTER-LIGAND FREE ENERGY PREDICTED BY IDOCK:   -6.20 KCAL/MOL
REMARK 924 INTRA-LIGAND FREE ENERGY PREDICTED BY IDOCK:   -0.40 KCAL/MOL
REMARK 927      BINDING AFFINITY PREDICTED BY RF-SCORE:    0.00 PKD
ROOT
HETATM    1  C   UNL     1      -8.940   9.284  64.009  1.00  0.00    -0.107 C  
HETATM    2  C   UNL     1      -8.078   8.163  64.510  1.00  0.00    -0.142 C  
HETATM    3  O   UNL     1      -6.866   8.107  64.346  1.00  0.00    -0.067 OA 
ENDROOT
BRANCH   2   4
HETATM    4  O   UNL     1      -8.885   7.229  65.164  1.00  0.00     0.067 OA 
BRANCH   4   5
HETATM    5  C   UNL     1      -9.146   7.458  66.524  1.00  0.00    -0.162 A  
HETATM    6  C   UNL     1      -8.213   8.103  67.329  1.00  0.00    -0.121 A  
HETATM    7  C   UNL     1      -8.519   8.372  68.659  1.00  0.00    -0.128 A  
HETATM    8  C   UNL     1      -9.780   8.048  69.195  1.00  0.00    -0.163 A  
HETATM    9  C   UNL     1     -10.046   8.369  70.673  1.00  0.00    -0.220 C  
HETATM   10  C   UNL     1     -10.731   7.447  68.352  1.00  0.00    -0.142 A  
HETATM   11  C   UNL     1      -9.983   7.136  71.582  1.00  0.00    -0.177 A  
HETATM   12  C   UNL     1     -10.412   7.141  67.019  1.00  0.00    -0.392 A  
HETATM   13  C   UNL     1     -11.144   9.421  70.905  1.00  0.00    -0.389 A  
HETATM   14  C   UNL     1     -10.869   6.063  71.474  1.00  0.00    -0.322 A  
HETATM   15  C   UNL     1     -12.303   9.216  71.668  1.00  0.00    -0.434 A  
HETATM   16  C   UNL     1     -10.699   4.948  72.297  1.00  0.00    -0.218 A  
HETATM   17  C   UNL     1     -13.200  10.272  71.910  1.00  0.00    -0.550 A  
HETATM   18  C   UNL     1      -9.645   4.918  73.202  1.00  0.00    -0.154 A  
HETATM   19  C   UNL     1     -12.940  11.549  71.407  1.00  0.00    -0.348 A  
HETATM   20  C   UNL     1     -11.817  11.771  70.621  1.00  0.00    -0.185 A  
HETATM   21  C   UNL     1      -8.801   6.010  73.249  1.00  0.00    -0.130 A  
HETATM   22  C   UNL     1     -10.933  10.715  70.374  1.00  0.00    -0.162 A  
HETATM   23  N   UNL     1      -8.952   7.107  72.474  1.00  0.00    -0.127 NA 
BRANCH  19  24
HETATM   24  O   UNL     1     -13.908  12.550  71.652  1.00  0.00     0.117 OA 
BRANCH  24  25
HETATM   25  C   UNL     1     -13.576  13.741  72.306  1.00  0.00    -0.559 C  
HETATM   26  O   UNL     1     -13.051  13.854  73.406  1.00  0.00    -0.443 OA 
HETATM   27  C   UNL     1     -13.925  14.907  71.423  1.00  0.00    -0.544 C  
ENDBRANCH  24  25
ENDBRANCH  19  24
ENDBRANCH   4   5
ENDBRANCH   2   4
TORSDOF 4
ENDMDL
MODEL       39
REMARK 921   NORMALIZED FREE ENERGY PREDICTED BY IDOCK:   -5.07 KCAL/MOL
REMARK 922        TOTAL FREE ENERGY PREDICTED BY IDOCK:   -6.60 KCAL/MOL
REMARK 923 INTER-LIGAND FREE ENERGY PREDICTED BY IDOCK:   -6.51 KCAL/MOL
REMARK 924 INTRA-LIGAND FREE ENERGY PREDICTED BY IDOCK:   -0.08 KCAL/MOL
REMARK 927      BINDING AFFINITY PREDICTED BY RF-SCORE:    0.00 PKD
ROOT
HETATM    1  C   UNL     1     -11.982  15.697  64.414  1.00  0.00    -0.139 C  
HETATM    2  C   UNL     1     -12.434  14.269  64.332  1.00  0.00    -0.300 C  
HETATM    3  O   UNL     1     -12.545  13.647  63.284  1.00  0.00    -0.816 OA 
ENDROOT
BRANCH   2   4
HETATM    4  O   UNL     1     -12.704  13.805  65.622  1.00  0.00    -0.509 OA 
BRANCH   4   5
HETATM    5  C   UNL     1     -11.795  12.885  66.167  1.00  0.00    -0.429 A  
HETATM    6  C   UNL     1     -11.845  12.550  67.515  1.00  0.00    -0.389 A  
HETATM    7  C   UNL     1     -10.972  11.591  68.020  1.00  0.00    -0.284 A  
HETATM    8  C   UNL     1     -10.070  10.914  67.178  1.00  0.00    -0.235 A  
HETATM    9  C   UNL     1      -9.132   9.871  67.805  1.00  0.00    -0.138 C  
HETATM   10  C   UNL     1     -10.072  11.226  65.807  1.00  0.00    -0.294 A  
HETATM   11  C   UNL     1      -7.695  10.376  67.981  1.00  0.00    -0.092 A  
HETATM   12  C   UNL     1     -10.926  12.219  65.302  1.00  0.00    -0.347 A  
HETATM   13  C   UNL     1      -9.371   8.431  67.320  1.00  0.00    -0.181 A  
HETATM   14  C   UNL     1      -6.874  10.727  66.907  1.00  0.00    -0.101 A  
HETATM   15  C   UNL     1      -8.405   7.619  66.710  1.00  0.00    -0.125 A  
HETATM   16  C   UNL     1      -5.602  11.242  67.158  1.00  0.00    -0.075 A  
HETATM   17  C   UNL     1      -8.687   6.278  66.395  1.00  0.00    -0.137 A  
HETATM   18  C   UNL     1      -5.176  11.410  68.470  1.00  0.00    -0.043 A  
HETATM   19  C   UNL     1      -9.934   5.728  66.702  1.00  0.00    -0.176 A  
HETATM   20  C   UNL     1     -10.919   6.519  67.276  1.00  0.00    -0.475 A  
HETATM   21  C   UNL     1      -6.043  11.051  69.483  1.00  0.00    -0.072 A  
HETATM   22  C   UNL     1     -10.637   7.855  67.578  1.00  0.00    -0.312 A  
HETATM   23  N   UNL     1      -7.274  10.536  69.268  1.00  0.00    -0.091 NA 
BRANCH  19  24
HETATM   24  O   UNL     1     -10.162   4.387  66.315  1.00  0.00    -0.242 OA 
BRANCH  24  25
HETATM   25  C   UNL     1      -9.387   3.339  66.822  1.00  0.00    -0.147 C  
HETATM   26  O   UNL     1      -8.811   2.472  66.178  1.00  0.00    -0.125 OA 
HETATM   27  C   UNL     1      -9.319   3.451  68.320  1.00  0.00    -0.239 C  
ENDBRANCH  24  25
ENDBRANCH  19  24
ENDBRANCH   4   5
ENDBRANCH   2   4
TORSDOF 4
ENDMDL
MODEL       40
REMARK 921   NORMALIZED FREE ENERGY PREDICTED BY IDOCK:   -5.06 KCAL/MOL
REMARK 922        TOTAL FREE ENERGY PREDICTED BY IDOCK:   -6.58 KCAL/MOL
REMARK 923 INTER-LIGAND FREE ENERGY PREDICTED BY IDOCK:   -6.97 KCAL/MOL
REMARK 924 INTRA-LIGAND FREE ENERGY PREDICTED BY IDOCK:    0.39 KCAL/MOL
REMARK 927      BINDING AFFINITY PREDICTED BY RF-SCORE:    0.00 PKD
ROOT
HETATM    1  C   UNL     1      -6.578  10.592  62.644  1.00  0.00    -0.076 C  
HETATM    2  C   UNL     1      -6.011   9.282  63.104  1.00  0.00    -0.089 C  
HETATM    3  O   UNL     1      -5.239   8.601  62.441  1.00  0.00    -0.069 OA 
ENDROOT
BRANCH   2   4
HETATM    4  O   UNL     1      -6.516   8.991  64.373  1.00  0.00    -0.074 OA 
BRANCH   4   5
HETATM    5  C   UNL     1      -7.595   9.770  64.821  1.00  0.00    -0.129 A  
HETATM    6  C   UNL     1      -8.882   9.541  64.348  1.00  0.00    -0.251 A  
HETATM    7  C   UNL     1      -9.944  10.286  64.851  1.00  0.00    -0.393 A  
HETATM    8  C   UNL     1      -9.747  11.238  65.869  1.00  0.00    -0.258 A  
HETATM    9  C   UNL     1     -10.964  12.028  66.373  1.00  0.00    -0.337 C  
HETATM   10  C   UNL     1      -8.447  11.417  66.374  1.00  0.00    -0.160 A  
HETATM   11  C   UNL     1     -11.019  13.463  65.834  1.00  0.00    -0.274 A  
HETATM   12  C   UNL     1      -7.368  10.692  65.843  1.00  0.00    -0.128 A  
HETATM   13  C   UNL     1     -11.331  11.758  67.842  1.00  0.00    -0.362 A  
HETATM   14  C   UNL     1     -10.052  14.425  66.130  1.00  0.00    -0.323 A  
HETATM   15  C   UNL     1     -11.408  12.738  68.842  1.00  0.00    -0.344 A  
HETATM   16  C   UNL     1     -10.141  15.689  65.544  1.00  0.00    -0.395 A  
HETATM   17  C   UNL     1     -11.854  12.411  70.135  1.00  0.00    -0.341 A  
HETATM   18  C   UNL     1     -11.183  15.966  64.667  1.00  0.00    -0.361 A  
HETATM   19  C   UNL     1     -12.246  11.106  70.438  1.00  0.00    -0.369 A  
HETATM   20  C   UNL     1     -12.148  10.110  69.476  1.00  0.00     0.069 A  
HETATM   21  C   UNL     1     -12.100  14.965  64.414  1.00  0.00    -0.401 A  
HETATM   22  C   UNL     1     -11.693  10.437  68.194  1.00  0.00     0.123 A  
HETATM   23  N   UNL     1     -12.044  13.738  64.979  1.00  0.00    -0.382 NA 
BRANCH  19  24
HETATM   24  O   UNL     1     -12.640  10.841  71.770  1.00  0.00    -0.376 OA 
BRANCH  24  25
HETATM   25  C   UNL     1     -12.914   9.540  72.204  1.00  0.00    -0.412 C  
HETATM   26  O   UNL     1     -14.017   9.056  72.427  1.00  0.00    -0.465 OA 
HETATM   27  C   UNL     1     -11.626   8.775  72.326  1.00  0.00    -0.391 C  
ENDBRANCH  24  25
ENDBRANCH  19  24
ENDBRANCH   4   5
ENDBRANCH   2   4
TORSDOF 4
ENDMDL
MODEL       41
REMARK 921   NORMALIZED FREE ENERGY PREDICTED BY IDOCK:   -5.05 KCAL/MOL
REMARK 922        TOTAL FREE ENERGY PREDICTED BY IDOCK:   -6.56 KCAL/MOL
REMARK 923 INTER-LIGAND FREE ENERGY PREDICTED BY IDOCK:   -6.09 KCAL/MOL
REMARK 924 INTRA-LIGAND FREE ENERGY PREDICTED BY IDOCK:   -0.48 KCAL/MOL
REMARK 927      BINDING AFFINITY PREDICTED BY RF-SCORE:    0.00 PKD
ROOT
HETATM    1  C   UNL     1      -8.570   4.473  63.400  1.00  0.00    -0.118 C  
HETATM    2  C   UNL     1      -7.938   5.563  64.215  1.00  0.00    -0.120 C  
HETATM    3  O   UNL     1      -7.501   6.604  63.740  1.00  0.00    -0.075 OA 
ENDROOT
BRANCH   2   4
HETATM    4  O   UNL     1      -7.934   5.181  65.558  1.00  0.00    -0.103 OA 
BRANCH   4   5
HETATM    5  C   UNL     1      -8.358   6.140  66.492  1.00  0.00    -0.113 A  
HETATM    6  C   UNL     1      -7.434   6.869  67.231  1.00  0.00    -0.096 A  
HETATM    7  C   UNL     1      -7.876   7.855  68.107  1.00  0.00    -0.127 A  
HETATM    8  C   UNL     1      -9.245   8.165  68.222  1.00  0.00    -0.134 A  
HETATM    9  C   UNL     1      -9.662   9.263  69.213  1.00  0.00    -0.169 C  
HETATM   10  C   UNL     1     -10.160   7.456  67.425  1.00  0.00    -0.274 A  
HETATM   11  C   UNL     1     -10.268   8.710  70.508  1.00  0.00    -0.197 A  
HETATM   12  C   UNL     1      -9.720   6.435  66.567  1.00  0.00    -0.177 A  
HETATM   13  C   UNL     1     -10.288  10.504  68.556  1.00  0.00    -0.199 A  
HETATM   14  C   UNL     1     -11.458   7.982  70.542  1.00  0.00    -0.192 A  
HETATM   15  C   UNL     1     -11.565  11.007  68.846  1.00  0.00    -0.383 A  
HETATM   16  C   UNL     1     -11.906   7.457  71.756  1.00  0.00    -0.327 A  
HETATM   17  C   UNL     1     -12.011  12.210  68.270  1.00  0.00    -0.248 A  
HETATM   18  C   UNL     1     -11.154   7.656  72.908  1.00  0.00    -0.448 A  
HETATM   19  C   UNL     1     -11.180  12.934  67.413  1.00  0.00    -0.291 A  
HETATM   20  C   UNL     1      -9.925  12.442  67.083  1.00  0.00    -0.211 A  
HETATM   21  C   UNL     1      -9.982   8.378  72.800  1.00  0.00    -0.215 A  
HETATM   22  C   UNL     1      -9.489  11.239  67.650  1.00  0.00    -0.173 A  
HETATM   23  N   UNL     1      -9.535   8.909  71.641  1.00  0.00    -0.289 NA 
BRANCH  19  24
HETATM   24  O   UNL     1     -11.712  14.110  66.836  1.00  0.00    -0.372 OA 
BRANCH  24  25
HETATM   25  C   UNL     1     -10.988  15.307  66.821  1.00  0.00    -0.306 C  
HETATM   26  O   UNL     1     -10.651  15.974  67.790  1.00  0.00    -0.293 OA 
HETATM   27  C   UNL     1     -10.630  15.653  65.402  1.00  0.00    -0.436 C  
ENDBRANCH  24  25
ENDBRANCH  19  24
ENDBRANCH   4   5
ENDBRANCH   2   4
TORSDOF 4
ENDMDL
MODEL       42
REMARK 921   NORMALIZED FREE ENERGY PREDICTED BY IDOCK:   -5.03 KCAL/MOL
REMARK 922        TOTAL FREE ENERGY PREDICTED BY IDOCK:   -6.55 KCAL/MOL
REMARK 923 INTER-LIGAND FREE ENERGY PREDICTED BY IDOCK:   -6.24 KCAL/MOL
REMARK 924 INTRA-LIGAND FREE ENERGY PREDICTED BY IDOCK:   -0.31 KCAL/MOL
REMARK 927      BINDING AFFINITY PREDICTED BY RF-SCORE:    0.00 PKD
ROOT
HETATM    1  C   UNL     1      -7.025   4.153  73.356  1.00  0.00    -0.063 C  
HETATM    2  C   UNL     1      -7.599   5.539  73.321  1.00  0.00    -0.096 C  
HETATM    3  O   UNL     1      -8.468   5.937  74.086  1.00  0.00    -0.113 OA 
ENDROOT
BRANCH   2   4
HETATM    4  O   UNL     1      -6.990   6.255  72.289  1.00  0.00    -0.072 OA 
BRANCH   4   5
HETATM    5  C   UNL     1      -7.828   7.039  71.480  1.00  0.00    -0.098 A  
HETATM    6  C   UNL     1      -8.945   6.484  70.865  1.00  0.00    -0.147 A  
HETATM    7  C   UNL     1      -9.793   7.294  70.117  1.00  0.00    -0.179 A  
HETATM    8  C   UNL     1      -9.570   8.681  70.012  1.00  0.00    -0.175 A  
HETATM    9  C   UNL     1     -10.546   9.512  69.166  1.00  0.00    -0.237 C  
HETATM   10  C   UNL     1      -8.468   9.233  70.687  1.00  0.00    -0.258 A  
HETATM   11  C   UNL     1      -9.978   9.899  67.794  1.00  0.00    -0.165 A  
HETATM   12  C   UNL     1      -7.589   8.412  71.412  1.00  0.00    -0.109 A  
HETATM   13  C   UNL     1     -11.357  10.545  69.965  1.00  0.00    -0.392 A  
HETATM   14  C   UNL     1      -8.862  10.723  67.637  1.00  0.00    -0.132 A  
HETATM   15  C   UNL     1     -11.368  11.925  69.715  1.00  0.00    -0.223 A  
HETATM   16  C   UNL     1      -8.370  10.972  66.354  1.00  0.00    -0.165 A  
HETATM   17  C   UNL     1     -12.223  12.779  70.433  1.00  0.00    -0.371 A  
HETATM   18  C   UNL     1      -8.990  10.387  65.256  1.00  0.00    -0.212 A  
HETATM   19  C   UNL     1     -13.090  12.262  71.398  1.00  0.00    -0.189 A  
HETATM   20  C   UNL     1     -13.076  10.905  71.689  1.00  0.00    -0.538 A  
HETATM   21  C   UNL     1     -10.083   9.576  65.487  1.00  0.00    -0.002 A  
HETATM   22  C   UNL     1     -12.215  10.060  70.979  1.00  0.00    -0.462 A  
HETATM   23  N   UNL     1     -10.588   9.330  66.716  1.00  0.00    -0.188 NA 
BRANCH  19  24
HETATM   24  O   UNL     1     -13.888  13.185  72.112  1.00  0.00    -0.486 OA 
BRANCH  24  25
HETATM   25  C   UNL     1     -13.315  14.213  72.869  1.00  0.00    -0.430 C  
HETATM   26  O   UNL     1     -12.757  14.104  73.953  1.00  0.00    -0.145 OA 
HETATM   27  C   UNL     1     -13.444  15.511  72.122  1.00  0.00    -0.587 C  
ENDBRANCH  24  25
ENDBRANCH  19  24
ENDBRANCH   4   5
ENDBRANCH   2   4
TORSDOF 4
ENDMDL
MODEL       43
REMARK 921   NORMALIZED FREE ENERGY PREDICTED BY IDOCK:   -5.02 KCAL/MOL
REMARK 922        TOTAL FREE ENERGY PREDICTED BY IDOCK:   -6.53 KCAL/MOL
REMARK 923 INTER-LIGAND FREE ENERGY PREDICTED BY IDOCK:   -6.11 KCAL/MOL
REMARK 924 INTRA-LIGAND FREE ENERGY PREDICTED BY IDOCK:   -0.42 KCAL/MOL
REMARK 927      BINDING AFFINITY PREDICTED BY RF-SCORE:    0.00 PKD
ROOT
HETATM    1  C   UNL     1      -8.188   6.067  71.429  1.00  0.00    -0.123 C  
HETATM    2  C   UNL     1      -9.654   6.351  71.572  1.00  0.00    -0.158 C  
HETATM    3  O   UNL     1     -10.531   5.511  71.412  1.00  0.00    -0.226 OA 
ENDROOT
BRANCH   2   4
HETATM    4  O   UNL     1      -9.825   7.698  71.898  1.00  0.00    -0.161 OA 
BRANCH   4   5
HETATM    5  C   UNL     1      -9.923   8.602  70.828  1.00  0.00    -0.197 A  
HETATM    6  C   UNL     1     -11.124   8.775  70.151  1.00  0.00    -0.214 A  
HETATM    7  C   UNL     1     -11.211   9.720  69.133  1.00  0.00    -0.101 A  
HETATM    8  C   UNL     1     -10.116  10.543  68.809  1.00  0.00    -0.202 A  
HETATM    9  C   UNL     1     -10.283  11.561  67.671  1.00  0.00    -0.205 C  
HETATM   10  C   UNL     1      -8.926  10.392  69.543  1.00  0.00    -0.127 A  
HETATM   11  C   UNL     1      -9.605  11.126  66.366  1.00  0.00    -0.200 A  
HETATM   12  C   UNL     1      -8.824   9.415  70.545  1.00  0.00    -0.287 A  
HETATM   13  C   UNL     1     -10.189  13.030  68.116  1.00  0.00    -0.239 A  
HETATM   14  C   UNL     1      -8.226  10.952  66.245  1.00  0.00    -0.165 A  
HETATM   15  C   UNL     1      -9.272  13.964  67.613  1.00  0.00    -0.199 A  
HETATM   16  C   UNL     1      -7.697  10.488  65.038  1.00  0.00    -0.039 A  
HETATM   17  C   UNL     1      -9.331  15.313  68.005  1.00  0.00    -0.197 A  
HETATM   18  C   UNL     1      -8.552  10.196  63.982  1.00  0.00    -0.197 A  
HETATM   19  C   UNL     1     -10.318  15.748  68.892  1.00  0.00    -0.224 A  
HETATM   20  C   UNL     1     -11.218  14.838  69.430  1.00  0.00    -0.308 A  
HETATM   21  C   UNL     1      -9.906  10.383  64.175  1.00  0.00    -0.313 A  
HETATM   22  C   UNL     1     -11.148  13.495  69.045  1.00  0.00    -0.293 A  
HETATM   23  N   UNL     1     -10.442  10.844  65.327  1.00  0.00    -0.258 NA 
BRANCH  19  24
HETATM   24  O   UNL     1     -10.289  17.108  69.277  1.00  0.00    -0.313 OA 
BRANCH  24  25
HETATM   25  C   UNL     1     -10.099  18.128  68.338  1.00  0.00    -0.388 C  
HETATM   26  O   UNL     1     -10.828  18.403  67.394  1.00  0.00    -0.403 OA 
HETATM   27  C   UNL     1      -8.854  18.895  68.683  1.00  0.00    -0.374 C  
ENDBRANCH  24  25
ENDBRANCH  19  24
ENDBRANCH   4   5
ENDBRANCH   2   4
TORSDOF 4
ENDMDL
MODEL       44
REMARK 921   NORMALIZED FREE ENERGY PREDICTED BY IDOCK:   -5.01 KCAL/MOL
REMARK 922        TOTAL FREE ENERGY PREDICTED BY IDOCK:   -6.52 KCAL/MOL
REMARK 923 INTER-LIGAND FREE ENERGY PREDICTED BY IDOCK:   -6.38 KCAL/MOL
REMARK 924 INTRA-LIGAND FREE ENERGY PREDICTED BY IDOCK:   -0.14 KCAL/MOL
REMARK 927      BINDING AFFINITY PREDICTED BY RF-SCORE:    0.00 PKD
ROOT
HETATM    1  C   UNL     1     -14.253   8.537  71.907  1.00  0.00    -0.536 C  
HETATM    2  C   UNL     1     -13.233   9.635  71.990  1.00  0.00    -0.453 C  
HETATM    3  O   UNL     1     -13.472  10.760  72.410  1.00  0.00    -0.229 OA 
ENDROOT
BRANCH   2   4
HETATM    4  O   UNL     1     -12.012   9.155  71.510  1.00  0.00    -0.305 OA 
BRANCH   4   5
HETATM    5  C   UNL     1     -11.432   9.855  70.440  1.00  0.00    -0.301 A  
HETATM    6  C   UNL     1     -12.159  10.809  69.737  1.00  0.00    -0.389 A  
HETATM    7  C   UNL     1     -11.546  11.532  68.719  1.00  0.00    -0.379 A  
HETATM    8  C   UNL     1     -10.182  11.351  68.419  1.00  0.00    -0.206 A  
HETATM    9  C   UNL     1      -9.571  12.179  67.279  1.00  0.00    -0.185 C  
HETATM   10  C   UNL     1      -9.448  10.421  69.177  1.00  0.00    -0.220 A  
HETATM   11  C   UNL     1      -9.371  11.376  65.987  1.00  0.00    -0.217 A  
HETATM   12  C   UNL     1     -10.075   9.664  70.180  1.00  0.00    -0.311 A  
HETATM   13  C   UNL     1      -8.485  13.171  67.727  1.00  0.00    -0.185 A  
HETATM   14  C   UNL     1      -8.505  10.286  65.895  1.00  0.00    -0.154 A  
HETATM   15  C   UNL     1      -7.168  13.190  67.244  1.00  0.00    -0.045 A  
HETATM   16  C   UNL     1      -8.432   9.569  64.700  1.00  0.00    -0.177 A  
HETATM   17  C   UNL     1      -6.273  14.202  67.637  1.00  0.00    -0.102 A  
HETATM   18  C   UNL     1      -9.230   9.942  63.625  1.00  0.00    -0.283 A  
HETATM   19  C   UNL     1      -6.690  15.215  68.503  1.00  0.00    -0.108 A  
HETATM   20  C   UNL     1      -7.977  15.200  69.022  1.00  0.00    -0.188 A  
HETATM   21  C   UNL     1     -10.071  11.025  63.790  1.00  0.00    -0.363 A  
HETATM   22  C   UNL     1      -8.860  14.186  68.637  1.00  0.00    -0.132 A  
HETATM   23  N   UNL     1     -10.150  11.745  64.931  1.00  0.00    -0.253 NA 
BRANCH  19  24
HETATM   24  O   UNL     1      -5.724  16.172  68.890  1.00  0.00    -0.114 OA 
BRANCH  24  25
HETATM   25  C   UNL     1      -5.468  16.446  70.238  1.00  0.00    -0.188 C  
HETATM   26  O   UNL     1      -5.133  15.645  71.101  1.00  0.00    -0.171 OA 
HETATM   27  C   UNL     1      -5.626  17.921  70.484  1.00  0.00    -0.184 C  
ENDBRANCH  24  25
ENDBRANCH  19  24
ENDBRANCH   4   5
ENDBRANCH   2   4
TORSDOF 4
ENDMDL
MODEL       45
REMARK 921   NORMALIZED FREE ENERGY PREDICTED BY IDOCK:   -4.98 KCAL/MOL
REMARK 922        TOTAL FREE ENERGY PREDICTED BY IDOCK:   -6.48 KCAL/MOL
REMARK 923 INTER-LIGAND FREE ENERGY PREDICTED BY IDOCK:   -6.17 KCAL/MOL
REMARK 924 INTRA-LIGAND FREE ENERGY PREDICTED BY IDOCK:   -0.31 KCAL/MOL
REMARK 927      BINDING AFFINITY PREDICTED BY RF-SCORE:    0.00 PKD
ROOT
HETATM    1  C   UNL     1     -11.362  14.776  66.575  1.00  0.00    -0.344 C  
HETATM    2  C   UNL     1     -11.699  13.401  67.073  1.00  0.00    -0.381 C  
HETATM    3  O   UNL     1     -12.252  12.545  66.395  1.00  0.00    -0.584 OA 
ENDROOT
BRANCH   2   4
HETATM    4  O   UNL     1     -11.289  13.289  68.404  1.00  0.00    -0.254 OA 
BRANCH   4   5
HETATM    5  C   UNL     1     -11.076  11.991  68.895  1.00  0.00    -0.247 A  
HETATM    6  C   UNL     1     -12.129  11.242  69.406  1.00  0.00    -0.384 A  
HETATM    7  C   UNL     1     -11.904   9.937  69.831  1.00  0.00    -0.072 A  
HETATM    8  C   UNL     1     -10.634   9.340  69.706  1.00  0.00    -0.244 A  
HETATM    9  C   UNL     1     -10.457   7.897  70.201  1.00  0.00    -0.231 C  
HETATM   10  C   UNL     1      -9.595  10.094  69.135  1.00  0.00    -0.222 A  
HETATM   11  C   UNL     1      -9.732   7.804  71.549  1.00  0.00    -0.162 A  
HETATM   12  C   UNL     1      -9.810  11.424  68.739  1.00  0.00    -0.175 A  
HETATM   13  C   UNL     1     -10.123   6.883  69.094  1.00  0.00    -0.180 A  
HETATM   14  C   UNL     1      -8.411   8.216  71.734  1.00  0.00    -0.186 A  
HETATM   15  C   UNL     1      -8.984   6.066  69.071  1.00  0.00    -0.124 A  
HETATM   16  C   UNL     1      -7.848   8.160  73.010  1.00  0.00    -0.207 A  
HETATM   17  C   UNL     1      -8.816   5.094  68.069  1.00  0.00    -0.106 A  
HETATM   18  C   UNL     1      -8.614   7.707  74.078  1.00  0.00    -0.297 A  
HETATM   19  C   UNL     1      -9.793   4.916  67.087  1.00  0.00    -0.190 A  
HETATM   20  C   UNL     1     -10.915   5.734  67.067  1.00  0.00    -0.225 A  
HETATM   21  C   UNL     1      -9.916   7.323  73.825  1.00  0.00    -0.322 A  
HETATM   22  C   UNL     1     -11.072   6.707  68.060  1.00  0.00    -0.296 A  
HETATM   23  N   UNL     1     -10.480   7.355  72.597  1.00  0.00    -0.232 NA 
BRANCH  19  24
HETATM   24  O   UNL     1      -9.536   3.952  66.086  1.00  0.00    -0.182 OA 
BRANCH  24  25
HETATM   25  C   UNL     1      -9.024   2.689  66.403  1.00  0.00    -0.139 C  
HETATM   26  O   UNL     1      -9.409   1.942  67.293  1.00  0.00    -0.109 OA 
HETATM   27  C   UNL     1      -7.923   2.343  65.440  1.00  0.00    -0.079 C  
ENDBRANCH  24  25
ENDBRANCH  19  24
ENDBRANCH   4   5
ENDBRANCH   2   4
TORSDOF 4
ENDMDL
MODEL       46
REMARK 921   NORMALIZED FREE ENERGY PREDICTED BY IDOCK:   -4.97 KCAL/MOL
REMARK 922        TOTAL FREE ENERGY PREDICTED BY IDOCK:   -6.48 KCAL/MOL
REMARK 923 INTER-LIGAND FREE ENERGY PREDICTED BY IDOCK:   -6.48 KCAL/MOL
REMARK 924 INTRA-LIGAND FREE ENERGY PREDICTED BY IDOCK:    0.00 KCAL/MOL
REMARK 927      BINDING AFFINITY PREDICTED BY RF-SCORE:    0.00 PKD
ROOT
HETATM    1  C   UNL     1      -9.090   1.860  66.653  1.00  0.00    -0.064 C  
HETATM    2  C   UNL     1      -8.503   2.826  65.667  1.00  0.00    -0.101 C  
HETATM    3  O   UNL     1      -7.345   2.778  65.270  1.00  0.00    -0.064 OA 
ENDROOT
BRANCH   2   4
HETATM    4  O   UNL     1      -9.480   3.758  65.310  1.00  0.00    -0.152 OA 
BRANCH   4   5
HETATM    5  C   UNL     1      -9.507   4.959  66.037  1.00  0.00    -0.163 A  
HETATM    6  C   UNL     1      -8.329   5.630  66.346  1.00  0.00    -0.112 A  
HETATM    7  C   UNL     1      -8.386   6.848  67.016  1.00  0.00    -0.121 A  
HETATM    8  C   UNL     1      -9.620   7.441  67.344  1.00  0.00    -0.184 A  
HETATM    9  C   UNL     1      -9.606   8.785  68.089  1.00  0.00    -0.162 C  
HETATM   10  C   UNL     1     -10.801   6.775  66.975  1.00  0.00    -0.453 A  
HETATM   11  C   UNL     1      -9.926   8.652  69.583  1.00  0.00    -0.191 A  
HETATM   12  C   UNL     1     -10.747   5.528  66.331  1.00  0.00    -0.262 A  
HETATM   13  C   UNL     1     -10.201   9.957  67.291  1.00  0.00    -0.277 A  
HETATM   14  C   UNL     1     -11.157   8.199  70.061  1.00  0.00    -0.146 A  
HETATM   15  C   UNL     1     -11.275  10.753  67.715  1.00  0.00    -0.385 A  
HETATM   16  C   UNL     1     -11.343   8.045  71.436  1.00  0.00    -0.292 A  
HETATM   17  C   UNL     1     -11.682  11.870  66.964  1.00  0.00    -0.304 A  
HETATM   18  C   UNL     1     -10.297   8.331  72.306  1.00  0.00    -0.386 A  
HETATM   19  C   UNL     1     -11.010  12.215  65.789  1.00  0.00    -0.297 A  
HETATM   20  C   UNL     1      -9.965  11.425  65.330  1.00  0.00    -0.289 A  
HETATM   21  C   UNL     1      -9.105   8.767  71.763  1.00  0.00    -0.235 A  
HETATM   22  C   UNL     1      -9.570  10.308  66.075  1.00  0.00    -0.259 A  
HETATM   23  N   UNL     1      -8.904   8.939  70.438  1.00  0.00    -0.164 NA 
BRANCH  19  24
HETATM   24  O   UNL     1     -11.503  13.323  65.063  1.00  0.00    -0.296 OA 
BRANCH  24  25
HETATM   25  C   UNL     1     -10.951  14.599  65.216  1.00  0.00    -0.367 C  
HETATM   26  O   UNL     1     -11.301  15.625  64.646  1.00  0.00    -0.431 OA 
HETATM   27  C   UNL     1      -9.856  14.547  66.244  1.00  0.00    -0.322 C  
ENDBRANCH  24  25
ENDBRANCH  19  24
ENDBRANCH   4   5
ENDBRANCH   2   4
TORSDOF 4
ENDMDL
MODEL       47
REMARK 921   NORMALIZED FREE ENERGY PREDICTED BY IDOCK:   -4.94 KCAL/MOL
REMARK 922        TOTAL FREE ENERGY PREDICTED BY IDOCK:   -6.43 KCAL/MOL
REMARK 923 INTER-LIGAND FREE ENERGY PREDICTED BY IDOCK:   -6.00 KCAL/MOL
REMARK 924 INTRA-LIGAND FREE ENERGY PREDICTED BY IDOCK:   -0.44 KCAL/MOL
REMARK 927      BINDING AFFINITY PREDICTED BY RF-SCORE:    0.00 PKD
ROOT
HETATM    1  C   UNL     1     -13.729  13.521  72.346  1.00  0.00    -0.704 C  
HETATM    2  C   UNL     1     -12.678  13.664  71.284  1.00  0.00    -0.361 C  
HETATM    3  O   UNL     1     -11.789  14.505  71.312  1.00  0.00    -0.337 OA 
ENDROOT
BRANCH   2   4
HETATM    4  O   UNL     1     -12.901  12.703  70.295  1.00  0.00     0.106 OA 
BRANCH   4   5
HETATM    5  C   UNL     1     -12.317  11.442  70.492  1.00  0.00    -0.349 A  
HETATM    6  C   UNL     1     -13.091  10.351  70.869  1.00  0.00    -0.412 A  
HETATM    7  C   UNL     1     -12.499   9.099  71.001  1.00  0.00    -0.238 A  
HETATM    8  C   UNL     1     -11.135   8.904  70.709  1.00  0.00    -0.312 A  
HETATM    9  C   UNL     1     -10.548   7.495  70.881  1.00  0.00    -0.227 C  
HETATM   10  C   UNL     1     -10.381  10.008  70.275  1.00  0.00    -0.301 A  
HETATM   11  C   UNL     1      -9.706   7.342  72.154  1.00  0.00    -0.150 A  
HETATM   12  C   UNL     1     -10.967  11.280  70.177  1.00  0.00     0.120 A  
HETATM   13  C   UNL     1     -10.065   6.846  69.574  1.00  0.00    -0.183 A  
HETATM   14  C   UNL     1      -8.525   8.053  72.376  1.00  0.00    -0.211 A  
HETATM   15  C   UNL     1      -8.760   6.389  69.340  1.00  0.00    -0.129 A  
HETATM   16  C   UNL     1      -7.854   7.903  73.591  1.00  0.00    -0.217 A  
HETATM   17  C   UNL     1      -8.437   5.713  68.149  1.00  0.00    -0.098 A  
HETATM   18  C   UNL     1      -8.378   7.061  74.565  1.00  0.00    -0.202 A  
HETATM   19  C   UNL     1      -9.420   5.471  67.187  1.00  0.00    -0.122 A  
HETATM   20  C   UNL     1     -10.711   5.943  67.378  1.00  0.00    -0.370 A  
HETATM   21  C   UNL     1      -9.554   6.396  74.281  1.00  0.00    -0.239 A  
HETATM   22  C   UNL     1     -11.025   6.624  68.559  1.00  0.00    -0.314 A  
HETATM   23  N   UNL     1     -10.215   6.512  73.108  1.00  0.00    -0.198 NA 
BRANCH  19  24
HETATM   24  O   UNL     1      -9.014   4.827  65.995  1.00  0.00    -0.119 OA 
BRANCH  24  25
HETATM   25  C   UNL     1      -9.214   3.456  65.803  1.00  0.00    -0.155 C  
HETATM   26  O   UNL     1      -9.252   2.590  66.667  1.00  0.00    -0.130 OA 
HETATM   27  C   UNL     1      -9.427   3.186  64.340  1.00  0.00    -0.145 C  
ENDBRANCH  24  25
ENDBRANCH  19  24
ENDBRANCH   4   5
ENDBRANCH   2   4
TORSDOF 4
ENDMDL
MODEL       48
REMARK 921   NORMALIZED FREE ENERGY PREDICTED BY IDOCK:   -4.90 KCAL/MOL
REMARK 922        TOTAL FREE ENERGY PREDICTED BY IDOCK:   -6.38 KCAL/MOL
REMARK 923 INTER-LIGAND FREE ENERGY PREDICTED BY IDOCK:   -6.13 KCAL/MOL
REMARK 924 INTRA-LIGAND FREE ENERGY PREDICTED BY IDOCK:   -0.26 KCAL/MOL
REMARK 927      BINDING AFFINITY PREDICTED BY RF-SCORE:    0.00 PKD
ROOT
HETATM    1  C   UNL     1     -11.565   7.845  72.770  1.00  0.00    -0.387 C  
HETATM    2  C   UNL     1     -10.555   6.845  73.250  1.00  0.00    -0.325 C  
HETATM    3  O   UNL     1      -9.932   6.953  74.299  1.00  0.00    -0.319 OA 
ENDROOT
BRANCH   2   4
HETATM    4  O   UNL     1     -10.456   5.815  72.312  1.00  0.00    -0.196 OA 
BRANCH   4   5
HETATM    5  C   UNL     1     -10.221   6.191  70.980  1.00  0.00    -0.196 A  
HETATM    6  C   UNL     1     -11.158   5.923  69.989  1.00  0.00    -0.411 A  
HETATM    7  C   UNL     1     -10.930   6.358  68.688  1.00  0.00    -0.404 A  
HETATM    8  C   UNL     1      -9.786   7.112  68.363  1.00  0.00    -0.143 A  
HETATM    9  C   UNL     1      -9.595   7.555  66.905  1.00  0.00    -0.242 C  
HETATM   10  C   UNL     1      -8.876   7.422  69.390  1.00  0.00    -0.137 A  
HETATM   11  C   UNL     1      -8.553   6.720  66.150  1.00  0.00    -0.143 A  
HETATM   12  C   UNL     1      -9.086   6.952  70.696  1.00  0.00    -0.155 A  
HETATM   13  C   UNL     1      -9.639   9.077  66.694  1.00  0.00    -0.274 A  
HETATM   14  C   UNL     1      -7.203   6.688  66.502  1.00  0.00    -0.073 A  
HETATM   15  C   UNL     1      -8.610   9.837  66.120  1.00  0.00    -0.138 A  
HETATM   16  C   UNL     1      -6.333   5.850  65.803  1.00  0.00    -0.042 A  
HETATM   17  C   UNL     1      -8.782  11.211  65.872  1.00  0.00    -0.167 A  
HETATM   18  C   UNL     1      -6.826   5.050  64.778  1.00  0.00    -0.049 A  
HETATM   19  C   UNL     1      -9.992  11.837  66.180  1.00  0.00    -0.226 A  
HETATM   20  C   UNL     1     -11.015  11.115  66.780  1.00  0.00    -0.309 A  
HETATM   21  C   UNL     1      -8.174   5.126  64.490  1.00  0.00    -0.133 A  
HETATM   22  C   UNL     1     -10.834   9.751  67.034  1.00  0.00    -0.165 A  
HETATM   23  N   UNL     1      -9.034   5.939  65.141  1.00  0.00     0.015 NA 
BRANCH  19  24
HETATM   24  O   UNL     1     -10.078  13.229  65.946  1.00  0.00    -0.285 OA 
BRANCH  24  25
HETATM   25  C   UNL     1     -10.733  13.740  64.820  1.00  0.00    -0.416 C  
HETATM   26  O   UNL     1     -11.250  13.097  63.915  1.00  0.00    -0.387 OA 
HETATM   27  C   UNL     1     -10.754  15.241  64.897  1.00  0.00    -0.423 C  
ENDBRANCH  24  25
ENDBRANCH  19  24
ENDBRANCH   4   5
ENDBRANCH   2   4
TORSDOF 4
ENDMDL
MODEL       49
REMARK 921   NORMALIZED FREE ENERGY PREDICTED BY IDOCK:   -4.86 KCAL/MOL
REMARK 922        TOTAL FREE ENERGY PREDICTED BY IDOCK:   -6.34 KCAL/MOL
REMARK 923 INTER-LIGAND FREE ENERGY PREDICTED BY IDOCK:   -5.84 KCAL/MOL
REMARK 924 INTRA-LIGAND FREE ENERGY PREDICTED BY IDOCK:   -0.50 KCAL/MOL
REMARK 927      BINDING AFFINITY PREDICTED BY RF-SCORE:    0.00 PKD
ROOT
HETATM    1  C   UNL     1     -12.109  12.381  63.769  1.00  0.00    -0.618 C  
HETATM    2  C   UNL     1     -12.291  13.184  65.024  1.00  0.00    -0.459 C  
HETATM    3  O   UNL     1     -13.362  13.657  65.383  1.00  0.00    -0.615 OA 
ENDROOT
BRANCH   2   4
HETATM    4  O   UNL     1     -11.059  13.294  65.673  1.00  0.00    -0.282 OA 
BRANCH   4   5
HETATM    5  C   UNL     1     -10.613  12.167  66.382  1.00  0.00    -0.241 A  
HETATM    6  C   UNL     1     -11.353  11.654  67.441  1.00  0.00    -0.367 A  
HETATM    7  C   UNL     1     -10.920  10.501  68.089  1.00  0.00    -0.330 A  
HETATM    8  C   UNL     1      -9.770   9.813  67.658  1.00  0.00    -0.186 A  
HETATM    9  C   UNL     1      -9.348   8.550  68.424  1.00  0.00    -0.137 C  
HETATM   10  C   UNL     1      -9.065  10.316  66.551  1.00  0.00    -0.169 A  
HETATM   11  C   UNL     1      -8.158   8.780  69.363  1.00  0.00    -0.106 A  
HETATM   12  C   UNL     1      -9.479  11.499  65.918  1.00  0.00    -0.251 A  
HETATM   13  C   UNL     1      -9.417   7.255  67.598  1.00  0.00    -0.149 A  
HETATM   14  C   UNL     1      -6.888   9.142  68.910  1.00  0.00    -0.056 A  
HETATM   15  C   UNL     1      -8.336   6.391  67.368  1.00  0.00    -0.112 A  
HETATM   16  C   UNL     1      -5.877   9.398  69.837  1.00  0.00    -0.035 A  
HETATM   17  C   UNL     1      -8.520   5.175  66.686  1.00  0.00    -0.107 A  
HETATM   18  C   UNL     1      -6.152   9.302  71.196  1.00  0.00    -0.071 A  
HETATM   19  C   UNL     1      -9.790   4.800  66.241  1.00  0.00    -0.220 A  
HETATM   20  C   UNL     1     -10.870   5.652  66.426  1.00  0.00    -0.172 A  
HETATM   21  C   UNL     1      -7.432   8.948  71.574  1.00  0.00    -0.050 A  
HETATM   22  C   UNL     1     -10.680   6.865  67.095  1.00  0.00    -0.436 A  
HETATM   23  N   UNL     1      -8.424   8.681  70.697  1.00  0.00    -0.142 NA 
BRANCH  19  24
HETATM   24  O   UNL     1      -9.891   3.586  65.524  1.00  0.00    -0.123 OA 
BRANCH  24  25
HETATM   25  C   UNL     1      -9.329   3.442  64.251  1.00  0.00    -0.136 C  
HETATM   26  O   UNL     1      -8.214   3.012  63.984  1.00  0.00    -0.082 OA 
HETATM   27  C   UNL     1     -10.333   3.863  63.214  1.00  0.00    -0.188 C  
ENDBRANCH  24  25
ENDBRANCH  19  24
ENDBRANCH   4   5
ENDBRANCH   2   4
TORSDOF 4
ENDMDL
MODEL       50
REMARK 921   NORMALIZED FREE ENERGY PREDICTED BY IDOCK:   -4.84 KCAL/MOL
REMARK 922        TOTAL FREE ENERGY PREDICTED BY IDOCK:   -6.31 KCAL/MOL
REMARK 923 INTER-LIGAND FREE ENERGY PREDICTED BY IDOCK:   -6.04 KCAL/MOL
REMARK 924 INTRA-LIGAND FREE ENERGY PREDICTED BY IDOCK:   -0.27 KCAL/MOL
REMARK 927      BINDING AFFINITY PREDICTED BY RF-SCORE:    0.00 PKD
ROOT
HETATM    1  C   UNL     1     -10.893  19.886  66.204  1.00  0.00    -0.317 C  
HETATM    2  C   UNL     1      -9.932  18.789  65.850  1.00  0.00    -0.116 C  
HETATM    3  O   UNL     1      -8.720  18.940  65.776  1.00  0.00    -0.407 OA 
ENDROOT
BRANCH   2   4
HETATM    4  O   UNL     1     -10.652  17.614  65.619  1.00  0.00    -0.565 OA 
BRANCH   4   5
HETATM    5  C   UNL     1     -10.256  16.476  66.340  1.00  0.00    -0.316 A  
HETATM    6  C   UNL     1      -9.681  16.597  67.600  1.00  0.00    -0.250 A  
HETATM    7  C   UNL     1      -9.351  15.453  68.319  1.00  0.00    -0.193 A  
HETATM    8  C   UNL     1      -9.636  14.169  67.815  1.00  0.00    -0.219 A  
HETATM    9  C   UNL     1      -9.239  12.950  68.661  1.00  0.00     0.036 C  
HETATM   10  C   UNL     1     -10.268  14.068  66.563  1.00  0.00    -0.279 A  
HETATM   11  C   UNL     1      -7.978  12.243  68.150  1.00  0.00    -0.155 A  
HETATM   12  C   UNL     1     -10.568  15.220  65.819  1.00  0.00    -0.359 A  
HETATM   13  C   UNL     1     -10.427  12.109  69.157  1.00  0.00     0.019 A  
HETATM   14  C   UNL     1      -7.906  11.621  66.903  1.00  0.00    -0.156 A  
HETATM   15  C   UNL     1     -10.608  10.744  68.894  1.00  0.00    -0.246 A  
HETATM   16  C   UNL     1      -6.698  11.058  66.487  1.00  0.00    -0.135 A  
HETATM   17  C   UNL     1     -11.673  10.034  69.478  1.00  0.00    -0.058 A  
HETATM   18  C   UNL     1      -5.583  11.137  67.314  1.00  0.00    -0.057 A  
HETATM   19  C   UNL     1     -12.559  10.678  70.345  1.00  0.00    -0.316 A  
HETATM   20  C   UNL     1     -12.422  12.036  70.595  1.00  0.00    -0.335 A  
HETATM   21  C   UNL     1      -5.724  11.774  68.531  1.00  0.00    -0.048 A  
HETATM   22  C   UNL     1     -11.367  12.740  70.004  1.00  0.00     0.059 A  
HETATM   23  N   UNL     1      -6.885  12.314  68.963  1.00  0.00    -0.101 NA 
BRANCH  19  24
HETATM   24  O   UNL     1     -13.631   9.913  70.858  1.00  0.00    -0.301 OA 
BRANCH  24  25
HETATM   25  C   UNL     1     -13.440   8.992  71.894  1.00  0.00    -0.425 C  
HETATM   26  O   UNL     1     -12.828   9.176  72.938  1.00  0.00    -0.267 OA 
HETATM   27  C   UNL     1     -14.150   7.711  71.557  1.00  0.00    -0.535 C  
ENDBRANCH  24  25
ENDBRANCH  19  24
ENDBRANCH   4   5
ENDBRANCH   2   4
TORSDOF 4
ENDMDL
MODEL       51
REMARK 921   NORMALIZED FREE ENERGY PREDICTED BY IDOCK:   -4.83 KCAL/MOL
REMARK 922        TOTAL FREE ENERGY PREDICTED BY IDOCK:   -6.30 KCAL/MOL
REMARK 923 INTER-LIGAND FREE ENERGY PREDICTED BY IDOCK:   -6.27 KCAL/MOL
REMARK 924 INTRA-LIGAND FREE ENERGY PREDICTED BY IDOCK:   -0.03 KCAL/MOL
REMARK 927      BINDING AFFINITY PREDICTED BY RF-SCORE:    0.00 PKD
ROOT
HETATM    1  C   UNL     1      -5.972  18.317  70.058  1.00  0.00    -0.168 C  
HETATM    2  C   UNL     1      -6.422  16.923  69.737  1.00  0.00    -0.101 C  
HETATM    3  O   UNL     1      -5.818  15.914  70.079  1.00  0.00    -0.159 OA 
ENDROOT
BRANCH   2   4
HETATM    4  O   UNL     1      -7.605  16.988  68.997  1.00  0.00    -0.239 OA 
BRANCH   4   5
HETATM    5  C   UNL     1      -8.075  15.785  68.445  1.00  0.00    -0.143 A  
HETATM    6  C   UNL     1      -7.268  15.023  67.608  1.00  0.00    -0.208 A  
HETATM    7  C   UNL     1      -7.734  13.806  67.122  1.00  0.00     0.009 A  
HETATM    8  C   UNL     1      -8.993  13.304  67.504  1.00  0.00    -0.208 A  
HETATM    9  C   UNL     1      -9.446  11.956  66.924  1.00  0.00    -0.205 C  
HETATM   10  C   UNL     1      -9.772  14.063  68.395  1.00  0.00    -0.223 A  
HETATM   11  C   UNL     1     -10.482  12.096  65.803  1.00  0.00    -0.253 A  
HETATM   12  C   UNL     1      -9.320  15.309  68.858  1.00  0.00    -0.213 A  
HETATM   13  C   UNL     1      -9.612  10.840  67.970  1.00  0.00    -0.172 A  
HETATM   14  C   UNL     1     -11.754  12.636  66.004  1.00  0.00    -0.470 A  
HETATM   15  C   UNL     1     -10.796  10.124  68.197  1.00  0.00    -0.310 A  
HETATM   16  C   UNL     1     -12.613  12.790  64.914  1.00  0.00    -0.541 A  
HETATM   17  C   UNL     1     -10.823   9.049  69.104  1.00  0.00    -0.110 A  
HETATM   18  C   UNL     1     -12.185  12.415  63.645  1.00  0.00    -0.653 A  
HETATM   19  C   UNL     1      -9.663   8.667  69.781  1.00  0.00    -0.176 A  
HETATM   20  C   UNL     1      -8.486   9.381  69.599  1.00  0.00    -0.166 A  
HETATM   21  C   UNL     1     -10.912  11.897  63.519  1.00  0.00    -0.432 A  
HETATM   22  C   UNL     1      -8.466  10.456  68.704  1.00  0.00    -0.129 A  
HETATM   23  N   UNL     1     -10.066  11.724  64.559  1.00  0.00    -0.265 NA 
BRANCH  19  24
HETATM   24  O   UNL     1      -9.775   7.607  70.710  1.00  0.00    -0.174 OA 
BRANCH  24  25
HETATM   25  C   UNL     1      -9.189   6.360  70.468  1.00  0.00    -0.158 C  
HETATM   26  O   UNL     1      -8.125   6.145  69.902  1.00  0.00    -0.114 OA 
HETATM   27  C   UNL     1     -10.056   5.282  71.056  1.00  0.00    -0.289 C  
ENDBRANCH  24  25
ENDBRANCH  19  24
ENDBRANCH   4   5
ENDBRANCH   2   4
TORSDOF 4
ENDMDL
MODEL       52
REMARK 921   NORMALIZED FREE ENERGY PREDICTED BY IDOCK:   -4.80 KCAL/MOL
REMARK 922        TOTAL FREE ENERGY PREDICTED BY IDOCK:   -6.26 KCAL/MOL
REMARK 923 INTER-LIGAND FREE ENERGY PREDICTED BY IDOCK:   -5.91 KCAL/MOL
REMARK 924 INTRA-LIGAND FREE ENERGY PREDICTED BY IDOCK:   -0.34 KCAL/MOL
REMARK 927      BINDING AFFINITY PREDICTED BY RF-SCORE:    0.00 PKD
ROOT
HETATM    1  C   UNL     1     -10.207  14.575  65.148  1.00  0.00    -0.420 C  
HETATM    2  C   UNL     1     -11.278  14.375  66.180  1.00  0.00    -0.336 C  
HETATM    3  O   UNL     1     -12.477  14.445  65.942  1.00  0.00    -0.388 OA 
ENDROOT
BRANCH   2   4
HETATM    4  O   UNL     1     -10.676  14.112  67.412  1.00  0.00    -0.279 OA 
BRANCH   4   5
HETATM    5  C   UNL     1     -10.591  12.766  67.803  1.00  0.00    -0.221 A  
HETATM    6  C   UNL     1     -11.656  11.897  67.597  1.00  0.00    -0.382 A  
HETATM    7  C   UNL     1     -11.526  10.555  67.938  1.00  0.00    -0.190 A  
HETATM    8  C   UNL     1     -10.314  10.047  68.444  1.00  0.00    -0.218 A  
HETATM    9  C   UNL     1     -10.245   8.555  68.804  1.00  0.00    -0.217 C  
HETATM   10  C   UNL     1      -9.230  10.929  68.594  1.00  0.00    -0.187 A  
HETATM   11  C   UNL     1     -10.319   8.293  70.313  1.00  0.00    -0.209 A  
HETATM   12  C   UNL     1      -9.370  12.292  68.285  1.00  0.00    -0.199 A  
HETATM   13  C   UNL     1      -9.264   7.741  67.944  1.00  0.00    -0.141 A  
HETATM   14  C   UNL     1      -9.348   8.736  71.212  1.00  0.00    -0.319 A  
HETATM   15  C   UNL     1      -8.188   6.993  68.445  1.00  0.00    -0.124 A  
HETATM   16  C   UNL     1      -9.526   8.512  72.578  1.00  0.00    -0.328 A  
HETATM   17  C   UNL     1      -7.407   6.195  67.589  1.00  0.00    -0.080 A  
HETATM   18  C   UNL     1     -10.672   7.865  73.024  1.00  0.00    -0.408 A  
HETATM   19  C   UNL     1      -7.704   6.122  66.226  1.00  0.00    -0.099 A  
HETATM   20  C   UNL     1      -8.742   6.878  65.700  1.00  0.00    -0.086 A  
HETATM   21  C   UNL     1     -11.596   7.462  72.080  1.00  0.00    -0.284 A  
HETATM   22  C   UNL     1      -9.509   7.679  66.553  1.00  0.00    -0.250 A  
HETATM   23  N   UNL     1     -11.441   7.653  70.751  1.00  0.00    -0.282 NA 
BRANCH  19  24
HETATM   24  O   UNL     1      -6.849   5.336  65.420  1.00  0.00    -0.057 OA 
BRANCH  24  25
HETATM   25  C   UNL     1      -7.338   4.261  64.671  1.00  0.00    -0.071 C  
HETATM   26  O   UNL     1      -7.749   4.294  63.518  1.00  0.00    -0.068 OA 
HETATM   27  C   UNL     1      -7.249   3.004  65.489  1.00  0.00    -0.070 C  
ENDBRANCH  24  25
ENDBRANCH  19  24
ENDBRANCH   4   5
ENDBRANCH   2   4
TORSDOF 4
ENDMDL
MODEL       53
REMARK 921   NORMALIZED FREE ENERGY PREDICTED BY IDOCK:   -4.78 KCAL/MOL
REMARK 922        TOTAL FREE ENERGY PREDICTED BY IDOCK:   -6.24 KCAL/MOL
REMARK 923 INTER-LIGAND FREE ENERGY PREDICTED BY IDOCK:   -5.81 KCAL/MOL
REMARK 924 INTRA-LIGAND FREE ENERGY PREDICTED BY IDOCK:   -0.43 KCAL/MOL
REMARK 927      BINDING AFFINITY PREDICTED BY RF-SCORE:    0.00 PKD
ROOT
HETATM    1  C   UNL     1     -10.432  12.139  63.689  1.00  0.00    -0.495 C  
HETATM    2  C   UNL     1     -11.056  12.199  65.052  1.00  0.00    -0.320 C  
HETATM    3  O   UNL     1     -12.244  12.421  65.251  1.00  0.00    -0.495 OA 
ENDROOT
BRANCH   2   4
HETATM    4  O   UNL     1     -10.067  11.972  66.013  1.00  0.00    -0.219 OA 
BRANCH   4   5
HETATM    5  C   UNL     1      -9.765  10.633  66.308  1.00  0.00    -0.199 A  
HETATM    6  C   UNL     1      -8.459  10.165  66.226  1.00  0.00    -0.132 A  
HETATM    7  C   UNL     1      -8.175   8.850  66.581  1.00  0.00    -0.111 A  
HETATM    8  C   UNL     1      -9.181   7.996  67.072  1.00  0.00    -0.181 A  
HETATM    9  C   UNL     1      -8.796   6.555  67.440  1.00  0.00    -0.115 C  
HETATM   10  C   UNL     1     -10.485   8.504  67.201  1.00  0.00    -0.370 A  
HETATM   11  C   UNL     1      -9.235   5.525  66.392  1.00  0.00    -0.150 A  
HETATM   12  C   UNL     1     -10.781   9.819  66.808  1.00  0.00    -0.143 A  
HETATM   13  C   UNL     1      -8.944   6.221  68.934  1.00  0.00    -0.126 A  
HETATM   14  C   UNL     1     -10.573   5.276  66.083  1.00  0.00    -0.251 A  
HETATM   15  C   UNL     1      -9.741   5.189  69.450  1.00  0.00    -0.248 A  
HETATM   16  C   UNL     1     -10.884   4.369  65.068  1.00  0.00    -0.097 A  
HETATM   17  C   UNL     1      -9.731   4.893  70.825  1.00  0.00    -0.268 A  
HETATM   18  C   UNL     1      -9.859   3.739  64.372  1.00  0.00    -0.188 A  
HETATM   19  C   UNL     1      -8.912   5.613  71.697  1.00  0.00    -0.136 A  
HETATM   20  C   UNL     1      -8.138   6.661  71.216  1.00  0.00    -0.112 A  
HETATM   21  C   UNL     1      -8.558   4.040  64.725  1.00  0.00    -0.116 A  
HETATM   22  C   UNL     1      -8.159   6.959  69.850  1.00  0.00    -0.125 A  
HETATM   23  N   UNL     1      -8.230   4.902  65.713  1.00  0.00    -0.112 NA 
BRANCH  19  24
HETATM   24  O   UNL     1      -8.988   5.291  73.071  1.00  0.00    -0.120 OA 
BRANCH  24  25
HETATM   25  C   UNL     1     -10.119   5.604  73.832  1.00  0.00    -0.224 C  
HETATM   26  O   UNL     1     -10.786   4.834  74.510  1.00  0.00    -0.355 OA 
HETATM   27  C   UNL     1     -10.389   7.080  73.735  1.00  0.00    -0.408 C  
ENDBRANCH  24  25
ENDBRANCH  19  24
ENDBRANCH   4   5
ENDBRANCH   2   4
TORSDOF 4
ENDMDL
MODEL       54
REMARK 921   NORMALIZED FREE ENERGY PREDICTED BY IDOCK:   -4.77 KCAL/MOL
REMARK 922        TOTAL FREE ENERGY PREDICTED BY IDOCK:   -6.23 KCAL/MOL
REMARK 923 INTER-LIGAND FREE ENERGY PREDICTED BY IDOCK:   -5.99 KCAL/MOL
REMARK 924 INTRA-LIGAND FREE ENERGY PREDICTED BY IDOCK:   -0.23 KCAL/MOL
REMARK 927      BINDING AFFINITY PREDICTED BY RF-SCORE:    0.00 PKD
ROOT
HETATM    1  C   UNL     1      -6.006  18.141  69.540  1.00  0.00    -0.247 C  
HETATM    2  C   UNL     1      -6.475  16.718  69.451  1.00  0.00    -0.229 C  
HETATM    3  O   UNL     1      -6.275  15.878  70.319  1.00  0.00    -0.117 OA 
ENDROOT
BRANCH   2   4
HETATM    4  O   UNL     1      -7.148  16.538  68.240  1.00  0.00    -0.143 OA 
BRANCH   4   5
HETATM    5  C   UNL     1      -7.484  15.220  67.892  1.00  0.00    -0.144 A  
HETATM    6  C   UNL     1      -6.495  14.268  67.674  1.00  0.00    -0.151 A  
HETATM    7  C   UNL     1      -6.854  12.955  67.388  1.00  0.00    -0.133 A  
HETATM    8  C   UNL     1      -8.205  12.558  67.365  1.00  0.00    -0.183 A  
HETATM    9  C   UNL     1      -8.528  11.093  67.038  1.00  0.00    -0.146 C  
HETATM   10  C   UNL     1      -9.189  13.523  67.643  1.00  0.00    -0.214 A  
HETATM   11  C   UNL     1      -9.042  10.891  65.607  1.00  0.00    -0.204 A  
HETATM   12  C   UNL     1      -8.831  14.857  67.896  1.00  0.00    -0.165 A  
HETATM   13  C   UNL     1      -9.183  10.315  68.191  1.00  0.00    -0.137 A  
HETATM   14  C   UNL     1     -10.237  11.442  65.142  1.00  0.00    -0.328 A  
HETATM   15  C   UNL     1     -10.426   9.670  68.120  1.00  0.00    -0.266 A  
HETATM   16  C   UNL     1     -10.599  11.266  63.806  1.00  0.00    -0.455 A  
HETATM   17  C   UNL     1     -10.897   8.894  69.195  1.00  0.00    -0.091 A  
HETATM   18  C   UNL     1      -9.759  10.557  62.956  1.00  0.00    -0.337 A  
HETATM   19  C   UNL     1     -10.122   8.741  70.346  1.00  0.00    -0.192 A  
HETATM   20  C   UNL     1      -8.903   9.395  70.456  1.00  0.00    -0.287 A  
HETATM   21  C   UNL     1      -8.588  10.047  63.480  1.00  0.00    -0.208 A  
HETATM   22  C   UNL     1      -8.444  10.175  69.389  1.00  0.00    -0.179 A  
HETATM   23  N   UNL     1      -8.221  10.191  64.773  1.00  0.00    -0.156 NA 
BRANCH  19  24
HETATM   24  O   UNL     1     -10.678   7.985  71.404  1.00  0.00    -0.223 OA 
BRANCH  24  25
HETATM   25  C   UNL     1     -11.999   8.179  71.823  1.00  0.00    -0.305 C  
HETATM   26  O   UNL     1     -12.478   9.202  72.293  1.00  0.00    -0.368 OA 
HETATM   27  C   UNL     1     -12.790   6.926  71.569  1.00  0.00    -0.384 C  
ENDBRANCH  24  25
ENDBRANCH  19  24
ENDBRANCH   4   5
ENDBRANCH   2   4
TORSDOF 4
ENDMDL
MODEL       55
REMARK 921   NORMALIZED FREE ENERGY PREDICTED BY IDOCK:   -4.70 KCAL/MOL
REMARK 922        TOTAL FREE ENERGY PREDICTED BY IDOCK:   -6.14 KCAL/MOL
REMARK 923 INTER-LIGAND FREE ENERGY PREDICTED BY IDOCK:   -5.65 KCAL/MOL
REMARK 924 INTRA-LIGAND FREE ENERGY PREDICTED BY IDOCK:   -0.49 KCAL/MOL
REMARK 927      BINDING AFFINITY PREDICTED BY RF-SCORE:    0.00 PKD
ROOT
HETATM    1  C   UNL     1      -5.553  13.912  71.343  1.00  0.00    -0.231 C  
HETATM    2  C   UNL     1      -5.657  14.135  69.863  1.00  0.00    -0.105 C  
HETATM    3  O   UNL     1      -6.065  15.172  69.355  1.00  0.00    -0.102 OA 
ENDROOT
BRANCH   2   4
HETATM    4  O   UNL     1      -5.228  12.982  69.201  1.00  0.00    -0.069 OA 
BRANCH   4   5
HETATM    5  C   UNL     1      -6.172  12.328  68.392  1.00  0.00    -0.053 A  
HETATM    6  C   UNL     1      -5.839  11.908  67.110  1.00  0.00    -0.144 A  
HETATM    7  C   UNL     1      -6.771  11.209  66.350  1.00  0.00    -0.102 A  
HETATM    8  C   UNL     1      -8.034  10.873  66.876  1.00  0.00    -0.138 A  
HETATM    9  C   UNL     1      -9.015  10.105  65.978  1.00  0.00    -0.174 C  
HETATM   10  C   UNL     1      -8.332  11.259  68.194  1.00  0.00    -0.143 A  
HETATM   11  C   UNL     1     -10.129  10.989  65.403  1.00  0.00    -0.269 A  
HETATM   12  C   UNL     1      -7.407  11.996  68.950  1.00  0.00    -0.067 A  
HETATM   13  C   UNL     1      -9.357   8.691  66.477  1.00  0.00    -0.257 A  
HETATM   14  C   UNL     1     -11.082  11.628  66.198  1.00  0.00    -0.335 A  
HETATM   15  C   UNL     1     -10.651   8.231  66.760  1.00  0.00    -0.226 A  
HETATM   16  C   UNL     1     -12.021  12.469  65.599  1.00  0.00    -0.492 A  
HETATM   17  C   UNL     1     -10.875   6.888  67.112  1.00  0.00    -0.447 A  
HETATM   18  C   UNL     1     -11.985  12.668  64.224  1.00  0.00    -0.480 A  
HETATM   19  C   UNL     1      -9.811   5.985  67.168  1.00  0.00    -0.142 A  
HETATM   20  C   UNL     1      -8.516   6.423  66.926  1.00  0.00    -0.110 A  
HETATM   21  C   UNL     1     -11.010  12.011  63.500  1.00  0.00    -0.444 A  
HETATM   22  C   UNL     1      -8.296   7.762  66.587  1.00  0.00    -0.126 A  
HETATM   23  N   UNL     1     -10.099  11.181  64.053  1.00  0.00    -0.304 NA 
BRANCH  19  24
HETATM   24  O   UNL     1     -10.105   4.663  67.573  1.00  0.00    -0.150 OA 
BRANCH  24  25
HETATM   25  C   UNL     1      -9.513   4.099  68.708  1.00  0.00    -0.163 C  
HETATM   26  O   UNL     1      -8.667   3.214  68.734  1.00  0.00    -0.082 OA 
HETATM   27  C   UNL     1     -10.045   4.783  69.937  1.00  0.00    -0.299 C  
ENDBRANCH  24  25
ENDBRANCH  19  24
ENDBRANCH   4   5
ENDBRANCH   2   4
TORSDOF 4
ENDMDL
MODEL       56
REMARK 921   NORMALIZED FREE ENERGY PREDICTED BY IDOCK:   -4.69 KCAL/MOL
REMARK 922        TOTAL FREE ENERGY PREDICTED BY IDOCK:   -6.13 KCAL/MOL
REMARK 923 INTER-LIGAND FREE ENERGY PREDICTED BY IDOCK:   -6.30 KCAL/MOL
REMARK 924 INTRA-LIGAND FREE ENERGY PREDICTED BY IDOCK:    0.17 KCAL/MOL
REMARK 927      BINDING AFFINITY PREDICTED BY RF-SCORE:    0.00 PKD
ROOT
HETATM    1  C   UNL     1      -6.608  10.560  62.883  1.00  0.00    -0.072 C  
HETATM    2  C   UNL     1      -5.889   9.283  63.206  1.00  0.00    -0.088 C  
HETATM    3  O   UNL     1      -5.379   8.554  62.364  1.00  0.00    -0.069 OA 
ENDROOT
BRANCH   2   4
HETATM    4  O   UNL     1      -5.917   9.084  64.588  1.00  0.00    -0.064 OA 
BRANCH   4   5
HETATM    5  C   UNL     1      -7.077   9.496  65.264  1.00  0.00    -0.099 A  
HETATM    6  C   UNL     1      -8.336   9.127  64.806  1.00  0.00    -0.176 A  
HETATM    7  C   UNL     1      -9.468   9.497  65.526  1.00  0.00    -0.334 A  
HETATM    8  C   UNL     1      -9.358  10.198  66.743  1.00  0.00    -0.190 A  
HETATM    9  C   UNL     1     -10.650  10.578  67.482  1.00  0.00    -0.306 C  
HETATM   10  C   UNL     1      -8.074  10.514  67.219  1.00  0.00    -0.115 A  
HETATM   11  C   UNL     1     -11.023  12.057  67.326  1.00  0.00    -0.262 A  
HETATM   12  C   UNL     1      -6.933  10.174  66.475  1.00  0.00    -0.102 A  
HETATM   13  C   UNL     1     -10.822   9.897  68.850  1.00  0.00    -0.239 A  
HETATM   14  C   UNL     1     -10.230  13.098  67.812  1.00  0.00    -0.231 A  
HETATM   15  C   UNL     1     -10.987  10.572  70.067  1.00  0.00    -0.351 A  
HETATM   16  C   UNL     1     -10.610  14.419  67.568  1.00  0.00    -0.265 A  
HETATM   17  C   UNL     1     -11.241   9.863  71.255  1.00  0.00    -0.356 A  
HETATM   18  C   UNL     1     -11.763  14.678  66.836  1.00  0.00    -0.366 A  
HETATM   19  C   UNL     1     -11.351   8.471  71.235  1.00  0.00    -0.271 A  
HETATM   20  C   UNL     1     -11.159   7.775  70.049  1.00  0.00    -0.182 A  
HETATM   21  C   UNL     1     -12.495  13.600  66.379  1.00  0.00    -0.324 A  
HETATM   22  C   UNL     1     -10.895   8.485  68.873  1.00  0.00    -0.009 A  
HETATM   23  N   UNL     1     -12.157  12.313  66.613  1.00  0.00    -0.589 NA 
BRANCH  19  24
HETATM   24  O   UNL     1     -11.562   7.821  72.473  1.00  0.00    -0.343 OA 
BRANCH  24  25
HETATM   25  C   UNL     1     -10.547   7.087  73.094  1.00  0.00    -0.318 C  
HETATM   26  O   UNL     1     -10.624   5.944  73.526  1.00  0.00    -0.239 OA 
HETATM   27  C   UNL     1      -9.287   7.907  73.123  1.00  0.00    -0.337 C  
ENDBRANCH  24  25
ENDBRANCH  19  24
ENDBRANCH   4   5
ENDBRANCH   2   4
TORSDOF 4
ENDMDL
MODEL       57
REMARK 921   NORMALIZED FREE ENERGY PREDICTED BY IDOCK:   -4.59 KCAL/MOL
REMARK 922        TOTAL FREE ENERGY PREDICTED BY IDOCK:   -6.01 KCAL/MOL
REMARK 923 INTER-LIGAND FREE ENERGY PREDICTED BY IDOCK:   -5.70 KCAL/MOL
REMARK 924 INTRA-LIGAND FREE ENERGY PREDICTED BY IDOCK:   -0.31 KCAL/MOL
REMARK 927      BINDING AFFINITY PREDICTED BY RF-SCORE:    0.00 PKD
ROOT
HETATM    1  C   UNL     1      -8.369   8.052  65.235  1.00  0.00    -0.151 C  
HETATM    2  C   UNL     1      -9.382   9.030  65.752  1.00  0.00    -0.236 C  
HETATM    3  O   UNL     1     -10.221   8.760  66.602  1.00  0.00    -0.277 OA 
ENDROOT
BRANCH   2   4
HETATM    4  O   UNL     1      -9.201  10.254  65.104  1.00  0.00    -0.174 OA 
BRANCH   4   5
HETATM    5  C   UNL     1      -9.200  11.405  65.909  1.00  0.00    -0.216 A  
HETATM    6  C   UNL     1      -8.450  11.453  67.078  1.00  0.00    -0.159 A  
HETATM    7  C   UNL     1      -8.418  12.625  67.828  1.00  0.00    -0.172 A  
HETATM    8  C   UNL     1      -9.093  13.783  67.397  1.00  0.00    -0.221 A  
HETATM    9  C   UNL     1      -9.018  15.039  68.278  1.00  0.00    -0.174 C  
HETATM   10  C   UNL     1      -9.801  13.731  66.183  1.00  0.00    -0.310 A  
HETATM   11  C   UNL     1     -10.298  15.290  69.084  1.00  0.00    -0.248 A  
HETATM   12  C   UNL     1      -9.865  12.540  65.444  1.00  0.00    -0.179 A  
HETATM   13  C   UNL     1      -8.291  16.228  67.626  1.00  0.00    -0.172 A  
HETATM   14  C   UNL     1     -11.531  15.566  68.491  1.00  0.00    -0.369 A  
HETATM   15  C   UNL     1      -8.853  17.496  67.421  1.00  0.00    -0.230 A  
HETATM   16  C   UNL     1     -12.660  15.716  69.297  1.00  0.00     0.248 A  
HETATM   17  C   UNL     1      -8.076  18.552  66.911  1.00  0.00    -0.254 A  
HETATM   18  C   UNL     1     -12.544  15.576  70.674  1.00  0.00    -0.493 A  
HETATM   19  C   UNL     1      -6.725  18.357  66.618  1.00  0.00    -0.194 A  
HETATM   20  C   UNL     1      -6.153  17.103  66.781  1.00  0.00    -0.243 A  
HETATM   21  C   UNL     1     -11.296  15.294  71.193  1.00  0.00    -0.356 A  
HETATM   22  C   UNL     1      -6.932  16.053  67.277  1.00  0.00    -0.240 A  
HETATM   23  N   UNL     1     -10.184  15.159  70.437  1.00  0.00    -0.033 NA 
BRANCH  19  24
HETATM   24  O   UNL     1      -6.018  19.451  66.067  1.00  0.00    -0.167 OA 
BRANCH  24  25
HETATM   25  C   UNL     1      -6.078  19.744  64.700  1.00  0.00    -0.272 C  
HETATM   26  O   UNL     1      -6.738  20.625  64.166  1.00  0.00    -0.214 OA 
HETATM   27  C   UNL     1      -5.155  18.822  63.953  1.00  0.00    -0.190 C  
ENDBRANCH  24  25
ENDBRANCH  19  24
ENDBRANCH   4   5
ENDBRANCH   2   4
TORSDOF 4
ENDMDL
MODEL       58
REMARK 921   NORMALIZED FREE ENERGY PREDICTED BY IDOCK:   -4.59 KCAL/MOL
REMARK 922        TOTAL FREE ENERGY PREDICTED BY IDOCK:   -6.00 KCAL/MOL
REMARK 923 INTER-LIGAND FREE ENERGY PREDICTED BY IDOCK:   -5.56 KCAL/MOL
REMARK 924 INTRA-LIGAND FREE ENERGY PREDICTED BY IDOCK:   -0.44 KCAL/MOL
REMARK 927      BINDING AFFINITY PREDICTED BY RF-SCORE:    0.00 PKD
ROOT
HETATM    1  C   UNL     1      -7.142   4.422  74.033  1.00  0.00    -0.067 C  
HETATM    2  C   UNL     1      -6.292   4.544  72.803  1.00  0.00    -0.033 C  
HETATM    3  O   UNL     1      -5.926   3.589  72.128  1.00  0.00    -0.008 OA 
ENDROOT
BRANCH   2   4
HETATM    4  O   UNL     1      -5.999   5.892  72.587  1.00  0.00    -0.035 OA 
BRANCH   4   5
HETATM    5  C   UNL     1      -7.058   6.712  72.166  1.00  0.00    -0.080 A  
HETATM    6  C   UNL     1      -7.270   7.956  72.750  1.00  0.00    -0.109 A  
HETATM    7  C   UNL     1      -8.289   8.775  72.276  1.00  0.00    -0.010 A  
HETATM    8  C   UNL     1      -9.083   8.388  71.179  1.00  0.00    -0.217 A  
HETATM    9  C   UNL     1     -10.194   9.340  70.712  1.00  0.00    -0.353 C  
HETATM   10  C   UNL     1      -8.818   7.150  70.566  1.00  0.00    -0.154 A  
HETATM   11  C   UNL     1     -11.595   8.894  71.147  1.00  0.00    -0.300 A  
HETATM   12  C   UNL     1      -7.814   6.306  71.065  1.00  0.00    -0.111 A  
HETATM   13  C   UNL     1      -9.988   9.910  69.299  1.00  0.00    -0.217 A  
HETATM   14  C   UNL     1     -12.187   7.708  70.711  1.00  0.00    -0.109 A  
HETATM   15  C   UNL     1     -10.895   9.771  68.238  1.00  0.00    -0.256 A  
HETATM   16  C   UNL     1     -13.439   7.344  71.209  1.00  0.00    -0.339 A  
HETATM   17  C   UNL     1     -10.669  10.417  67.009  1.00  0.00    -0.298 A  
HETATM   18  C   UNL     1     -14.072   8.160  72.139  1.00  0.00    -0.386 A  
HETATM   19  C   UNL     1      -9.542  11.223  66.832  1.00  0.00    -0.191 A  
HETATM   20  C   UNL     1      -8.612  11.350  67.855  1.00  0.00    -0.140 A  
HETATM   21  C   UNL     1     -13.425   9.314  72.532  1.00  0.00    -0.404 A  
HETATM   22  C   UNL     1      -8.836  10.697  69.072  1.00  0.00    -0.154 A  
HETATM   23  N   UNL     1     -12.220   9.697  72.056  1.00  0.00    -0.323 NA 
BRANCH  19  24
HETATM   24  O   UNL     1      -9.356  11.803  65.557  1.00  0.00    -0.208 OA 
BRANCH  24  25
HETATM   25  C   UNL     1     -10.235  12.773  65.062  1.00  0.00    -0.272 C  
HETATM   26  O   UNL     1     -10.324  13.939  65.424  1.00  0.00    -0.315 OA 
HETATM   27  C   UNL     1     -11.058  12.177  63.954  1.00  0.00    -0.470 C  
ENDBRANCH  24  25
ENDBRANCH  19  24
ENDBRANCH   4   5
ENDBRANCH   2   4
TORSDOF 4
ENDMDL
MODEL       59
REMARK 921   NORMALIZED FREE ENERGY PREDICTED BY IDOCK:   -4.54 KCAL/MOL
REMARK 922        TOTAL FREE ENERGY PREDICTED BY IDOCK:   -5.95 KCAL/MOL
REMARK 923 INTER-LIGAND FREE ENERGY PREDICTED BY IDOCK:   -5.73 KCAL/MOL
REMARK 924 INTRA-LIGAND FREE ENERGY PREDICTED BY IDOCK:   -0.22 KCAL/MOL
REMARK 927      BINDING AFFINITY PREDICTED BY RF-SCORE:    0.00 PKD
ROOT
HETATM    1  C   UNL     1      -8.861   4.613  64.557  1.00  0.00    -0.153 C  
HETATM    2  C   UNL     1      -8.597   3.655  65.682  1.00  0.00    -0.113 C  
HETATM    3  O   UNL     1      -9.190   2.595  65.830  1.00  0.00    -0.140 OA 
ENDROOT
BRANCH   2   4
HETATM    4  O   UNL     1      -7.595   4.183  66.500  1.00  0.00    -0.086 OA 
BRANCH   4   5
HETATM    5  C   UNL     1      -7.973   5.203  67.388  1.00  0.00    -0.100 A  
HETATM    6  C   UNL     1      -7.045   6.134  67.838  1.00  0.00    -0.078 A  
HETATM    7  C   UNL     1      -7.456   7.170  68.670  1.00  0.00    -0.102 A  
HETATM    8  C   UNL     1      -8.810   7.325  69.025  1.00  0.00    -0.132 A  
HETATM    9  C   UNL     1      -9.191   8.490  69.951  1.00  0.00    -0.154 C  
HETATM   10  C   UNL     1      -9.743   6.406  68.515  1.00  0.00    -0.134 A  
HETATM   11  C   UNL     1      -9.458   8.051  71.397  1.00  0.00    -0.154 A  
HETATM   12  C   UNL     1      -9.326   5.338  67.705  1.00  0.00    -0.128 A  
HETATM   13  C   UNL     1     -10.103   9.543  69.302  1.00  0.00    -0.203 A  
HETATM   14  C   UNL     1     -10.501   7.195  71.753  1.00  0.00    -0.219 A  
HETATM   15  C   UNL     1     -11.363   9.922  69.787  1.00  0.00    -0.241 A  
HETATM   16  C   UNL     1     -10.633   6.793  73.083  1.00  0.00    -0.315 A  
HETATM   17  C   UNL     1     -12.081  10.971  69.184  1.00  0.00    -0.333 A  
HETATM   18  C   UNL     1      -9.718   7.238  74.029  1.00  0.00    -0.277 A  
HETATM   19  C   UNL     1     -11.539  11.665  68.100  1.00  0.00    -0.319 A  
HETATM   20  C   UNL     1     -10.308  11.288  67.579  1.00  0.00    -0.224 A  
HETATM   21  C   UNL     1      -8.706   8.076  73.605  1.00  0.00    -0.268 A  
HETATM   22  C   UNL     1      -9.603  10.237  68.176  1.00  0.00    -0.151 A  
HETATM   23  N   UNL     1      -8.564   8.493  72.327  1.00  0.00    -0.308 NA 
BRANCH  19  24
HETATM   24  O   UNL     1     -12.335  12.676  67.516  1.00  0.00    -0.304 OA 
BRANCH  24  25
HETATM   25  C   UNL     1     -11.783  13.897  67.113  1.00  0.00    -0.388 C  
HETATM   26  O   UNL     1     -11.151  14.683  67.806  1.00  0.00    -0.277 OA 
HETATM   27  C   UNL     1     -12.046  14.101  65.647  1.00  0.00    -0.425 C  
ENDBRANCH  24  25
ENDBRANCH  19  24
ENDBRANCH   4   5
ENDBRANCH   2   4
TORSDOF 4
ENDMDL
MODEL       60
REMARK 921   NORMALIZED FREE ENERGY PREDICTED BY IDOCK:   -4.50 KCAL/MOL
REMARK 922        TOTAL FREE ENERGY PREDICTED BY IDOCK:   -5.89 KCAL/MOL
REMARK 923 INTER-LIGAND FREE ENERGY PREDICTED BY IDOCK:   -5.46 KCAL/MOL
REMARK 924 INTRA-LIGAND FREE ENERGY PREDICTED BY IDOCK:   -0.43 KCAL/MOL
REMARK 927      BINDING AFFINITY PREDICTED BY RF-SCORE:    0.00 PKD
ROOT
HETATM    1  C   UNL     1      -8.757   2.932  62.335  1.00  0.00    -0.074 C  
HETATM    2  C   UNL     1      -9.865   2.414  63.204  1.00  0.00    -0.104 C  
HETATM    3  O   UNL     1     -11.002   2.199  62.806  1.00  0.00    -0.174 OA 
ENDROOT
BRANCH   2   4
HETATM    4  O   UNL     1      -9.378   2.241  64.502  1.00  0.00    -0.129 OA 
BRANCH   4   5
HETATM    5  C   UNL     1      -9.367   3.374  65.331  1.00  0.00    -0.153 A  
HETATM    6  C   UNL     1      -8.193   3.791  65.949  1.00  0.00    -0.101 A  
HETATM    7  C   UNL     1      -8.193   4.950  66.718  1.00  0.00    -0.107 A  
HETATM    8  C   UNL     1      -9.352   5.740  66.843  1.00  0.00    -0.132 A  
HETATM    9  C   UNL     1      -9.281   7.004  67.713  1.00  0.00    -0.124 C  
HETATM   10  C   UNL     1     -10.515   5.332  66.166  1.00  0.00    -0.259 A  
HETATM   11  C   UNL     1      -9.946   6.833  69.084  1.00  0.00    -0.159 A  
HETATM   12  C   UNL     1     -10.527   4.143  65.419  1.00  0.00    -0.128 A  
HETATM   13  C   UNL     1      -9.476   8.318  66.938  1.00  0.00    -0.240 A  
HETATM   14  C   UNL     1     -11.310   6.587  69.244  1.00  0.00    -0.359 A  
HETATM   15  C   UNL     1     -10.469   9.270  67.211  1.00  0.00    -0.334 A  
HETATM   16  C   UNL     1     -11.823   6.378  70.525  1.00  0.00    -0.316 A  
HETATM   17  C   UNL     1     -10.504  10.492  66.514  1.00  0.00    -0.276 A  
HETATM   18  C   UNL     1     -10.967   6.404  71.620  1.00  0.00    -0.302 A  
HETATM   19  C   UNL     1      -9.537  10.783  65.550  1.00  0.00    -0.222 A  
HETATM   20  C   UNL     1      -8.563   9.844  65.237  1.00  0.00    -0.168 A  
HETATM   21  C   UNL     1      -9.627   6.645  71.387  1.00  0.00    -0.168 A  
HETATM   22  C   UNL     1      -8.539   8.626  65.925  1.00  0.00    -0.177 A  
HETATM   23  N   UNL     1      -9.108   6.865  70.159  1.00  0.00    -0.152 NA 
BRANCH  19  24
HETATM   24  O   UNL     1      -9.662  12.009  64.859  1.00  0.00    -0.211 OA 
BRANCH  24  25
HETATM   25  C   UNL     1     -10.045  13.182  65.518  1.00  0.00    -0.261 C  
HETATM   26  O   UNL     1      -9.461  13.731  66.443  1.00  0.00    -0.278 OA 
HETATM   27  C   UNL     1     -11.297  13.721  64.885  1.00  0.00    -0.353 C  
ENDBRANCH  24  25
ENDBRANCH  19  24
ENDBRANCH   4   5
ENDBRANCH   2   4
TORSDOF 4
ENDMDL
MODEL       61
REMARK 921   NORMALIZED FREE ENERGY PREDICTED BY IDOCK:   -4.49 KCAL/MOL
REMARK 922        TOTAL FREE ENERGY PREDICTED BY IDOCK:   -5.88 KCAL/MOL
REMARK 923 INTER-LIGAND FREE ENERGY PREDICTED BY IDOCK:   -5.57 KCAL/MOL
REMARK 924 INTRA-LIGAND FREE ENERGY PREDICTED BY IDOCK:   -0.31 KCAL/MOL
REMARK 927      BINDING AFFINITY PREDICTED BY RF-SCORE:    0.00 PKD
ROOT
HETATM    1  C   UNL     1     -10.369  18.076  67.529  1.00  0.00    -0.394 C  
HETATM    2  C   UNL     1     -10.386  16.817  66.712  1.00  0.00    -0.293 C  
HETATM    3  O   UNL     1     -10.096  16.771  65.523  1.00  0.00    -0.566 OA 
ENDROOT
BRANCH   2   4
HETATM    4  O   UNL     1     -10.788  15.755  67.525  1.00  0.00    -0.313 OA 
BRANCH   4   5
HETATM    5  C   UNL     1     -10.077  14.551  67.393  1.00  0.00    -0.235 A  
HETATM    6  C   UNL     1      -8.713  14.499  67.652  1.00  0.00    -0.186 A  
HETATM    7  C   UNL     1      -8.042  13.283  67.572  1.00  0.00    -0.187 A  
HETATM    8  C   UNL     1      -8.731  12.090  67.281  1.00  0.00    -0.175 A  
HETATM    9  C   UNL     1      -7.926  10.784  67.203  1.00  0.00    -0.124 C  
HETATM   10  C   UNL     1     -10.121  12.154  67.076  1.00  0.00    -0.219 A  
HETATM   11  C   UNL     1      -7.674  10.313  65.766  1.00  0.00    -0.143 A  
HETATM   12  C   UNL     1     -10.794  13.385  67.120  1.00  0.00    -0.284 A  
HETATM   13  C   UNL     1      -8.287   9.751  68.283  1.00  0.00    -0.106 A  
HETATM   14  C   UNL     1      -8.699   9.938  64.896  1.00  0.00    -0.198 A  
HETATM   15  C   UNL     1      -8.728   8.445  68.028  1.00  0.00    -0.139 A  
HETATM   16  C   UNL     1      -8.388   9.585  63.582  1.00  0.00    -0.176 A  
HETATM   17  C   UNL     1      -8.936   7.537  69.082  1.00  0.00    -0.135 A  
HETATM   18  C   UNL     1      -7.066   9.625  63.156  1.00  0.00    -0.107 A  
HETATM   19  C   UNL     1      -8.688   7.920  70.402  1.00  0.00    -0.137 A  
HETATM   20  C   UNL     1      -8.283   9.217  70.685  1.00  0.00    -0.224 A  
HETATM   21  C   UNL     1      -6.103  10.014  64.067  1.00  0.00    -0.132 A  
HETATM   22  C   UNL     1      -8.088  10.120  69.634  1.00  0.00    -0.178 A  
HETATM   23  N   UNL     1      -6.376  10.346  65.348  1.00  0.00    -0.124 NA 
BRANCH  19  24
HETATM   24  O   UNL     1      -8.961   6.970  71.413  1.00  0.00    -0.139 OA 
BRANCH  24  25
HETATM   25  C   UNL     1      -9.902   5.953  71.223  1.00  0.00    -0.176 C  
HETATM   26  O   UNL     1     -11.093   6.090  70.973  1.00  0.00    -0.288 OA 
HETATM   27  C   UNL     1      -9.220   4.618  71.329  1.00  0.00    -0.191 C  
ENDBRANCH  24  25
ENDBRANCH  19  24
ENDBRANCH   4   5
ENDBRANCH   2   4
TORSDOF 4
ENDMDL
MODEL       62
REMARK 921   NORMALIZED FREE ENERGY PREDICTED BY IDOCK:   -4.46 KCAL/MOL
REMARK 922        TOTAL FREE ENERGY PREDICTED BY IDOCK:   -5.85 KCAL/MOL
REMARK 923 INTER-LIGAND FREE ENERGY PREDICTED BY IDOCK:   -5.37 KCAL/MOL
REMARK 924 INTRA-LIGAND FREE ENERGY PREDICTED BY IDOCK:   -0.48 KCAL/MOL
REMARK 927      BINDING AFFINITY PREDICTED BY RF-SCORE:    0.00 PKD
ROOT
HETATM    1  C   UNL     1      -9.297  15.583  66.417  1.00  0.00    -0.330 C  
HETATM    2  C   UNL     1      -9.732  14.342  67.138  1.00  0.00    -0.254 C  
HETATM    3  O   UNL     1     -10.242  14.341  68.252  1.00  0.00    -0.231 OA 
ENDROOT
BRANCH   2   4
HETATM    4  O   UNL     1      -9.449  13.231  66.339  1.00  0.00    -0.258 OA 
BRANCH   4   5
HETATM    5  C   UNL     1      -9.647  11.967  66.917  1.00  0.00    -0.203 A  
HETATM    6  C   UNL     1     -10.847  11.287  66.746  1.00  0.00    -0.334 A  
HETATM    7  C   UNL     1     -10.998  10.010  67.278  1.00  0.00    -0.225 A  
HETATM    8  C   UNL     1      -9.937   9.371  67.947  1.00  0.00    -0.220 A  
HETATM    9  C   UNL     1     -10.176   7.963  68.513  1.00  0.00    -0.229 C  
HETATM   10  C   UNL     1      -8.712  10.053  68.062  1.00  0.00    -0.125 A  
HETATM   11  C   UNL     1     -10.382   7.950  70.033  1.00  0.00    -0.221 A  
HETATM   12  C   UNL     1      -8.569  11.355  67.558  1.00  0.00    -0.137 A  
HETATM   13  C   UNL     1      -9.325   6.863  67.857  1.00  0.00    -0.118 A  
HETATM   14  C   UNL     1      -9.393   8.338  70.939  1.00  0.00    -0.187 A  
HETATM   15  C   UNL     1      -8.443   6.016  68.542  1.00  0.00    -0.113 A  
HETATM   16  C   UNL     1      -9.686   8.359  72.304  1.00  0.00    -0.386 A  
HETATM   17  C   UNL     1      -7.786   4.968  67.872  1.00  0.00    -0.084 A  
HETATM   18  C   UNL     1     -10.958   8.007  72.739  1.00  0.00    -0.449 A  
HETATM   19  C   UNL     1      -8.016   4.746  66.512  1.00  0.00    -0.103 A  
HETATM   20  C   UNL     1      -8.859   5.591  65.803  1.00  0.00    -0.154 A  
HETATM   21  C   UNL     1     -11.889   7.642  71.786  1.00  0.00    -0.290 A  
HETATM   22  C   UNL     1      -9.502   6.638  66.472  1.00  0.00    -0.192 A  
HETATM   23  N   UNL     1     -11.628   7.599  70.461  1.00  0.00    -0.226 NA 
BRANCH  19  24
HETATM   24  O   UNL     1      -7.286   3.705  65.895  1.00  0.00    -0.073 OA 
BRANCH  24  25
HETATM   25  C   UNL     1      -7.530   2.362  66.202  1.00  0.00    -0.067 C  
HETATM   26  O   UNL     1      -6.861   1.642  66.932  1.00  0.00    -0.037 OA 
HETATM   27  C   UNL     1      -8.794   1.918  65.521  1.00  0.00    -0.121 C  
ENDBRANCH  24  25
ENDBRANCH  19  24
ENDBRANCH   4   5
ENDBRANCH   2   4
TORSDOF 4
ENDMDL
MODEL       63
REMARK 921   NORMALIZED FREE ENERGY PREDICTED BY IDOCK:   -4.46 KCAL/MOL
REMARK 922        TOTAL FREE ENERGY PREDICTED BY IDOCK:   -5.85 KCAL/MOL
REMARK 923 INTER-LIGAND FREE ENERGY PREDICTED BY IDOCK:   -5.60 KCAL/MOL
REMARK 924 INTRA-LIGAND FREE ENERGY PREDICTED BY IDOCK:   -0.25 KCAL/MOL
REMARK 927      BINDING AFFINITY PREDICTED BY RF-SCORE:    0.00 PKD
ROOT
HETATM    1  C   UNL     1      -6.189   8.849  63.051  1.00  0.00    -0.090 C  
HETATM    2  C   UNL     1      -6.161   7.562  63.822  1.00  0.00    -0.049 C  
HETATM    3  O   UNL     1      -5.152   6.890  63.993  1.00  0.00    -0.026 OA 
ENDROOT
BRANCH   2   4
HETATM    4  O   UNL     1      -7.450   7.281  64.280  1.00  0.00    -0.086 OA 
BRANCH   4   5
HETATM    5  C   UNL     1      -7.864   7.939  65.450  1.00  0.00    -0.112 A  
HETATM    6  C   UNL     1      -6.937   8.528  66.301  1.00  0.00    -0.077 A  
HETATM    7  C   UNL     1      -7.375   9.225  67.422  1.00  0.00    -0.087 A  
HETATM    8  C   UNL     1      -8.749   9.389  67.685  1.00  0.00    -0.116 A  
HETATM    9  C   UNL     1      -9.161  10.166  68.945  1.00  0.00    -0.172 C  
HETATM   10  C   UNL     1      -9.673   8.833  66.783  1.00  0.00    -0.286 A  
HETATM   11  C   UNL     1      -9.638   9.259  70.086  1.00  0.00    -0.220 A  
HETATM   12  C   UNL     1      -9.233   8.098  65.671  1.00  0.00    -0.040 A  
HETATM   13  C   UNL     1      -9.908  11.480  68.662  1.00  0.00    -0.184 A  
HETATM   14  C   UNL     1     -10.776   8.456  69.996  1.00  0.00    -0.236 A  
HETATM   15  C   UNL     1     -11.190  11.792  69.138  1.00  0.00    -0.324 A  
HETATM   16  C   UNL     1     -11.102   7.609  71.057  1.00  0.00    -0.273 A  
HETATM   17  C   UNL     1     -11.750  13.063  68.914  1.00  0.00    -0.371 A  
HETATM   18  C   UNL     1     -10.284   7.570  72.180  1.00  0.00    -0.238 A  
HETATM   19  C   UNL     1     -11.028  14.041  68.228  1.00  0.00    -0.255 A  
HETATM   20  C   UNL     1      -9.771  13.747  67.717  1.00  0.00    -0.230 A  
HETATM   21  C   UNL     1      -9.170   8.386  72.198  1.00  0.00    -0.243 A  
HETATM   22  C   UNL     1      -9.223  12.479  67.933  1.00  0.00    -0.200 A  
HETATM   23  N   UNL     1      -8.839   9.224  71.191  1.00  0.00    -0.293 NA 
BRANCH  19  24
HETATM   24  O   UNL     1     -11.672  15.280  68.000  1.00  0.00    -0.342 OA 
BRANCH  24  25
HETATM   25  C   UNL     1     -11.225  16.457  68.610  1.00  0.00    -0.332 C  
HETATM   26  O   UNL     1     -10.886  17.492  68.051  1.00  0.00    -0.378 OA 
HETATM   27  C   UNL     1     -11.258  16.286  70.103  1.00  0.00    -0.340 C  
ENDBRANCH  24  25
ENDBRANCH  19  24
ENDBRANCH   4   5
ENDBRANCH   2   4
TORSDOF 4
ENDMDL
MODEL       64
REMARK 921   NORMALIZED FREE ENERGY PREDICTED BY IDOCK:   -4.43 KCAL/MOL
REMARK 922        TOTAL FREE ENERGY PREDICTED BY IDOCK:   -5.81 KCAL/MOL
REMARK 923 INTER-LIGAND FREE ENERGY PREDICTED BY IDOCK:   -5.46 KCAL/MOL
REMARK 924 INTRA-LIGAND FREE ENERGY PREDICTED BY IDOCK:   -0.35 KCAL/MOL
REMARK 927      BINDING AFFINITY PREDICTED BY RF-SCORE:    0.00 PKD
ROOT
HETATM    1  C   UNL     1      -7.501  10.534  62.330  1.00  0.00    -0.168 C  
HETATM    2  C   UNL     1      -7.857   9.259  63.038  1.00  0.00    -0.134 C  
HETATM    3  O   UNL     1      -7.094   8.309  63.158  1.00  0.00    -0.088 OA 
ENDROOT
BRANCH   2   4
HETATM    4  O   UNL     1      -9.169   9.353  63.507  1.00  0.00    -0.137 OA 
BRANCH   4   5
HETATM    5  C   UNL     1      -9.347   9.904  64.786  1.00  0.00    -0.278 A  
HETATM    6  C   UNL     1      -8.340   9.825  65.741  1.00  0.00    -0.132 A  
HETATM    7  C   UNL     1      -8.517  10.430  66.981  1.00  0.00    -0.127 A  
HETATM    8  C   UNL     1      -9.681  11.168  67.271  1.00  0.00    -0.186 A  
HETATM    9  C   UNL     1      -9.811  11.805  68.663  1.00  0.00    -0.153 C  
HETATM   10  C   UNL     1     -10.665  11.283  66.274  1.00  0.00    -0.312 A  
HETATM   11  C   UNL     1     -10.758  11.037  69.594  1.00  0.00    -0.139 A  
HETATM   12  C   UNL     1     -10.505  10.643  65.034  1.00  0.00    -0.278 A  
HETATM   13  C   UNL     1      -9.842  13.342  68.656  1.00  0.00    -0.096 A  
HETATM   14  C   UNL     1     -12.123  10.891  69.340  1.00  0.00    -0.362 A  
HETATM   15  C   UNL     1     -10.877  14.126  69.185  1.00  0.00    -0.254 A  
HETATM   16  C   UNL     1     -12.902  10.120  70.204  1.00  0.00     0.037 A  
HETATM   17  C   UNL     1     -10.769  15.528  69.227  1.00  0.00    -0.245 A  
HETATM   18  C   UNL     1     -12.306   9.499  71.296  1.00  0.00    -0.430 A  
HETATM   19  C   UNL     1      -9.616  16.160  68.756  1.00  0.00    -0.235 A  
HETATM   20  C   UNL     1      -8.591  15.410  68.196  1.00  0.00    -0.152 A  
HETATM   21  C   UNL     1     -10.949   9.680  71.481  1.00  0.00    -0.196 A  
HETATM   22  C   UNL     1      -8.708  14.017  68.147  1.00  0.00    -0.180 A  
HETATM   23  N   UNL     1     -10.176  10.433  70.668  1.00  0.00     0.325 NA 
BRANCH  19  24
HETATM   24  O   UNL     1      -9.596  17.574  68.787  1.00  0.00    -0.291 OA 
BRANCH  24  25
HETATM   25  C   UNL     1     -10.028  18.334  67.695  1.00  0.00    -0.338 C  
HETATM   26  O   UNL     1     -10.453  17.912  66.627  1.00  0.00    -0.354 OA 
HETATM   27  C   UNL     1      -9.935  19.794  68.038  1.00  0.00    -0.553 C  
ENDBRANCH  24  25
ENDBRANCH  19  24
ENDBRANCH   4   5
ENDBRANCH   2   4
TORSDOF 4
ENDMDL
MODEL       65
REMARK 921   NORMALIZED FREE ENERGY PREDICTED BY IDOCK:   -4.25 KCAL/MOL
REMARK 922        TOTAL FREE ENERGY PREDICTED BY IDOCK:   -5.59 KCAL/MOL
REMARK 923 INTER-LIGAND FREE ENERGY PREDICTED BY IDOCK:   -5.36 KCAL/MOL
REMARK 924 INTRA-LIGAND FREE ENERGY PREDICTED BY IDOCK:   -0.22 KCAL/MOL
REMARK 927      BINDING AFFINITY PREDICTED BY RF-SCORE:    0.00 PKD
ROOT
HETATM    1  C   UNL     1     -13.861   8.818  72.161  1.00  0.00    -0.513 C  
HETATM    2  C   UNL     1     -12.625   8.040  71.817  1.00  0.00    -0.325 C  
HETATM    3  O   UNL     1     -12.638   6.912  71.342  1.00  0.00    -0.367 OA 
ENDROOT
BRANCH   2   4
HETATM    4  O   UNL     1     -11.503   8.808  72.137  1.00  0.00    -0.354 OA 
BRANCH   4   5
HETATM    5  C   UNL     1     -10.721   9.266  71.064  1.00  0.00    -0.316 A  
HETATM    6  C   UNL     1      -9.334   9.274  71.148  1.00  0.00    -0.259 A  
HETATM    7  C   UNL     1      -8.580   9.677  70.050  1.00  0.00    -0.237 A  
HETATM    8  C   UNL     1      -9.196  10.030  68.834  1.00  0.00    -0.169 A  
HETATM    9  C   UNL     1      -8.301  10.469  67.666  1.00  0.00    -0.114 C  
HETATM   10  C   UNL     1     -10.598   9.963  68.751  1.00  0.00    -0.246 A  
HETATM   11  C   UNL     1      -8.300  11.987  67.442  1.00  0.00    -0.171 A  
HETATM   12  C   UNL     1     -11.363   9.592  69.869  1.00  0.00    -0.161 A  
HETATM   13  C   UNL     1      -8.338   9.528  66.451  1.00  0.00    -0.120 A  
HETATM   14  C   UNL     1      -9.438  12.703  67.070  1.00  0.00    -0.220 A  
HETATM   15  C   UNL     1      -8.694   9.911  65.150  1.00  0.00    -0.187 A  
HETATM   16  C   UNL     1      -9.366  14.092  66.952  1.00  0.00    -0.274 A  
HETATM   17  C   UNL     1      -8.597   9.002  64.081  1.00  0.00    -0.165 A  
HETATM   18  C   UNL     1      -8.166  14.741  67.219  1.00  0.00    -0.237 A  
HETATM   19  C   UNL     1      -8.126   7.705  64.297  1.00  0.00    -0.071 A  
HETATM   20  C   UNL     1      -7.799   7.290  65.581  1.00  0.00    -0.112 A  
HETATM   21  C   UNL     1      -7.082  13.971  67.591  1.00  0.00    -0.179 A  
HETATM   22  C   UNL     1      -7.907   8.195  66.643  1.00  0.00    -0.094 A  
HETATM   23  N   UNL     1      -7.122  12.625  67.698  1.00  0.00    -0.125 NA 
BRANCH  19  24
HETATM   24  O   UNL     1      -8.098   6.832  63.185  1.00  0.00    -0.106 OA 
BRANCH  24  25
HETATM   25  C   UNL     1      -7.686   5.502  63.312  1.00  0.00    -0.084 C  
HETATM   26  O   UNL     1      -6.553   5.102  63.546  1.00  0.00    -0.028 OA 
HETATM   27  C   UNL     1      -8.876   4.596  63.158  1.00  0.00    -0.129 C  
ENDBRANCH  24  25
ENDBRANCH  19  24
ENDBRANCH   4   5
ENDBRANCH   2   4
TORSDOF 4
ENDMDL
MODEL       66
REMARK 921   NORMALIZED FREE ENERGY PREDICTED BY IDOCK:   -4.23 KCAL/MOL
REMARK 922        TOTAL FREE ENERGY PREDICTED BY IDOCK:   -5.56 KCAL/MOL
REMARK 923 INTER-LIGAND FREE ENERGY PREDICTED BY IDOCK:   -5.12 KCAL/MOL
REMARK 924 INTRA-LIGAND FREE ENERGY PREDICTED BY IDOCK:   -0.44 KCAL/MOL
REMARK 927      BINDING AFFINITY PREDICTED BY RF-SCORE:    0.00 PKD
ROOT
HETATM    1  C   UNL     1      -7.641  10.232  63.236  1.00  0.00    -0.124 C  
HETATM    2  C   UNL     1      -6.767   9.796  64.374  1.00  0.00    -0.119 C  
HETATM    3  O   UNL     1      -6.246  10.566  65.171  1.00  0.00    -0.124 OA 
ENDROOT
BRANCH   2   4
HETATM    4  O   UNL     1      -6.656   8.403  64.351  1.00  0.00    -0.066 OA 
BRANCH   4   5
HETATM    5  C   UNL     1      -7.058   7.716  65.507  1.00  0.00    -0.063 A  
HETATM    6  C   UNL     1      -6.189   7.559  66.581  1.00  0.00    -0.045 A  
HETATM    7  C   UNL     1      -6.630   6.926  67.738  1.00  0.00    -0.055 A  
HETATM    8  C   UNL     1      -7.961   6.484  67.863  1.00  0.00    -0.109 A  
HETATM    9  C   UNL     1      -8.378   5.789  69.168  1.00  0.00    -0.105 C  
HETATM   10  C   UNL     1      -8.841   6.701  66.789  1.00  0.00    -0.132 A  
HETATM   11  C   UNL     1      -8.490   4.266  69.033  1.00  0.00    -0.082 A  
HETATM   12  C   UNL     1      -8.389   7.307  65.605  1.00  0.00    -0.142 A  
HETATM   13  C   UNL     1      -9.432   6.554  69.986  1.00  0.00    -0.163 A  
HETATM   14  C   UNL     1      -9.419   3.641  68.198  1.00  0.00    -0.215 A  
HETATM   15  C   UNL     1     -10.681   6.041  70.364  1.00  0.00    -0.358 A  
HETATM   16  C   UNL     1      -9.410   2.250  68.083  1.00  0.00    -0.263 A  
HETATM   17  C   UNL     1     -11.538   6.778  71.201  1.00  0.00    -0.377 A  
HETATM   18  C   UNL     1      -8.470   1.509  68.790  1.00  0.00    -0.079 A  
HETATM   19  C   UNL     1     -11.148   8.029  71.684  1.00  0.00    -0.252 A  
HETATM   20  C   UNL     1      -9.931   8.575  71.298  1.00  0.00    -0.284 A  
HETATM   21  C   UNL     1      -7.576   2.193  69.590  1.00  0.00    -0.043 A  
HETATM   22  C   UNL     1      -9.087   7.842  70.456  1.00  0.00    -0.154 A  
HETATM   23  N   UNL     1      -7.573   3.537  69.731  1.00  0.00    -0.048 NA 
BRANCH  19  24
HETATM   24  O   UNL     1     -12.078   8.733  72.483  1.00  0.00    -0.347 OA 
BRANCH  24  25
HETATM   25  C   UNL     1     -13.270   9.232  71.947  1.00  0.00    -0.423 C  
HETATM   26  O   UNL     1     -14.342   8.647  71.866  1.00  0.00    -0.423 OA 
HETATM   27  C   UNL     1     -13.058  10.653  71.503  1.00  0.00    -0.527 C  
ENDBRANCH  24  25
ENDBRANCH  19  24
ENDBRANCH   4   5
ENDBRANCH   2   4
TORSDOF 4
ENDMDL
MODEL       67
REMARK 921   NORMALIZED FREE ENERGY PREDICTED BY IDOCK:   -4.18 KCAL/MOL
REMARK 922        TOTAL FREE ENERGY PREDICTED BY IDOCK:   -5.50 KCAL/MOL
REMARK 923 INTER-LIGAND FREE ENERGY PREDICTED BY IDOCK:   -5.14 KCAL/MOL
REMARK 924 INTRA-LIGAND FREE ENERGY PREDICTED BY IDOCK:   -0.35 KCAL/MOL
REMARK 927      BINDING AFFINITY PREDICTED BY RF-SCORE:    0.00 PKD
ROOT
HETATM    1  C   UNL     1      -7.219  11.545  66.507  1.00  0.00    -0.009 C  
HETATM    2  C   UNL     1      -8.161  12.281  67.413  1.00  0.00    -0.175 C  
HETATM    3  O   UNL     1      -8.894  13.190  67.044  1.00  0.00    -0.214 OA 
ENDROOT
BRANCH   2   4
HETATM    4  O   UNL     1      -8.042  11.765  68.706  1.00  0.00    -0.129 OA 
BRANCH   4   5
HETATM    5  C   UNL     1      -8.611  10.502  68.938  1.00  0.00    -0.153 A  
HETATM    6  C   UNL     1      -9.986  10.317  68.866  1.00  0.00    -0.209 A  
HETATM    7  C   UNL     1     -10.521   9.045  69.042  1.00  0.00    -0.235 A  
HETATM    8  C   UNL     1      -9.688   7.927  69.243  1.00  0.00    -0.159 A  
HETATM    9  C   UNL     1     -10.348   6.553  69.434  1.00  0.00    -0.241 C  
HETATM   10  C   UNL     1      -8.296   8.125  69.257  1.00  0.00    -0.130 A  
HETATM   11  C   UNL     1     -10.358   6.086  70.895  1.00  0.00    -0.222 A  
HETATM   12  C   UNL     1      -7.756   9.413  69.116  1.00  0.00    -0.079 A  
HETATM   13  C   UNL     1     -10.038   5.540  68.320  1.00  0.00    -0.226 A  
HETATM   14  C   UNL     1      -9.194   5.824  71.619  1.00  0.00    -0.158 A  
HETATM   15  C   UNL     1      -9.444   4.286  68.519  1.00  0.00    -0.216 A  
HETATM   16  C   UNL     1      -9.291   5.466  72.965  1.00  0.00    -0.142 A  
HETATM   17  C   UNL     1      -9.295   3.383  67.450  1.00  0.00    -0.243 A  
HETATM   18  C   UNL     1     -10.542   5.389  73.566  1.00  0.00    -0.310 A  
HETATM   19  C   UNL     1      -9.753   3.718  66.174  1.00  0.00    -0.122 A  
HETATM   20  C   UNL     1     -10.314   4.966  65.943  1.00  0.00    -0.271 A  
HETATM   21  C   UNL     1     -11.650   5.670  72.792  1.00  0.00    -0.232 A  
HETATM   22  C   UNL     1     -10.451   5.865  67.007  1.00  0.00    -0.341 A  
HETATM   23  N   UNL     1     -11.585   6.004  71.484  1.00  0.00    -0.234 NA 
BRANCH  19  24
HETATM   24  O   UNL     1      -9.529   2.781  65.140  1.00  0.00    -0.140 OA 
BRANCH  24  25
HETATM   25  C   UNL     1     -10.111   2.934  63.878  1.00  0.00    -0.162 C  
HETATM   26  O   UNL     1     -11.266   2.677  63.564  1.00  0.00    -0.297 OA 
HETATM   27  C   UNL     1      -9.100   3.520  62.932  1.00  0.00    -0.095 C  
ENDBRANCH  24  25
ENDBRANCH  19  24
ENDBRANCH   4   5
ENDBRANCH   2   4
TORSDOF 4
ENDMDL
MODEL       68
REMARK 921   NORMALIZED FREE ENERGY PREDICTED BY IDOCK:   -4.13 KCAL/MOL
REMARK 922        TOTAL FREE ENERGY PREDICTED BY IDOCK:   -5.43 KCAL/MOL
REMARK 923 INTER-LIGAND FREE ENERGY PREDICTED BY IDOCK:   -4.99 KCAL/MOL
REMARK 924 INTRA-LIGAND FREE ENERGY PREDICTED BY IDOCK:   -0.44 KCAL/MOL
REMARK 927      BINDING AFFINITY PREDICTED BY RF-SCORE:    0.00 PKD
ROOT
HETATM    1  C   UNL     1      -9.787  11.622  63.990  1.00  0.00    -0.283 C  
HETATM    2  C   UNL     1     -10.199  12.487  65.144  1.00  0.00    -0.279 C  
HETATM    3  O   UNL     1     -11.143  13.266  65.111  1.00  0.00    -0.288 OA 
ENDROOT
BRANCH   2   4
HETATM    4  O   UNL     1      -9.335  12.253  66.216  1.00  0.00    -0.232 OA 
BRANCH   4   5
HETATM    5  C   UNL     1      -9.492  11.040  66.906  1.00  0.00    -0.177 A  
HETATM    6  C   UNL     1     -10.754  10.595  67.283  1.00  0.00    -0.338 A  
HETATM    7  C   UNL     1     -10.890   9.362  67.912  1.00  0.00    -0.215 A  
HETATM    8  C   UNL     1      -9.776   8.529  68.129  1.00  0.00    -0.175 A  
HETATM    9  C   UNL     1     -10.000   7.183  68.834  1.00  0.00    -0.163 C  
HETATM   10  C   UNL     1      -8.516   8.971  67.690  1.00  0.00    -0.117 A  
HETATM   11  C   UNL     1      -9.559   7.188  70.303  1.00  0.00    -0.169 A  
HETATM   12  C   UNL     1      -8.370  10.231  67.089  1.00  0.00    -0.122 A  
HETATM   13  C   UNL     1      -9.702   5.953  67.961  1.00  0.00    -0.132 A  
HETATM   14  C   UNL     1      -8.233   7.374  70.699  1.00  0.00    -0.112 A  
HETATM   15  C   UNL     1      -8.778   4.948  68.279  1.00  0.00    -0.109 A  
HETATM   16  C   UNL     1      -7.927   7.432  72.060  1.00  0.00    -0.099 A  
HETATM   17  C   UNL     1      -8.649   3.806  67.468  1.00  0.00    -0.113 A  
HETATM   18  C   UNL     1      -8.946   7.315  72.998  1.00  0.00    -0.174 A  
HETATM   19  C   UNL     1      -9.455   3.648  66.339  1.00  0.00    -0.168 A  
HETATM   20  C   UNL     1     -10.355   4.643  65.983  1.00  0.00    -0.318 A  
HETATM   21  C   UNL     1     -10.235   7.141  72.535  1.00  0.00    -0.194 A  
HETATM   22  C   UNL     1     -10.472   5.782  66.787  1.00  0.00    -0.350 A  
HETATM   23  N   UNL     1     -10.557   7.068  71.224  1.00  0.00    -0.218 NA 
BRANCH  19  24
HETATM   24  O   UNL     1      -9.239   2.497  65.546  1.00  0.00    -0.142 OA 
BRANCH  24  25
HETATM   25  C   UNL     1      -8.903   2.598  64.192  1.00  0.00    -0.097 C  
HETATM   26  O   UNL     1      -7.803   2.864  63.724  1.00  0.00    -0.077 OA 
HETATM   27  C   UNL     1     -10.111   2.282  63.355  1.00  0.00    -0.134 C  
ENDBRANCH  24  25
ENDBRANCH  19  24
ENDBRANCH   4   5
ENDBRANCH   2   4
TORSDOF 4
ENDMDL
MODEL       69
REMARK 921   NORMALIZED FREE ENERGY PREDICTED BY IDOCK:   -4.12 KCAL/MOL
REMARK 922        TOTAL FREE ENERGY PREDICTED BY IDOCK:   -5.43 KCAL/MOL
REMARK 923 INTER-LIGAND FREE ENERGY PREDICTED BY IDOCK:   -5.17 KCAL/MOL
REMARK 924 INTRA-LIGAND FREE ENERGY PREDICTED BY IDOCK:   -0.26 KCAL/MOL
REMARK 927      BINDING AFFINITY PREDICTED BY RF-SCORE:    0.00 PKD
ROOT
HETATM    1  C   UNL     1     -14.367   8.541  71.977  1.00  0.00    -0.537 C  
HETATM    2  C   UNL     1     -13.222   9.493  72.156  1.00  0.00    -0.451 C  
HETATM    3  O   UNL     1     -13.319  10.708  72.037  1.00  0.00    -0.440 OA 
ENDROOT
BRANCH   2   4
HETATM    4  O   UNL     1     -12.070   8.764  72.461  1.00  0.00    -0.347 OA 
BRANCH   4   5
HETATM    5  C   UNL     1     -11.052   8.754  71.495  1.00  0.00    -0.307 A  
HETATM    6  C   UNL     1      -9.764   8.348  71.823  1.00  0.00    -0.306 A  
HETATM    7  C   UNL     1      -8.786   8.290  70.835  1.00  0.00    -0.171 A  
HETATM    8  C   UNL     1      -9.090   8.588  69.493  1.00  0.00    -0.150 A  
HETATM    9  C   UNL     1      -7.959   8.508  68.456  1.00  0.00    -0.117 C  
HETATM   10  C   UNL     1     -10.411   8.944  69.170  1.00  0.00    -0.236 A  
HETATM   11  C   UNL     1      -7.422   9.882  68.039  1.00  0.00    -0.085 A  
HETATM   12  C   UNL     1     -11.391   9.039  70.171  1.00  0.00    -0.139 A  
HETATM   13  C   UNL     1      -8.155   7.419  67.388  1.00  0.00    -0.113 A  
HETATM   14  C   UNL     1      -8.199  10.835  67.378  1.00  0.00    -0.116 A  
HETATM   15  C   UNL     1      -8.195   7.648  66.006  1.00  0.00    -0.128 A  
HETATM   16  C   UNL     1      -7.652  12.088  67.094  1.00  0.00    -0.146 A  
HETATM   17  C   UNL     1      -8.273   6.575  65.100  1.00  0.00    -0.126 A  
HETATM   18  C   UNL     1      -6.349  12.371  67.484  1.00  0.00    -0.148 A  
HETATM   19  C   UNL     1      -8.295   5.259  65.566  1.00  0.00    -0.130 A  
HETATM   20  C   UNL     1      -8.290   5.005  66.931  1.00  0.00    -0.107 A  
HETATM   21  C   UNL     1      -5.641  11.385  68.141  1.00  0.00    -0.042 A  
HETATM   22  C   UNL     1      -8.223   6.076  67.828  1.00  0.00    -0.112 A  
HETATM   23  N   UNL     1      -6.142  10.160  68.415  1.00  0.00    -0.045 NA 
BRANCH  19  24
HETATM   24  O   UNL     1      -8.420   4.233  64.601  1.00  0.00    -0.109 OA 
BRANCH  24  25
HETATM   25  C   UNL     1      -9.607   3.507  64.458  1.00  0.00    -0.167 C  
HETATM   26  O   UNL     1     -10.717   3.956  64.202  1.00  0.00    -0.276 OA 
HETATM   27  C   UNL     1      -9.318   2.042  64.626  1.00  0.00    -0.119 C  
ENDBRANCH  24  25
ENDBRANCH  19  24
ENDBRANCH   4   5
ENDBRANCH   2   4
TORSDOF 4
ENDMDL
MODEL       70
REMARK 921   NORMALIZED FREE ENERGY PREDICTED BY IDOCK:   -3.98 KCAL/MOL
REMARK 922        TOTAL FREE ENERGY PREDICTED BY IDOCK:   -5.25 KCAL/MOL
REMARK 923 INTER-LIGAND FREE ENERGY PREDICTED BY IDOCK:   -5.34 KCAL/MOL
REMARK 924 INTRA-LIGAND FREE ENERGY PREDICTED BY IDOCK:    0.09 KCAL/MOL
REMARK 927      BINDING AFFINITY PREDICTED BY RF-SCORE:    0.00 PKD
ROOT
HETATM    1  C   UNL     1      -9.490   5.620  72.220  1.00  0.00    -0.160 C  
HETATM    2  C   UNL     1     -10.741   5.868  73.009  1.00  0.00    -0.256 C  
HETATM    3  O   UNL     1     -11.384   4.987  73.566  1.00  0.00    -0.319 OA 
ENDROOT
BRANCH   2   4
HETATM    4  O   UNL     1     -11.029   7.235  72.984  1.00  0.00    -0.313 OA 
BRANCH   4   5
HETATM    5  C   UNL     1     -10.576   7.958  71.868  1.00  0.00    -0.231 A  
HETATM    6  C   UNL     1      -9.399   8.695  71.928  1.00  0.00    -0.357 A  
HETATM    7  C   UNL     1      -8.940   9.354  70.793  1.00  0.00    -0.254 A  
HETATM    8  C   UNL     1      -9.621   9.247  69.565  1.00  0.00    -0.178 A  
HETATM    9  C   UNL     1      -9.059  10.007  68.353  1.00  0.00    -0.121 C  
HETATM   10  C   UNL     1     -10.779   8.452  69.509  1.00  0.00    -0.181 A  
HETATM   11  C   UNL     1      -9.844  11.281  68.021  1.00  0.00    -0.178 A  
HETATM   12  C   UNL     1     -11.264   7.816  70.663  1.00  0.00    -0.278 A  
HETATM   13  C   UNL     1      -8.569   9.102  67.210  1.00  0.00    -0.118 A  
HETATM   14  C   UNL     1     -11.180  11.269  67.616  1.00  0.00    -0.357 A  
HETATM   15  C   UNL     1      -9.041   9.151  65.890  1.00  0.00    -0.256 A  
HETATM   16  C   UNL     1     -11.841  12.479  67.397  1.00  0.00    -0.381 A  
HETATM   17  C   UNL     1      -8.458   8.354  64.889  1.00  0.00    -0.141 A  
HETATM   18  C   UNL     1     -11.163  13.676  67.597  1.00  0.00    -0.303 A  
HETATM   19  C   UNL     1      -7.385   7.513  65.191  1.00  0.00    -0.073 A  
HETATM   20  C   UNL     1      -6.921   7.421  66.496  1.00  0.00    -0.070 A  
HETATM   21  C   UNL     1      -9.846  13.614  68.006  1.00  0.00    -0.244 A  
HETATM   22  C   UNL     1      -7.511   8.207  67.491  1.00  0.00    -0.094 A  
HETATM   23  N   UNL     1      -9.180  12.456  68.211  1.00  0.00    -0.202 NA 
BRANCH  19  24
HETATM   24  O   UNL     1      -6.880   6.708  64.144  1.00  0.00    -0.046 OA 
BRANCH  24  25
HETATM   25  C   UNL     1      -7.560   5.566  63.708  1.00  0.00    -0.072 C  
HETATM   26  O   UNL     1      -8.473   5.520  62.895  1.00  0.00    -0.114 OA 
HETATM   27  C   UNL     1      -6.966   4.353  64.368  1.00  0.00    -0.046 C  
ENDBRANCH  24  25
ENDBRANCH  19  24
ENDBRANCH   4   5
ENDBRANCH   2   4
TORSDOF 4
ENDMDL
MODEL       71
REMARK 921   NORMALIZED FREE ENERGY PREDICTED BY IDOCK:   -3.93 KCAL/MOL
REMARK 922        TOTAL FREE ENERGY PREDICTED BY IDOCK:   -5.19 KCAL/MOL
REMARK 923 INTER-LIGAND FREE ENERGY PREDICTED BY IDOCK:   -5.03 KCAL/MOL
REMARK 924 INTRA-LIGAND FREE ENERGY PREDICTED BY IDOCK:   -0.16 KCAL/MOL
REMARK 927      BINDING AFFINITY PREDICTED BY RF-SCORE:    0.00 PKD
ROOT
HETATM    1  C   UNL     1     -11.101  12.463  63.396  1.00  0.00    -0.465 C  
HETATM    2  C   UNL     1     -11.922  12.730  64.623  1.00  0.00    -0.396 C  
HETATM    3  O   UNL     1     -13.122  12.972  64.602  1.00  0.00    -0.723 OA 
ENDROOT
BRANCH   2   4
HETATM    4  O   UNL     1     -11.094  12.661  65.746  1.00  0.00    -0.282 OA 
BRANCH   4   5
HETATM    5  C   UNL     1     -10.527  11.411  66.040  1.00  0.00    -0.255 A  
HETATM    6  C   UNL     1      -9.259  11.079  65.577  1.00  0.00    -0.235 A  
HETATM    7  C   UNL     1      -8.694   9.858  65.931  1.00  0.00    -0.154 A  
HETATM    8  C   UNL     1      -9.363   8.970  66.795  1.00  0.00    -0.213 A  
HETATM    9  C   UNL     1      -8.681   7.638  67.139  1.00  0.00    -0.125 C  
HETATM   10  C   UNL     1     -10.620   9.348  67.298  1.00  0.00    -0.314 A  
HETATM   11  C   UNL     1      -9.274   6.442  66.385  1.00  0.00    -0.155 A  
HETATM   12  C   UNL     1     -11.209  10.563  66.913  1.00  0.00     0.003 A  
HETATM   13  C   UNL     1      -8.305   7.483  68.623  1.00  0.00    -0.129 A  
HETATM   14  C   UNL     1     -10.591   6.013  66.552  1.00  0.00    -0.238 A  
HETATM   15  C   UNL     1      -8.745   6.445  69.457  1.00  0.00    -0.133 A  
HETATM   16  C   UNL     1     -11.071   4.956  65.775  1.00  0.00     0.150 A  
HETATM   17  C   UNL     1      -8.264   6.329  70.774  1.00  0.00    -0.125 A  
HETATM   18  C   UNL     1     -10.236   4.357  64.840  1.00  0.00    -0.129 A  
HETATM   19  C   UNL     1      -7.325   7.238  71.265  1.00  0.00    -0.077 A  
HETATM   20  C   UNL     1      -6.898   8.294  70.471  1.00  0.00    -0.037 A  
HETATM   21  C   UNL     1      -8.947   4.838  64.722  1.00  0.00    -0.146 A  
HETATM   22  C   UNL     1      -7.388   8.412  69.166  1.00  0.00    -0.079 A  
HETATM   23  N   UNL     1      -8.453   5.849  65.471  1.00  0.00    -0.151 NA 
BRANCH  19  24
HETATM   24  O   UNL     1      -6.921   7.087  72.612  1.00  0.00    -0.068 OA 
BRANCH  24  25
HETATM   25  C   UNL     1      -6.638   8.195  73.417  1.00  0.00    -0.106 C  
HETATM   26  O   UNL     1      -7.449   8.941  73.951  1.00  0.00    -0.402 OA 
HETATM   27  C   UNL     1      -5.150   8.326  73.579  1.00  0.00    -0.043 C  
ENDBRANCH  24  25
ENDBRANCH  19  24
ENDBRANCH   4   5
ENDBRANCH   2   4
TORSDOF 4
ENDMDL
MODEL       72
REMARK 921   NORMALIZED FREE ENERGY PREDICTED BY IDOCK:   -3.76 KCAL/MOL
REMARK 922        TOTAL FREE ENERGY PREDICTED BY IDOCK:   -4.98 KCAL/MOL
REMARK 923 INTER-LIGAND FREE ENERGY PREDICTED BY IDOCK:   -4.83 KCAL/MOL
REMARK 924 INTRA-LIGAND FREE ENERGY PREDICTED BY IDOCK:   -0.15 KCAL/MOL
REMARK 927      BINDING AFFINITY PREDICTED BY RF-SCORE:    0.00 PKD
ROOT
HETATM    1  C   UNL     1      -6.969   4.206  73.655  1.00  0.00    -0.060 C  
HETATM    2  C   UNL     1      -7.770   5.474  73.705  1.00  0.00    -0.102 C  
HETATM    3  O   UNL     1      -8.777   5.620  74.387  1.00  0.00    -0.114 OA 
ENDROOT
BRANCH   2   4
HETATM    4  O   UNL     1      -7.182   6.414  72.855  1.00  0.00    -0.081 OA 
BRANCH   4   5
HETATM    5  C   UNL     1      -7.785   6.600  71.601  1.00  0.00    -0.098 A  
HETATM    6  C   UNL     1      -9.025   6.037  71.317  1.00  0.00    -0.139 A  
HETATM    7  C   UNL     1      -9.629   6.285  70.089  1.00  0.00    -0.181 A  
HETATM    8  C   UNL     1      -9.030   7.139  69.143  1.00  0.00    -0.138 A  
HETATM    9  C   UNL     1      -9.752   7.363  67.806  1.00  0.00    -0.171 C  
HETATM   10  C   UNL     1      -7.804   7.743  69.470  1.00  0.00    -0.111 A  
HETATM   11  C   UNL     1      -9.128   6.582  66.643  1.00  0.00    -0.147 A  
HETATM   12  C   UNL     1      -7.174   7.466  70.694  1.00  0.00    -0.068 A  
HETATM   13  C   UNL     1     -10.227   8.807  67.576  1.00  0.00    -0.309 A  
HETATM   14  C   UNL     1      -7.830   6.810  66.182  1.00  0.00    -0.102 A  
HETATM   15  C   UNL     1      -9.857   9.609  66.486  1.00  0.00    -0.298 A  
HETATM   16  C   UNL     1      -7.315   6.008  65.162  1.00  0.00    -0.073 A  
HETATM   17  C   UNL     1     -10.425  10.883  66.306  1.00  0.00    -0.304 A  
HETATM   18  C   UNL     1      -8.096   4.988  64.630  1.00  0.00    -0.118 A  
HETATM   19  C   UNL     1     -11.382  11.363  67.203  1.00  0.00    -0.255 A  
HETATM   20  C   UNL     1     -11.741  10.603  68.308  1.00  0.00    -0.136 A  
HETATM   21  C   UNL     1      -9.367   4.814  65.140  1.00  0.00    -0.127 A  
HETATM   22  C   UNL     1     -11.165   9.341  68.489  1.00  0.00     0.197 A  
HETATM   23  N   UNL     1      -9.895   5.585  66.116  1.00  0.00    -0.138 NA 
BRANCH  19  24
HETATM   24  O   UNL     1     -11.876  12.670  66.984  1.00  0.00    -0.376 OA 
BRANCH  24  25
HETATM   25  C   UNL     1     -11.943  13.218  65.699  1.00  0.00    -0.412 C  
HETATM   26  O   UNL     1     -12.724  12.911  64.808  1.00  0.00    -0.647 OA 
HETATM   27  C   UNL     1     -10.915  14.307  65.570  1.00  0.00    -0.319 C  
ENDBRANCH  24  25
ENDBRANCH  19  24
ENDBRANCH   4   5
ENDBRANCH   2   4
TORSDOF 4
ENDMDL
MODEL       73
REMARK 921   NORMALIZED FREE ENERGY PREDICTED BY IDOCK:   -3.74 KCAL/MOL
REMARK 922        TOTAL FREE ENERGY PREDICTED BY IDOCK:   -4.96 KCAL/MOL
REMARK 923 INTER-LIGAND FREE ENERGY PREDICTED BY IDOCK:   -4.89 KCAL/MOL
REMARK 924 INTRA-LIGAND FREE ENERGY PREDICTED BY IDOCK:   -0.07 KCAL/MOL
REMARK 927      BINDING AFFINITY PREDICTED BY RF-SCORE:    0.00 PKD
ROOT
HETATM    1  C   UNL     1      -7.363   3.068  69.332  1.00  0.00    -0.044 C  
HETATM    2  C   UNL     1      -6.061   3.208  68.601  1.00  0.00    -0.028 C  
HETATM    3  O   UNL     1      -5.136   2.409  68.693  1.00  0.00    -0.010 OA 
ENDROOT
BRANCH   2   4
HETATM    4  O   UNL     1      -6.094   4.375  67.834  1.00  0.00    -0.029 OA 
BRANCH   4   5
HETATM    5  C   UNL     1      -6.911   5.417  68.302  1.00  0.00    -0.060 A  
HETATM    6  C   UNL     1      -6.455   6.293  69.281  1.00  0.00    -0.043 A  
HETATM    7  C   UNL     1      -7.260   7.353  69.685  1.00  0.00    -0.078 A  
HETATM    8  C   UNL     1      -8.511   7.588  69.084  1.00  0.00    -0.136 A  
HETATM    9  C   UNL     1      -9.348   8.774  69.584  1.00  0.00    -0.158 C  
HETATM   10  C   UNL     1      -8.931   6.724  68.057  1.00  0.00    -0.117 A  
HETATM   11  C   UNL     1     -10.509   8.355  70.495  1.00  0.00    -0.207 A  
HETATM   12  C   UNL     1      -8.138   5.632  67.672  1.00  0.00    -0.101 A  
HETATM   13  C   UNL     1      -9.571   9.878  68.537  1.00  0.00    -0.159 A  
HETATM   14  C   UNL     1     -11.572   7.563  70.058  1.00  0.00     0.029 A  
HETATM   15  C   UNL     1     -10.826  10.331  68.104  1.00  0.00    -0.312 A  
HETATM   16  C   UNL     1     -12.553   7.171  70.970  1.00  0.00    -0.335 A  
HETATM   17  C   UNL     1     -10.931  11.419  67.218  1.00  0.00    -0.336 A  
HETATM   18  C   UNL     1     -12.451   7.564  72.299  1.00  0.00    -0.149 A  
HETATM   19  C   UNL     1      -9.785  12.078  66.770  1.00  0.00    -0.207 A  
HETATM   20  C   UNL     1      -8.529  11.629  67.158  1.00  0.00    -0.162 A  
HETATM   21  C   UNL     1     -11.369   8.341  72.663  1.00  0.00    -0.350 A  
HETATM   22  C   UNL     1      -8.429  10.540  68.030  1.00  0.00    -0.120 A  
HETATM   23  N   UNL     1     -10.413   8.745  71.798  1.00  0.00    -0.319 NA 
BRANCH  19  24
HETATM   24  O   UNL     1      -9.964  13.133  65.847  1.00  0.00    -0.280 OA 
BRANCH  24  25
HETATM   25  C   UNL     1     -10.548  12.915  64.595  1.00  0.00    -0.363 C  
HETATM   26  O   UNL     1     -10.151  12.156  63.720  1.00  0.00    -0.371 OA 
HETATM   27  C   UNL     1     -11.800  13.739  64.480  1.00  0.00    -0.445 C  
ENDBRANCH  24  25
ENDBRANCH  19  24
ENDBRANCH   4   5
ENDBRANCH   2   4
TORSDOF 4
ENDMDL
MODEL       74
REMARK 921   NORMALIZED FREE ENERGY PREDICTED BY IDOCK:   -3.65 KCAL/MOL
REMARK 922        TOTAL FREE ENERGY PREDICTED BY IDOCK:   -4.84 KCAL/MOL
REMARK 923 INTER-LIGAND FREE ENERGY PREDICTED BY IDOCK:   -4.64 KCAL/MOL
REMARK 924 INTRA-LIGAND FREE ENERGY PREDICTED BY IDOCK:   -0.20 KCAL/MOL
REMARK 927      BINDING AFFINITY PREDICTED BY RF-SCORE:    0.00 PKD
ROOT
HETATM    1  C   UNL     1      -7.544   3.937  72.706  1.00  0.00    -0.073 C  
HETATM    2  C   UNL     1      -8.469   5.098  72.923  1.00  0.00    -0.116 C  
HETATM    3  O   UNL     1      -9.641   4.984  73.257  1.00  0.00    -0.139 OA 
ENDROOT
BRANCH   2   4
HETATM    4  O   UNL     1      -7.774   6.283  72.673  1.00  0.00    -0.100 OA 
BRANCH   4   5
HETATM    5  C   UNL     1      -8.066   6.949  71.472  1.00  0.00    -0.109 A  
HETATM    6  C   UNL     1      -9.018   6.445  70.593  1.00  0.00    -0.144 A  
HETATM    7  C   UNL     1      -9.334   7.153  69.438  1.00  0.00    -0.147 A  
HETATM    8  C   UNL     1      -8.742   8.402  69.166  1.00  0.00    -0.142 A  
HETATM    9  C   UNL     1      -9.134   9.126  67.869  1.00  0.00    -0.134 C  
HETATM   10  C   UNL     1      -7.823   8.922  70.094  1.00  0.00    -0.097 A  
HETATM   11  C   UNL     1      -8.065   9.027  66.774  1.00  0.00    -0.111 A  
HETATM   12  C   UNL     1      -7.475   8.192  71.242  1.00  0.00    -0.074 A  
HETATM   13  C   UNL     1      -9.872  10.458  68.085  1.00  0.00    -0.168 A  
HETATM   14  C   UNL     1      -6.789   9.577  66.903  1.00  0.00    -0.080 A  
HETATM   15  C   UNL     1      -9.446  11.700  67.593  1.00  0.00    -0.177 A  
HETATM   16  C   UNL     1      -5.854   9.383  65.885  1.00  0.00    -0.054 A  
HETATM   17  C   UNL     1     -10.242  12.848  67.753  1.00  0.00    -0.224 A  
HETATM   18  C   UNL     1      -6.202   8.636  64.766  1.00  0.00    -0.065 A  
HETATM   19  C   UNL     1     -11.481  12.765  68.391  1.00  0.00    -0.311 A  
HETATM   20  C   UNL     1     -11.912  11.554  68.917  1.00  0.00    -0.364 A  
HETATM   21  C   UNL     1      -7.479   8.114  64.709  1.00  0.00    -0.094 A  
HETATM   22  C   UNL     1     -11.111  10.417  68.765  1.00  0.00    -0.298 A  
HETATM   23  N   UNL     1      -8.408   8.299  65.673  1.00  0.00    -0.140 NA 
BRANCH  19  24
HETATM   24  O   UNL     1     -12.206  13.967  68.556  1.00  0.00    -0.333 OA 
BRANCH  24  25
HETATM   25  C   UNL     1     -11.877  14.886  69.558  1.00  0.00    -0.325 C  
HETATM   26  O   UNL     1     -10.911  15.638  69.578  1.00  0.00    -0.229 OA 
HETATM   27  C   UNL     1     -12.932  14.854  70.628  1.00  0.00    -0.389 C  
ENDBRANCH  24  25
ENDBRANCH  19  24
ENDBRANCH   4   5
ENDBRANCH   2   4
TORSDOF 4
ENDMDL
MODEL       75
REMARK 921   NORMALIZED FREE ENERGY PREDICTED BY IDOCK:   -3.65 KCAL/MOL
REMARK 922        TOTAL FREE ENERGY PREDICTED BY IDOCK:   -4.84 KCAL/MOL
REMARK 923 INTER-LIGAND FREE ENERGY PREDICTED BY IDOCK:   -4.51 KCAL/MOL
REMARK 924 INTRA-LIGAND FREE ENERGY PREDICTED BY IDOCK:   -0.33 KCAL/MOL
REMARK 927      BINDING AFFINITY PREDICTED BY RF-SCORE:    0.00 PKD
ROOT
HETATM    1  C   UNL     1     -12.086  14.131  69.968  1.00  0.00    -0.409 C  
HETATM    2  C   UNL     1     -11.061  13.852  68.909  1.00  0.00    -0.266 C  
HETATM    3  O   UNL     1     -10.031  14.500  68.768  1.00  0.00    -0.230 OA 
ENDROOT
BRANCH   2   4
HETATM    4  O   UNL     1     -11.487  12.766  68.141  1.00  0.00    -0.271 OA 
BRANCH   4   5
HETATM    5  C   UNL     1     -10.905  11.520  68.427  1.00  0.00    -0.211 A  
HETATM    6  C   UNL     1     -11.526  10.626  69.291  1.00  0.00    -0.351 A  
HETATM    7  C   UNL     1     -10.960   9.375  69.512  1.00  0.00    -0.193 A  
HETATM    8  C   UNL     1      -9.792   8.975  68.835  1.00  0.00    -0.181 A  
HETATM    9  C   UNL     1      -9.221   7.580  69.132  1.00  0.00    -0.144 C  
HETATM   10  C   UNL     1      -9.209   9.871  67.922  1.00  0.00    -0.138 A  
HETATM   11  C   UNL     1      -7.989   7.613  70.045  1.00  0.00    -0.114 A  
HETATM   12  C   UNL     1      -9.757  11.148  67.725  1.00  0.00    -0.183 A  
HETATM   13  C   UNL     1      -9.246   6.617  67.933  1.00  0.00    -0.111 A  
HETATM   14  C   UNL     1      -6.787   8.222  69.681  1.00  0.00    -0.044 A  
HETATM   15  C   UNL     1      -8.120   5.981  67.392  1.00  0.00    -0.106 A  
HETATM   16  C   UNL     1      -5.736   8.265  70.599  1.00  0.00    -0.028 A  
HETATM   17  C   UNL     1      -8.256   5.034  66.360  1.00  0.00    -0.108 A  
HETATM   18  C   UNL     1      -5.906   7.713  71.863  1.00  0.00    -0.036 A  
HETATM   19  C   UNL     1      -9.520   4.700  65.871  1.00  0.00    -0.172 A  
HETATM   20  C   UNL     1     -10.648   5.339  66.366  1.00  0.00    -0.338 A  
HETATM   21  C   UNL     1      -7.125   7.135  72.158  1.00  0.00    -0.068 A  
HETATM   22  C   UNL     1     -10.507   6.288  67.385  1.00  0.00    -0.308 A  
HETATM   23  N   UNL     1      -8.153   7.067  71.284  1.00  0.00    -0.108 NA 
BRANCH  19  24
HETATM   24  O   UNL     1      -9.577   3.774  64.803  1.00  0.00    -0.153 OA 
BRANCH  24  25
HETATM   25  C   UNL     1      -8.480   2.968  64.478  1.00  0.00    -0.094 C  
HETATM   26  O   UNL     1      -8.038   2.031  65.130  1.00  0.00    -0.077 OA 
HETATM   27  C   UNL     1      -7.924   3.398  63.149  1.00  0.00    -0.072 C  
ENDBRANCH  24  25
ENDBRANCH  19  24
ENDBRANCH   4   5
ENDBRANCH   2   4
TORSDOF 4
ENDMDL
MODEL       76
REMARK 921   NORMALIZED FREE ENERGY PREDICTED BY IDOCK:   -3.51 KCAL/MOL
REMARK 922        TOTAL FREE ENERGY PREDICTED BY IDOCK:   -4.67 KCAL/MOL
REMARK 923 INTER-LIGAND FREE ENERGY PREDICTED BY IDOCK:   -4.12 KCAL/MOL
REMARK 924 INTRA-LIGAND FREE ENERGY PREDICTED BY IDOCK:   -0.56 KCAL/MOL
REMARK 927      BINDING AFFINITY PREDICTED BY RF-SCORE:    0.00 PKD
ROOT
HETATM    1  C   UNL     1      -7.069  15.496  67.220  1.00  0.00    -0.225 C  
HETATM    2  C   UNL     1      -6.438  14.379  67.998  1.00  0.00    -0.151 C  
HETATM    3  O   UNL     1      -6.086  14.475  69.167  1.00  0.00    -0.091 OA 
ENDROOT
BRANCH   2   4
HETATM    4  O   UNL     1      -6.323  13.260  67.171  1.00  0.00    -0.250 OA 
BRANCH   4   5
HETATM    5  C   UNL     1      -7.104  12.142  67.505  1.00  0.00    -0.135 A  
HETATM    6  C   UNL     1      -8.422  12.041  67.074  1.00  0.00    -0.183 A  
HETATM    7  C   UNL     1      -9.157  10.897  67.367  1.00  0.00    -0.144 A  
HETATM    8  C   UNL     1      -8.575   9.813  68.051  1.00  0.00    -0.122 A  
HETATM    9  C   UNL     1      -9.448   8.584  68.344  1.00  0.00    -0.141 C  
HETATM   10  C   UNL     1      -7.224   9.910  68.430  1.00  0.00    -0.073 A  
HETATM   11  C   UNL     1      -9.916   8.509  69.803  1.00  0.00    -0.191 A  
HETATM   12  C   UNL     1      -6.491  11.078  68.168  1.00  0.00    -0.057 A  
HETATM   13  C   UNL     1      -8.995   7.300  67.630  1.00  0.00    -0.126 A  
HETATM   14  C   UNL     1      -9.038   8.361  70.878  1.00  0.00    -0.190 A  
HETATM   15  C   UNL     1      -8.659   6.100  68.273  1.00  0.00    -0.116 A  
HETATM   16  C   UNL     1      -9.542   8.369  72.180  1.00  0.00    -0.367 A  
HETATM   17  C   UNL     1      -8.356   4.945  67.529  1.00  0.00    -0.105 A  
HETATM   18  C   UNL     1     -10.906   8.536  72.386  1.00  0.00    -0.378 A  
HETATM   19  C   UNL     1      -8.403   4.972  66.134  1.00  0.00    -0.113 A  
HETATM   20  C   UNL     1      -8.701   6.156  65.472  1.00  0.00    -0.105 A  
HETATM   21  C   UNL     1     -11.715   8.685  71.277  1.00  0.00    -0.289 A  
HETATM   22  C   UNL     1      -8.990   7.304  66.216  1.00  0.00    -0.185 A  
HETATM   23  N   UNL     1     -11.255   8.667  70.007  1.00  0.00    -0.160 NA 
BRANCH  19  24
HETATM   24  O   UNL     1      -8.043   3.788  65.451  1.00  0.00    -0.096 OA 
BRANCH  24  25
HETATM   25  C   UNL     1      -7.064   3.791  64.452  1.00  0.00    -0.054 C  
HETATM   26  O   UNL     1      -7.249   3.768  63.242  1.00  0.00    -0.048 OA 
HETATM   27  C   UNL     1      -5.705   3.871  65.088  1.00  0.00    -0.021 C  
ENDBRANCH  24  25
ENDBRANCH  19  24
ENDBRANCH   4   5
ENDBRANCH   2   4
TORSDOF 4
ENDMDL
MODEL       77
REMARK 921   NORMALIZED FREE ENERGY PREDICTED BY IDOCK:   -3.50 KCAL/MOL
REMARK 922        TOTAL FREE ENERGY PREDICTED BY IDOCK:   -4.66 KCAL/MOL
REMARK 923 INTER-LIGAND FREE ENERGY PREDICTED BY IDOCK:   -4.44 KCAL/MOL
REMARK 924 INTRA-LIGAND FREE ENERGY PREDICTED BY IDOCK:   -0.22 KCAL/MOL
REMARK 927      BINDING AFFINITY PREDICTED BY RF-SCORE:    0.00 PKD
ROOT
HETATM    1  C   UNL     1      -7.539   6.306  62.946  1.00  0.00    -0.079 C  
HETATM    2  C   UNL     1      -7.050   5.712  64.234  1.00  0.00    -0.053 C  
HETATM    3  O   UNL     1      -7.381   4.607  64.646  1.00  0.00    -0.068 OA 
ENDROOT
BRANCH   2   4
HETATM    4  O   UNL     1      -6.189   6.620  64.853  1.00  0.00    -0.036 OA 
BRANCH   4   5
HETATM    5  C   UNL     1      -6.732   7.409  65.880  1.00  0.00    -0.053 A  
HETATM    6  C   UNL     1      -5.936   7.859  66.927  1.00  0.00    -0.052 A  
HETATM    7  C   UNL     1      -6.483   8.688  67.901  1.00  0.00    -0.057 A  
HETATM    8  C   UNL     1      -7.819   9.123  67.820  1.00  0.00    -0.100 A  
HETATM    9  C   UNL     1      -8.358  10.034  68.934  1.00  0.00    -0.130 C  
HETATM   10  C   UNL     1      -8.593   8.702  66.724  1.00  0.00    -0.126 A  
HETATM   11  C   UNL     1      -9.261   9.299  69.932  1.00  0.00    -0.195 A  
HETATM   12  C   UNL     1      -8.055   7.836  65.759  1.00  0.00    -0.125 A  
HETATM   13  C   UNL     1      -8.743  11.447  68.466  1.00  0.00    -0.149 A  
HETATM   14  C   UNL     1     -10.480   8.721  69.574  1.00  0.00    -0.222 A  
HETATM   15  C   UNL     1     -10.014  12.022  68.612  1.00  0.00    -0.151 A  
HETATM   16  C   UNL     1     -11.209   8.012  70.531  1.00  0.00    -0.252 A  
HETATM   17  C   UNL     1     -10.243  13.361  68.248  1.00  0.00    -0.250 A  
HETATM   18  C   UNL     1     -10.706   7.882  71.820  1.00  0.00    -0.281 A  
HETATM   19  C   UNL     1      -9.201  14.145  67.749  1.00  0.00    -0.193 A  
HETATM   20  C   UNL     1      -7.942  13.591  67.563  1.00  0.00    -0.186 A  
HETATM   21  C   UNL     1      -9.490   8.473  72.102  1.00  0.00    -0.305 A  
HETATM   22  C   UNL     1      -7.721  12.256  67.917  1.00  0.00    -0.133 A  
HETATM   23  N   UNL     1      -8.771   9.176  71.199  1.00  0.00    -0.284 NA 
BRANCH  19  24
HETATM   24  O   UNL     1      -9.516  15.468  67.361  1.00  0.00    -0.209 OA 
BRANCH  24  25
HETATM   25  C   UNL     1      -9.582  16.506  68.296  1.00  0.00    -0.223 C  
HETATM   26  O   UNL     1      -8.841  16.680  69.255  1.00  0.00    -0.180 OA 
HETATM   27  C   UNL     1     -10.701  17.438  67.926  1.00  0.00    -0.351 C  
ENDBRANCH  24  25
ENDBRANCH  19  24
ENDBRANCH   4   5
ENDBRANCH   2   4
TORSDOF 4
ENDMDL
MODEL       78
REMARK 921   NORMALIZED FREE ENERGY PREDICTED BY IDOCK:   -3.49 KCAL/MOL
REMARK 922        TOTAL FREE ENERGY PREDICTED BY IDOCK:   -4.64 KCAL/MOL
REMARK 923 INTER-LIGAND FREE ENERGY PREDICTED BY IDOCK:   -4.72 KCAL/MOL
REMARK 924 INTRA-LIGAND FREE ENERGY PREDICTED BY IDOCK:    0.08 KCAL/MOL
REMARK 927      BINDING AFFINITY PREDICTED BY RF-SCORE:    0.00 PKD
ROOT
HETATM    1  C   UNL     1      -7.693   6.188  62.740  1.00  0.00    -0.086 C  
HETATM    2  C   UNL     1      -7.483   4.841  63.367  1.00  0.00    -0.055 C  
HETATM    3  O   UNL     1      -7.958   3.801  62.928  1.00  0.00    -0.069 OA 
ENDROOT
BRANCH   2   4
HETATM    4  O   UNL     1      -6.684   4.990  64.503  1.00  0.00    -0.045 OA 
BRANCH   4   5
HETATM    5  C   UNL     1      -6.887   6.146  65.274  1.00  0.00    -0.048 A  
HETATM    6  C   UNL     1      -6.096   7.273  65.087  1.00  0.00    -0.038 A  
HETATM    7  C   UNL     1      -6.355   8.426  65.821  1.00  0.00    -0.052 A  
HETATM    8  C   UNL     1      -7.440   8.490  66.717  1.00  0.00    -0.083 A  
HETATM    9  C   UNL     1      -7.663   9.794  67.497  1.00  0.00    -0.095 C  
HETATM   10  C   UNL     1      -8.263   7.359  66.851  1.00  0.00    -0.121 A  
HETATM   11  C   UNL     1      -7.205   9.711  68.959  1.00  0.00    -0.071 A  
HETATM   12  C   UNL     1      -7.982   6.182  66.139  1.00  0.00    -0.108 A  
HETATM   13  C   UNL     1      -8.976  10.519  67.158  1.00  0.00    -0.147 A  
HETATM   14  C   UNL     1      -7.784   8.847  69.890  1.00  0.00    -0.076 A  
HETATM   15  C   UNL     1      -9.976  10.843  68.086  1.00  0.00    -0.188 A  
HETATM   16  C   UNL     1      -7.263   8.786  71.184  1.00  0.00    -0.097 A  
HETATM   17  C   UNL     1     -11.097  11.601  67.700  1.00  0.00    -0.314 A  
HETATM   18  C   UNL     1      -6.169   9.574  71.521  1.00  0.00     0.035 A  
HETATM   19  C   UNL     1     -11.222  12.057  66.387  1.00  0.00    -0.337 A  
HETATM   20  C   UNL     1     -10.263  11.722  65.441  1.00  0.00    -0.301 A  
HETATM   21  C   UNL     1      -5.641  10.398  70.547  1.00  0.00    -0.083 A  
HETATM   22  C   UNL     1      -9.155  10.960  65.826  1.00  0.00    -0.214 A  
HETATM   23  N   UNL     1      -6.135  10.488  69.292  1.00  0.00    -0.038 NA 
BRANCH  19  24
HETATM   24  O   UNL     1     -12.396  12.774  66.060  1.00  0.00    -0.547 OA 
BRANCH  24  25
HETATM   25  C   UNL     1     -12.734  13.053  64.731  1.00  0.00    -0.342 C  
HETATM   26  O   UNL     1     -13.284  12.299  63.939  1.00  0.00    -0.766 OA 
HETATM   27  C   UNL     1     -12.355  14.471  64.409  1.00  0.00    -0.437 C  
ENDBRANCH  24  25
ENDBRANCH  19  24
ENDBRANCH   4   5
ENDBRANCH   2   4
TORSDOF 4
ENDMDL
MODEL       79
REMARK 921   NORMALIZED FREE ENERGY PREDICTED BY IDOCK:   -3.48 KCAL/MOL
REMARK 922        TOTAL FREE ENERGY PREDICTED BY IDOCK:   -4.63 KCAL/MOL
REMARK 923 INTER-LIGAND FREE ENERGY PREDICTED BY IDOCK:   -4.65 KCAL/MOL
REMARK 924 INTRA-LIGAND FREE ENERGY PREDICTED BY IDOCK:    0.02 KCAL/MOL
REMARK 927      BINDING AFFINITY PREDICTED BY RF-SCORE:    0.00 PKD
ROOT
HETATM    1  C   UNL     1      -5.195  12.585  70.063  1.00  0.00    -0.093 C  
HETATM    2  C   UNL     1      -6.068  11.421  70.428  1.00  0.00    -0.110 C  
HETATM    3  O   UNL     1      -5.960  10.786  71.470  1.00  0.00    -0.320 OA 
ENDROOT
BRANCH   2   4
HETATM    4  O   UNL     1      -6.984  11.200  69.397  1.00  0.00    -0.112 OA 
BRANCH   4   5
HETATM    5  C   UNL     1      -7.757  10.031  69.476  1.00  0.00    -0.146 A  
HETATM    6  C   UNL     1      -9.129  10.069  69.250  1.00  0.00    -0.208 A  
HETATM    7  C   UNL     1      -9.864   8.888  69.275  1.00  0.00    -0.176 A  
HETATM    8  C   UNL     1      -9.235   7.644  69.474  1.00  0.00    -0.150 A  
HETATM    9  C   UNL     1     -10.111   6.381  69.494  1.00  0.00    -0.203 C  
HETATM   10  C   UNL     1      -7.840   7.619  69.645  1.00  0.00    -0.108 A  
HETATM   11  C   UNL     1     -10.354   5.836  70.906  1.00  0.00    -0.237 A  
HETATM   12  C   UNL     1      -7.101   8.813  69.657  1.00  0.00    -0.054 A  
HETATM   13  C   UNL     1      -9.832   5.399  68.344  1.00  0.00    -0.197 A  
HETATM   14  C   UNL     1      -9.331   5.353  71.723  1.00  0.00    -0.170 A  
HETATM   15  C   UNL     1      -9.459   4.058  68.507  1.00  0.00    -0.215 A  
HETATM   16  C   UNL     1      -9.630   4.936  73.022  1.00  0.00    -0.155 A  
HETATM   17  C   UNL     1      -9.328   3.207  67.394  1.00  0.00    -0.232 A  
HETATM   18  C   UNL     1     -10.937   5.021  73.485  1.00  0.00    -0.393 A  
HETATM   19  C   UNL     1      -9.585   3.684  66.107  1.00  0.00    -0.129 A  
HETATM   20  C   UNL     1      -9.924   5.016  65.915  1.00  0.00    -0.189 A  
HETATM   21  C   UNL     1     -11.898   5.517  72.626  1.00  0.00    -0.109 A  
HETATM   22  C   UNL     1     -10.043   5.861  67.024  1.00  0.00    -0.221 A  
HETATM   23  N   UNL     1     -11.638   5.913  71.361  1.00  0.00    -0.144 NA 
BRANCH  19  24
HETATM   24  O   UNL     1      -9.389   2.786  65.033  1.00  0.00    -0.150 OA 
BRANCH  24  25
HETATM   25  C   UNL     1      -9.522   3.199  63.703  1.00  0.00    -0.104 C  
HETATM   26  O   UNL     1      -8.717   3.851  63.052  1.00  0.00    -0.094 OA 
HETATM   27  C   UNL     1     -10.818   2.678  63.149  1.00  0.00    -0.230 C  
ENDBRANCH  24  25
ENDBRANCH  19  24
ENDBRANCH   4   5
ENDBRANCH   2   4
TORSDOF 4
ENDMDL
MODEL       80
REMARK 921   NORMALIZED FREE ENERGY PREDICTED BY IDOCK:   -3.46 KCAL/MOL
REMARK 922        TOTAL FREE ENERGY PREDICTED BY IDOCK:   -4.61 KCAL/MOL
REMARK 923 INTER-LIGAND FREE ENERGY PREDICTED BY IDOCK:   -4.35 KCAL/MOL
REMARK 924 INTRA-LIGAND FREE ENERGY PREDICTED BY IDOCK:   -0.26 KCAL/MOL
REMARK 927      BINDING AFFINITY PREDICTED BY RF-SCORE:    0.00 PKD
ROOT
HETATM    1  C   UNL     1      -7.040   4.344  74.519  1.00  0.00    -0.071 C  
HETATM    2  C   UNL     1      -6.117   4.302  73.337  1.00  0.00    -0.020 C  
HETATM    3  O   UNL     1      -5.773   3.270  72.775  1.00  0.00    -0.007 OA 
ENDROOT
BRANCH   2   4
HETATM    4  O   UNL     1      -5.731   5.606  73.017  1.00  0.00    -0.026 OA 
BRANCH   4   5
HETATM    5  C   UNL     1      -6.675   6.401  72.349  1.00  0.00    -0.068 A  
HETATM    6  C   UNL     1      -6.621   7.788  72.429  1.00  0.00    -0.060 A  
HETATM    7  C   UNL     1      -7.532   8.556  71.711  1.00  0.00    -0.127 A  
HETATM    8  C   UNL     1      -8.480   7.954  70.861  1.00  0.00    -0.126 A  
HETATM    9  C   UNL     1      -9.457   8.864  70.101  1.00  0.00    -0.198 C  
HETATM   10  C   UNL     1      -8.483   6.553  70.750  1.00  0.00    -0.134 A  
HETATM   11  C   UNL     1     -10.865   8.881  70.710  1.00  0.00    -0.241 A  
HETATM   12  C   UNL     1      -7.590   5.774  71.502  1.00  0.00    -0.099 A  
HETATM   13  C   UNL     1      -9.297   8.831  68.572  1.00  0.00    -0.142 A  
HETATM   14  C   UNL     1     -11.684   7.752  70.767  1.00  0.00    -0.242 A  
HETATM   15  C   UNL     1     -10.312   8.490  67.667  1.00  0.00    -0.317 A  
HETATM   16  C   UNL     1     -12.926   7.838  71.399  1.00  0.00    -0.322 A  
HETATM   17  C   UNL     1     -10.100   8.589  66.280  1.00  0.00    -0.174 A  
HETATM   18  C   UNL     1     -13.322   9.040  71.972  1.00  0.00    -0.494 A  
HETATM   19  C   UNL     1      -8.878   9.046  65.783  1.00  0.00    -0.179 A  
HETATM   20  C   UNL     1      -7.846   9.358  66.657  1.00  0.00    -0.104 A  
HETATM   21  C   UNL     1     -12.458  10.114  71.885  1.00  0.00    -0.282 A  
HETATM   22  C   UNL     1      -8.057   9.248  68.035  1.00  0.00    -0.104 A  
HETATM   23  N   UNL     1     -11.258  10.062  71.268  1.00  0.00    -0.291 NA 
BRANCH  19  24
HETATM   24  O   UNL     1      -8.721   9.077  64.378  1.00  0.00    -0.186 OA 
BRANCH  24  25
HETATM   25  C   UNL     1      -7.761   8.290  63.734  1.00  0.00    -0.145 C  
HETATM   26  O   UNL     1      -6.917   8.669  62.931  1.00  0.00    -0.091 OA 
HETATM   27  C   UNL     1      -7.882   6.869  64.210  1.00  0.00    -0.104 C  
ENDBRANCH  24  25
ENDBRANCH  19  24
ENDBRANCH   4   5
ENDBRANCH   2   4
TORSDOF 4
ENDMDL
MODEL       81
REMARK 921   NORMALIZED FREE ENERGY PREDICTED BY IDOCK:   -3.44 KCAL/MOL
REMARK 922        TOTAL FREE ENERGY PREDICTED BY IDOCK:   -4.58 KCAL/MOL
REMARK 923 INTER-LIGAND FREE ENERGY PREDICTED BY IDOCK:   -4.47 KCAL/MOL
REMARK 924 INTRA-LIGAND FREE ENERGY PREDICTED BY IDOCK:   -0.10 KCAL/MOL
REMARK 927      BINDING AFFINITY PREDICTED BY RF-SCORE:    0.00 PKD
ROOT
HETATM    1  C   UNL     1      -8.866   4.377  63.487  1.00  0.00    -0.131 C  
HETATM    2  C   UNL     1      -8.723   3.109  64.275  1.00  0.00    -0.094 C  
HETATM    3  O   UNL     1      -9.490   2.159  64.186  1.00  0.00    -0.124 OA 
ENDROOT
BRANCH   2   4
HETATM    4  O   UNL     1      -7.602   3.214  65.102  1.00  0.00    -0.078 OA 
BRANCH   4   5
HETATM    5  C   UNL     1      -7.730   4.021  66.244  1.00  0.00    -0.090 A  
HETATM    6  C   UNL     1      -6.606   4.518  66.893  1.00  0.00    -0.050 A  
HETATM    7  C   UNL     1      -6.760   5.364  67.987  1.00  0.00    -0.055 A  
HETATM    8  C   UNL     1      -8.037   5.767  68.421  1.00  0.00    -0.108 A  
HETATM    9  C   UNL     1      -8.132   6.698  69.639  1.00  0.00    -0.126 C  
HETATM   10  C   UNL     1      -9.161   5.298  67.718  1.00  0.00    -0.115 A  
HETATM   11  C   UNL     1      -8.556   5.974  70.923  1.00  0.00    -0.131 A  
HETATM   12  C   UNL     1      -9.010   4.416  66.637  1.00  0.00    -0.117 A  
HETATM   13  C   UNL     1      -8.711   8.088  69.331  1.00  0.00    -0.137 A  
HETATM   14  C   UNL     1      -9.800   5.359  71.075  1.00  0.00    -0.246 A  
HETATM   15  C   UNL     1      -9.844   8.640  69.946  1.00  0.00    -0.185 A  
HETATM   16  C   UNL     1     -10.081   4.663  72.252  1.00  0.00    -0.250 A  
HETATM   17  C   UNL     1     -10.238   9.962  69.674  1.00  0.00    -0.261 A  
HETATM   18  C   UNL     1      -9.115   4.582  73.248  1.00  0.00    -0.119 A  
HETATM   19  C   UNL     1      -9.495  10.754  68.797  1.00  0.00    -0.182 A  
HETATM   20  C   UNL     1      -8.388  10.222  68.149  1.00  0.00    -0.118 A  
HETATM   21  C   UNL     1      -7.903   5.206  73.027  1.00  0.00    -0.098 A  
HETATM   22  C   UNL     1      -8.006   8.903  68.414  1.00  0.00    -0.105 A  
HETATM   23  N   UNL     1      -7.611   5.898  71.903  1.00  0.00    -0.095 NA 
BRANCH  19  24
HETATM   24  O   UNL     1      -9.976  12.058  68.536  1.00  0.00    -0.209 OA 
BRANCH  24  25
HETATM   25  C   UNL     1     -11.339  12.307  68.344  1.00  0.00    -0.292 C  
HETATM   26  O   UNL     1     -12.055  11.842  67.466  1.00  0.00    -0.573 OA 
HETATM   27  C   UNL     1     -11.833  13.225  69.426  1.00  0.00    -0.386 C  
ENDBRANCH  24  25
ENDBRANCH  19  24
ENDBRANCH   4   5
ENDBRANCH   2   4
TORSDOF 4
ENDMDL
MODEL       82
REMARK 921   NORMALIZED FREE ENERGY PREDICTED BY IDOCK:   -3.42 KCAL/MOL
REMARK 922        TOTAL FREE ENERGY PREDICTED BY IDOCK:   -4.56 KCAL/MOL
REMARK 923 INTER-LIGAND FREE ENERGY PREDICTED BY IDOCK:   -4.72 KCAL/MOL
REMARK 924 INTRA-LIGAND FREE ENERGY PREDICTED BY IDOCK:    0.16 KCAL/MOL
REMARK 927      BINDING AFFINITY PREDICTED BY RF-SCORE:    0.00 PKD
ROOT
HETATM    1  C   UNL     1      -8.592   7.047  72.652  1.00  0.00    -0.133 C  
HETATM    2  C   UNL     1      -7.849   6.781  71.376  1.00  0.00    -0.098 C  
HETATM    3  O   UNL     1      -8.187   5.940  70.552  1.00  0.00    -0.114 OA 
ENDROOT
BRANCH   2   4
HETATM    4  O   UNL     1      -6.741   7.629  71.311  1.00  0.00    -0.048 OA 
BRANCH   4   5
HETATM    5  C   UNL     1      -6.808   8.691  70.395  1.00  0.00    -0.042 A  
HETATM    6  C   UNL     1      -5.871   8.810  69.376  1.00  0.00    -0.034 A  
HETATM    7  C   UNL     1      -5.992   9.837  68.445  1.00  0.00    -0.046 A  
HETATM    8  C   UNL     1      -7.079  10.731  68.486  1.00  0.00    -0.070 A  
HETATM    9  C   UNL     1      -7.147  11.844  67.429  1.00  0.00    -0.129 C  
HETATM   10  C   UNL     1      -8.048  10.560  69.491  1.00  0.00    -0.105 A  
HETATM   11  C   UNL     1      -6.738  13.219  67.971  1.00  0.00    -0.127 A  
HETATM   12  C   UNL     1      -7.908   9.548  70.453  1.00  0.00    -0.190 A  
HETATM   13  C   UNL     1      -8.345  11.736  66.471  1.00  0.00    -0.093 A  
HETATM   14  C   UNL     1      -7.447  13.885  68.972  1.00  0.00    -0.032 A  
HETATM   15  C   UNL     1      -9.314  12.732  66.284  1.00  0.00    -0.156 A  
HETATM   16  C   UNL     1      -6.968  15.104  69.455  1.00  0.00    -0.189 A  
HETATM   17  C   UNL     1     -10.316  12.585  65.308  1.00  0.00    -0.310 A  
HETATM   18  C   UNL     1      -5.788  15.629  68.943  1.00  0.00    -0.103 A  
HETATM   19  C   UNL     1     -10.350  11.450  64.495  1.00  0.00    -0.313 A  
HETATM   20  C   UNL     1      -9.422  10.435  64.682  1.00  0.00    -0.336 A  
HETATM   21  C   UNL     1      -5.134  14.912  67.960  1.00  0.00    -0.103 A  
HETATM   22  C   UNL     1      -8.434  10.580  65.661  1.00  0.00    -0.179 A  
HETATM   23  N   UNL     1      -5.583  13.738  67.465  1.00  0.00    -0.354 NA 
BRANCH  19  24
HETATM   24  O   UNL     1     -11.412  11.350  63.567  1.00  0.00    -0.355 OA 
BRANCH  24  25
HETATM   25  C   UNL     1     -12.570  12.123  63.698  1.00  0.00    -0.504 C  
HETATM   26  O   UNL     1     -13.659  11.751  64.115  1.00  0.00    -0.343 OA 
HETATM   27  C   UNL     1     -12.274  13.537  63.281  1.00  0.00    -0.214 C  
ENDBRANCH  24  25
ENDBRANCH  19  24
ENDBRANCH   4   5
ENDBRANCH   2   4
TORSDOF 4
ENDMDL
MODEL       83
REMARK 921   NORMALIZED FREE ENERGY PREDICTED BY IDOCK:   -3.41 KCAL/MOL
REMARK 922        TOTAL FREE ENERGY PREDICTED BY IDOCK:   -4.54 KCAL/MOL
REMARK 923 INTER-LIGAND FREE ENERGY PREDICTED BY IDOCK:   -4.06 KCAL/MOL
REMARK 924 INTRA-LIGAND FREE ENERGY PREDICTED BY IDOCK:   -0.48 KCAL/MOL
REMARK 927      BINDING AFFINITY PREDICTED BY RF-SCORE:    0.00 PKD
ROOT
HETATM    1  C   UNL     1     -11.102   7.253  73.048  1.00  0.00    -0.361 C  
HETATM    2  C   UNL     1      -9.711   7.739  72.763  1.00  0.00    -0.232 C  
HETATM    3  O   UNL     1      -9.030   8.368  73.562  1.00  0.00    -0.213 OA 
ENDROOT
BRANCH   2   4
HETATM    4  O   UNL     1      -9.357   7.362  71.465  1.00  0.00    -0.144 OA 
BRANCH   4   5
HETATM    5  C   UNL     1      -8.941   8.385  70.599  1.00  0.00    -0.152 A  
HETATM    6  C   UNL     1      -7.828   8.218  69.783  1.00  0.00    -0.100 A  
HETATM    7  C   UNL     1      -7.471   9.223  68.890  1.00  0.00    -0.075 A  
HETATM    8  C   UNL     1      -8.247  10.390  68.760  1.00  0.00    -0.128 A  
HETATM    9  C   UNL     1      -7.789  11.460  67.758  1.00  0.00    -0.117 C  
HETATM   10  C   UNL     1      -9.400  10.518  69.554  1.00  0.00    -0.089 A  
HETATM   11  C   UNL     1      -7.122  12.669  68.425  1.00  0.00    -0.101 A  
HETATM   12  C   UNL     1      -9.743   9.522  70.482  1.00  0.00    -0.325 A  
HETATM   13  C   UNL     1      -8.759  11.686  66.585  1.00  0.00    -0.187 A  
HETATM   14  C   UNL     1      -7.795  13.524  69.300  1.00  0.00     0.406 A  
HETATM   15  C   UNL     1      -9.351  12.914  66.259  1.00  0.00    -0.148 A  
HETATM   16  C   UNL     1      -7.094  14.562  69.916  1.00  0.00    -0.012 A  
HETATM   17  C   UNL     1     -10.144  13.046  65.105  1.00  0.00    -0.238 A  
HETATM   18  C   UNL     1      -5.737  14.721  69.661  1.00  0.00    -0.099 A  
HETATM   19  C   UNL     1     -10.338  11.957  64.254  1.00  0.00    -0.321 A  
HETATM   20  C   UNL     1      -9.790  10.721  64.571  1.00  0.00    -0.369 A  
HETATM   21  C   UNL     1      -5.134  13.833  68.792  1.00  0.00    -0.075 A  
HETATM   22  C   UNL     1      -9.012  10.592  65.726  1.00  0.00    -0.199 A  
HETATM   23  N   UNL     1      -5.792  12.830  68.171  1.00  0.00    -0.073 NA 
BRANCH  19  24
HETATM   24  O   UNL     1     -11.183  12.151  63.137  1.00  0.00    -0.348 OA 
BRANCH  24  25
HETATM   25  C   UNL     1     -12.427  12.778  63.263  1.00  0.00    -0.240 C  
HETATM   26  O   UNL     1     -12.735  13.890  62.855  1.00  0.00    -0.521 OA 
HETATM   27  C   UNL     1     -13.383  11.849  63.958  1.00  0.00     0.400 C  
ENDBRANCH  24  25
ENDBRANCH  19  24
ENDBRANCH   4   5
ENDBRANCH   2   4
TORSDOF 4
ENDMDL
MODEL       84
REMARK 921   NORMALIZED FREE ENERGY PREDICTED BY IDOCK:   -3.33 KCAL/MOL
REMARK 922        TOTAL FREE ENERGY PREDICTED BY IDOCK:   -4.44 KCAL/MOL
REMARK 923 INTER-LIGAND FREE ENERGY PREDICTED BY IDOCK:   -4.29 KCAL/MOL
REMARK 924 INTRA-LIGAND FREE ENERGY PREDICTED BY IDOCK:   -0.15 KCAL/MOL
REMARK 927      BINDING AFFINITY PREDICTED BY RF-SCORE:    0.00 PKD
ROOT
HETATM    1  C   UNL     1      -6.447   2.128  72.096  1.00  0.00    -0.014 C  
HETATM    2  C   UNL     1      -6.194   3.585  72.350  1.00  0.00    -0.013 C  
HETATM    3  O   UNL     1      -5.259   4.211  71.866  1.00  0.00     0.000 OA 
ENDROOT
BRANCH   2   4
HETATM    4  O   UNL     1      -7.179   4.072  73.213  1.00  0.00    -0.064 OA 
BRANCH   4   5
HETATM    5  C   UNL     1      -7.946   5.154  72.754  1.00  0.00    -0.098 A  
HETATM    6  C   UNL     1      -7.974   6.354  73.455  1.00  0.00    -0.099 A  
HETATM    7  C   UNL     1      -8.694   7.432  72.950  1.00  0.00    -0.165 A  
HETATM    8  C   UNL     1      -9.357   7.346  71.710  1.00  0.00    -0.161 A  
HETATM    9  C   UNL     1     -10.136   8.574  71.215  1.00  0.00    -0.286 C  
HETATM   10  C   UNL     1      -9.271   6.143  70.988  1.00  0.00    -0.166 A  
HETATM   11  C   UNL     1     -11.654   8.435  71.385  1.00  0.00    -0.284 A  
HETATM   12  C   UNL     1      -8.576   5.042  71.514  1.00  0.00    -0.129 A  
HETATM   13  C   UNL     1      -9.576   9.205  69.930  1.00  0.00    -0.206 A  
HETATM   14  C   UNL     1     -12.410   7.468  70.720  1.00  0.00    -0.113 A  
HETATM   15  C   UNL     1     -10.299   9.383  68.742  1.00  0.00    -0.230 A  
HETATM   16  C   UNL     1     -13.777   7.367  70.983  1.00  0.00    -0.117 A  
HETATM   17  C   UNL     1      -9.732  10.066  67.651  1.00  0.00    -0.185 A  
HETATM   18  C   UNL     1     -14.363   8.221  71.910  1.00  0.00    -0.564 A  
HETATM   19  C   UNL     1      -8.443  10.595  67.741  1.00  0.00    -0.116 A  
HETATM   20  C   UNL     1      -7.693  10.403  68.894  1.00  0.00    -0.111 A  
HETATM   21  C   UNL     1     -13.553   9.148  72.537  1.00  0.00    -0.436 A  
HETATM   22  C   UNL     1      -8.257   9.714  69.973  1.00  0.00    -0.197 A  
HETATM   23  N   UNL     1     -12.231   9.276  72.290  1.00  0.00    -0.294 NA 
BRANCH  19  24
HETATM   24  O   UNL     1      -7.921  11.229  66.590  1.00  0.00    -0.153 OA 
BRANCH  24  25
HETATM   25  C   UNL     1      -6.705  10.830  66.026  1.00  0.00    -0.109 C  
HETATM   26  O   UNL     1      -5.861  11.553  65.513  1.00  0.00     0.091 OA 
HETATM   27  C   UNL     1      -6.551   9.343  66.178  1.00  0.00    -0.070 C  
ENDBRANCH  24  25
ENDBRANCH  19  24
ENDBRANCH   4   5
ENDBRANCH   2   4
TORSDOF 4
ENDMDL
MODEL       85
REMARK 921   NORMALIZED FREE ENERGY PREDICTED BY IDOCK:   -3.31 KCAL/MOL
REMARK 922        TOTAL FREE ENERGY PREDICTED BY IDOCK:   -4.42 KCAL/MOL
REMARK 923 INTER-LIGAND FREE ENERGY PREDICTED BY IDOCK:   -4.01 KCAL/MOL
REMARK 924 INTRA-LIGAND FREE ENERGY PREDICTED BY IDOCK:   -0.41 KCAL/MOL
REMARK 927      BINDING AFFINITY PREDICTED BY RF-SCORE:    0.00 PKD
ROOT
HETATM    1  C   UNL     1     -11.772   9.165  72.010  1.00  0.00    -0.384 C  
HETATM    2  C   UNL     1     -12.338  10.167  71.047  1.00  0.00    -0.373 C  
HETATM    3  O   UNL     1     -13.533  10.281  70.804  1.00  0.00    -0.278 OA 
ENDROOT
BRANCH   2   4
HETATM    4  O   UNL     1     -11.290  10.907  70.496  1.00  0.00    -0.290 OA 
BRANCH   4   5
HETATM    5  C   UNL     1     -10.481  10.255  69.551  1.00  0.00    -0.244 A  
HETATM    6  C   UNL     1      -9.185   9.867  69.870  1.00  0.00    -0.245 A  
HETATM    7  C   UNL     1      -8.425   9.170  68.937  1.00  0.00    -0.129 A  
HETATM    8  C   UNL     1      -8.962   8.803  67.688  1.00  0.00    -0.141 A  
HETATM    9  C   UNL     1      -8.063   8.038  66.705  1.00  0.00    -0.107 C  
HETATM   10  C   UNL     1     -10.293   9.155  67.404  1.00  0.00    -0.330 A  
HETATM   11  C   UNL     1      -7.524   8.916  65.569  1.00  0.00    -0.086 A  
HETATM   12  C   UNL     1     -11.051   9.891  68.330  1.00  0.00    -0.207 A  
HETATM   13  C   UNL     1      -8.537   6.609  66.394  1.00  0.00    -0.130 A  
HETATM   14  C   UNL     1      -8.347   9.523  64.619  1.00  0.00    -0.161 A  
HETATM   15  C   UNL     1      -8.829   6.122  65.112  1.00  0.00     0.085 A  
HETATM   16  C   UNL     1      -7.781  10.361  63.657  1.00  0.00    -0.050 A  
HETATM   17  C   UNL     1      -9.156   4.768  64.914  1.00  0.00    -0.141 A  
HETATM   18  C   UNL     1      -6.410  10.590  63.669  1.00  0.00     0.009 A  
HETATM   19  C   UNL     1      -9.177   3.882  65.993  1.00  0.00    -0.158 A  
HETATM   20  C   UNL     1      -8.924   4.345  67.277  1.00  0.00    -0.130 A  
HETATM   21  C   UNL     1      -5.657   9.964  64.643  1.00  0.00    -0.088 A  
HETATM   22  C   UNL     1      -8.611   5.695  67.470  1.00  0.00    -0.108 A  
HETATM   23  N   UNL     1      -6.179   9.137  65.576  1.00  0.00    -0.062 NA 
BRANCH  19  24
HETATM   24  O   UNL     1      -9.558   2.547  65.726  1.00  0.00     0.045 OA 
BRANCH  24  25
HETATM   25  C   UNL     1      -9.183   1.905  64.541  1.00  0.00    -0.132 C  
HETATM   26  O   UNL     1      -9.877   1.731  63.548  1.00  0.00    -0.111 OA 
HETATM   27  C   UNL     1      -7.745   1.477  64.641  1.00  0.00    -0.063 C  
ENDBRANCH  24  25
ENDBRANCH  19  24
ENDBRANCH   4   5
ENDBRANCH   2   4
TORSDOF 4
ENDMDL
MODEL       86
REMARK 921   NORMALIZED FREE ENERGY PREDICTED BY IDOCK:   -3.25 KCAL/MOL
REMARK 922        TOTAL FREE ENERGY PREDICTED BY IDOCK:   -4.35 KCAL/MOL
REMARK 923 INTER-LIGAND FREE ENERGY PREDICTED BY IDOCK:   -4.39 KCAL/MOL
REMARK 924 INTRA-LIGAND FREE ENERGY PREDICTED BY IDOCK:    0.04 KCAL/MOL
REMARK 927      BINDING AFFINITY PREDICTED BY RF-SCORE:    0.00 PKD
ROOT
HETATM    1  C   UNL     1      -7.819  17.085  67.821  1.00  0.00    -0.188 C  
HETATM    2  C   UNL     1      -6.706  16.417  67.068  1.00  0.00    -0.204 C  
HETATM    3  O   UNL     1      -6.255  16.830  66.007  1.00  0.00    -0.019 OA 
ENDROOT
BRANCH   2   4
HETATM    4  O   UNL     1      -6.305  15.279  67.771  1.00  0.00    -0.139 OA 
BRANCH   4   5
HETATM    5  C   UNL     1      -7.164  14.169  67.724  1.00  0.00    -0.176 A  
HETATM    6  C   UNL     1      -8.326  14.201  66.963  1.00  0.00    -0.142 A  
HETATM    7  C   UNL     1      -9.130  13.069  66.885  1.00  0.00    -0.227 A  
HETATM    8  C   UNL     1      -8.762  11.869  67.525  1.00  0.00    -0.163 A  
HETATM    9  C   UNL     1      -9.701  10.660  67.400  1.00  0.00    -0.192 C  
HETATM   10  C   UNL     1      -7.555  11.839  68.244  1.00  0.00    -0.122 A  
HETATM   11  C   UNL     1     -10.532  10.406  68.664  1.00  0.00    -0.196 A  
HETATM   12  C   UNL     1      -6.760  12.991  68.355  1.00  0.00    -0.093 A  
HETATM   13  C   UNL     1      -9.099   9.466  66.640  1.00  0.00    -0.181 A  
HETATM   14  C   UNL     1      -9.965  10.062  69.892  1.00  0.00    -0.280 A  
HETATM   15  C   UNL     1      -8.960   8.172  67.161  1.00  0.00    -0.154 A  
HETATM   16  C   UNL     1     -10.788   9.914  71.009  1.00  0.00    -0.300 A  
HETATM   17  C   UNL     1      -8.494   7.118  66.354  1.00  0.00    -0.130 A  
HETATM   18  C   UNL     1     -12.157  10.124  70.886  1.00  0.00    -0.453 A  
HETATM   19  C   UNL     1      -8.178   7.343  65.013  1.00  0.00    -0.098 A  
HETATM   20  C   UNL     1      -8.275   8.622  64.482  1.00  0.00    -0.166 A  
HETATM   21  C   UNL     1     -12.648  10.471  69.643  1.00  0.00     0.128 A  
HETATM   22  C   UNL     1      -8.729   9.669  65.291  1.00  0.00    -0.186 A  
HETATM   23  N   UNL     1     -11.875  10.606  68.543  1.00  0.00    -0.404 NA 
BRANCH  19  24
HETATM   24  O   UNL     1      -7.672   6.248  64.275  1.00  0.00    -0.094 OA 
BRANCH  24  25
HETATM   25  C   UNL     1      -8.435   5.094  64.068  1.00  0.00    -0.123 C  
HETATM   26  O   UNL     1      -9.380   4.965  63.302  1.00  0.00    -0.001 OA 
HETATM   27  C   UNL     1      -7.889   3.979  64.916  1.00  0.00    -0.089 C  
ENDBRANCH  24  25
ENDBRANCH  19  24
ENDBRANCH   4   5
ENDBRANCH   2   4
TORSDOF 4
ENDMDL
MODEL       87
REMARK 921   NORMALIZED FREE ENERGY PREDICTED BY IDOCK:   -3.19 KCAL/MOL
REMARK 922        TOTAL FREE ENERGY PREDICTED BY IDOCK:   -4.28 KCAL/MOL
REMARK 923 INTER-LIGAND FREE ENERGY PREDICTED BY IDOCK:   -3.87 KCAL/MOL
REMARK 924 INTRA-LIGAND FREE ENERGY PREDICTED BY IDOCK:   -0.41 KCAL/MOL
REMARK 927      BINDING AFFINITY PREDICTED BY RF-SCORE:    0.00 PKD
ROOT
HETATM    1  C   UNL     1     -10.632  17.929  65.242  1.00  0.00     0.281 C  
HETATM    2  C   UNL     1      -9.781  17.050  66.111  1.00  0.00    -0.261 C  
HETATM    3  O   UNL     1      -8.634  16.720  65.834  1.00  0.00    -0.500 OA 
ENDROOT
BRANCH   2   4
HETATM    4  O   UNL     1     -10.513  16.687  67.243  1.00  0.00    -0.315 OA 
BRANCH   4   5
HETATM    5  C   UNL     1     -10.748  15.316  67.434  1.00  0.00    -0.293 A  
HETATM    6  C   UNL     1     -11.842  14.694  66.844  1.00  0.00    -0.345 A  
HETATM    7  C   UNL     1     -12.021  13.323  66.999  1.00  0.00    -0.419 A  
HETATM    8  C   UNL     1     -11.083  12.541  67.701  1.00  0.00    -0.301 A  
HETATM    9  C   UNL     1     -11.348  11.034  67.836  1.00  0.00    -0.381 C  
HETATM   10  C   UNL     1      -9.954  13.180  68.243  1.00  0.00    -0.236 A  
HETATM   11  C   UNL     1     -11.862  10.632  69.224  1.00  0.00    -0.237 A  
HETATM   12  C   UNL     1      -9.790  14.569  68.120  1.00  0.00    -0.223 A  
HETATM   13  C   UNL     1     -10.314  10.144  67.128  1.00  0.00    -0.295 A  
HETATM   14  C   UNL     1     -11.108  10.783  70.389  1.00  0.00    -0.177 A  
HETATM   15  C   UNL     1      -9.542   9.156  67.755  1.00  0.00    -0.173 A  
HETATM   16  C   UNL     1     -11.678  10.454  71.620  1.00  0.00     0.114 A  
HETATM   17  C   UNL     1      -8.696   8.319  67.005  1.00  0.00    -0.132 A  
HETATM   18  C   UNL     1     -12.988   9.994  71.669  1.00  0.00    -0.554 A  
HETATM   19  C   UNL     1      -8.626   8.449  65.616  1.00  0.00    -0.174 A  
HETATM   20  C   UNL     1      -9.354   9.441  64.974  1.00  0.00    -0.258 A  
HETATM   21  C   UNL     1     -13.678   9.877  70.479  1.00  0.00     0.464 A  
HETATM   22  C   UNL     1     -10.186  10.278  65.726  1.00  0.00    -0.289 A  
HETATM   23  N   UNL     1     -13.146  10.175  69.273  1.00  0.00     1.071 NA 
BRANCH  19  24
HETATM   24  O   UNL     1      -7.722   7.604  64.932  1.00  0.00    -0.093 OA 
BRANCH  24  25
HETATM   25  C   UNL     1      -8.172   6.596  64.074  1.00  0.00     0.060 C  
HETATM   26  O   UNL     1      -8.684   5.531  64.395  1.00  0.00    -0.085 OA 
HETATM   27  C   UNL     1      -7.974   7.030  62.649  1.00  0.00    -0.116 C  
ENDBRANCH  24  25
ENDBRANCH  19  24
ENDBRANCH   4   5
ENDBRANCH   2   4
TORSDOF 4
ENDMDL
MODEL       88
REMARK 921   NORMALIZED FREE ENERGY PREDICTED BY IDOCK:   -3.08 KCAL/MOL
REMARK 922        TOTAL FREE ENERGY PREDICTED BY IDOCK:   -4.14 KCAL/MOL
REMARK 923 INTER-LIGAND FREE ENERGY PREDICTED BY IDOCK:   -3.89 KCAL/MOL
REMARK 924 INTRA-LIGAND FREE ENERGY PREDICTED BY IDOCK:   -0.25 KCAL/MOL
REMARK 927      BINDING AFFINITY PREDICTED BY RF-SCORE:    0.00 PKD
ROOT
HETATM    1  C   UNL     1      -7.052   8.678  62.385  1.00  0.00    -0.097 C  
HETATM    2  C   UNL     1      -5.949   8.716  63.401  1.00  0.00    -0.077 C  
HETATM    3  O   UNL     1      -5.185   9.663  63.544  1.00  0.00    -0.067 OA 
ENDROOT
BRANCH   2   4
HETATM    4  O   UNL     1      -5.950   7.517  64.116  1.00  0.00    -0.046 OA 
BRANCH   4   5
HETATM    5  C   UNL     1      -6.427   7.565  65.436  1.00  0.00    -0.041 A  
HETATM    6  C   UNL     1      -5.761   8.306  66.406  1.00  0.00    -0.040 A  
HETATM    7  C   UNL     1      -6.285   8.388  67.691  1.00  0.00    -0.053 A  
HETATM    8  C   UNL     1      -7.509   7.773  68.018  1.00  0.00    -0.108 A  
HETATM    9  C   UNL     1      -8.025   7.900  69.459  1.00  0.00    -0.116 C  
HETATM   10  C   UNL     1      -8.196   7.075  67.010  1.00  0.00    -0.117 A  
HETATM   11  C   UNL     1      -7.823   6.627  70.289  1.00  0.00    -0.107 A  
HETATM   12  C   UNL     1      -7.651   6.960  65.721  1.00  0.00    -0.091 A  
HETATM   13  C   UNL     1      -9.339   8.689  69.595  1.00  0.00    -0.161 A  
HETATM   14  C   UNL     1      -8.444   5.414  69.987  1.00  0.00    -0.111 A  
HETATM   15  C   UNL     1     -10.518   8.190  70.167  1.00  0.00    -0.225 A  
HETATM   16  C   UNL     1      -8.153   4.285  70.755  1.00  0.00    -0.067 A  
HETATM   17  C   UNL     1     -11.639   9.021  70.342  1.00  0.00    -0.145 A  
HETATM   18  C   UNL     1      -7.242   4.382  71.799  1.00  0.00    -0.063 A  
HETATM   19  C   UNL     1     -11.589  10.364  69.962  1.00  0.00    -0.301 A  
HETATM   20  C   UNL     1     -10.445  10.874  69.363  1.00  0.00    -0.205 A  
HETATM   21  C   UNL     1      -6.658   5.611  72.037  1.00  0.00    -0.058 A  
HETATM   22  C   UNL     1      -9.336  10.041  69.181  1.00  0.00    -0.200 A  
HETATM   23  N   UNL     1      -6.933   6.722  71.318  1.00  0.00    -0.072 NA 
BRANCH  19  24
HETATM   24  O   UNL     1     -12.767  11.127  70.126  1.00  0.00    -0.206 OA 
BRANCH  24  25
HETATM   25  C   UNL     1     -12.909  12.034  71.182  1.00  0.00    -0.235 C  
HETATM   26  O   UNL     1     -13.383  11.806  72.288  1.00  0.00    -0.455 OA 
HETATM   27  C   UNL     1     -12.340  13.364  70.775  1.00  0.00    -0.433 C  
ENDBRANCH  24  25
ENDBRANCH  19  24
ENDBRANCH   4   5
ENDBRANCH   2   4
TORSDOF 4
ENDMDL
MODEL       89
REMARK 921   NORMALIZED FREE ENERGY PREDICTED BY IDOCK:   -2.96 KCAL/MOL
REMARK 922        TOTAL FREE ENERGY PREDICTED BY IDOCK:   -3.99 KCAL/MOL
REMARK 923 INTER-LIGAND FREE ENERGY PREDICTED BY IDOCK:   -3.84 KCAL/MOL
REMARK 924 INTRA-LIGAND FREE ENERGY PREDICTED BY IDOCK:   -0.16 KCAL/MOL
REMARK 927      BINDING AFFINITY PREDICTED BY RF-SCORE:    0.00 PKD
ROOT
HETATM    1  C   UNL     1      -6.467  15.213  70.391  1.00  0.00     0.000 C  
HETATM    2  C   UNL     1      -5.803  14.856  69.094  1.00  0.00    -0.096 C  
HETATM    3  O   UNL     1      -5.755  15.600  68.123  1.00  0.00    -0.108 OA 
ENDROOT
BRANCH   2   4
HETATM    4  O   UNL     1      -5.278  13.565  69.194  1.00  0.00    -0.073 OA 
BRANCH   4   5
HETATM    5  C   UNL     1      -5.997  12.538  68.562  1.00  0.00    -0.056 A  
HETATM    6  C   UNL     1      -5.335  11.482  67.946  1.00  0.00    -0.046 A  
HETATM    7  C   UNL     1      -6.068  10.446  67.378  1.00  0.00    -0.053 A  
HETATM    8  C   UNL     1      -7.474  10.419  67.460  1.00  0.00    -0.093 A  
HETATM    9  C   UNL     1      -8.219   9.246  66.807  1.00  0.00    -0.115 C  
HETATM   10  C   UNL     1      -8.123  11.467  68.137  1.00  0.00    -0.146 A  
HETATM   11  C   UNL     1      -8.879   9.617  65.472  1.00  0.00    -0.172 A  
HETATM   12  C   UNL     1      -7.387  12.533  68.678  1.00  0.00    -0.099 A  
HETATM   13  C   UNL     1      -8.975   8.345  67.797  1.00  0.00    -0.140 A  
HETATM   14  C   UNL     1      -9.904  10.558  65.365  1.00  0.00    -0.335 A  
HETATM   15  C   UNL     1     -10.351   8.077  67.750  1.00  0.00    -0.294 A  
HETATM   16  C   UNL     1     -10.403  10.885  64.103  1.00  0.00    -0.432 A  
HETATM   17  C   UNL     1     -10.935   7.156  68.637  1.00  0.00    -0.083 A  
HETATM   18  C   UNL     1      -9.864  10.280  62.974  1.00  0.00    -0.086 A  
HETATM   19  C   UNL     1     -10.148   6.478  69.570  1.00  0.00    -0.176 A  
HETATM   20  C   UNL     1      -8.789   6.749  69.660  1.00  0.00    -0.144 A  
HETATM   21  C   UNL     1      -8.846   9.365  63.154  1.00  0.00    -0.190 A  
HETATM   22  C   UNL     1      -8.214   7.674  68.783  1.00  0.00    -0.128 A  
HETATM   23  N   UNL     1      -8.355   9.020  64.364  1.00  0.00    -0.169 NA 
BRANCH  19  24
HETATM   24  O   UNL     1     -10.810   5.601  70.460  1.00  0.00    -0.283 OA 
BRANCH  24  25
HETATM   25  C   UNL     1     -10.911   5.886  71.825  1.00  0.00    -0.269 C  
HETATM   26  O   UNL     1     -10.534   6.903  72.394  1.00  0.00    -0.199 OA 
HETATM   27  C   UNL     1     -11.609   4.751  72.520  1.00  0.00     0.150 C  
ENDBRANCH  24  25
ENDBRANCH  19  24
ENDBRANCH   4   5
ENDBRANCH   2   4
TORSDOF 4
ENDMDL
MODEL       90
REMARK 921   NORMALIZED FREE ENERGY PREDICTED BY IDOCK:   -2.91 KCAL/MOL
REMARK 922        TOTAL FREE ENERGY PREDICTED BY IDOCK:   -3.93 KCAL/MOL
REMARK 923 INTER-LIGAND FREE ENERGY PREDICTED BY IDOCK:   -3.69 KCAL/MOL
REMARK 924 INTRA-LIGAND FREE ENERGY PREDICTED BY IDOCK:   -0.25 KCAL/MOL
REMARK 927      BINDING AFFINITY PREDICTED BY RF-SCORE:    0.00 PKD
ROOT
HETATM    1  C   UNL     1      -9.288   2.695  66.438  1.00  0.00    -0.000 C  
HETATM    2  C   UNL     1      -8.552   3.815  65.763  1.00  0.00    -0.112 C  
HETATM    3  O   UNL     1      -7.414   3.717  65.322  1.00  0.00    -0.074 OA 
ENDROOT
BRANCH   2   4
HETATM    4  O   UNL     1      -9.371   4.947  65.742  1.00  0.00    -0.151 OA 
BRANCH   4   5
HETATM    5  C   UNL     1      -9.233   5.849  66.809  1.00  0.00    -0.133 A  
HETATM    6  C   UNL     1      -8.502   7.022  66.659  1.00  0.00    -0.121 A  
HETATM    7  C   UNL     1      -8.430   7.928  67.712  1.00  0.00    -0.125 A  
HETATM    8  C   UNL     1      -9.127   7.703  68.915  1.00  0.00    -0.140 A  
HETATM    9  C   UNL     1      -8.998   8.745  70.036  1.00  0.00    -0.162 C  
HETATM   10  C   UNL     1      -9.906   6.538  69.028  1.00  0.00    -0.153 A  
HETATM   11  C   UNL     1      -8.061   8.302  71.167  1.00  0.00    -0.111 A  
HETATM   12  C   UNL     1      -9.951   5.604  67.980  1.00  0.00    -0.178 A  
HETATM   13  C   UNL     1     -10.309   9.470  70.383  1.00  0.00    -0.334 A  
HETATM   14  C   UNL     1      -8.319   7.198  71.982  1.00  0.00    -0.111 A  
HETATM   15  C   UNL     1     -10.902   9.491  71.653  1.00  0.00    -0.225 A  
HETATM   16  C   UNL     1      -7.381   6.824  72.945  1.00  0.00    -0.079 A  
HETATM   17  C   UNL     1     -12.048  10.269  71.898  1.00  0.00    -0.003 A  
HETATM   18  C   UNL     1      -6.201   7.547  73.071  1.00  0.00    -0.059 A  
HETATM   19  C   UNL     1     -12.603  11.048  70.881  1.00  0.00    -0.391 A  
HETATM   20  C   UNL     1     -12.055  11.019  69.606  1.00  0.00    -0.411 A  
HETATM   21  C   UNL     1      -6.008   8.622  72.226  1.00  0.00    -0.071 A  
HETATM   22  C   UNL     1     -10.922  10.235  69.364  1.00  0.00    -0.289 A  
HETATM   23  N   UNL     1      -6.905   9.014  71.296  1.00  0.00    -0.116 NA 
BRANCH  19  24
HETATM   24  O   UNL     1     -13.781  11.769  71.187  1.00  0.00     0.611 OA 
BRANCH  24  25
HETATM   25  C   UNL     1     -13.727  13.046  71.755  1.00  0.00    -0.092 C  
HETATM   26  O   UNL     1     -13.949  13.341  72.922  1.00  0.00    -0.566 OA 
HETATM   27  C   UNL     1     -13.303  14.038  70.709  1.00  0.00    -0.086 C  
ENDBRANCH  24  25
ENDBRANCH  19  24
ENDBRANCH   4   5
ENDBRANCH   2   4
TORSDOF 4
ENDMDL
MODEL       91
REMARK 921   NORMALIZED FREE ENERGY PREDICTED BY IDOCK:   -2.77 KCAL/MOL
REMARK 922        TOTAL FREE ENERGY PREDICTED BY IDOCK:   -3.76 KCAL/MOL
REMARK 923 INTER-LIGAND FREE ENERGY PREDICTED BY IDOCK:   -4.13 KCAL/MOL
REMARK 924 INTRA-LIGAND FREE ENERGY PREDICTED BY IDOCK:    0.37 KCAL/MOL
REMARK 927      BINDING AFFINITY PREDICTED BY RF-SCORE:    0.00 PKD
ROOT
HETATM    1  C   UNL     1     -10.069   4.472  72.149  1.00  0.00    -0.260 C  
HETATM    2  C   UNL     1     -11.315   4.951  72.834  1.00  0.00    -0.216 C  
HETATM    3  O   UNL     1     -11.917   4.309  73.685  1.00  0.00    -0.037 OA 
ENDROOT
BRANCH   2   4
HETATM    4  O   UNL     1     -11.652   6.210  72.331  1.00  0.00    -0.295 OA 
BRANCH   4   5
HETATM    5  C   UNL     1     -10.897   6.682  71.245  1.00  0.00    -0.238 A  
HETATM    6  C   UNL     1      -9.640   7.241  71.442  1.00  0.00    -0.165 A  
HETATM    7  C   UNL     1      -8.887   7.647  70.346  1.00  0.00    -0.144 A  
HETATM    8  C   UNL     1      -9.354   7.456  69.031  1.00  0.00    -0.145 A  
HETATM    9  C   UNL     1      -8.471   7.934  67.868  1.00  0.00    -0.126 C  
HETATM   10  C   UNL     1     -10.604   6.839  68.850  1.00  0.00    -0.257 A  
HETATM   11  C   UNL     1      -8.958   9.244  67.237  1.00  0.00    -0.123 A  
HETATM   12  C   UNL     1     -11.382   6.462  69.956  1.00  0.00    -0.496 A  
HETATM   13  C   UNL     1      -7.955   6.805  66.960  1.00  0.00    -0.109 A  
HETATM   14  C   UNL     1     -10.187   9.366  66.586  1.00  0.00    -0.319 A  
HETATM   15  C   UNL     1      -8.178   6.722  65.578  1.00  0.00    -0.131 A  
HETATM   16  C   UNL     1     -10.583  10.612  66.098  1.00  0.00    -0.211 A  
HETATM   17  C   UNL     1      -7.576   5.707  64.813  1.00  0.00    -0.084 A  
HETATM   18  C   UNL     1      -9.756  11.714  66.279  1.00  0.00    -0.241 A  
HETATM   19  C   UNL     1      -6.731   4.774  65.417  1.00  0.00    -0.049 A  
HETATM   20  C   UNL     1      -6.520   4.814  66.789  1.00  0.00    -0.041 A  
HETATM   21  C   UNL     1      -8.558  11.523  66.940  1.00  0.00    -0.163 A  
HETATM   22  C   UNL     1      -7.129   5.819  67.547  1.00  0.00    -0.074 A  
HETATM   23  N   UNL     1      -8.145  10.325  67.409  1.00  0.00    -0.110 NA 
BRANCH  19  24
HETATM   24  O   UNL     1      -6.198   3.755  64.594  1.00  0.00    -0.022 OA 
BRANCH  24  25
HETATM   25  C   UNL     1      -6.085   2.437  65.047  1.00  0.00    -0.019 C  
HETATM   26  O   UNL     1      -5.165   1.959  65.699  1.00  0.00    -0.004 OA 
HETATM   27  C   UNL     1      -7.312   1.666  64.645  1.00  0.00    -0.053 C  
ENDBRANCH  24  25
ENDBRANCH  19  24
ENDBRANCH   4   5
ENDBRANCH   2   4
TORSDOF 4
ENDMDL
MODEL       92
REMARK 921   NORMALIZED FREE ENERGY PREDICTED BY IDOCK:   -2.63 KCAL/MOL
REMARK 922        TOTAL FREE ENERGY PREDICTED BY IDOCK:   -3.59 KCAL/MOL
REMARK 923 INTER-LIGAND FREE ENERGY PREDICTED BY IDOCK:   -3.25 KCAL/MOL
REMARK 924 INTRA-LIGAND FREE ENERGY PREDICTED BY IDOCK:   -0.34 KCAL/MOL
REMARK 927      BINDING AFFINITY PREDICTED BY RF-SCORE:    0.00 PKD
ROOT
HETATM    1  C   UNL     1     -12.739  14.937  68.481  1.00  0.00     0.759 C  
HETATM    2  C   UNL     1     -11.312  15.403  68.489  1.00  0.00    -0.335 C  
HETATM    3  O   UNL     1     -10.781  15.961  69.440  1.00  0.00    -0.229 OA 
ENDROOT
BRANCH   2   4
HETATM    4  O   UNL     1     -10.731  15.101  67.255  1.00  0.00    -0.291 OA 
BRANCH   4   5
HETATM    5  C   UNL     1      -9.901  13.970  67.205  1.00  0.00    -0.240 A  
HETATM    6  C   UNL     1      -8.523  14.092  67.347  1.00  0.00    -0.214 A  
HETATM    7  C   UNL     1      -7.727  12.952  67.353  1.00  0.00    -0.160 A  
HETATM    8  C   UNL     1      -8.297  11.666  67.269  1.00  0.00    -0.158 A  
HETATM    9  C   UNL     1      -7.357  10.452  67.277  1.00  0.00    -0.090 C  
HETATM   10  C   UNL     1      -9.696  11.560  67.182  1.00  0.00    -0.199 A  
HETATM   11  C   UNL     1      -7.161   9.829  65.889  1.00  0.00    -0.103 A  
HETATM   12  C   UNL     1     -10.499  12.711  67.138  1.00  0.00    -0.245 A  
HETATM   13  C   UNL     1      -7.517   9.534  68.500  1.00  0.00    -0.080 A  
HETATM   14  C   UNL     1      -8.200   9.242  65.164  1.00  0.00    -0.143 A  
HETATM   15  C   UNL     1      -7.825   8.167  68.442  1.00  0.00    -0.118 A  
HETATM   16  C   UNL     1      -7.950   8.757  63.879  1.00  0.00    -0.157 A  
HETATM   17  C   UNL     1      -7.848   7.386  69.612  1.00  0.00    -0.117 A  
HETATM   18  C   UNL     1      -6.677   8.878  63.336  1.00  0.00    -0.089 A  
HETATM   19  C   UNL     1      -7.547   7.958  70.849  1.00  0.00    -0.078 A  
HETATM   20  C   UNL     1      -7.272   9.316  70.938  1.00  0.00    -0.113 A  
HETATM   21  C   UNL     1      -5.699   9.477  64.105  1.00  0.00    -0.078 A  
HETATM   22  C   UNL     1      -7.260  10.091  69.774  1.00  0.00    -0.127 A  
HETATM   23  N   UNL     1      -5.911   9.941  65.357  1.00  0.00    -0.069 NA 
BRANCH  19  24
HETATM   24  O   UNL     1      -7.635   7.123  71.986  1.00  0.00    -0.088 OA 
BRANCH  24  25
HETATM   25  C   UNL     1      -8.820   6.453  72.310  1.00  0.00    -0.135 C  
HETATM   26  O   UNL     1      -8.946   5.261  72.561  1.00  0.00    -0.130 OA 
HETATM   27  C   UNL     1      -9.953   7.439  72.350  1.00  0.00    -0.221 C  
ENDBRANCH  24  25
ENDBRANCH  19  24
ENDBRANCH   4   5
ENDBRANCH   2   4
TORSDOF 4
ENDMDL
MODEL       93
REMARK 921   NORMALIZED FREE ENERGY PREDICTED BY IDOCK:   -2.51 KCAL/MOL
REMARK 922        TOTAL FREE ENERGY PREDICTED BY IDOCK:   -3.43 KCAL/MOL
REMARK 923 INTER-LIGAND FREE ENERGY PREDICTED BY IDOCK:   -3.06 KCAL/MOL
REMARK 924 INTRA-LIGAND FREE ENERGY PREDICTED BY IDOCK:   -0.37 KCAL/MOL
REMARK 927      BINDING AFFINITY PREDICTED BY RF-SCORE:    0.00 PKD
ROOT
HETATM    1  C   UNL     1      -9.321   1.961  63.136  1.00  0.00    -0.092 C  
HETATM    2  C   UNL     1      -9.456   3.431  63.406  1.00  0.00    -0.101 C  
HETATM    3  O   UNL     1      -8.903   4.300  62.744  1.00  0.00    -0.101 OA 
ENDROOT
BRANCH   2   4
HETATM    4  O   UNL     1     -10.287   3.614  64.513  1.00  0.00    -0.199 OA 
BRANCH   4   5
HETATM    5  C   UNL     1      -9.685   4.099  65.685  1.00  0.00    -0.204 A  
HETATM    6  C   UNL     1      -8.424   3.660  66.071  1.00  0.00    -0.111 A  
HETATM    7  C   UNL     1      -7.823   4.199  67.203  1.00  0.00    -0.096 A  
HETATM    8  C   UNL     1      -8.449   5.223  67.941  1.00  0.00    -0.101 A  
HETATM    9  C   UNL     1      -7.729   5.768  69.184  1.00  0.00    -0.090 C  
HETATM   10  C   UNL     1      -9.699   5.693  67.504  1.00  0.00    -0.134 A  
HETATM   11  C   UNL     1      -8.317   5.247  70.501  1.00  0.00    -0.112 A  
HETATM   12  C   UNL     1     -10.324   5.124  66.383  1.00  0.00    -0.332 A  
HETATM   13  C   UNL     1      -7.309   7.243  69.077  1.00  0.00    -0.091 A  
HETATM   14  C   UNL     1      -9.620   5.525  70.917  1.00  0.00    -0.219 A  
HETATM   15  C   UNL     1      -7.703   8.256  69.963  1.00  0.00    -0.095 A  
HETATM   16  C   UNL     1     -10.099   4.956  72.098  1.00  0.00    -0.250 A  
HETATM   17  C   UNL     1      -7.183   9.558  69.845  1.00  0.00    -0.093 A  
HETATM   18  C   UNL     1      -9.277   4.111  72.835  1.00  0.00    -0.129 A  
HETATM   19  C   UNL     1      -6.251   9.857  68.849  1.00  0.00    -0.041 A  
HETATM   20  C   UNL     1      -5.869   8.882  67.938  1.00  0.00    -0.043 A  
HETATM   21  C   UNL     1      -8.002   3.873  72.360  1.00  0.00    -0.081 A  
HETATM   22  C   UNL     1      -6.397   7.591  68.054  1.00  0.00    -0.049 A  
HETATM   23  N   UNL     1      -7.510   4.422  71.228  1.00  0.00    -0.058 NA 
BRANCH  19  24
HETATM   24  O   UNL     1      -5.806  11.196  68.762  1.00  0.00    -0.043 OA 
BRANCH  24  25
HETATM   25  C   UNL     1      -6.704  12.268  68.815  1.00  0.00    -0.089 C  
HETATM   26  O   UNL     1      -7.655  12.468  68.070  1.00  0.00    -0.105 OA 
HETATM   27  C   UNL     1      -6.356  13.151  69.980  1.00  0.00    -0.006 C  
ENDBRANCH  24  25
ENDBRANCH  19  24
ENDBRANCH   4   5
ENDBRANCH   2   4
TORSDOF 4
ENDMDL
MODEL       94
REMARK 921   NORMALIZED FREE ENERGY PREDICTED BY IDOCK:   -2.48 KCAL/MOL
REMARK 922        TOTAL FREE ENERGY PREDICTED BY IDOCK:   -3.39 KCAL/MOL
REMARK 923 INTER-LIGAND FREE ENERGY PREDICTED BY IDOCK:   -3.09 KCAL/MOL
REMARK 924 INTRA-LIGAND FREE ENERGY PREDICTED BY IDOCK:   -0.31 KCAL/MOL
REMARK 927      BINDING AFFINITY PREDICTED BY RF-SCORE:    0.00 PKD
ROOT
HETATM    1  C   UNL     1      -8.151   4.838  69.613  1.00  0.00    -0.065 C  
HETATM    2  C   UNL     1      -6.937   5.275  68.847  1.00  0.00    -0.056 C  
HETATM    3  O   UNL     1      -5.811   4.834  69.042  1.00  0.00    -0.016 OA 
ENDROOT
BRANCH   2   4
HETATM    4  O   UNL     1      -7.314   6.245  67.916  1.00  0.00    -0.084 OA 
BRANCH   4   5
HETATM    5  C   UNL     1      -8.154   7.272  68.375  1.00  0.00    -0.125 A  
HETATM    6  C   UNL     1      -7.770   8.085  69.435  1.00  0.00    -0.104 A  
HETATM    7  C   UNL     1      -8.594   9.133  69.833  1.00  0.00    -0.155 A  
HETATM    8  C   UNL     1      -9.790   9.419  69.147  1.00  0.00    -0.174 A  
HETATM    9  C   UNL     1     -10.652  10.589  69.645  1.00  0.00    -0.281 C  
HETATM   10  C   UNL     1     -10.134   8.621  68.043  1.00  0.00    -0.241 A  
HETATM   11  C   UNL     1     -11.887  10.137  70.435  1.00  0.00    -0.288 A  
HETATM   12  C   UNL     1      -9.324   7.540  67.662  1.00  0.00    -0.151 A  
HETATM   13  C   UNL     1     -10.778  11.753  68.648  1.00  0.00    -0.252 A  
HETATM   14  C   UNL     1     -12.919   9.386  69.870  1.00  0.00     1.409 A  
HETATM   15  C   UNL     1     -11.988  12.248  68.142  1.00  0.00    -0.256 A  
HETATM   16  C   UNL     1     -13.976   8.960  70.676  1.00  0.00     0.558 A  
HETATM   17  C   UNL     1     -12.010  13.385  67.314  1.00  0.00    -0.393 A  
HETATM   18  C   UNL     1     -13.978   9.277  72.029  1.00  0.00    -0.392 A  
HETATM   19  C   UNL     1     -10.823  14.050  66.998  1.00  0.00    -0.290 A  
HETATM   20  C   UNL     1      -9.609  13.562  67.459  1.00  0.00    -0.221 A  
HETATM   21  C   UNL     1     -12.920  10.015  72.522  1.00  0.00     0.073 A  
HETATM   22  C   UNL     1      -9.591  12.424  68.273  1.00  0.00    -0.211 A  
HETATM   23  N   UNL     1     -11.893  10.453  71.761  1.00  0.00     0.025 NA 
BRANCH  19  24
HETATM   24  O   UNL     1     -10.916  15.158  66.124  1.00  0.00    -0.333 OA 
BRANCH  24  25
HETATM   25  C   UNL     1     -10.062  16.259  66.250  1.00  0.00    -0.324 C  
HETATM   26  O   UNL     1      -9.095  16.523  65.547  1.00  0.00    -0.404 OA 
HETATM   27  C   UNL     1     -10.535  17.129  67.381  1.00  0.00    -0.334 C  
ENDBRANCH  24  25
ENDBRANCH  19  24
ENDBRANCH   4   5
ENDBRANCH   2   4
TORSDOF 4
ENDMDL
MODEL       95
REMARK 921   NORMALIZED FREE ENERGY PREDICTED BY IDOCK:   -2.38 KCAL/MOL
REMARK 922        TOTAL FREE ENERGY PREDICTED BY IDOCK:   -3.28 KCAL/MOL
REMARK 923 INTER-LIGAND FREE ENERGY PREDICTED BY IDOCK:   -3.04 KCAL/MOL
REMARK 924 INTRA-LIGAND FREE ENERGY PREDICTED BY IDOCK:   -0.24 KCAL/MOL
REMARK 927      BINDING AFFINITY PREDICTED BY RF-SCORE:    0.00 PKD
ROOT
HETATM    1  C   UNL     1     -12.408  15.233  70.553  1.00  0.00    -0.434 C  
HETATM    2  C   UNL     1     -12.781  13.779  70.546  1.00  0.00    -0.222 C  
HETATM    3  O   UNL     1     -13.193  13.175  71.528  1.00  0.00    -0.350 OA 
ENDROOT
BRANCH   2   4
HETATM    4  O   UNL     1     -12.568  13.264  69.265  1.00  0.00     0.038 OA 
BRANCH   4   5
HETATM    5  C   UNL     1     -11.636  12.220  69.148  1.00  0.00    -0.318 A  
HETATM    6  C   UNL     1     -10.273  12.467  69.265  1.00  0.00     0.351 A  
HETATM    7  C   UNL     1      -9.374  11.408  69.205  1.00  0.00     0.140 A  
HETATM    8  C   UNL     1      -9.822  10.079  69.078  1.00  0.00    -0.203 A  
HETATM    9  C   UNL     1      -8.771   8.960  69.014  1.00  0.00    -0.136 C  
HETATM   10  C   UNL     1     -11.206   9.843  69.018  1.00  0.00    -0.131 A  
HETATM   11  C   UNL     1      -8.555   8.414  67.597  1.00  0.00    -0.130 A  
HETATM   12  C   UNL     1     -12.115  10.914  69.042  1.00  0.00    -0.240 A  
HETATM   13  C   UNL     1      -8.812   7.983  70.200  1.00  0.00    -0.143 A  
HETATM   14  C   UNL     1      -9.553   7.761  66.871  1.00  0.00    -0.256 A  
HETATM   15  C   UNL     1      -8.992   6.596  70.091  1.00  0.00    -0.152 A  
HETATM   16  C   UNL     1      -9.292   7.354  65.562  1.00  0.00     0.392 A  
HETATM   17  C   UNL     1      -8.911   5.770  71.227  1.00  0.00    -0.139 A  
HETATM   18  C   UNL     1      -8.051   7.617  64.995  1.00  0.00    -0.133 A  
HETATM   19  C   UNL     1      -8.632   6.318  72.480  1.00  0.00    -0.120 A  
HETATM   20  C   UNL     1      -8.483   7.691  72.621  1.00  0.00    -0.166 A  
HETATM   21  C   UNL     1      -7.114   8.276  65.767  1.00  0.00    -0.071 A  
HETATM   22  C   UNL     1      -8.576   8.510  71.491  1.00  0.00    -0.236 A  
HETATM   23  N   UNL     1      -7.335   8.667  67.042  1.00  0.00    -0.079 NA 
BRANCH  19  24
HETATM   24  O   UNL     1      -8.610   5.433  73.583  1.00  0.00    -0.112 OA 
BRANCH  24  25
HETATM   25  C   UNL     1      -7.482   4.660  73.876  1.00  0.00    -0.082 C  
HETATM   26  O   UNL     1      -7.457   3.589  74.469  1.00  0.00    -0.055 OA 
HETATM   27  C   UNL     1      -6.261   5.327  73.306  1.00  0.00    -0.051 C  
ENDBRANCH  24  25
ENDBRANCH  19  24
ENDBRANCH   4   5
ENDBRANCH   2   4
TORSDOF 4
ENDMDL
MODEL       96
REMARK 921   NORMALIZED FREE ENERGY PREDICTED BY IDOCK:   -2.33 KCAL/MOL
REMARK 922        TOTAL FREE ENERGY PREDICTED BY IDOCK:   -3.21 KCAL/MOL
REMARK 923 INTER-LIGAND FREE ENERGY PREDICTED BY IDOCK:   -4.00 KCAL/MOL
REMARK 924 INTRA-LIGAND FREE ENERGY PREDICTED BY IDOCK:    0.79 KCAL/MOL
REMARK 927      BINDING AFFINITY PREDICTED BY RF-SCORE:    0.00 PKD
ROOT
HETATM    1  C   UNL     1      -7.530  15.092  66.778  1.00  0.00     0.295 C  
HETATM    2  C   UNL     1      -8.984  15.411  66.963  1.00  0.00    -0.231 C  
HETATM    3  O   UNL     1      -9.593  16.237  66.295  1.00  0.00    -0.268 OA 
ENDROOT
BRANCH   2   4
HETATM    4  O   UNL     1      -9.490  14.629  68.004  1.00  0.00    -0.198 OA 
BRANCH   4   5
HETATM    5  C   UNL     1      -9.112  13.277  68.023  1.00  0.00    -0.202 A  
HETATM    6  C   UNL     1      -7.909  12.882  68.597  1.00  0.00    -0.044 A  
HETATM    7  C   UNL     1      -7.585  11.531  68.656  1.00  0.00    -0.134 A  
HETATM    8  C   UNL     1      -8.478  10.547  68.190  1.00  0.00    -0.123 A  
HETATM    9  C   UNL     1      -8.051   9.074  68.282  1.00  0.00    -0.109 C  
HETATM   10  C   UNL     1      -9.713  10.962  67.663  1.00  0.00    -0.188 A  
HETATM   11  C   UNL     1      -7.605   8.488  66.937  1.00  0.00    -0.091 A  
HETATM   12  C   UNL     1     -10.028  12.327  67.569  1.00  0.00    -0.201 A  
HETATM   13  C   UNL     1      -8.914   8.223  69.228  1.00  0.00    -0.147 A  
HETATM   14  C   UNL     1      -8.462   8.354  65.843  1.00  0.00    -0.159 A  
HETATM   15  C   UNL     1      -9.613   7.066  68.853  1.00  0.00    -0.140 A  
HETATM   16  C   UNL     1      -7.958   7.872  64.634  1.00  0.00    -0.143 A  
HETATM   17  C   UNL     1     -10.292   6.294  69.812  1.00  0.00    -0.260 A  
HETATM   18  C   UNL     1      -6.611   7.545  64.534  1.00  0.00    -0.044 A  
HETATM   19  C   UNL     1     -10.266   6.659  71.160  1.00  0.00    -0.194 A  
HETATM   20  C   UNL     1      -9.610   7.817  71.553  1.00  0.00    -0.187 A  
HETATM   21  C   UNL     1      -5.820   7.711  65.653  1.00  0.00    -0.038 A  
HETATM   22  C   UNL     1      -8.945   8.588  70.594  1.00  0.00    -0.182 A  
HETATM   23  N   UNL     1      -6.285   8.161  66.839  1.00  0.00    -0.054 NA 
BRANCH  19  24
HETATM   24  O   UNL     1     -11.009   5.861  72.061  1.00  0.00    -0.245 OA 
BRANCH  24  25
HETATM   25  C   UNL     1     -10.486   5.483  73.302  1.00  0.00    -0.225 C  
HETATM   26  O   UNL     1     -10.178   4.353  73.657  1.00  0.00    -0.143 OA 
HETATM   27  C   UNL     1     -10.306   6.706  74.158  1.00  0.00    -0.347 C  
ENDBRANCH  24  25
ENDBRANCH  19  24
ENDBRANCH   4   5
ENDBRANCH   2   4
TORSDOF 4
ENDMDL
MODEL       97
REMARK 921   NORMALIZED FREE ENERGY PREDICTED BY IDOCK:   -2.28 KCAL/MOL
REMARK 922        TOTAL FREE ENERGY PREDICTED BY IDOCK:   -3.15 KCAL/MOL
REMARK 923 INTER-LIGAND FREE ENERGY PREDICTED BY IDOCK:   -3.68 KCAL/MOL
REMARK 924 INTRA-LIGAND FREE ENERGY PREDICTED BY IDOCK:    0.53 KCAL/MOL
REMARK 927      BINDING AFFINITY PREDICTED BY RF-SCORE:    0.00 PKD
ROOT
HETATM    1  C   UNL     1     -13.852   8.898  72.522  1.00  0.00    -0.472 C  
HETATM    2  C   UNL     1     -12.780   7.908  72.171  1.00  0.00    -0.224 C  
HETATM    3  O   UNL     1     -13.003   6.764  71.795  1.00  0.00    -0.349 OA 
ENDROOT
BRANCH   2   4
HETATM    4  O   UNL     1     -11.533   8.508  72.356  1.00  0.00    -0.369 OA 
BRANCH   4   5
HETATM    5  C   UNL     1     -10.778   8.771  71.201  1.00  0.00    -0.248 A  
HETATM    6  C   UNL     1      -9.577   9.466  71.280  1.00  0.00    -0.161 A  
HETATM    7  C   UNL     1      -8.818   9.663  70.131  1.00  0.00    -0.266 A  
HETATM    8  C   UNL     1      -9.220   9.125  68.893  1.00  0.00    -0.139 A  
HETATM    9  C   UNL     1      -8.336   9.386  67.664  1.00  0.00    -0.119 C  
HETATM   10  C   UNL     1     -10.410   8.377  68.844  1.00  0.00    -0.231 A  
HETATM   11  C   UNL     1      -8.901  10.462  66.729  1.00  0.00    -0.130 A  
HETATM   12  C   UNL     1     -11.196   8.209  69.995  1.00  0.00    -0.084 A  
HETATM   13  C   UNL     1      -7.698   8.122  67.063  1.00  0.00    -0.096 A  
HETATM   14  C   UNL     1     -10.111  10.319  66.047  1.00  0.00    -0.311 A  
HETATM   15  C   UNL     1      -7.863   7.694  65.738  1.00  0.00    -0.106 A  
HETATM   16  C   UNL     1     -10.586  11.375  65.267  1.00  0.00    -0.336 A  
HETATM   17  C   UNL     1      -7.155   6.581  65.249  1.00  0.00    -0.061 A  
HETATM   18  C   UNL     1      -9.855  12.555  65.192  1.00  0.00    -0.133 A  
HETATM   19  C   UNL     1      -6.261   5.895  66.074  1.00  0.00    -0.037 A  
HETATM   20  C   UNL     1      -6.105   6.278  67.399  1.00  0.00    -0.018 A  
HETATM   21  C   UNL     1      -8.672  12.630  65.899  1.00  0.00     0.594 A  
HETATM   22  C   UNL     1      -6.819   7.378  67.884  1.00  0.00    -0.074 A  
HETATM   23  N   UNL     1      -8.183  11.618  66.649  1.00  0.00    -0.164 NA 
BRANCH  19  24
HETATM   24  O   UNL     1      -5.620   4.759  65.529  1.00  0.00    -0.013 OA 
BRANCH  24  25
HETATM   25  C   UNL     1      -6.309   3.559  65.325  1.00  0.00    -0.031 C  
HETATM   26  O   UNL     1      -5.836   2.492  64.955  1.00  0.00    -0.016 OA 
HETATM   27  C   UNL     1      -7.758   3.753  65.676  1.00  0.00    -0.086 C  
ENDBRANCH  24  25
ENDBRANCH  19  24
ENDBRANCH   4   5
ENDBRANCH   2   4
TORSDOF 4
ENDMDL
MODEL       98
REMARK 921   NORMALIZED FREE ENERGY PREDICTED BY IDOCK:   -2.26 KCAL/MOL
REMARK 922        TOTAL FREE ENERGY PREDICTED BY IDOCK:   -3.13 KCAL/MOL
REMARK 923 INTER-LIGAND FREE ENERGY PREDICTED BY IDOCK:   -3.26 KCAL/MOL
REMARK 924 INTRA-LIGAND FREE ENERGY PREDICTED BY IDOCK:    0.13 KCAL/MOL
REMARK 927      BINDING AFFINITY PREDICTED BY RF-SCORE:    0.00 PKD
ROOT
HETATM    1  C   UNL     1      -6.577  13.279  67.308  1.00  0.00     0.090 C  
HETATM    2  C   UNL     1      -8.021  13.675  67.398  1.00  0.00    -0.166 C  
HETATM    3  O   UNL     1      -8.547  14.508  66.670  1.00  0.00    -0.188 OA 
ENDROOT
BRANCH   2   4
HETATM    4  O   UNL     1      -8.625  12.954  68.430  1.00  0.00    -0.174 OA 
BRANCH   4   5
HETATM    5  C   UNL     1      -8.361  11.576  68.480  1.00  0.00    -0.146 A  
HETATM    6  C   UNL     1      -7.214  11.094  69.100  1.00  0.00    -0.123 A  
HETATM    7  C   UNL     1      -7.003   9.722  69.189  1.00  0.00    -0.055 A  
HETATM    8  C   UNL     1      -7.959   8.807  68.707  1.00  0.00    -0.106 A  
HETATM    9  C   UNL     1      -7.658   7.306  68.834  1.00  0.00    -0.103 C  
HETATM   10  C   UNL     1      -9.138   9.312  68.133  1.00  0.00    -0.130 A  
HETATM   11  C   UNL     1      -7.218   6.662  67.513  1.00  0.00    -0.090 A  
HETATM   12  C   UNL     1      -9.336  10.697  68.009  1.00  0.00    -0.151 A  
HETATM   13  C   UNL     1      -8.618   6.543  69.762  1.00  0.00    -0.136 A  
HETATM   14  C   UNL     1      -8.047   6.581  66.393  1.00  0.00    -0.113 A  
HETATM   15  C   UNL     1      -9.397   5.442  69.380  1.00  0.00    -0.164 A  
HETATM   16  C   UNL     1      -7.546   6.039  65.208  1.00  0.00    -0.088 A  
HETATM   17  C   UNL     1     -10.168   4.744  70.327  1.00  0.00    -0.262 A  
HETATM   18  C   UNL     1      -6.228   5.601  65.157  1.00  0.00    -0.030 A  
HETATM   19  C   UNL     1     -10.156   5.128  71.669  1.00  0.00    -0.200 A  
HETATM   20  C   UNL     1      -9.419   6.235  72.068  1.00  0.00    -0.158 A  
HETATM   21  C   UNL     1      -5.462   5.721  66.301  1.00  0.00    -0.013 A  
HETATM   22  C   UNL     1      -8.663   6.933  71.121  1.00  0.00    -0.135 A  
HETATM   23  N   UNL     1      -5.927   6.228  67.464  1.00  0.00    -0.016 NA 
BRANCH  19  24
HETATM   24  O   UNL     1     -10.990   4.409  72.556  1.00  0.00    -0.100 OA 
BRANCH  24  25
HETATM   25  C   UNL     1     -10.470   3.446  73.427  1.00  0.00    -0.175 C  
HETATM   26  O   UNL     1      -9.855   3.649  74.465  1.00  0.00    -0.117 OA 
HETATM   27  C   UNL     1     -10.819   2.075  72.917  1.00  0.00    -0.214 C  
ENDBRANCH  24  25
ENDBRANCH  19  24
ENDBRANCH   4   5
ENDBRANCH   2   4
TORSDOF 4
ENDMDL
MODEL       99
REMARK 921   NORMALIZED FREE ENERGY PREDICTED BY IDOCK:   -2.06 KCAL/MOL
REMARK 922        TOTAL FREE ENERGY PREDICTED BY IDOCK:   -2.89 KCAL/MOL
REMARK 923 INTER-LIGAND FREE ENERGY PREDICTED BY IDOCK:   -3.85 KCAL/MOL
REMARK 924 INTRA-LIGAND FREE ENERGY PREDICTED BY IDOCK:    0.96 KCAL/MOL
REMARK 927      BINDING AFFINITY PREDICTED BY RF-SCORE:    0.00 PKD
ROOT
HETATM    1  C   UNL     1     -13.240  10.489  70.373  1.00  0.00     0.012 C  
HETATM    2  C   UNL     1     -12.949   9.251  71.171  1.00  0.00    -0.203 C  
HETATM    3  O   UNL     1     -13.796   8.422  71.477  1.00  0.00    -0.360 OA 
ENDROOT
BRANCH   2   4
HETATM    4  O   UNL     1     -11.590   9.229  71.493  1.00  0.00    -0.329 OA 
BRANCH   4   5
HETATM    5  C   UNL     1     -10.688   9.521  70.457  1.00  0.00    -0.298 A  
HETATM    6  C   UNL     1     -11.146   9.856  69.188  1.00  0.00    -0.197 A  
HETATM    7  C   UNL     1     -10.235  10.199  68.195  1.00  0.00    -0.200 A  
HETATM    8  C   UNL     1      -8.854  10.262  68.464  1.00  0.00    -0.127 A  
HETATM    9  C   UNL     1      -7.906  10.643  67.318  1.00  0.00    -0.112 C  
HETATM   10  C   UNL     1      -8.414   9.974  69.768  1.00  0.00    -0.189 A  
HETATM   11  C   UNL     1      -7.152   9.443  66.732  1.00  0.00    -0.082 A  
HETATM   12  C   UNL     1      -9.328   9.592  70.763  1.00  0.00    -0.218 A  
HETATM   13  C   UNL     1      -7.162  11.973  67.526  1.00  0.00    -0.127 A  
HETATM   14  C   UNL     1      -6.242   8.682  67.467  1.00  0.00    -0.053 A  
HETATM   15  C   UNL     1      -5.767  12.119  67.533  1.00  0.00    -0.117 A  
HETATM   16  C   UNL     1      -5.649   7.565  66.877  1.00  0.00    -0.027 A  
HETATM   17  C   UNL     1      -5.178  13.393  67.627  1.00  0.00    -0.004 A  
HETATM   18  C   UNL     1      -5.983   7.219  65.573  1.00  0.00    -0.037 A  
HETATM   19  C   UNL     1      -5.977  14.536  67.697  1.00  0.00    -0.024 A  
HETATM   20  C   UNL     1      -7.359  14.417  67.725  1.00  0.00    -0.186 A  
HETATM   21  C   UNL     1      -6.898   8.011  64.908  1.00  0.00    -0.058 A  
HETATM   22  C   UNL     1      -7.940  13.147  67.643  1.00  0.00    -0.174 A  
HETATM   23  N   UNL     1      -7.475   9.106  65.450  1.00  0.00    -0.092 NA 
BRANCH  19  24
HETATM   24  O   UNL     1      -5.316  15.779  67.835  1.00  0.00    -0.115 OA 
BRANCH  24  25
HETATM   25  C   UNL     1      -6.009  16.989  67.724  1.00  0.00    -0.133 C  
HETATM   26  O   UNL     1      -6.332  17.560  66.690  1.00  0.00    -0.165 OA 
HETATM   27  C   UNL     1      -6.354  17.492  69.098  1.00  0.00    -0.235 C  
ENDBRANCH  24  25
ENDBRANCH  19  24
ENDBRANCH   4   5
ENDBRANCH   2   4
TORSDOF 4
ENDMDL
MODEL      100
REMARK 921   NORMALIZED FREE ENERGY PREDICTED BY IDOCK:   -1.98 KCAL/MOL
REMARK 922        TOTAL FREE ENERGY PREDICTED BY IDOCK:   -2.78 KCAL/MOL
REMARK 923 INTER-LIGAND FREE ENERGY PREDICTED BY IDOCK:   -2.59 KCAL/MOL
REMARK 924 INTRA-LIGAND FREE ENERGY PREDICTED BY IDOCK:   -0.19 KCAL/MOL
REMARK 927      BINDING AFFINITY PREDICTED BY RF-SCORE:    0.00 PKD
ROOT
HETATM    1  C   UNL     1     -11.314  15.747  74.133  1.00  0.00     1.402 C  
HETATM    2  C   UNL     1     -12.501  15.821  73.218  1.00  0.00    -0.506 C  
HETATM    3  O   UNL     1     -13.552  15.223  73.412  1.00  0.00    -0.415 OA 
ENDROOT
BRANCH   2   4
HETATM    4  O   UNL     1     -12.193  16.658  72.143  1.00  0.00    -0.217 OA 
BRANCH   4   5
HETATM    5  C   UNL     1     -11.767  16.037  70.958  1.00  0.00    -0.417 A  
HETATM    6  C   UNL     1     -10.506  16.296  70.434  1.00  0.00     0.154 A  
HETATM    7  C   UNL     1     -10.084  15.624  69.291  1.00  0.00    -0.258 A  
HETATM    8  C   UNL     1     -10.892  14.645  68.682  1.00  0.00    -0.261 A  
HETATM    9  C   UNL     1     -10.364  13.947  67.420  1.00  0.00    -0.252 C  
HETATM   10  C   UNL     1     -12.142  14.357  69.259  1.00  0.00    -0.336 A  
HETATM   11  C   UNL     1     -11.010  14.461  66.128  1.00  0.00    -0.320 A  
HETATM   12  C   UNL     1     -12.586  15.060  70.390  1.00  0.00    -0.399 A  
HETATM   13  C   UNL     1     -10.111  12.439  67.589  1.00  0.00    -0.199 A  
HETATM   14  C   UNL     1     -12.371  14.322  65.849  1.00  0.00    -0.420 A  
HETATM   15  C   UNL     1     -10.704  11.435  66.811  1.00  0.00    -0.316 A  
HETATM   16  C   UNL     1     -12.891  14.878  64.679  1.00  0.00     0.337 A  
HETATM   17  C   UNL     1     -10.331  10.088  66.971  1.00  0.00    -0.305 A  
HETATM   18  C   UNL     1     -12.050  15.573  63.817  1.00  0.00     0.421 A  
HETATM   19  C   UNL     1      -9.349   9.732  67.897  1.00  0.00    -0.127 A  
HETATM   20  C   UNL     1      -8.770  10.703  68.703  1.00  0.00    -0.148 A  
HETATM   21  C   UNL     1     -10.717  15.679  64.160  1.00  0.00     0.991 A  
HETATM   22  C   UNL     1      -9.152  12.040  68.548  1.00  0.00    -0.107 A  
HETATM   23  N   UNL     1     -10.186  15.138  65.279  1.00  0.00    -0.370 NA 
BRANCH  19  24
HETATM   24  O   UNL     1      -9.057   8.356  68.035  1.00  0.00    -0.137 OA 
BRANCH  24  25
HETATM   25  C   UNL     1      -8.929   7.522  66.919  1.00  0.00    -0.135 C  
HETATM   26  O   UNL     1      -9.522   6.471  66.714  1.00  0.00    -0.148 OA 
HETATM   27  C   UNL     1      -7.957   8.136  65.950  1.00  0.00    -0.102 C  
ENDBRANCH  24  25
ENDBRANCH  19  24
ENDBRANCH   4   5
ENDBRANCH   2   4
TORSDOF 4
ENDMDL
MODEL      101
REMARK 921   NORMALIZED FREE ENERGY PREDICTED BY IDOCK:   -1.81 KCAL/MOL
REMARK 922        TOTAL FREE ENERGY PREDICTED BY IDOCK:   -2.57 KCAL/MOL
REMARK 923 INTER-LIGAND FREE ENERGY PREDICTED BY IDOCK:   -3.52 KCAL/MOL
REMARK 924 INTRA-LIGAND FREE ENERGY PREDICTED BY IDOCK:    0.95 KCAL/MOL
REMARK 927      BINDING AFFINITY PREDICTED BY RF-SCORE:    0.00 PKD
ROOT
HETATM    1  C   UNL     1      -5.147   4.614  73.143  1.00  0.00    -0.008 C  
HETATM    2  C   UNL     1      -5.386   3.609  72.055  1.00  0.00     0.000 C  
HETATM    3  O   UNL     1      -5.397   2.398  72.234  1.00  0.00     0.000 OA 
ENDROOT
BRANCH   2   4
HETATM    4  O   UNL     1      -5.577   4.285  70.848  1.00  0.00    -0.011 OA 
BRANCH   4   5
HETATM    5  C   UNL     1      -6.510   5.334  70.849  1.00  0.00    -0.034 A  
HETATM    6  C   UNL     1      -6.597   6.208  71.927  1.00  0.00    -0.062 A  
HETATM    7  C   UNL     1      -7.488   7.275  71.880  1.00  0.00    -0.084 A  
HETATM    8  C   UNL     1      -8.272   7.518  70.736  1.00  0.00    -0.110 A  
HETATM    9  C   UNL     1      -9.238   8.712  70.755  1.00  0.00    -0.223 C  
HETATM   10  C   UNL     1      -8.130   6.656  69.633  1.00  0.00    -0.126 A  
HETATM   11  C   UNL     1     -10.701   8.303  70.965  1.00  0.00    -0.218 A  
HETATM   12  C   UNL     1      -7.258   5.557  69.693  1.00  0.00    -0.065 A  
HETATM   13  C   UNL     1      -8.901   9.816  69.740  1.00  0.00    -0.241 A  
HETATM   14  C   UNL     1     -11.411   7.518  70.055  1.00  0.00    -0.115 A  
HETATM   15  C   UNL     1      -9.770  10.278  68.740  1.00  0.00    -0.178 A  
HETATM   16  C   UNL     1     -12.719   7.135  70.355  1.00  0.00     0.249 A  
HETATM   17  C   UNL     1      -9.412  11.366  67.923  1.00  0.00    -0.174 A  
HETATM   18  C   UNL     1     -13.290   7.529  71.559  1.00  0.00    -0.409 A  
HETATM   19  C   UNL     1      -8.189  12.015  68.108  1.00  0.00    -0.163 A  
HETATM   20  C   UNL     1      -7.298  11.557  69.068  1.00  0.00    -0.094 A  
HETATM   21  C   UNL     1     -12.527   8.297  72.416  1.00  0.00    -0.302 A  
HETATM   22  C   UNL     1      -7.653  10.468  69.871  1.00  0.00    -0.053 A  
HETATM   23  N   UNL     1     -11.265   8.694  72.144  1.00  0.00    -0.364 NA 
BRANCH  19  24
HETATM   24  O   UNL     1      -7.877  13.071  67.221  1.00  0.00    -0.171 OA 
BRANCH  24  25
HETATM   25  C   UNL     1      -6.960  14.068  67.568  1.00  0.00    -0.148 C  
HETATM   26  O   UNL     1      -5.774  14.113  67.268  1.00  0.00    -0.297 OA 
HETATM   27  C   UNL     1      -7.664  15.139  68.354  1.00  0.00    -0.118 C  
ENDBRANCH  24  25
ENDBRANCH  19  24
ENDBRANCH   4   5
ENDBRANCH   2   4
TORSDOF 4
ENDMDL
MODEL      102
REMARK 921   NORMALIZED FREE ENERGY PREDICTED BY IDOCK:   -1.76 KCAL/MOL
REMARK 922        TOTAL FREE ENERGY PREDICTED BY IDOCK:   -2.51 KCAL/MOL
REMARK 923 INTER-LIGAND FREE ENERGY PREDICTED BY IDOCK:   -2.26 KCAL/MOL
REMARK 924 INTRA-LIGAND FREE ENERGY PREDICTED BY IDOCK:   -0.26 KCAL/MOL
REMARK 927      BINDING AFFINITY PREDICTED BY RF-SCORE:    0.00 PKD
ROOT
HETATM    1  C   UNL     1      -8.768   5.000  71.136  1.00  0.00    -0.141 C  
HETATM    2  C   UNL     1      -9.259   6.236  71.832  1.00  0.00    -0.146 C  
HETATM    3  O   UNL     1      -8.859   6.607  72.928  1.00  0.00    -0.126 OA 
ENDROOT
BRANCH   2   4
HETATM    4  O   UNL     1     -10.224   6.852  71.032  1.00  0.00    -0.197 OA 
BRANCH   4   5
HETATM    5  C   UNL     1      -9.760   7.564  69.914  1.00  0.00    -0.171 A  
HETATM    6  C   UNL     1     -10.626   7.911  68.883  1.00  0.00    -0.165 A  
HETATM    7  C   UNL     1     -10.157   8.667  67.814  1.00  0.00    -0.266 A  
HETATM    8  C   UNL     1      -8.829   9.133  67.780  1.00  0.00    -0.125 A  
HETATM    9  C   UNL     1      -8.378   9.959  66.566  1.00  0.00    -0.125 C  
HETATM   10  C   UNL     1      -7.983   8.820  68.859  1.00  0.00    -0.105 A  
HETATM   11  C   UNL     1      -7.516   9.163  65.579  1.00  0.00    -0.089 A  
HETATM   12  C   UNL     1      -8.444   8.026  69.921  1.00  0.00    -0.126 A  
HETATM   13  C   UNL     1      -8.001  11.414  66.893  1.00  0.00    -0.158 A  
HETATM   14  C   UNL     1      -6.264   8.640  65.910  1.00  0.00    -0.056 A  
HETATM   15  C   UNL     1      -6.756  11.999  66.626  1.00  0.00     0.160 A  
HETATM   16  C   UNL     1      -5.574   7.870  64.972  1.00  0.00    -0.037 A  
HETATM   17  C   UNL     1      -6.538  13.368  66.866  1.00  0.00     1.045 A  
HETATM   18  C   UNL     1      -6.148   7.624  63.731  1.00  0.00    -0.053 A  
HETATM   19  C   UNL     1      -7.569  14.171  67.360  1.00  0.00    -0.158 A  
HETATM   20  C   UNL     1      -8.801  13.609  67.665  1.00  0.00    -0.194 A  
HETATM   21  C   UNL     1      -7.392   8.165  63.474  1.00  0.00    -0.106 A  
HETATM   22  C   UNL     1      -9.009  12.245  67.434  1.00  0.00    -0.183 A  
HETATM   23  N   UNL     1      -8.074   8.926  64.358  1.00  0.00    -0.145 NA 
BRANCH  19  24
HETATM   24  O   UNL     1      -7.265  15.527  67.620  1.00  0.00    -0.144 OA 
BRANCH  24  25
HETATM   25  C   UNL     1      -7.219  16.026  68.926  1.00  0.00    -0.168 C  
HETATM   26  O   UNL     1      -6.667  15.513  69.891  1.00  0.00    -0.169 OA 
HETATM   27  C   UNL     1      -7.931  17.349  68.977  1.00  0.00    -0.110 C  
ENDBRANCH  24  25
ENDBRANCH  19  24
ENDBRANCH   4   5
ENDBRANCH   2   4
TORSDOF 4
ENDMDL
MODEL      103
REMARK 921   NORMALIZED FREE ENERGY PREDICTED BY IDOCK:   -1.65 KCAL/MOL
REMARK 922        TOTAL FREE ENERGY PREDICTED BY IDOCK:   -2.38 KCAL/MOL
REMARK 923 INTER-LIGAND FREE ENERGY PREDICTED BY IDOCK:   -2.40 KCAL/MOL
REMARK 924 INTRA-LIGAND FREE ENERGY PREDICTED BY IDOCK:    0.02 KCAL/MOL
REMARK 927      BINDING AFFINITY PREDICTED BY RF-SCORE:    0.00 PKD
ROOT
HETATM    1  C   UNL     1      -5.494  17.777  69.063  1.00  0.00    -0.183 C  
HETATM    2  C   UNL     1      -6.904  17.789  69.576  1.00  0.00    -0.043 C  
HETATM    3  O   UNL     1      -7.608  18.790  69.618  1.00  0.00     0.124 OA 
ENDROOT
BRANCH   2   4
HETATM    4  O   UNL     1      -7.245  16.499  69.990  1.00  0.00     0.301 OA 
BRANCH   4   5
HETATM    5  C   UNL     1      -7.764  15.636  69.011  1.00  0.00    -0.199 A  
HETATM    6  C   UNL     1      -7.267  15.653  67.713  1.00  0.00    -0.175 A  
HETATM    7  C   UNL     1      -7.756  14.747  66.776  1.00  0.00     0.321 A  
HETATM    8  C   UNL     1      -8.710  13.776  67.133  1.00  0.00    -0.231 A  
HETATM    9  C   UNL     1      -9.208  12.811  66.046  1.00  0.00     0.024 C  
HETATM   10  C   UNL     1      -9.160  13.737  68.465  1.00  0.00    -0.133 A  
HETATM   11  C   UNL     1     -10.606  13.161  65.520  1.00  0.00    -0.288 A  
HETATM   12  C   UNL     1      -8.696  14.674  69.402  1.00  0.00     0.120 A  
HETATM   13  C   UNL     1      -8.841  11.338  66.289  1.00  0.00    -0.194 A  
HETATM   14  C   UNL     1     -11.750  13.131  66.319  1.00  0.00    -0.424 A  
HETATM   15  C   UNL     1      -9.763  10.286  66.384  1.00  0.00    -0.252 A  
HETATM   16  C   UNL     1     -12.974  13.529  65.778  1.00  0.00    -0.166 A  
HETATM   17  C   UNL     1      -9.326   8.955  66.504  1.00  0.00    -0.252 A  
HETATM   18  C   UNL     1     -13.032  13.961  64.459  1.00  0.00     0.253 A  
HETATM   19  C   UNL     1      -7.962   8.658  66.513  1.00  0.00    -0.099 A  
HETATM   20  C   UNL     1      -7.027   9.683  66.453  1.00  0.00    -0.088 A  
HETATM   21  C   UNL     1     -11.860  13.974  63.729  1.00  0.00    -0.125 A  
HETATM   22  C   UNL     1      -7.467  11.007  66.345  1.00  0.00    -0.131 A  
HETATM   23  N   UNL     1     -10.666  13.580  64.224  1.00  0.00    -0.376 NA 
BRANCH  19  24
HETATM   24  O   UNL     1      -7.596   7.303  66.681  1.00  0.00    -0.089 OA 
BRANCH  24  25
HETATM   25  C   UNL     1      -6.296   6.939  67.049  1.00  0.00    -0.045 C  
HETATM   26  O   UNL     1      -5.379   6.629  66.300  1.00  0.00    -0.016 OA 
HETATM   27  C   UNL     1      -6.160   7.024  68.544  1.00  0.00    -0.030 C  
ENDBRANCH  24  25
ENDBRANCH  19  24
ENDBRANCH   4   5
ENDBRANCH   2   4
TORSDOF 4
ENDMDL
MODEL      104
REMARK 921   NORMALIZED FREE ENERGY PREDICTED BY IDOCK:   -1.58 KCAL/MOL
REMARK 922        TOTAL FREE ENERGY PREDICTED BY IDOCK:   -2.29 KCAL/MOL
REMARK 923 INTER-LIGAND FREE ENERGY PREDICTED BY IDOCK:   -3.58 KCAL/MOL
REMARK 924 INTRA-LIGAND FREE ENERGY PREDICTED BY IDOCK:    1.28 KCAL/MOL
REMARK 927      BINDING AFFINITY PREDICTED BY RF-SCORE:    0.00 PKD
ROOT
HETATM    1  C   UNL     1      -8.222   4.064  64.013  1.00  0.00    -0.092 C  
HETATM    2  C   UNL     1      -9.676   4.197  63.668  1.00  0.00    -0.117 C  
HETATM    3  O   UNL     1     -10.123   4.076  62.535  1.00  0.00    -0.153 OA 
ENDROOT
BRANCH   2   4
HETATM    4  O   UNL     1     -10.393   4.482  64.832  1.00  0.00    -0.117 OA 
BRANCH   4   5
HETATM    5  C   UNL     1      -9.814   5.399  65.725  1.00  0.00     0.022 A  
HETATM    6  C   UNL     1      -8.465   5.722  65.638  1.00  0.00    -0.149 A  
HETATM    7  C   UNL     1      -7.928   6.677  66.495  1.00  0.00    -0.106 A  
HETATM    8  C   UNL     1      -8.739   7.363  67.419  1.00  0.00    -0.121 A  
HETATM    9  C   UNL     1      -8.077   8.402  68.337  1.00  0.00    -0.123 C  
HETATM   10  C   UNL     1     -10.112   7.064  67.454  1.00  0.00    -0.252 A  
HETATM   11  C   UNL     1      -7.867   7.896  69.769  1.00  0.00    -0.104 A  
HETATM   12  C   UNL     1     -10.650   6.074  66.616  1.00  0.00    -0.312 A  
HETATM   13  C   UNL     1      -8.555   9.845  68.109  1.00  0.00    -0.118 A  
HETATM   14  C   UNL     1      -8.921   7.557  70.620  1.00  0.00    -0.154 A  
HETATM   15  C   UNL     1      -9.132  10.664  69.090  1.00  0.00    -0.152 A  
HETATM   16  C   UNL     1      -8.641   7.041  71.886  1.00  0.00    -0.122 A  
HETATM   17  C   UNL     1      -9.442  12.008  68.814  1.00  0.00     0.027 A  
HETATM   18  C   UNL     1      -7.319   6.862  72.276  1.00  0.00    -0.086 A  
HETATM   19  C   UNL     1      -9.164  12.553  67.559  1.00  0.00    -0.188 A  
HETATM   20  C   UNL     1      -8.624  11.756  66.559  1.00  0.00    -0.148 A  
HETATM   21  C   UNL     1      -6.327   7.211  71.381  1.00  0.00    -0.037 A  
HETATM   22  C   UNL     1      -8.327  10.417  66.835  1.00  0.00    -0.124 A  
HETATM   23  N   UNL     1      -6.571   7.725  70.156  1.00  0.00    -0.037 NA 
BRANCH  19  24
HETATM   24  O   UNL     1      -9.544  13.897  67.338  1.00  0.00    -0.224 OA 
BRANCH  24  25
HETATM   25  C   UNL     1      -8.627  14.850  66.883  1.00  0.00    -0.239 C  
HETATM   26  O   UNL     1      -8.746  15.578  65.906  1.00  0.00    -0.172 OA 
HETATM   27  C   UNL     1      -7.448  14.889  67.815  1.00  0.00    -0.179 C  
ENDBRANCH  24  25
ENDBRANCH  19  24
ENDBRANCH   4   5
ENDBRANCH   2   4
TORSDOF 4
ENDMDL
MODEL      105
REMARK 921   NORMALIZED FREE ENERGY PREDICTED BY IDOCK:   -1.48 KCAL/MOL
REMARK 922        TOTAL FREE ENERGY PREDICTED BY IDOCK:   -2.17 KCAL/MOL
REMARK 923 INTER-LIGAND FREE ENERGY PREDICTED BY IDOCK:   -2.75 KCAL/MOL
REMARK 924 INTRA-LIGAND FREE ENERGY PREDICTED BY IDOCK:    0.58 KCAL/MOL
REMARK 927      BINDING AFFINITY PREDICTED BY RF-SCORE:    0.00 PKD
ROOT
HETATM    1  C   UNL     1      -9.077  12.555  67.963  1.00  0.00    -0.200 C  
HETATM    2  C   UNL     1      -9.531  11.603  66.895  1.00  0.00    -0.185 C  
HETATM    3  O   UNL     1      -9.087  11.594  65.754  1.00  0.00    -0.201 OA 
ENDROOT
BRANCH   2   4
HETATM    4  O   UNL     1     -10.520  10.770  67.423  1.00  0.00    -0.199 OA 
BRANCH   4   5
HETATM    5  C   UNL     1     -10.123   9.479  67.807  1.00  0.00    -0.198 A  
HETATM    6  C   UNL     1     -11.029   8.424  67.798  1.00  0.00     0.095 A  
HETATM    7  C   UNL     1     -10.598   7.143  68.126  1.00  0.00    -0.241 A  
HETATM    8  C   UNL     1      -9.245   6.883  68.418  1.00  0.00    -0.124 A  
HETATM    9  C   UNL     1      -8.841   5.445  68.776  1.00  0.00    -0.107 C  
HETATM   10  C   UNL     1      -8.333   7.952  68.367  1.00  0.00    -0.124 A  
HETATM   11  C   UNL     1      -8.609   5.237  70.278  1.00  0.00    -0.121 A  
HETATM   12  C   UNL     1      -8.772   9.252  68.073  1.00  0.00    -0.125 A  
HETATM   13  C   UNL     1      -7.887   4.784  67.767  1.00  0.00    -0.086 A  
HETATM   14  C   UNL     1      -7.598   5.886  70.989  1.00  0.00    -0.096 A  
HETATM   15  C   UNL     1      -6.623   4.265  68.080  1.00  0.00    -0.042 A  
HETATM   16  C   UNL     1      -7.498   5.692  72.368  1.00  0.00    -0.097 A  
HETATM   17  C   UNL     1      -5.865   3.585  67.110  1.00  0.00    -0.023 A  
HETATM   18  C   UNL     1      -8.413   4.868  73.013  1.00  0.00    -0.107 A  
HETATM   19  C   UNL     1      -6.369   3.401  65.821  1.00  0.00    -0.032 A  
HETATM   20  C   UNL     1      -7.603   3.935  65.475  1.00  0.00    -0.082 A  
HETATM   21  C   UNL     1      -9.392   4.266  72.248  1.00  0.00    -0.124 A  
HETATM   22  C   UNL     1      -8.349   4.620  66.441  1.00  0.00    -0.106 A  
HETATM   23  N   UNL     1      -9.503   4.425  70.911  1.00  0.00    -0.157 NA 
BRANCH  19  24
HETATM   24  O   UNL     1      -5.533   2.749  64.886  1.00  0.00    -0.009 OA 
BRANCH  24  25
HETATM   25  C   UNL     1      -5.893   2.640  63.538  1.00  0.00    -0.010 C  
HETATM   26  O   UNL     1      -5.208   2.937  62.568  1.00  0.00    -0.004 OA 
HETATM   27  C   UNL     1      -7.269   2.045  63.438  1.00  0.00    -0.040 C  
ENDBRANCH  24  25
ENDBRANCH  19  24
ENDBRANCH   4   5
ENDBRANCH   2   4
TORSDOF 4
ENDMDL
MODEL      106
REMARK 921   NORMALIZED FREE ENERGY PREDICTED BY IDOCK:   -1.37 KCAL/MOL
REMARK 922        TOTAL FREE ENERGY PREDICTED BY IDOCK:   -2.03 KCAL/MOL
REMARK 923 INTER-LIGAND FREE ENERGY PREDICTED BY IDOCK:   -2.02 KCAL/MOL
REMARK 924 INTRA-LIGAND FREE ENERGY PREDICTED BY IDOCK:   -0.00 KCAL/MOL
REMARK 927      BINDING AFFINITY PREDICTED BY RF-SCORE:    0.00 PKD
ROOT
HETATM    1  C   UNL     1      -7.909   3.538  66.499  1.00  0.00    -0.084 C  
HETATM    2  C   UNL     1      -7.577   4.275  65.235  1.00  0.00    -0.085 C  
HETATM    3  O   UNL     1      -8.122   4.065  64.159  1.00  0.00    -0.088 OA 
ENDROOT
BRANCH   2   4
HETATM    4  O   UNL     1      -6.565   5.200  65.502  1.00  0.00    -0.039 OA 
BRANCH   4   5
HETATM    5  C   UNL     1      -6.962   6.442  66.022  1.00  0.00    -0.062 A  
HETATM    6  C   UNL     1      -7.556   7.397  65.205  1.00  0.00    -0.104 A  
HETATM    7  C   UNL     1      -7.995   8.597  65.754  1.00  0.00    -0.106 A  
HETATM    8  C   UNL     1      -7.895   8.844  67.137  1.00  0.00    -0.096 A  
HETATM    9  C   UNL     1      -8.395  10.194  67.673  1.00  0.00    -0.114 C  
HETATM   10  C   UNL     1      -7.342   7.844  67.956  1.00  0.00    -0.096 A  
HETATM   11  C   UNL     1      -7.262  11.173  68.000  1.00  0.00    -0.079 A  
HETATM   12  C   UNL     1      -6.865   6.647  67.398  1.00  0.00    -0.073 A  
HETATM   13  C   UNL     1      -9.600  10.090  68.623  1.00  0.00    -0.158 A  
HETATM   14  C   UNL     1      -6.309  10.933  68.991  1.00  0.00    -0.049 A  
HETATM   15  C   UNL     1      -9.627  10.572  69.940  1.00  0.00     0.144 A  
HETATM   16  C   UNL     1      -5.270  11.846  69.179  1.00  0.00    -0.051 A  
HETATM   17  C   UNL     1     -10.810  10.525  70.699  1.00  0.00     0.063 A  
HETATM   18  C   UNL     1      -5.192  12.973  68.369  1.00  0.00    -0.071 A  
HETATM   19  C   UNL     1     -11.985  10.012  70.144  1.00  0.00    -0.131 A  
HETATM   20  C   UNL     1     -11.977   9.498  68.854  1.00  0.00     1.127 A  
HETATM   21  C   UNL     1      -6.164  13.143  67.402  1.00  0.00    -0.035 A  
HETATM   22  C   UNL     1     -10.795   9.537  68.108  1.00  0.00    -0.208 A  
HETATM   23  N   UNL     1      -7.187  12.282  67.209  1.00  0.00    -0.148 NA 
BRANCH  19  24
HETATM   24  O   UNL     1     -13.124   9.955  70.980  1.00  0.00    -0.367 OA 
BRANCH  24  25
HETATM   25  C   UNL     1     -13.372   8.848  71.799  1.00  0.00    -0.386 C  
HETATM   26  O   UNL     1     -14.394   8.175  71.835  1.00  0.00    -0.425 OA 
HETATM   27  C   UNL     1     -12.153   8.561  72.629  1.00  0.00    -0.305 C  
ENDBRANCH  24  25
ENDBRANCH  19  24
ENDBRANCH   4   5
ENDBRANCH   2   4
TORSDOF 4
ENDMDL
MODEL      107
REMARK 921   NORMALIZED FREE ENERGY PREDICTED BY IDOCK:   -1.31 KCAL/MOL
REMARK 922        TOTAL FREE ENERGY PREDICTED BY IDOCK:   -1.95 KCAL/MOL
REMARK 923 INTER-LIGAND FREE ENERGY PREDICTED BY IDOCK:   -1.57 KCAL/MOL
REMARK 924 INTRA-LIGAND FREE ENERGY PREDICTED BY IDOCK:   -0.38 KCAL/MOL
REMARK 927      BINDING AFFINITY PREDICTED BY RF-SCORE:    0.00 PKD
ROOT
HETATM    1  C   UNL     1     -10.651  11.036  63.356  1.00  0.00    -0.249 C  
HETATM    2  C   UNL     1     -12.054  11.559  63.267  1.00  0.00     0.034 C  
HETATM    3  O   UNL     1     -13.052  10.851  63.318  1.00  0.00     1.311 OA 
ENDROOT
BRANCH   2   4
HETATM    4  O   UNL     1     -12.012  12.947  63.113  1.00  0.00    -0.529 OA 
BRANCH   4   5
HETATM    5  C   UNL     1     -11.513  13.690  64.196  1.00  0.00    -0.329 A  
HETATM    6  C   UNL     1     -12.224  13.775  65.387  1.00  0.00    -0.465 A  
HETATM    7  C   UNL     1     -11.682  14.467  66.465  1.00  0.00    -0.380 A  
HETATM    8  C   UNL     1     -10.400  15.044  66.389  1.00  0.00    -0.293 A  
HETATM    9  C   UNL     1      -9.866  15.798  67.616  1.00  0.00    -0.232 C  
HETATM   10  C   UNL     1      -9.672  14.900  65.194  1.00  0.00    -0.023 A  
HETATM   11  C   UNL     1      -9.932  17.323  67.465  1.00  0.00    -0.296 A  
HETATM   12  C   UNL     1     -10.232  14.233  64.093  1.00  0.00     1.125 A  
HETATM   13  C   UNL     1      -8.629  15.157  68.266  1.00  0.00    -0.164 A  
HETATM   14  C   UNL     1      -9.207  18.024  66.499  1.00  0.00    -0.286 A  
HETATM   15  C   UNL     1      -7.397  15.800  68.452  1.00  0.00    -0.117 A  
HETATM   16  C   UNL     1      -9.376  19.405  66.386  1.00  0.00    -0.419 A  
HETATM   17  C   UNL     1      -6.354  15.166  69.151  1.00  0.00    -0.109 A  
HETATM   18  C   UNL     1     -10.270  20.059  67.226  1.00  0.00    -0.565 A  
HETATM   19  C   UNL     1      -6.537  13.890  69.688  1.00  0.00    -0.082 A  
HETATM   20  C   UNL     1      -7.735  13.218  69.489  1.00  0.00     0.737 A  
HETATM   21  C   UNL     1     -10.960  19.301  68.152  1.00  0.00     0.207 A  
HETATM   22  C   UNL     1      -8.766  13.848  68.783  1.00  0.00     0.006 A  
HETATM   23  N   UNL     1     -10.805  17.966  68.292  1.00  0.00    -0.221 NA 
BRANCH  19  24
HETATM   24  O   UNL     1      -5.431  13.297  70.339  1.00  0.00    -0.117 OA 
BRANCH  24  25
HETATM   25  C   UNL     1      -5.520  12.840  71.658  1.00  0.00     0.081 C  
HETATM   26  O   UNL     1      -5.778  11.701  72.025  1.00  0.00     0.035 OA 
HETATM   27  C   UNL     1      -5.201  13.969  72.598  1.00  0.00    -0.232 C  
ENDBRANCH  24  25
ENDBRANCH  19  24
ENDBRANCH   4   5
ENDBRANCH   2   4
TORSDOF 4
ENDMDL
MODEL      108
REMARK 921   NORMALIZED FREE ENERGY PREDICTED BY IDOCK:   -0.75 KCAL/MOL
REMARK 922        TOTAL FREE ENERGY PREDICTED BY IDOCK:   -1.26 KCAL/MOL
REMARK 923 INTER-LIGAND FREE ENERGY PREDICTED BY IDOCK:   -1.01 KCAL/MOL
REMARK 924 INTRA-LIGAND FREE ENERGY PREDICTED BY IDOCK:   -0.25 KCAL/MOL
REMARK 927      BINDING AFFINITY PREDICTED BY RF-SCORE:    0.00 PKD
ROOT
HETATM    1  C   UNL     1     -14.117  15.167  72.429  1.00  0.00    -0.593 C  
HETATM    2  C   UNL     1     -13.621  13.768  72.210  1.00  0.00    -0.559 C  
HETATM    3  O   UNL     1     -13.054  13.102  73.067  1.00  0.00    -0.211 OA 
ENDROOT
BRANCH   2   4
HETATM    4  O   UNL     1     -13.907  13.387  70.897  1.00  0.00     0.349 OA 
BRANCH   4   5
HETATM    5  C   UNL     1     -12.853  12.832  70.154  1.00  0.00     0.412 A  
HETATM    6  C   UNL     1     -11.616  13.464  70.093  1.00  0.00    -0.171 A  
HETATM    7  C   UNL     1     -10.570  12.864  69.399  1.00  0.00     0.240 A  
HETATM    8  C   UNL     1     -10.724  11.600  68.798  1.00  0.00    -0.254 A  
HETATM    9  C   UNL     1      -9.528  11.001  68.045  1.00  0.00    -0.169 C  
HETATM   10  C   UNL     1     -11.966  10.951  68.918  1.00  0.00    -0.277 A  
HETATM   11  C   UNL     1      -9.659  11.104  66.521  1.00  0.00    -0.197 A  
HETATM   12  C   UNL     1     -13.034  11.570  69.586  1.00  0.00     0.728 A  
HETATM   13  C   UNL     1      -8.967   9.712  68.669  1.00  0.00    -0.129 A  
HETATM   14  C   UNL     1     -10.663  10.457  65.797  1.00  0.00    -0.010 A  
HETATM   15  C   UNL     1      -8.856   8.482  68.005  1.00  0.00    -0.142 A  
HETATM   16  C   UNL     1     -10.751  10.658  64.419  1.00  0.00     0.047 A  
HETATM   17  C   UNL     1      -8.233   7.384  68.625  1.00  0.00    -0.125 A  
HETATM   18  C   UNL     1      -9.848  11.506  63.790  1.00  0.00    -0.348 A  
HETATM   19  C   UNL     1      -7.698   7.508  69.909  1.00  0.00    -0.098 A  
HETATM   20  C   UNL     1      -7.824   8.705  70.601  1.00  0.00    -0.101 A  
HETATM   21  C   UNL     1      -8.887  12.120  64.568  1.00  0.00     1.121 A  
HETATM   22  C   UNL     1      -8.454   9.791  69.984  1.00  0.00    -0.229 A  
HETATM   23  N   UNL     1      -8.770  11.932  65.901  1.00  0.00     0.039 NA 
BRANCH  19  24
HETATM   24  O   UNL     1      -7.128   6.351  70.487  1.00  0.00    -0.062 OA 
BRANCH  24  25
HETATM   25  C   UNL     1      -7.921   5.273  70.896  1.00  0.00    -0.099 C  
HETATM   26  O   UNL     1      -8.495   5.149  71.970  1.00  0.00    -0.122 OA 
HETATM   27  C   UNL     1      -8.009   4.270  69.780  1.00  0.00    -0.056 C  
ENDBRANCH  24  25
ENDBRANCH  19  24
ENDBRANCH   4   5
ENDBRANCH   2   4
TORSDOF 4
ENDMDL
MODEL      109
REMARK 921   NORMALIZED FREE ENERGY PREDICTED BY IDOCK:   -0.46 KCAL/MOL
REMARK 922        TOTAL FREE ENERGY PREDICTED BY IDOCK:   -0.91 KCAL/MOL
REMARK 923 INTER-LIGAND FREE ENERGY PREDICTED BY IDOCK:   -2.89 KCAL/MOL
REMARK 924 INTRA-LIGAND FREE ENERGY PREDICTED BY IDOCK:    1.98 KCAL/MOL
REMARK 927      BINDING AFFINITY PREDICTED BY RF-SCORE:    0.00 PKD
ROOT
HETATM    1  C   UNL     1      -8.489   4.326  70.945  1.00  0.00    -0.103 C  
HETATM    2  C   UNL     1      -9.933   4.472  71.328  1.00  0.00    -0.188 C  
HETATM    3  O   UNL     1     -10.351   4.354  72.473  1.00  0.00    -0.185 OA 
ENDROOT
BRANCH   2   4
HETATM    4  O   UNL     1     -10.680   4.748  70.181  1.00  0.00     0.032 OA 
BRANCH   4   5
HETATM    5  C   UNL     1      -9.989   5.300  69.091  1.00  0.00    -0.205 A  
HETATM    6  C   UNL     1     -10.670   5.709  67.950  1.00  0.00    -0.241 A  
HETATM    7  C   UNL     1      -9.970   6.307  66.908  1.00  0.00    -0.215 A  
HETATM    8  C   UNL     1      -8.587   6.554  67.006  1.00  0.00    -0.113 A  
HETATM    9  C   UNL     1      -7.879   7.214  65.814  1.00  0.00    -0.109 C  
HETATM   10  C   UNL     1      -7.925   6.183  68.190  1.00  0.00    -0.107 A  
HETATM   11  C   UNL     1      -7.060   6.226  64.974  1.00  0.00    -0.060 A  
HETATM   12  C   UNL     1      -8.622   5.546  69.229  1.00  0.00    -0.104 A  
HETATM   13  C   UNL     1      -7.304   8.609  66.111  1.00  0.00    -0.085 A  
HETATM   14  C   UNL     1      -5.955   5.534  65.474  1.00  0.00    -0.025 A  
HETATM   15  C   UNL     1      -5.958   8.970  65.962  1.00  0.00    -0.051 A  
HETATM   16  C   UNL     1      -5.305   4.603  64.662  1.00  0.00    -0.013 A  
HETATM   17  C   UNL     1      -5.544  10.300  66.158  1.00  0.00    -0.065 A  
HETATM   18  C   UNL     1      -5.775   4.368  63.376  1.00  0.00    -0.017 A  
HETATM   19  C   UNL     1      -6.475  11.287  66.489  1.00  0.00    -0.111 A  
HETATM   20  C   UNL     1      -7.808  10.950  66.675  1.00  0.00    -0.145 A  
HETATM   21  C   UNL     1      -6.878   5.081  62.950  1.00  0.00    -0.030 A  
HETATM   22  C   UNL     1      -8.213   9.624  66.489  1.00  0.00    -0.119 A  
HETATM   23  N   UNL     1      -7.516   5.999  63.709  1.00  0.00    -0.067 NA 
BRANCH  19  24
HETATM   24  O   UNL     1      -5.980  12.592  66.716  1.00  0.00    -0.164 OA 
BRANCH  24  25
HETATM   25  C   UNL     1      -6.214  13.261  67.922  1.00  0.00    -0.144 C  
HETATM   26  O   UNL     1      -6.095  12.805  69.051  1.00  0.00    -0.077 OA 
HETATM   27  C   UNL     1      -6.608  14.683  67.633  1.00  0.00    -0.177 C  
ENDBRANCH  24  25
ENDBRANCH  19  24
ENDBRANCH   4   5
ENDBRANCH   2   4
TORSDOF 4
ENDMDL
MODEL      110
REMARK 921   NORMALIZED FREE ENERGY PREDICTED BY IDOCK:   -0.35 KCAL/MOL
REMARK 922        TOTAL FREE ENERGY PREDICTED BY IDOCK:   -0.77 KCAL/MOL
REMARK 923 INTER-LIGAND FREE ENERGY PREDICTED BY IDOCK:   -1.14 KCAL/MOL
REMARK 924 INTRA-LIGAND FREE ENERGY PREDICTED BY IDOCK:    0.37 KCAL/MOL
REMARK 927      BINDING AFFINITY PREDICTED BY RF-SCORE:    0.00 PKD
ROOT
HETATM    1  C   UNL     1      -5.213  18.601  71.865  1.00  0.00     0.008 C  
HETATM    2  C   UNL     1      -5.773  19.980  72.052  1.00  0.00    -0.225 C  
HETATM    3  O   UNL     1      -6.356  20.349  73.064  1.00  0.00     1.503 OA 
ENDROOT
BRANCH   2   4
HETATM    4  O   UNL     1      -5.522  20.731  70.902  1.00  0.00    -0.502 OA 
BRANCH   4   5
HETATM    5  C   UNL     1      -5.867  20.144  69.674  1.00  0.00    -0.330 A  
HETATM    6  C   UNL     1      -5.127  19.085  69.160  1.00  0.00    -0.189 A  
HETATM    7  C   UNL     1      -5.523  18.480  67.971  1.00  0.00    -0.169 A  
HETATM    8  C   UNL     1      -6.692  18.889  67.301  1.00  0.00    -0.209 A  
HETATM    9  C   UNL     1      -7.066  18.181  65.991  1.00  0.00    -0.318 C  
HETATM   10  C   UNL     1      -7.458  19.925  67.865  1.00  0.00    -0.328 A  
HETATM   11  C   UNL     1      -6.750  19.012  64.742  1.00  0.00     0.334 A  
HETATM   12  C   UNL     1      -7.040  20.561  69.045  1.00  0.00     0.164 A  
HETATM   13  C   UNL     1      -8.380  17.383  66.054  1.00  0.00    -0.141 A  
HETATM   14  C   UNL     1      -7.366  20.233  64.463  1.00  0.00     0.713 A  
HETATM   15  C   UNL     1      -9.483  17.588  65.213  1.00  0.00     1.408 A  
HETATM   16  C   UNL     1      -6.971  20.958  63.337  1.00  0.00     0.415 A  
HETATM   17  C   UNL     1     -10.602  16.738  65.277  1.00  0.00    -0.185 A  
HETATM   18  C   UNL     1      -5.963  20.462  62.520  1.00  0.00    -0.211 A  
HETATM   19  C   UNL     1     -10.625  15.665  66.170  1.00  0.00    -0.320 A  
HETATM   20  C   UNL     1      -9.560  15.461  67.037  1.00  0.00    -0.227 A  
HETATM   21  C   UNL     1      -5.391  19.252  62.860  1.00  0.00    -0.316 A  
HETATM   22  C   UNL     1      -8.453  16.315  66.977  1.00  0.00    -0.232 A  
HETATM   23  N   UNL     1      -5.765  18.523  63.935  1.00  0.00    -0.043 NA 
BRANCH  19  24
HETATM   24  O   UNL     1     -11.801  14.882  66.211  1.00  0.00    -0.264 OA 
BRANCH  24  25
HETATM   25  C   UNL     1     -12.024  13.852  65.291  1.00  0.00    -0.375 C  
HETATM   26  O   UNL     1     -12.391  13.971  64.129  1.00  0.00    -0.620 OA 
HETATM   27  C   UNL     1     -11.698  12.533  65.933  1.00  0.00    -0.480 C  
ENDBRANCH  24  25
ENDBRANCH  19  24
ENDBRANCH   4   5
ENDBRANCH   2   4
TORSDOF 4
ENDMDL
MODEL      111
REMARK 921   NORMALIZED FREE ENERGY PREDICTED BY IDOCK:    0.15 KCAL/MOL
REMARK 922        TOTAL FREE ENERGY PREDICTED BY IDOCK:   -0.16 KCAL/MOL
REMARK 923 INTER-LIGAND FREE ENERGY PREDICTED BY IDOCK:   -0.05 KCAL/MOL
REMARK 924 INTRA-LIGAND FREE ENERGY PREDICTED BY IDOCK:   -0.10 KCAL/MOL
REMARK 927      BINDING AFFINITY PREDICTED BY RF-SCORE:    0.00 PKD
ROOT
HETATM    1  C   UNL     1      -8.363   6.709  72.413  1.00  0.00    -0.106 C  
HETATM    2  C   UNL     1      -8.237   6.707  70.918  1.00  0.00    -0.124 C  
HETATM    3  O   UNL     1      -7.185   6.512  70.322  1.00  0.00    -0.075 OA 
ENDROOT
BRANCH   2   4
HETATM    4  O   UNL     1      -9.489   6.969  70.357  1.00  0.00    -0.162 OA 
BRANCH   4   5
HETATM    5  C   UNL     1      -9.850   8.319  70.214  1.00  0.00    -0.184 A  
HETATM    6  C   UNL     1      -8.937   9.332  70.486  1.00  0.00    -0.296 A  
HETATM    7  C   UNL     1      -9.299  10.659  70.279  1.00  0.00     1.035 A  
HETATM    8  C   UNL     1     -10.560  10.995  69.750  1.00  0.00    -0.055 A  
HETATM    9  C   UNL     1     -10.893  12.482  69.554  1.00  0.00     0.134 C  
HETATM   10  C   UNL     1     -11.449   9.955  69.429  1.00  0.00    -0.079 A  
HETATM   11  C   UNL     1     -11.836  13.038  70.628  1.00  0.00     0.019 A  
HETATM   12  C   UNL     1     -11.100   8.616  69.671  1.00  0.00    -0.023 A  
HETATM   13  C   UNL     1     -11.093  12.898  68.087  1.00  0.00    -0.282 A  
HETATM   14  C   UNL     1     -13.145  12.586  70.801  1.00  0.00     0.175 A  
HETATM   15  C   UNL     1     -12.255  13.490  67.572  1.00  0.00    -0.247 A  
HETATM   16  C   UNL     1     -13.914  13.099  71.848  1.00  0.00    -0.119 A  
HETATM   17  C   UNL     1     -12.306  13.932  66.238  1.00  0.00    -0.489 A  
HETATM   18  C   UNL     1     -13.361  14.041  72.707  1.00  0.00    -0.603 A  
HETATM   19  C   UNL     1     -11.190  13.802  65.408  1.00  0.00    -0.302 A  
HETATM   20  C   UNL     1     -10.039  13.189  65.883  1.00  0.00    -0.292 A  
HETATM   21  C   UNL     1     -12.058  14.436  72.482  1.00  0.00     0.038 A  
HETATM   22  C   UNL     1      -9.997  12.741  67.207  1.00  0.00    -0.219 A  
HETATM   23  N   UNL     1     -11.297  13.966  71.469  1.00  0.00     1.190 NA 
BRANCH  19  24
HETATM   24  O   UNL     1     -11.329  14.227  64.066  1.00  0.00    -0.141 OA 
BRANCH  24  25
HETATM   25  C   UNL     1     -11.915  13.405  63.098  1.00  0.00    -0.025 C  
HETATM   26  O   UNL     1     -12.988  13.581  62.536  1.00  0.00     0.365 OA 
HETATM   27  C   UNL     1     -10.995  12.254  62.800  1.00  0.00     0.813 C  
ENDBRANCH  24  25
ENDBRANCH  19  24
ENDBRANCH   4   5
ENDBRANCH   2   4
TORSDOF 4
ENDMDL
MODEL      112
REMARK 921   NORMALIZED FREE ENERGY PREDICTED BY IDOCK:    0.17 KCAL/MOL
REMARK 922        TOTAL FREE ENERGY PREDICTED BY IDOCK:   -0.13 KCAL/MOL
REMARK 923 INTER-LIGAND FREE ENERGY PREDICTED BY IDOCK:   -0.00 KCAL/MOL
REMARK 924 INTRA-LIGAND FREE ENERGY PREDICTED BY IDOCK:   -0.12 KCAL/MOL
REMARK 927      BINDING AFFINITY PREDICTED BY RF-SCORE:    0.00 PKD
ROOT
HETATM    1  C   UNL     1     -11.279   3.082  65.199  1.00  0.00     2.544 C  
HETATM    2  C   UNL     1     -10.603   4.349  65.636  1.00  0.00    -0.144 C  
HETATM    3  O   UNL     1      -9.738   4.921  64.985  1.00  0.00    -0.073 OA 
ENDROOT
BRANCH   2   4
HETATM    4  O   UNL     1     -11.117   4.731  66.877  1.00  0.00     0.475 OA 
BRANCH   4   5
HETATM    5  C   UNL     1     -10.290   5.524  67.688  1.00  0.00    -0.200 A  
HETATM    6  C   UNL     1      -8.953   5.195  67.879  1.00  0.00    -0.115 A  
HETATM    7  C   UNL     1      -8.139   6.028  68.638  1.00  0.00    -0.107 A  
HETATM    8  C   UNL     1      -8.632   7.231  69.179  1.00  0.00    -0.133 A  
HETATM    9  C   UNL     1      -7.678   8.100  70.012  1.00  0.00    -0.086 C  
HETATM   10  C   UNL     1      -9.972   7.576  68.929  1.00  0.00    -0.168 A  
HETATM   11  C   UNL     1      -7.923   7.992  71.522  1.00  0.00    -0.105 A  
HETATM   12  C   UNL     1     -10.806   6.718  68.194  1.00  0.00    -0.296 A  
HETATM   13  C   UNL     1      -7.370   9.474  69.394  1.00  0.00    -0.084 A  
HETATM   14  C   UNL     1      -9.110   8.401  72.132  1.00  0.00    -0.309 A  
HETATM   15  C   UNL     1      -7.604  10.706  70.022  1.00  0.00     0.159 A  
HETATM   16  C   UNL     1      -9.277   8.205  73.504  1.00  0.00    -0.257 A  
HETATM   17  C   UNL     1      -7.193  11.909  69.420  1.00  0.00     0.114 A  
HETATM   18  C   UNL     1      -8.267   7.596  74.239  1.00  0.00    -0.264 A  
HETATM   19  C   UNL     1      -6.528  11.893  68.192  1.00  0.00    -0.052 A  
HETATM   20  C   UNL     1      -6.314  10.690  67.534  1.00  0.00    -0.057 A  
HETATM   21  C   UNL     1      -7.123   7.209  73.568  1.00  0.00    -0.072 A  
HETATM   22  C   UNL     1      -6.734   9.497  68.131  1.00  0.00    -0.062 A  
HETATM   23  N   UNL     1      -6.930   7.399  72.245  1.00  0.00    -0.062 NA 
BRANCH  19  24
HETATM   24  O   UNL     1      -6.185  13.142  67.626  1.00  0.00    -0.143 OA 
BRANCH  24  25
HETATM   25  C   UNL     1      -7.114  14.184  67.540  1.00  0.00    -0.163 C  
HETATM   26  O   UNL     1      -8.273  14.106  67.152  1.00  0.00    -0.192 OA 
HETATM   27  C   UNL     1      -6.487  15.453  68.046  1.00  0.00    -0.148 C  
ENDBRANCH  24  25
ENDBRANCH  19  24
ENDBRANCH   4   5
ENDBRANCH   2   4
TORSDOF 4
ENDMDL
MODEL      113
REMARK 921   NORMALIZED FREE ENERGY PREDICTED BY IDOCK:    1.44 KCAL/MOL
REMARK 922        TOTAL FREE ENERGY PREDICTED BY IDOCK:    1.44 KCAL/MOL
REMARK 923 INTER-LIGAND FREE ENERGY PREDICTED BY IDOCK:    1.05 KCAL/MOL
REMARK 924 INTRA-LIGAND FREE ENERGY PREDICTED BY IDOCK:    0.39 KCAL/MOL
REMARK 927      BINDING AFFINITY PREDICTED BY RF-SCORE:    0.00 PKD
ROOT
HETATM    1  C   UNL     1      -7.502   7.368  63.642  1.00  0.00    -0.104 C  
HETATM    2  C   UNL     1      -6.467   6.325  63.944  1.00  0.00    -0.030 C  
HETATM    3  O   UNL     1      -6.411   5.237  63.385  1.00  0.00    -0.021 OA 
ENDROOT
BRANCH   2   4
HETATM    4  O   UNL     1      -5.622   6.803  64.948  1.00  0.00    -0.029 OA 
BRANCH   4   5
HETATM    5  C   UNL     1      -5.955   8.040  65.521  1.00  0.00    -0.038 A  
HETATM    6  C   UNL     1      -5.325   9.209  65.108  1.00  0.00    -0.041 A  
HETATM    7  C   UNL     1      -5.714  10.430  65.649  1.00  0.00    -0.105 A  
HETATM    8  C   UNL     1      -6.773  10.512  66.574  1.00  0.00    -0.105 A  
HETATM    9  C   UNL     1      -7.145  11.893  67.133  1.00  0.00    -0.142 C  
HETATM   10  C   UNL     1      -7.435   9.326  66.938  1.00  0.00    -0.091 A  
HETATM   11  C   UNL     1      -6.640  12.123  68.563  1.00  0.00    -0.063 A  
HETATM   12  C   UNL     1      -7.020   8.088  66.422  1.00  0.00    -0.070 A  
HETATM   13  C   UNL     1      -8.551  12.377  66.743  1.00  0.00    -0.129 A  
HETATM   14  C   UNL     1      -7.074  11.368  69.655  1.00  0.00     0.033 A  
HETATM   15  C   UNL     1      -9.559  12.729  67.652  1.00  0.00    -0.192 A  
HETATM   16  C   UNL     1      -6.513  11.599  70.912  1.00  0.00     1.178 A  
HETATM   17  C   UNL     1     -10.781  13.260  67.201  1.00  0.00    -0.264 A  
HETATM   18  C   UNL     1      -5.524  12.564  71.056  1.00  0.00    -0.132 A  
HETATM   19  C   UNL     1     -11.002  13.463  65.837  1.00  0.00    -0.274 A  
HETATM   20  C   UNL     1     -10.033  13.091  64.914  1.00  0.00    -0.151 A  
HETATM   21  C   UNL     1      -5.137  13.267  69.932  1.00  0.00    -0.084 A  
HETATM   22  C   UNL     1      -8.824  12.553  65.367  1.00  0.00     0.865 A  
HETATM   23  N   UNL     1      -5.674  13.074  68.707  1.00  0.00    -0.070 NA 
BRANCH  19  24
HETATM   24  O   UNL     1     -12.269  13.958  65.453  1.00  0.00    -0.393 OA 
BRANCH  24  25
HETATM   25  C   UNL     1     -12.989  13.383  64.400  1.00  0.00     0.246 C  
HETATM   26  O   UNL     1     -13.623  12.336  64.428  1.00  0.00    -0.479 OA 
HETATM   27  C   UNL     1     -12.908  14.278  63.196  1.00  0.00     1.738 C  
ENDBRANCH  24  25
ENDBRANCH  19  24
ENDBRANCH   4   5
ENDBRANCH   2   4
TORSDOF 4
ENDMDL
MODEL      114
REMARK 921   NORMALIZED FREE ENERGY PREDICTED BY IDOCK:    1.65 KCAL/MOL
REMARK 922        TOTAL FREE ENERGY PREDICTED BY IDOCK:    1.69 KCAL/MOL
REMARK 923 INTER-LIGAND FREE ENERGY PREDICTED BY IDOCK:    0.94 KCAL/MOL
REMARK 924 INTRA-LIGAND FREE ENERGY PREDICTED BY IDOCK:    0.75 KCAL/MOL
REMARK 927      BINDING AFFINITY PREDICTED BY RF-SCORE:    0.00 PKD
ROOT
HETATM    1  C   UNL     1      -8.423   7.760  64.420  1.00  0.00     0.128 C  
HETATM    2  C   UNL     1      -8.058   7.094  65.714  1.00  0.00    -0.130 C  
HETATM    3  O   UNL     1      -8.407   5.961  66.021  1.00  0.00    -0.118 OA 
ENDROOT
BRANCH   2   4
HETATM    4  O   UNL     1      -7.288   7.976  66.475  1.00  0.00    -0.081 OA 
BRANCH   4   5
HETATM    5  C   UNL     1      -7.974   9.000  67.148  1.00  0.00    -0.102 A  
HETATM    6  C   UNL     1      -7.480   9.526  68.335  1.00  0.00    -0.077 A  
HETATM    7  C   UNL     1      -8.146  10.580  68.952  1.00  0.00    -0.138 A  
HETATM    8  C   UNL     1      -9.288  11.161  68.367  1.00  0.00    -0.185 A  
HETATM    9  C   UNL     1      -9.975  12.319  69.106  1.00  0.00     0.313 C  
HETATM   10  C   UNL     1      -9.741  10.652  67.137  1.00  0.00    -0.199 A  
HETATM   11  C   UNL     1     -11.263  11.898  69.824  1.00  0.00    -0.057 A  
HETATM   12  C   UNL     1      -9.092   9.564  66.532  1.00  0.00    -0.185 A  
HETATM   13  C   UNL     1      -9.932  13.662  68.359  1.00  0.00    -0.235 A  
HETATM   14  C   UNL     1     -12.391  11.426  69.152  1.00  0.00    -0.097 A  
HETATM   15  C   UNL     1     -11.058  14.412  67.991  1.00  0.00    -0.287 A  
HETATM   16  C   UNL     1     -13.499  11.001  69.887  1.00  0.00     1.353 A  
HETATM   17  C   UNL     1     -10.916  15.681  67.402  1.00  0.00    -0.293 A  
HETATM   18  C   UNL     1     -13.458  11.043  71.275  1.00  0.00     0.112 A  
HETATM   19  C   UNL     1      -9.647  16.223  67.190  1.00  0.00    -0.233 A  
HETATM   20  C   UNL     1      -8.515  15.487  67.514  1.00  0.00    -0.188 A  
HETATM   21  C   UNL     1     -12.307  11.514  71.875  1.00  0.00     0.447 A  
HETATM   22  C   UNL     1      -8.661  14.221  68.090  1.00  0.00    -0.172 A  
HETATM   23  N   UNL     1     -11.227  11.944  71.187  1.00  0.00     2.075 NA 
BRANCH  19  24
HETATM   24  O   UNL     1      -9.579  17.483  66.552  1.00  0.00    -0.266 OA 
BRANCH  24  25
HETATM   25  C   UNL     1     -10.581  18.443  66.727  1.00  0.00    -0.333 C  
HETATM   26  O   UNL     1     -11.436  18.463  67.603  1.00  0.00     0.299 OA 
HETATM   27  C   UNL     1     -10.435  19.510  65.678  1.00  0.00    -0.412 C  
ENDBRANCH  24  25
ENDBRANCH  19  24
ENDBRANCH   4   5
ENDBRANCH   2   4
TORSDOF 4
ENDMDL
MODEL      115
REMARK 921   NORMALIZED FREE ENERGY PREDICTED BY IDOCK:    2.53 KCAL/MOL
REMARK 922        TOTAL FREE ENERGY PREDICTED BY IDOCK:    2.79 KCAL/MOL
REMARK 923 INTER-LIGAND FREE ENERGY PREDICTED BY IDOCK:    2.75 KCAL/MOL
REMARK 924 INTRA-LIGAND FREE ENERGY PREDICTED BY IDOCK:    0.03 KCAL/MOL
REMARK 927      BINDING AFFINITY PREDICTED BY RF-SCORE:    0.00 PKD
ROOT
HETATM    1  C   UNL     1      -8.715  18.857  65.654  1.00  0.00     0.651 C  
HETATM    2  C   UNL     1      -8.807  19.481  67.015  1.00  0.00    -0.306 C  
HETATM    3  O   UNL     1      -9.267  20.596  67.226  1.00  0.00    -0.384 OA 
ENDROOT
BRANCH   2   4
HETATM    4  O   UNL     1      -8.281  18.593  67.957  1.00  0.00    -0.260 OA 
BRANCH   4   5
HETATM    5  C   UNL     1      -8.596  17.235  67.792  1.00  0.00    -0.225 A  
HETATM    6  C   UNL     1      -7.635  16.252  67.995  1.00  0.00    -0.143 A  
HETATM    7  C   UNL     1      -7.986  14.911  67.885  1.00  0.00    -0.145 A  
HETATM    8  C   UNL     1      -9.315  14.526  67.620  1.00  0.00    -0.202 A  
HETATM    9  C   UNL     1      -9.630  13.027  67.507  1.00  0.00    -0.204 C  
HETATM   10  C   UNL     1     -10.285  15.533  67.473  1.00  0.00    -0.254 A  
HETATM   11  C   UNL     1      -9.812  12.555  66.059  1.00  0.00    -0.257 A  
HETATM   12  C   UNL     1      -9.926  16.888  67.548  1.00  0.00    -0.268 A  
HETATM   13  C   UNL     1     -10.572  12.493  68.599  1.00  0.00    -0.240 A  
HETATM   14  C   UNL     1     -10.839  13.013  65.232  1.00  0.00    -0.311 A  
HETATM   15  C   UNL     1     -11.797  11.855  68.360  1.00  0.00    -0.352 A  
HETATM   16  C   UNL     1     -10.893  12.582  63.905  1.00  0.00    -0.472 A  
HETATM   17  C   UNL     1     -12.541  11.306  69.420  1.00  0.00     0.115 A  
HETATM   18  C   UNL     1      -9.918  11.715  63.425  1.00  0.00    -0.447 A  
HETATM   19  C   UNL     1     -12.061  11.374  70.729  1.00  0.00    -0.332 A  
HETATM   20  C   UNL     1     -10.867  12.030  70.997  1.00  0.00     3.665 A  
HETATM   21  C   UNL     1      -8.927  11.310  64.296  1.00  0.00     0.114 A  
HETATM   22  C   UNL     1     -10.136  12.583  69.941  1.00  0.00     1.892 A  
HETATM   23  N   UNL     1      -8.860  11.700  65.588  1.00  0.00    -0.033 NA 
BRANCH  19  24
HETATM   24  O   UNL     1     -12.883  10.842  71.748  1.00  0.00    -0.431 OA 
BRANCH  24  25
HETATM   25  C   UNL     1     -12.524   9.684  72.445  1.00  0.00    -0.040 C  
HETATM   26  O   UNL     1     -11.562   9.542  73.190  1.00  0.00     2.066 OA 
HETATM   27  C   UNL     1     -13.539   8.608  72.178  1.00  0.00    -0.447 C  
ENDBRANCH  24  25
ENDBRANCH  19  24
ENDBRANCH   4   5
ENDBRANCH   2   4
TORSDOF 4
ENDMDL
MODEL      116
REMARK 921   NORMALIZED FREE ENERGY PREDICTED BY IDOCK:    2.68 KCAL/MOL
REMARK 922        TOTAL FREE ENERGY PREDICTED BY IDOCK:    2.96 KCAL/MOL
REMARK 923 INTER-LIGAND FREE ENERGY PREDICTED BY IDOCK:    1.49 KCAL/MOL
REMARK 924 INTRA-LIGAND FREE ENERGY PREDICTED BY IDOCK:    1.47 KCAL/MOL
REMARK 927      BINDING AFFINITY PREDICTED BY RF-SCORE:    0.00 PKD
ROOT
HETATM    1  C   UNL     1      -8.806  11.423  63.472  1.00  0.00     0.164 C  
HETATM    2  C   UNL     1      -7.336  11.130  63.390  1.00  0.00     0.870 C  
HETATM    3  O   UNL     1      -6.701  11.110  62.343  1.00  0.00    -0.002 OA 
ENDROOT
BRANCH   2   4
HETATM    4  O   UNL     1      -6.851  10.887  64.677  1.00  0.00     0.229 OA 
BRANCH   4   5
HETATM    5  C   UNL     1      -7.802  10.607  65.671  1.00  0.00    -0.123 A  
HETATM    6  C   UNL     1      -9.050  10.092  65.337  1.00  0.00    -0.227 A  
HETATM    7  C   UNL     1      -9.953   9.768  66.344  1.00  0.00    -0.314 A  
HETATM    8  C   UNL     1      -9.609   9.904  67.702  1.00  0.00    -0.172 A  
HETATM    9  C   UNL     1     -10.658   9.531  68.760  1.00  0.00    -0.240 C  
HETATM   10  C   UNL     1      -8.323  10.374  68.022  1.00  0.00    -0.118 A  
HETATM   11  C   UNL     1     -11.330  10.751  69.402  1.00  0.00    -0.285 A  
HETATM   12  C   UNL     1      -7.422  10.737  67.007  1.00  0.00    -0.114 A  
HETATM   13  C   UNL     1     -10.271   8.332  69.642  1.00  0.00    -0.209 A  
HETATM   14  C   UNL     1     -10.635  11.689  70.167  1.00  0.00     1.052 A  
HETATM   15  C   UNL     1     -10.177   8.362  71.040  1.00  0.00    -0.245 A  
HETATM   16  C   UNL     1     -11.310  12.807  70.660  1.00  0.00     1.034 A  
HETATM   17  C   UNL     1      -9.918   7.187  71.769  1.00  0.00    -0.186 A  
HETATM   18  C   UNL     1     -12.659  12.977  70.371  1.00  0.00    -0.165 A  
HETATM   19  C   UNL     1      -9.767   5.966  71.109  1.00  0.00    -0.174 A  
HETATM   20  C   UNL     1      -9.822   5.914  69.722  1.00  0.00    -0.217 A  
HETATM   21  C   UNL     1     -13.281  12.014  69.601  1.00  0.00     1.860 A  
HETATM   22  C   UNL     1     -10.069   7.088  69.002  1.00  0.00    -0.182 A  
HETATM   23  N   UNL     1     -12.655  10.916  69.124  1.00  0.00    -0.238 NA 
BRANCH  19  24
HETATM   24  O   UNL     1      -9.463   4.835  71.901  1.00  0.00    -0.136 OA 
BRANCH  24  25
HETATM   25  C   UNL     1     -10.058   4.641  73.153  1.00  0.00    -0.158 C  
HETATM   26  O   UNL     1      -9.691   5.110  74.222  1.00  0.00    -0.141 OA 
HETATM   27  C   UNL     1     -11.279   3.779  72.994  1.00  0.00    -0.071 C  
ENDBRANCH  24  25
ENDBRANCH  19  24
ENDBRANCH   4   5
ENDBRANCH   2   4
TORSDOF 4
ENDMDL
MODEL      117
REMARK 921   NORMALIZED FREE ENERGY PREDICTED BY IDOCK:    2.87 KCAL/MOL
REMARK 922        TOTAL FREE ENERGY PREDICTED BY IDOCK:    3.20 KCAL/MOL
REMARK 923 INTER-LIGAND FREE ENERGY PREDICTED BY IDOCK:    2.22 KCAL/MOL
REMARK 924 INTRA-LIGAND FREE ENERGY PREDICTED BY IDOCK:    0.98 KCAL/MOL
REMARK 927      BINDING AFFINITY PREDICTED BY RF-SCORE:    0.00 PKD
ROOT
HETATM    1  C   UNL     1      -8.151   7.605  68.109  1.00  0.00    -0.124 C  
HETATM    2  C   UNL     1      -9.133   6.770  68.877  1.00  0.00    -0.133 C  
HETATM    3  O   UNL     1      -8.816   5.827  69.591  1.00  0.00    -0.120 OA 
ENDROOT
BRANCH   2   4
HETATM    4  O   UNL     1     -10.423   7.244  68.627  1.00  0.00    -0.193 OA 
BRANCH   4   5
HETATM    5  C   UNL     1     -10.559   8.622  68.398  1.00  0.00    -0.120 A  
HETATM    6  C   UNL     1     -11.279   9.422  69.278  1.00  0.00     0.017 A  
HETATM    7  C   UNL     1     -11.350  10.794  69.063  1.00  0.00    -0.349 A  
HETATM    8  C   UNL     1     -10.661  11.399  67.994  1.00  0.00    -0.240 A  
HETATM    9  C   UNL     1     -10.789  12.919  67.813  1.00  0.00    -0.248 C  
HETATM   10  C   UNL     1      -9.893  10.582  67.146  1.00  0.00    -0.213 A  
HETATM   11  C   UNL     1     -11.735  13.316  66.673  1.00  0.00    -0.377 A  
HETATM   12  C   UNL     1      -9.849   9.192  67.340  1.00  0.00    -0.237 A  
HETATM   13  C   UNL     1      -9.474  13.693  68.006  1.00  0.00    -0.209 A  
HETATM   14  C   UNL     1     -11.491  13.000  65.336  1.00  0.00    -0.344 A  
HETATM   15  C   UNL     1      -8.887  14.529  67.046  1.00  0.00    -0.256 A  
HETATM   16  C   UNL     1     -12.437  13.341  64.368  1.00  0.00    -0.356 A  
HETATM   17  C   UNL     1      -7.736  15.278  67.352  1.00  0.00    -0.225 A  
HETATM   18  C   UNL     1     -13.612  13.976  64.751  1.00  0.00     1.618 A  
HETATM   19  C   UNL     1      -7.170  15.212  68.626  1.00  0.00    -0.118 A  
HETATM   20  C   UNL     1      -7.711  14.367  69.585  1.00  0.00     0.220 A  
HETATM   21  C   UNL     1     -13.792  14.250  66.092  1.00  0.00     3.656 A  
HETATM   22  C   UNL     1      -8.849  13.616  69.272  1.00  0.00     0.664 A  
HETATM   23  N   UNL     1     -12.886  13.944  67.047  1.00  0.00     0.333 NA 
BRANCH  19  24
HETATM   24  O   UNL     1      -5.988  15.957  68.848  1.00  0.00    -0.109 OA 
BRANCH  24  25
HETATM   25  C   UNL     1      -5.980  17.080  69.681  1.00  0.00    -0.227 C  
HETATM   26  O   UNL     1      -5.837  17.093  70.897  1.00  0.00     0.128 OA 
HETATM   27  C   UNL     1      -6.134  18.320  68.846  1.00  0.00    -0.217 C  
ENDBRANCH  24  25
ENDBRANCH  19  24
ENDBRANCH   4   5
ENDBRANCH   2   4
TORSDOF 4
ENDMDL
MODEL      118
REMARK 921   NORMALIZED FREE ENERGY PREDICTED BY IDOCK:    3.62 KCAL/MOL
REMARK 922        TOTAL FREE ENERGY PREDICTED BY IDOCK:    4.13 KCAL/MOL
REMARK 923 INTER-LIGAND FREE ENERGY PREDICTED BY IDOCK:    4.04 KCAL/MOL
REMARK 924 INTRA-LIGAND FREE ENERGY PREDICTED BY IDOCK:    0.09 KCAL/MOL
REMARK 927      BINDING AFFINITY PREDICTED BY RF-SCORE:    0.00 PKD
ROOT
HETATM    1  C   UNL     1      -9.705   9.215  64.977  1.00  0.00     0.241 C  
HETATM    2  C   UNL     1      -9.991   9.107  66.446  1.00  0.00    -0.288 C  
HETATM    3  O   UNL     1     -11.108   8.929  66.913  1.00  0.00     0.102 OA 
ENDROOT
BRANCH   2   4
HETATM    4  O   UNL     1      -8.794   9.252  67.152  1.00  0.00    -0.126 OA 
BRANCH   4   5
HETATM    5  C   UNL     1      -8.430  10.556  67.523  1.00  0.00    -0.118 A  
HETATM    6  C   UNL     1      -7.240  11.117  67.075  1.00  0.00    -0.128 A  
HETATM    7  C   UNL     1      -6.929  12.431  67.408  1.00  0.00    -0.149 A  
HETATM    8  C   UNL     1      -7.825  13.225  68.150  1.00  0.00    -0.145 A  
HETATM    9  C   UNL     1      -7.414  14.667  68.484  1.00  0.00    -0.120 C  
HETATM   10  C   UNL     1      -9.049  12.658  68.547  1.00  0.00    -0.052 A  
HETATM   11  C   UNL     1      -6.955  14.844  69.937  1.00  0.00    -0.143 A  
HETATM   12  C   UNL     1      -9.348  11.320  68.244  1.00  0.00    -0.180 A  
HETATM   13  C   UNL     1      -8.299  15.745  67.837  1.00  0.00    -0.154 A  
HETATM   14  C   UNL     1      -7.796  14.643  71.032  1.00  0.00     2.464 A  
HETATM   15  C   UNL     1      -9.004  16.733  68.539  1.00  0.00    -0.244 A  
HETATM   16  C   UNL     1      -7.280  14.760  72.323  1.00  0.00     3.453 A  
HETATM   17  C   UNL     1      -9.705  17.741  67.853  1.00  0.00    -0.294 A  
HETATM   18  C   UNL     1      -5.935  15.061  72.500  1.00  0.00     0.812 A  
HETATM   19  C   UNL     1      -9.695  17.783  66.458  1.00  0.00    -0.320 A  
HETATM   20  C   UNL     1      -9.033  16.798  65.737  1.00  0.00     0.068 A  
HETATM   21  C   UNL     1      -5.158  15.238  71.372  1.00  0.00    -0.136 A  
HETATM   22  C   UNL     1      -8.346  15.791  66.424  1.00  0.00    -0.267 A  
HETATM   23  N   UNL     1      -5.636  15.145  70.111  1.00  0.00    -0.123 NA 
BRANCH  19  24
HETATM   24  O   UNL     1     -10.458  18.798  65.836  1.00  0.00    -0.508 OA 
BRANCH  24  25
HETATM   25  C   UNL     1      -9.961  20.098  65.688  1.00  0.00    -0.123 C  
HETATM   26  O   UNL     1      -9.958  20.772  64.667  1.00  0.00     1.033 OA 
HETATM   27  C   UNL     1      -9.450  20.587  67.015  1.00  0.00    -0.516 C  
ENDBRANCH  24  25
ENDBRANCH  19  24
ENDBRANCH   4   5
ENDBRANCH   2   4
TORSDOF 4
ENDMDL
MODEL      119
REMARK 921   NORMALIZED FREE ENERGY PREDICTED BY IDOCK:    4.07 KCAL/MOL
REMARK 922        TOTAL FREE ENERGY PREDICTED BY IDOCK:    4.68 KCAL/MOL
REMARK 923 INTER-LIGAND FREE ENERGY PREDICTED BY IDOCK:    4.56 KCAL/MOL
REMARK 924 INTRA-LIGAND FREE ENERGY PREDICTED BY IDOCK:    0.12 KCAL/MOL
REMARK 927      BINDING AFFINITY PREDICTED BY RF-SCORE:    0.00 PKD
ROOT
HETATM    1  C   UNL     1      -9.784   9.875  66.179  1.00  0.00    -0.297 C  
HETATM    2  C   UNL     1     -10.822  10.809  65.631  1.00  0.00     0.006 C  
HETATM    3  O   UNL     1     -12.020  10.713  65.865  1.00  0.00     1.170 OA 
ENDROOT
BRANCH   2   4
HETATM    4  O   UNL     1     -10.193  11.765  64.829  1.00  0.00    -0.260 OA 
BRANCH   4   5
HETATM    5  C   UNL     1     -10.036  13.048  65.377  1.00  0.00    -0.252 A  
HETATM    6  C   UNL     1     -10.866  14.093  64.988  1.00  0.00    -0.408 A  
HETATM    7  C   UNL     1     -10.730  15.341  65.588  1.00  0.00    -0.376 A  
HETATM    8  C   UNL     1      -9.797  15.553  66.622  1.00  0.00    -0.268 A  
HETATM    9  C   UNL     1      -9.698  16.958  67.235  1.00  0.00    -0.251 C  
HETATM   10  C   UNL     1      -9.005  14.470  67.040  1.00  0.00    -0.258 A  
HETATM   11  C   UNL     1      -8.475  17.745  66.750  1.00  0.00    -0.248 A  
HETATM   12  C   UNL     1      -9.115  13.219  66.411  1.00  0.00    -0.062 A  
HETATM   13  C   UNL     1     -10.105  17.033  68.716  1.00  0.00    -0.307 A  
HETATM   14  C   UNL     1      -7.162  17.347  67.009  1.00  0.00    -0.214 A  
HETATM   15  C   UNL     1      -9.282  17.498  69.752  1.00  0.00     1.089 A  
HETATM   16  C   UNL     1      -6.105  18.085  66.473  1.00  0.00    -0.214 A  
HETATM   17  C   UNL     1      -9.778  17.628  71.061  1.00  0.00     4.638 A  
HETATM   18  C   UNL     1      -6.374  19.195  65.681  1.00  0.00    -0.273 A  
HETATM   19  C   UNL     1     -11.107  17.311  71.347  1.00  0.00     1.467 A  
HETATM   20  C   UNL     1     -11.934  16.817  70.348  1.00  0.00     1.316 A  
HETATM   21  C   UNL     1      -7.697  19.526  65.460  1.00  0.00     0.086 A  
HETATM   22  C   UNL     1     -11.433  16.679  69.049  1.00  0.00     0.015 A  
HETATM   23  N   UNL     1      -8.738  18.837  65.978  1.00  0.00    -0.478 NA 
BRANCH  19  24
HETATM   24  O   UNL     1     -11.523  17.422  72.694  1.00  0.00     0.415 OA 
BRANCH  24  25
HETATM   25  C   UNL     1     -12.068  16.333  73.382  1.00  0.00    -0.472 C  
HETATM   26  O   UNL     1     -12.823  16.373  74.345  1.00  0.00    -0.700 OA 
HETATM   27  C   UNL     1     -11.617  15.057  72.727  1.00  0.00    -0.299 C  
ENDBRANCH  24  25
ENDBRANCH  19  24
ENDBRANCH   4   5
ENDBRANCH   2   4
TORSDOF 4
ENDMDL
MODEL      120
REMARK 921   NORMALIZED FREE ENERGY PREDICTED BY IDOCK:    5.04 KCAL/MOL
REMARK 922        TOTAL FREE ENERGY PREDICTED BY IDOCK:    5.88 KCAL/MOL
REMARK 923 INTER-LIGAND FREE ENERGY PREDICTED BY IDOCK:    5.10 KCAL/MOL
REMARK 924 INTRA-LIGAND FREE ENERGY PREDICTED BY IDOCK:    0.78 KCAL/MOL
REMARK 927      BINDING AFFINITY PREDICTED BY RF-SCORE:    0.00 PKD
ROOT
HETATM    1  C   UNL     1      -6.076  11.749  70.017  1.00  0.00    -0.158 C  
HETATM    2  C   UNL     1      -6.377  12.263  71.394  1.00  0.00     2.157 C  
HETATM    3  O   UNL     1      -6.296  13.441  71.717  1.00  0.00     0.322 OA 
ENDROOT
BRANCH   2   4
HETATM    4  O   UNL     1      -6.744  11.188  72.208  1.00  0.00     3.077 OA 
BRANCH   4   5
HETATM    5  C   UNL     1      -6.952   9.954  71.572  1.00  0.00     0.794 A  
HETATM    6  C   UNL     1      -8.232   9.429  71.441  1.00  0.00     0.318 A  
HETATM    7  C   UNL     1      -8.420   8.233  70.755  1.00  0.00    -0.139 A  
HETATM    8  C   UNL     1      -7.339   7.567  70.146  1.00  0.00    -0.077 A  
HETATM    9  C   UNL     1      -7.619   6.248  69.409  1.00  0.00    -0.098 C  
HETATM   10  C   UNL     1      -6.060   8.142  70.242  1.00  0.00    -0.032 A  
HETATM   11  C   UNL     1      -7.189   5.009  70.203  1.00  0.00    -0.058 A  
HETATM   12  C   UNL     1      -5.862   9.329  70.964  1.00  0.00    -0.060 A  
HETATM   13  C   UNL     1      -7.361   6.301  67.894  1.00  0.00    -0.088 A  
HETATM   14  C   UNL     1      -5.861   4.743  70.540  1.00  0.00    -0.017 A  
HETATM   15  C   UNL     1      -6.477   5.462  67.201  1.00  0.00    -0.048 A  
HETATM   16  C   UNL     1      -5.563   3.626  71.322  1.00  0.00    -0.008 A  
HETATM   17  C   UNL     1      -6.385   5.515  65.799  1.00  0.00    -0.039 A  
HETATM   18  C   UNL     1      -6.592   2.804  71.764  1.00  0.00    -0.018 A  
HETATM   19  C   UNL     1      -7.187   6.397  65.072  1.00  0.00    -0.067 A  
HETATM   20  C   UNL     1      -8.046   7.262  65.735  1.00  0.00    -0.129 A  
HETATM   21  C   UNL     1      -7.884   3.132  71.401  1.00  0.00    -0.055 A  
HETATM   22  C   UNL     1      -8.127   7.213  67.131  1.00  0.00    -0.114 A  
HETATM   23  N   UNL     1      -8.198   4.198  70.633  1.00  0.00    -0.065 NA 
BRANCH  19  24
HETATM   24  O   UNL     1      -7.008   6.428  63.670  1.00  0.00    -0.043 OA 
BRANCH  24  25
HETATM   25  C   UNL     1      -6.926   7.638  62.972  1.00  0.00    -0.072 C  
HETATM   26  O   UNL     1      -7.854   8.376  62.668  1.00  0.00    -0.124 OA 
HETATM   27  C   UNL     1      -5.485   7.940  62.670  1.00  0.00    -0.056 C  
ENDBRANCH  24  25
ENDBRANCH  19  24
ENDBRANCH   4   5
ENDBRANCH   2   4
TORSDOF 4
ENDMDL
MODEL      121
REMARK 921   NORMALIZED FREE ENERGY PREDICTED BY IDOCK:    6.89 KCAL/MOL
REMARK 922        TOTAL FREE ENERGY PREDICTED BY IDOCK:    8.16 KCAL/MOL
REMARK 923 INTER-LIGAND FREE ENERGY PREDICTED BY IDOCK:    7.50 KCAL/MOL
REMARK 924 INTRA-LIGAND FREE ENERGY PREDICTED BY IDOCK:    0.66 KCAL/MOL
REMARK 927      BINDING AFFINITY PREDICTED BY RF-SCORE:    0.00 PKD
ROOT
HETATM    1  C   UNL     1      -7.705  20.058  72.214  1.00  0.00     2.321 C  
HETATM    2  C   UNL     1      -8.262  19.727  70.860  1.00  0.00     2.122 C  
HETATM    3  O   UNL     1      -7.835  20.195  69.813  1.00  0.00     0.233 OA 
ENDROOT
BRANCH   2   4
HETATM    4  O   UNL     1      -9.321  18.830  71.014  1.00  0.00     3.496 OA 
BRANCH   4   5
HETATM    5  C   UNL     1      -9.376  17.753  70.114  1.00  0.00     2.128 A  
HETATM    6  C   UNL     1      -8.456  17.645  69.077  1.00  0.00    -0.021 A  
HETATM    7  C   UNL     1      -8.493  16.539  68.235  1.00  0.00    -0.199 A  
HETATM    8  C   UNL     1      -9.416  15.496  68.444  1.00  0.00    -0.196 A  
HETATM    9  C   UNL     1      -9.403  14.307  67.471  1.00  0.00    -0.199 C  
HETATM   10  C   UNL     1     -10.302  15.596  69.531  1.00  0.00    -0.277 A  
HETATM   11  C   UNL     1     -10.551  14.345  66.454  1.00  0.00    -0.297 A  
HETATM   12  C   UNL     1     -10.291  16.729  70.360  1.00  0.00     0.679 A  
HETATM   13  C   UNL     1      -9.009  12.967  68.114  1.00  0.00    -0.198 A  
HETATM   14  C   UNL     1     -11.895  14.259  66.819  1.00  0.00    -0.449 A  
HETATM   15  C   UNL     1      -9.802  11.811  68.109  1.00  0.00    -0.190 A  
HETATM   16  C   UNL     1     -12.880  14.369  65.836  1.00  0.00    -0.101 A  
HETATM   17  C   UNL     1      -9.311  10.600  68.632  1.00  0.00    -0.177 A  
HETATM   18  C   UNL     1     -12.508  14.575  64.513  1.00  0.00    -0.346 A  
HETATM   19  C   UNL     1      -8.017  10.528  69.150  1.00  0.00    -0.145 A  
HETATM   20  C   UNL     1      -7.223  11.667  69.198  1.00  0.00    -0.064 A  
HETATM   21  C   UNL     1     -11.160  14.659  64.225  1.00  0.00     0.028 A  
HETATM   22  C   UNL     1      -7.719  12.870  68.686  1.00  0.00    -0.067 A  
HETATM   23  N   UNL     1     -10.187  14.542  65.155  1.00  0.00    -0.402 NA 
BRANCH  19  24
HETATM   24  O   UNL     1      -7.608   9.292  69.700  1.00  0.00    -0.073 OA 
BRANCH  24  25
HETATM   25  C   UNL     1      -6.300   8.820  69.542  1.00  0.00    -0.043 C  
HETATM   26  O   UNL     1      -5.331   9.457  69.151  1.00  0.00    -0.036 OA 
HETATM   27  C   UNL     1      -6.235   7.382  69.974  1.00  0.00    -0.027 C  
ENDBRANCH  24  25
ENDBRANCH  19  24
ENDBRANCH   4   5
ENDBRANCH   2   4
TORSDOF 4
ENDMDL
MODEL      122
REMARK 921   NORMALIZED FREE ENERGY PREDICTED BY IDOCK:    7.80 KCAL/MOL
REMARK 922        TOTAL FREE ENERGY PREDICTED BY IDOCK:    9.29 KCAL/MOL
REMARK 923 INTER-LIGAND FREE ENERGY PREDICTED BY IDOCK:    9.22 KCAL/MOL
REMARK 924 INTRA-LIGAND FREE ENERGY PREDICTED BY IDOCK:    0.07 KCAL/MOL
REMARK 927      BINDING AFFINITY PREDICTED BY RF-SCORE:    0.00 PKD
ROOT
HETATM    1  C   UNL     1     -10.710  18.994  73.125  1.00  0.00     3.199 C  
HETATM    2  C   UNL     1     -11.712  17.910  73.393  1.00  0.00     1.546 C  
HETATM    3  O   UNL     1     -11.859  17.370  74.482  1.00  0.00    -0.292 OA 
ENDROOT
BRANCH   2   4
HETATM    4  O   UNL     1     -12.409  17.635  72.214  1.00  0.00     3.138 OA 
BRANCH   4   5
HETATM    5  C   UNL     1     -12.057  16.462  71.528  1.00  0.00    -0.044 A  
HETATM    6  C   UNL     1     -10.764  15.958  71.598  1.00  0.00     0.665 A  
HETATM    7  C   UNL     1     -10.455  14.762  70.958  1.00  0.00     0.761 A  
HETATM    8  C   UNL     1     -11.444  14.022  70.281  1.00  0.00    -0.155 A  
HETATM    9  C   UNL     1     -11.030  12.712  69.593  1.00  0.00     0.147 C  
HETATM   10  C   UNL     1     -12.759  14.519  70.269  1.00  0.00    -0.325 A  
HETATM   11  C   UNL     1     -10.901  12.843  68.071  1.00  0.00    -0.241 A  
HETATM   12  C   UNL     1     -13.065  15.745  70.882  1.00  0.00    -0.235 A  
HETATM   13  C   UNL     1     -11.676  11.451  70.190  1.00  0.00    -0.414 A  
HETATM   14  C   UNL     1     -11.980  13.145  67.238  1.00  0.00    -0.389 A  
HETATM   15  C   UNL     1     -12.458  10.535  69.473  1.00  0.00     0.035 A  
HETATM   16  C   UNL     1     -11.762  13.312  65.869  1.00  0.00    -0.403 A  
HETATM   17  C   UNL     1     -12.921   9.354  70.082  1.00  0.00     0.867 A  
HETATM   18  C   UNL     1     -10.476  13.187  65.358  1.00  0.00    -0.307 A  
HETATM   19  C   UNL     1     -12.593   9.068  71.408  1.00  0.00    -0.311 A  
HETATM   20  C   UNL     1     -11.848   9.974  72.151  1.00  0.00     0.509 A  
HETATM   21  C   UNL     1      -9.455  12.896  66.241  1.00  0.00    -0.200 A  
HETATM   22  C   UNL     1     -11.399  11.152  71.544  1.00  0.00     1.943 A  
HETATM   23  N   UNL     1      -9.640  12.716  67.567  1.00  0.00    -0.180 NA 
BRANCH  19  24
HETATM   24  O   UNL     1     -13.130   7.886  71.967  1.00  0.00    -0.297 OA 
BRANCH  24  25
HETATM   25  C   UNL     1     -12.348   6.738  72.138  1.00  0.00    -0.196 C  
HETATM   26  O   UNL     1     -12.518   5.647  71.609  1.00  0.00     0.644 OA 
HETATM   27  C   UNL     1     -11.204   7.050  73.061  1.00  0.00    -0.242 C  
ENDBRANCH  24  25
ENDBRANCH  19  24
ENDBRANCH   4   5
ENDBRANCH   2   4
TORSDOF 4
ENDMDL
MODEL      123
REMARK 921   NORMALIZED FREE ENERGY PREDICTED BY IDOCK:    7.94 KCAL/MOL
REMARK 922        TOTAL FREE ENERGY PREDICTED BY IDOCK:    9.46 KCAL/MOL
REMARK 923 INTER-LIGAND FREE ENERGY PREDICTED BY IDOCK:    8.55 KCAL/MOL
REMARK 924 INTRA-LIGAND FREE ENERGY PREDICTED BY IDOCK:    0.91 KCAL/MOL
REMARK 927      BINDING AFFINITY PREDICTED BY RF-SCORE:    0.00 PKD
ROOT
HETATM    1  C   UNL     1      -5.144  18.050  67.844  1.00  0.00    -0.147 C  
HETATM    2  C   UNL     1      -5.893  16.756  67.717  1.00  0.00    -0.134 C  
HETATM    3  O   UNL     1      -5.453  15.673  68.080  1.00  0.00    -0.109 OA 
ENDROOT
BRANCH   2   4
HETATM    4  O   UNL     1      -7.132  17.007  67.122  1.00  0.00    -0.149 OA 
BRANCH   4   5
HETATM    5  C   UNL     1      -8.224  16.261  67.593  1.00  0.00    -0.153 A  
HETATM    6  C   UNL     1      -9.480  16.395  67.012  1.00  0.00    -0.240 A  
HETATM    7  C   UNL     1     -10.532  15.601  67.456  1.00  0.00    -0.285 A  
HETATM    8  C   UNL     1     -10.338  14.624  68.452  1.00  0.00    -0.237 A  
HETATM    9  C   UNL     1     -11.546  13.787  68.897  1.00  0.00    -0.358 C  
HETATM   10  C   UNL     1      -9.048  14.465  68.988  1.00  0.00     0.000 A  
HETATM   11  C   UNL     1     -12.121  14.225  70.249  1.00  0.00    -0.335 A  
HETATM   12  C   UNL     1      -7.992  15.290  68.568  1.00  0.00    -0.141 A  
HETATM   13  C   UNL     1     -11.431  12.288  68.576  1.00  0.00    -0.349 A  
HETATM   14  C   UNL     1     -11.403  14.145  71.444  1.00  0.00     0.830 A  
HETATM   15  C   UNL     1     -11.502  11.257  69.524  1.00  0.00    -0.376 A  
HETATM   16  C   UNL     1     -11.977  14.628  72.621  1.00  0.00    -0.163 A  
HETATM   17  C   UNL     1     -11.491   9.909  69.122  1.00  0.00    -0.017 A  
HETATM   18  C   UNL     1     -13.246  15.192  72.585  1.00  0.00    -0.536 A  
HETATM   19  C   UNL     1     -11.427   9.576  67.767  1.00  0.00     0.833 A  
HETATM   20  C   UNL     1     -11.323  10.577  66.811  1.00  0.00     0.267 A  
HETATM   21  C   UNL     1     -13.895  15.246  71.367  1.00  0.00    -0.515 A  
HETATM   22  C   UNL     1     -11.323  11.916  67.216  1.00  0.00    -0.393 A  
HETATM   23  N   UNL     1     -13.369  14.774  70.216  1.00  0.00     0.048 NA 
BRANCH  19  24
HETATM   24  O   UNL     1     -11.374   8.202  67.440  1.00  0.00     0.447 OA 
BRANCH  24  25
HETATM   25  C   UNL     1     -11.944   7.232  68.272  1.00  0.00     2.140 C  
HETATM   26  O   UNL     1     -11.831   7.147  69.488  1.00  0.00     0.142 OA 
HETATM   27  C   UNL     1     -12.781   6.297  67.444  1.00  0.00     8.477 C  
ENDBRANCH  24  25
ENDBRANCH  19  24
ENDBRANCH   4   5
ENDBRANCH   2   4
TORSDOF 4
ENDMDL
MODEL      124
REMARK 921   NORMALIZED FREE ENERGY PREDICTED BY IDOCK:    8.93 KCAL/MOL
REMARK 922        TOTAL FREE ENERGY PREDICTED BY IDOCK:   10.68 KCAL/MOL
REMARK 923 INTER-LIGAND FREE ENERGY PREDICTED BY IDOCK:   10.95 KCAL/MOL
REMARK 924 INTRA-LIGAND FREE ENERGY PREDICTED BY IDOCK:   -0.27 KCAL/MOL
REMARK 927      BINDING AFFINITY PREDICTED BY RF-SCORE:    0.00 PKD
ROOT
HETATM    1  C   UNL     1     -10.216  11.085  67.904  1.00  0.00    -0.207 C  
HETATM    2  C   UNL     1     -11.336  11.797  67.204  1.00  0.00    -0.322 C  
HETATM    3  O   UNL     1     -12.519  11.655  67.488  1.00  0.00     0.090 OA 
ENDROOT
BRANCH   2   4
HETATM    4  O   UNL     1     -10.800  12.611  66.204  1.00  0.00    -0.265 OA 
BRANCH   4   5
HETATM    5  C   UNL     1     -10.652  13.974  66.506  1.00  0.00    -0.279 A  
HETATM    6  C   UNL     1     -11.421  14.570  67.499  1.00  0.00    -0.375 A  
HETATM    7  C   UNL     1     -11.215  15.907  67.821  1.00  0.00    -0.258 A  
HETATM    8  C   UNL     1     -10.203  16.659  67.194  1.00  0.00    -0.290 A  
HETATM    9  C   UNL     1     -10.035  18.131  67.596  1.00  0.00    -0.344 C  
HETATM   10  C   UNL     1      -9.398  16.024  66.232  1.00  0.00    -0.356 A  
HETATM   11  C   UNL     1     -10.605  19.110  66.562  1.00  0.00    -0.435 A  
HETATM   12  C   UNL     1      -9.628  14.685  65.879  1.00  0.00    -0.303 A  
HETATM   13  C   UNL     1      -8.696  18.453  68.281  1.00  0.00    -0.321 A  
HETATM   14  C   UNL     1     -10.104  19.224  65.265  1.00  0.00     0.862 A  
HETATM   15  C   UNL     1      -7.770  19.402  67.826  1.00  0.00    -0.312 A  
HETATM   16  C   UNL     1     -10.725  20.093  64.365  1.00  0.00     2.914 A  
HETATM   17  C   UNL     1      -6.619  19.701  68.577  1.00  0.00    -0.314 A  
HETATM   18  C   UNL     1     -11.838  20.820  64.770  1.00  0.00     3.441 A  
HETATM   19  C   UNL     1      -6.390  19.068  69.800  1.00  0.00    -0.208 A  
HETATM   20  C   UNL     1      -7.274  18.101  70.258  1.00  0.00     1.604 A  
HETATM   21  C   UNL     1     -12.285  20.651  66.066  1.00  0.00     4.819 A  
HETATM   22  C   UNL     1      -8.412  17.798  69.502  1.00  0.00     0.706 A  
HETATM   23  N   UNL     1     -11.694  19.828  66.960  1.00  0.00     0.906 NA 
BRANCH  19  24
HETATM   24  O   UNL     1      -5.191  19.385  70.478  1.00  0.00    -0.193 OA 
BRANCH  24  25
HETATM   25  C   UNL     1      -5.197  19.808  71.812  1.00  0.00    -0.410 C  
HETATM   26  O   UNL     1      -5.187  19.097  72.809  1.00  0.00     0.515 OA 
HETATM   27  C   UNL     1      -5.174  21.310  71.858  1.00  0.00     0.283 C  
ENDBRANCH  24  25
ENDBRANCH  19  24
ENDBRANCH   4   5
ENDBRANCH   2   4
TORSDOF 4
ENDMDL
MODEL      125
REMARK 921   NORMALIZED FREE ENERGY PREDICTED BY IDOCK:   10.20 KCAL/MOL
REMARK 922        TOTAL FREE ENERGY PREDICTED BY IDOCK:   12.25 KCAL/MOL
REMARK 923 INTER-LIGAND FREE ENERGY PREDICTED BY IDOCK:   10.98 KCAL/MOL
REMARK 924 INTRA-LIGAND FREE ENERGY PREDICTED BY IDOCK:    1.27 KCAL/MOL
REMARK 927      BINDING AFFINITY PREDICTED BY RF-SCORE:    0.00 PKD
ROOT
HETATM    1  C   UNL     1     -13.610  11.029  69.039  1.00  0.00     4.573 C  
HETATM    2  C   UNL     1     -13.442   9.826  69.920  1.00  0.00     1.464 C  
HETATM    3  O   UNL     1     -14.285   8.947  70.043  1.00  0.00     1.659 OA 
ENDROOT
BRANCH   2   4
HETATM    4  O   UNL     1     -12.200   9.899  70.554  1.00  0.00    -0.253 OA 
BRANCH   4   5
HETATM    5  C   UNL     1     -11.325  10.908  70.121  1.00  0.00    -0.284 A  
HETATM    6  C   UNL     1     -10.563  10.744  68.970  1.00  0.00    -0.250 A  
HETATM    7  C   UNL     1      -9.749  11.781  68.528  1.00  0.00    -0.181 A  
HETATM    8  C   UNL     1      -9.719  13.019  69.200  1.00  0.00     0.489 A  
HETATM    9  C   UNL     1      -8.792  14.118  68.659  1.00  0.00    -0.132 C  
HETATM   10  C   UNL     1     -10.538  13.186  70.330  1.00  0.00     1.839 A  
HETATM   11  C   UNL     1      -7.512  14.291  69.485  1.00  0.00     0.091 A  
HETATM   12  C   UNL     1     -11.333  12.128  70.799  1.00  0.00     1.254 A  
HETATM   13  C   UNL     1      -9.525  15.364  68.134  1.00  0.00    -0.202 A  
HETATM   14  C   UNL     1      -7.516  14.705  70.819  1.00  0.00     1.320 A  
HETATM   15  C   UNL     1      -9.323  16.670  68.602  1.00  0.00    -0.247 A  
HETATM   16  C   UNL     1      -6.310  14.772  71.518  1.00  0.00     0.553 A  
HETATM   17  C   UNL     1      -9.965  17.761  67.989  1.00  0.00    -0.333 A  
HETATM   18  C   UNL     1      -5.127  14.414  70.883  1.00  0.00    -0.117 A  
HETATM   19  C   UNL     1     -10.802  17.560  66.889  1.00  0.00    -0.020 A  
HETATM   20  C   UNL     1     -11.045  16.274  66.427  1.00  0.00     0.131 A  
HETATM   21  C   UNL     1      -5.198  14.006  69.566  1.00  0.00    -0.083 A  
HETATM   22  C   UNL     1     -10.413  15.191  67.047  1.00  0.00    -0.282 A  
HETATM   23  N   UNL     1      -6.350  13.946  68.861  1.00  0.00    -0.088 NA 
BRANCH  19  24
HETATM   24  O   UNL     1     -11.448  18.697  66.352  1.00  0.00     0.792 OA 
BRANCH  24  25
HETATM   25  C   UNL     1     -10.720  19.786  65.861  1.00  0.00    -0.383 C  
HETATM   26  O   UNL     1     -10.896  20.369  64.799  1.00  0.00     0.249 OA 
HETATM   27  C   UNL     1      -9.680  20.184  66.870  1.00  0.00    -0.582 C  
ENDBRANCH  24  25
ENDBRANCH  19  24
ENDBRANCH   4   5
ENDBRANCH   2   4
TORSDOF 4
ENDMDL
MODEL      126
REMARK 921   NORMALIZED FREE ENERGY PREDICTED BY IDOCK:   10.82 KCAL/MOL
REMARK 922        TOTAL FREE ENERGY PREDICTED BY IDOCK:   13.01 KCAL/MOL
REMARK 923 INTER-LIGAND FREE ENERGY PREDICTED BY IDOCK:   13.28 KCAL/MOL
REMARK 924 INTRA-LIGAND FREE ENERGY PREDICTED BY IDOCK:   -0.27 KCAL/MOL
REMARK 927      BINDING AFFINITY PREDICTED BY RF-SCORE:    0.00 PKD
ROOT
HETATM    1  C   UNL     1      -5.808   8.438  66.717  1.00  0.00    -0.049 C  
HETATM    2  C   UNL     1      -5.879   9.310  65.498  1.00  0.00    -0.054 C  
HETATM    3  O   UNL     1      -5.915   8.880  64.352  1.00  0.00    -0.065 OA 
ENDROOT
BRANCH   2   4
HETATM    4  O   UNL     1      -5.886  10.648  65.898  1.00  0.00    -0.105 OA 
BRANCH   4   5
HETATM    5  C   UNL     1      -7.128  11.304  65.894  1.00  0.00     0.221 A  
HETATM    6  C   UNL     1      -7.946  11.285  67.017  1.00  0.00    -0.150 A  
HETATM    7  C   UNL     1      -9.144  11.992  67.009  1.00  0.00    -0.191 A  
HETATM    8  C   UNL     1      -9.522  12.772  65.898  1.00  0.00    -0.076 A  
HETATM    9  C   UNL     1     -10.861  13.522  65.957  1.00  0.00    -0.282 C  
HETATM   10  C   UNL     1      -8.654  12.823  64.793  1.00  0.00     2.641 A  
HETATM   11  C   UNL     1     -11.967  12.850  65.135  1.00  0.00    -0.414 A  
HETATM   12  C   UNL     1      -7.462  12.081  64.784  1.00  0.00     3.515 A  
HETATM   13  C   UNL     1     -10.730  15.054  65.936  1.00  0.00    -0.337 A  
HETATM   14  C   UNL     1     -11.906  12.708  63.748  1.00  0.00    -0.574 A  
HETATM   15  C   UNL     1     -11.322  15.897  64.985  1.00  0.00    -0.195 A  
HETATM   16  C   UNL     1     -12.926  12.024  63.084  1.00  0.00    -0.046 A  
HETATM   17  C   UNL     1     -11.233  17.295  65.108  1.00  0.00     0.452 A  
HETATM   18  C   UNL     1     -13.978  11.484  63.814  1.00  0.00     2.494 A  
HETATM   19  C   UNL     1     -10.565  17.867  66.193  1.00  0.00    -0.242 A  
HETATM   20  C   UNL     1      -9.941  17.055  67.131  1.00  0.00    -0.281 A  
HETATM   21  C   UNL     1     -13.970  11.655  65.184  1.00  0.00     7.039 A  
HETATM   22  C   UNL     1     -10.024  15.665  66.998  1.00  0.00    -0.242 A  
HETATM   23  N   UNL     1     -13.003  12.325  65.849  1.00  0.00     0.954 NA 
BRANCH  19  24
HETATM   24  O   UNL     1     -10.476  19.277  66.228  1.00  0.00    -0.426 OA 
BRANCH  24  25
HETATM   25  C   UNL     1     -10.442  19.976  67.439  1.00  0.00    -0.350 C  
HETATM   26  O   UNL     1     -11.086  19.728  68.450  1.00  0.00     0.299 OA 
HETATM   27  C   UNL     1      -9.439  21.092  67.341  1.00  0.00    -0.260 C  
ENDBRANCH  24  25
ENDBRANCH  19  24
ENDBRANCH   4   5
ENDBRANCH   2   4
TORSDOF 4
ENDMDL
MODEL      127
REMARK 921   NORMALIZED FREE ENERGY PREDICTED BY IDOCK:   11.07 KCAL/MOL
REMARK 922        TOTAL FREE ENERGY PREDICTED BY IDOCK:   13.31 KCAL/MOL
REMARK 923 INTER-LIGAND FREE ENERGY PREDICTED BY IDOCK:   13.53 KCAL/MOL
REMARK 924 INTRA-LIGAND FREE ENERGY PREDICTED BY IDOCK:   -0.22 KCAL/MOL
REMARK 927      BINDING AFFINITY PREDICTED BY RF-SCORE:    0.00 PKD
ROOT
HETATM    1  C   UNL     1      -8.870   7.808  66.106  1.00  0.00    -0.192 C  
HETATM    2  C   UNL     1     -10.277   8.210  66.435  1.00  0.00    -0.050 C  
HETATM    3  O   UNL     1     -11.242   7.967  65.721  1.00  0.00     3.346 OA 
ENDROOT
BRANCH   2   4
HETATM    4  O   UNL     1     -10.280   8.893  67.654  1.00  0.00    -0.207 OA 
BRANCH   4   5
HETATM    5  C   UNL     1     -10.483  10.282  67.602  1.00  0.00    -0.239 A  
HETATM    6  C   UNL     1     -11.676  10.808  67.121  1.00  0.00     0.557 A  
HETATM    7  C   UNL     1     -11.877  12.185  67.135  1.00  0.00    -0.292 A  
HETATM    8  C   UNL     1     -10.911  13.055  67.676  1.00  0.00    -0.256 A  
HETATM    9  C   UNL     1     -11.198  14.564  67.654  1.00  0.00    -0.335 C  
HETATM   10  C   UNL     1      -9.734  12.500  68.208  1.00  0.00    -0.220 A  
HETATM   11  C   UNL     1     -10.424  15.311  66.560  1.00  0.00    -0.298 A  
HETATM   12  C   UNL     1      -9.513  11.114  68.162  1.00  0.00    -0.180 A  
HETATM   13  C   UNL     1     -11.343  15.202  69.045  1.00  0.00    -0.307 A  
HETATM   14  C   UNL     1      -9.031  15.397  66.536  1.00  0.00    -0.344 A  
HETATM   15  C   UNL     1     -10.564  16.265  69.525  1.00  0.00    -0.314 A  
HETATM   16  C   UNL     1      -8.403  16.040  65.468  1.00  0.00     1.566 A  
HETATM   17  C   UNL     1     -10.840  16.852  70.774  1.00  0.00     0.634 A  
HETATM   18  C   UNL     1      -9.171  16.572  64.440  1.00  0.00     5.589 A  
HETATM   19  C   UNL     1     -11.908  16.394  71.548  1.00  0.00    -0.233 A  
HETATM   20  C   UNL     1     -12.673  15.322  71.111  1.00  0.00    -0.476 A  
HETATM   21  C   UNL     1     -10.543  16.443  64.524  1.00  0.00     0.602 A  
HETATM   22  C   UNL     1     -12.388  14.734  69.874  1.00  0.00    -0.328 A  
HETATM   23  N   UNL     1     -11.177  15.839  65.554  1.00  0.00    -0.164 NA 
BRANCH  19  24
HETATM   24  O   UNL     1     -12.097  17.000  72.811  1.00  0.00     0.010 OA 
BRANCH  24  25
HETATM   25  C   UNL     1     -11.461  16.513  73.957  1.00  0.00     1.050 C  
HETATM   26  O   UNL     1     -10.481  16.991  74.514  1.00  0.00     5.194 OA 
HETATM   27  C   UNL     1     -12.195  15.300  74.456  1.00  0.00    -0.582 C  
ENDBRANCH  24  25
ENDBRANCH  19  24
ENDBRANCH   4   5
ENDBRANCH   2   4
TORSDOF 4
ENDMDL
MODEL      128
REMARK 921   NORMALIZED FREE ENERGY PREDICTED BY IDOCK:   16.18 KCAL/MOL
REMARK 922        TOTAL FREE ENERGY PREDICTED BY IDOCK:   19.62 KCAL/MOL
REMARK 923 INTER-LIGAND FREE ENERGY PREDICTED BY IDOCK:   18.96 KCAL/MOL
REMARK 924 INTRA-LIGAND FREE ENERGY PREDICTED BY IDOCK:    0.66 KCAL/MOL
REMARK 927      BINDING AFFINITY PREDICTED BY RF-SCORE:    0.00 PKD
ROOT
HETATM    1  C   UNL     1      -6.598  20.260  73.086  1.00  0.00     4.698 C  
HETATM    2  C   UNL     1      -8.081  20.467  72.996  1.00  0.00     4.158 C  
HETATM    3  O   UNL     1      -8.860  20.245  73.915  1.00  0.00     4.330 OA 
ENDROOT
BRANCH   2   4
HETATM    4  O   UNL     1      -8.396  20.931  71.717  1.00  0.00     1.192 OA 
BRANCH   4   5
HETATM    5  C   UNL     1      -7.898  20.191  70.633  1.00  0.00     1.384 A  
HETATM    6  C   UNL     1      -6.534  19.958  70.498  1.00  0.00    -0.193 A  
HETATM    7  C   UNL     1      -6.070  19.171  69.449  1.00  0.00    -0.291 A  
HETATM    8  C   UNL     1      -6.962  18.563  68.545  1.00  0.00    -0.284 A  
HETATM    9  C   UNL     1      -6.378  17.712  67.408  1.00  0.00    -0.166 C  
HETATM   10  C   UNL     1      -8.341  18.765  68.730  1.00  0.00    -0.322 A  
HETATM   11  C   UNL     1      -6.394  18.424  66.050  1.00  0.00    -0.227 A  
HETATM   12  C   UNL     1      -8.810  19.588  69.766  1.00  0.00     0.626 A  
HETATM   13  C   UNL     1      -6.743  16.220  67.481  1.00  0.00    -0.189 A  
HETATM   14  C   UNL     1      -7.571  18.802  65.401  1.00  0.00     0.453 A  
HETATM   15  C   UNL     1      -7.405  15.505  66.472  1.00  0.00     0.611 A  
HETATM   16  C   UNL     1      -7.494  19.506  64.198  1.00  0.00     3.035 A  
HETATM   17  C   UNL     1      -7.603  14.117  66.585  1.00  0.00     1.031 A  
HETATM   18  C   UNL     1      -6.250  19.833  63.672  1.00  0.00     0.127 A  
HETATM   19  C   UNL     1      -7.126  13.425  67.700  1.00  0.00    -0.162 A  
HETATM   20  C   UNL     1      -6.498  14.114  68.729  1.00  0.00    -0.091 A  
HETATM   21  C   UNL     1      -5.127  19.436  64.372  1.00  0.00    -0.174 A  
HETATM   22  C   UNL     1      -6.313  15.496  68.617  1.00  0.00    -0.099 A  
HETATM   23  N   UNL     1      -5.174  18.741  65.530  1.00  0.00    -0.147 NA 
BRANCH  19  24
HETATM   24  O   UNL     1      -7.401  12.040  67.768  1.00  0.00    -0.096 OA 
BRANCH  24  25
HETATM   25  C   UNL     1      -6.477  11.090  67.320  1.00  0.00    -0.073 C  
HETATM   26  O   UNL     1      -5.547  11.277  66.546  1.00  0.00    -0.110 OA 
HETATM   27  C   UNL     1      -6.766   9.768  67.974  1.00  0.00    -0.061 C  
ENDBRANCH  24  25
ENDBRANCH  19  24
ENDBRANCH   4   5
ENDBRANCH   2   4
TORSDOF 4
ENDMDL
MODEL      129
REMARK 921   NORMALIZED FREE ENERGY PREDICTED BY IDOCK:   19.57 KCAL/MOL
REMARK 922        TOTAL FREE ENERGY PREDICTED BY IDOCK:   23.81 KCAL/MOL
REMARK 923 INTER-LIGAND FREE ENERGY PREDICTED BY IDOCK:   23.96 KCAL/MOL
REMARK 924 INTRA-LIGAND FREE ENERGY PREDICTED BY IDOCK:   -0.15 KCAL/MOL
REMARK 927      BINDING AFFINITY PREDICTED BY RF-SCORE:    0.00 PKD
ROOT
HETATM    1  C   UNL     1     -10.541  10.545  62.961  1.00  0.00     0.698 C  
HETATM    2  C   UNL     1     -12.028  10.742  63.002  1.00  0.00     2.258 C  
HETATM    3  O   UNL     1     -12.841   9.845  62.818  1.00  0.00     6.563 OA 
ENDROOT
BRANCH   2   4
HETATM    4  O   UNL     1     -12.300  12.086  63.269  1.00  0.00    -0.543 OA 
BRANCH   4   5
HETATM    5  C   UNL     1     -11.973  12.556  64.551  1.00  0.00    -0.404 A  
HETATM    6  C   UNL     1     -12.742  12.205  65.654  1.00  0.00     1.077 A  
HETATM    7  C   UNL     1     -12.365  12.636  66.922  1.00  0.00     0.214 A  
HETATM    8  C   UNL     1     -11.186  13.381  67.117  1.00  0.00    -0.325 A  
HETATM    9  C   UNL     1     -10.834  13.826  68.544  1.00  0.00    -0.280 C  
HETATM   10  C   UNL     1     -10.392  13.679  65.996  1.00  0.00    -0.305 A  
HETATM   11  C   UNL     1     -11.129  15.308  68.805  1.00  0.00    -0.270 A  
HETATM   12  C   UNL     1     -10.790  13.277  64.711  1.00  0.00    -0.374 A  
HETATM   13  C   UNL     1      -9.543  13.204  69.101  1.00  0.00     0.525 A  
HETATM   14  C   UNL     1     -10.480  16.345  68.133  1.00  0.00    -0.302 A  
HETATM   15  C   UNL     1      -8.436  13.932  69.561  1.00  0.00     0.822 A  
HETATM   16  C   UNL     1     -10.856  17.665  68.383  1.00  0.00    -0.148 A  
HETATM   17  C   UNL     1      -7.340  13.277  70.151  1.00  0.00     1.411 A  
HETATM   18  C   UNL     1     -11.879  17.928  69.287  1.00  0.00     4.039 A  
HETATM   19  C   UNL     1      -7.346  11.889  70.305  1.00  0.00     1.896 A  
HETATM   20  C   UNL     1      -8.414  11.142  69.828  1.00  0.00     0.852 A  
HETATM   21  C   UNL     1     -12.484  16.854  69.909  1.00  0.00     3.334 A  
HETATM   22  C   UNL     1      -9.497  11.797  69.232  1.00  0.00     0.498 A  
HETATM   23  N   UNL     1     -12.129  15.567  69.696  1.00  0.00    -0.354 NA 
BRANCH  19  24
HETATM   24  O   UNL     1      -6.191  11.295  70.865  1.00  0.00    -0.347 OA 
BRANCH  24  25
HETATM   25  C   UNL     1      -6.008  11.221  72.250  1.00  0.00     1.908 C  
HETATM   26  O   UNL     1      -6.321  10.293  72.984  1.00  0.00     0.852 OA 
HETATM   27  C   UNL     1      -5.311  12.465  72.726  1.00  0.00     0.670 C  
ENDBRANCH  24  25
ENDBRANCH  19  24
ENDBRANCH   4   5
ENDBRANCH   2   4
TORSDOF 4
ENDMDL
MODEL      130
REMARK 921   NORMALIZED FREE ENERGY PREDICTED BY IDOCK:   26.87 KCAL/MOL
REMARK 922        TOTAL FREE ENERGY PREDICTED BY IDOCK:   32.82 KCAL/MOL
REMARK 923 INTER-LIGAND FREE ENERGY PREDICTED BY IDOCK:   31.68 KCAL/MOL
REMARK 924 INTRA-LIGAND FREE ENERGY PREDICTED BY IDOCK:    1.14 KCAL/MOL
REMARK 927      BINDING AFFINITY PREDICTED BY RF-SCORE:    0.00 PKD
ROOT
HETATM    1  C   UNL     1     -10.227  10.687  66.499  1.00  0.00    -0.288 C  
HETATM    2  C   UNL     1     -11.430  11.569  66.335  1.00  0.00    -0.074 C  
HETATM    3  O   UNL     1     -12.426  11.505  67.044  1.00  0.00     0.552 OA 
ENDROOT
BRANCH   2   4
HETATM    4  O   UNL     1     -11.213  12.434  65.260  1.00  0.00    -0.299 OA 
BRANCH   4   5
HETATM    5  C   UNL     1     -10.820  13.746  65.571  1.00  0.00    -0.299 A  
HETATM    6  C   UNL     1     -11.630  14.827  65.247  1.00  0.00    -0.338 A  
HETATM    7  C   UNL     1     -11.247  16.112  65.619  1.00  0.00     0.107 A  
HETATM    8  C   UNL     1     -10.073  16.333  66.364  1.00  0.00    -0.318 A  
HETATM    9  C   UNL     1      -9.708  17.779  66.735  1.00  0.00    -0.309 C  
HETATM   10  C   UNL     1      -9.294  15.222  66.730  1.00  0.00    -0.265 A  
HETATM   11  C   UNL     1      -8.582  18.360  65.871  1.00  0.00     0.189 A  
HETATM   12  C   UNL     1      -9.660  13.928  66.325  1.00  0.00    -0.274 A  
HETATM   13  C   UNL     1      -9.727  18.069  68.245  1.00  0.00    -0.332 A  
HETATM   14  C   UNL     1      -7.284  17.847  65.866  1.00  0.00    -0.277 A  
HETATM   15  C   UNL     1      -8.637  18.553  68.982  1.00  0.00    -0.078 A  
HETATM   16  C   UNL     1      -6.335  18.393  65.000  1.00  0.00    -0.030 A  
HETATM   17  C   UNL     1      -8.780  18.888  70.341  1.00  0.00     2.487 A  
HETATM   18  C   UNL     1      -6.700  19.428  64.147  1.00  0.00     1.027 A  
HETATM   19  C   UNL     1     -10.018  18.760  70.973  1.00  0.00     3.072 A  
HETATM   20  C   UNL     1     -11.105  18.252  70.275  1.00  0.00     2.883 A  
HETATM   21  C   UNL     1      -8.004  19.880  64.199  1.00  0.00     3.658 A  
HETATM   22  C   UNL     1     -10.956  17.910  68.927  1.00  0.00     0.592 A  
HETATM   23  N   UNL     1      -8.937  19.379  65.038  1.00  0.00     1.353 NA 
BRANCH  19  24
HETATM   24  O   UNL     1     -10.077  19.072  72.351  1.00  0.00     3.056 OA 
BRANCH  24  25
HETATM   25  C   UNL     1      -8.998  19.673  73.009  1.00  0.00     4.504 C  
HETATM   26  O   UNL     1      -9.053  20.555  73.856  1.00  0.00     5.131 OA 
HETATM   27  C   UNL     1      -7.717  19.037  72.547  1.00  0.00     6.248 C  
ENDBRANCH  24  25
ENDBRANCH  19  24
ENDBRANCH   4   5
ENDBRANCH   2   4
TORSDOF 4
ENDMDL
MODEL      131
REMARK 921   NORMALIZED FREE ENERGY PREDICTED BY IDOCK:   27.53 KCAL/MOL
REMARK 922        TOTAL FREE ENERGY PREDICTED BY IDOCK:   33.63 KCAL/MOL
REMARK 923 INTER-LIGAND FREE ENERGY PREDICTED BY IDOCK:   32.79 KCAL/MOL
REMARK 924 INTRA-LIGAND FREE ENERGY PREDICTED BY IDOCK:    0.84 KCAL/MOL
REMARK 927      BINDING AFFINITY PREDICTED BY RF-SCORE:    0.00 PKD
ROOT
HETATM    1  C   UNL     1      -7.451   9.680  63.984  1.00  0.00    -0.128 C  
HETATM    2  C   UNL     1      -6.416   8.746  64.539  1.00  0.00    -0.067 C  
HETATM    3  O   UNL     1      -6.135   7.663  64.040  1.00  0.00    -0.048 OA 
ENDROOT
BRANCH   2   4
HETATM    4  O   UNL     1      -5.863   9.315  65.688  1.00  0.00    -0.052 OA 
BRANCH   4   5
HETATM    5  C   UNL     1      -6.404  10.539  66.113  1.00  0.00    -0.119 A  
HETATM    6  C   UNL     1      -5.682  11.719  65.981  1.00  0.00     0.682 A  
HETATM    7  C   UNL     1      -6.261  12.927  66.354  1.00  0.00     2.353 A  
HETATM    8  C   UNL     1      -7.590  12.984  66.818  1.00  0.00     0.451 A  
HETATM    9  C   UNL     1      -8.163  14.352  67.217  1.00  0.00    -0.223 C  
HETATM   10  C   UNL     1      -8.323  11.787  66.892  1.00  0.00    -0.170 A  
HETATM   11  C   UNL     1      -8.232  14.560  68.735  1.00  0.00    -0.146 A  
HETATM   12  C   UNL     1      -7.728  10.562  66.551  1.00  0.00    -0.131 A  
HETATM   13  C   UNL     1      -9.329  14.832  66.337  1.00  0.00    -0.320 A  
HETATM   14  C   UNL     1      -9.031  13.783  69.575  1.00  0.00     1.034 A  
HETATM   15  C   UNL     1     -10.609  15.159  66.808  1.00  0.00    -0.298 A  
HETATM   16  C   UNL     1      -8.983  13.995  70.954  1.00  0.00     4.950 A  
HETATM   17  C   UNL     1     -11.581  15.689  65.941  1.00  0.00     0.296 A  
HETATM   18  C   UNL     1      -8.133  14.966  71.470  1.00  0.00     3.939 A  
HETATM   19  C   UNL     1     -11.280  15.914  64.596  1.00  0.00    -0.351 A  
HETATM   20  C   UNL     1     -10.032  15.567  64.096  1.00  0.00     3.153 A  
HETATM   21  C   UNL     1      -7.365  15.692  70.581  1.00  0.00     1.361 A  
HETATM   22  C   UNL     1      -9.072  15.030  64.960  1.00  0.00     1.835 A  
HETATM   23  N   UNL     1      -7.402  15.516  69.242  1.00  0.00    -0.186 NA 
BRANCH  19  24
HETATM   24  O   UNL     1     -12.319  16.406  63.774  1.00  0.00    -0.701 OA 
BRANCH  24  25
HETATM   25  C   UNL     1     -13.647  16.008  63.960  1.00  0.00     3.898 C  
HETATM   26  O   UNL     1     -14.347  16.220  64.942  1.00  0.00     3.489 OA 
HETATM   27  C   UNL     1     -14.130  15.294  62.729  1.00  0.00     8.283 C  
ENDBRANCH  24  25
ENDBRANCH  19  24
ENDBRANCH   4   5
ENDBRANCH   2   4
TORSDOF 4
ENDMDL
MODEL      132
REMARK 921   NORMALIZED FREE ENERGY PREDICTED BY IDOCK:   29.02 KCAL/MOL
REMARK 922        TOTAL FREE ENERGY PREDICTED BY IDOCK:   35.47 KCAL/MOL
REMARK 923 INTER-LIGAND FREE ENERGY PREDICTED BY IDOCK:   35.19 KCAL/MOL
REMARK 924 INTRA-LIGAND FREE ENERGY PREDICTED BY IDOCK:    0.28 KCAL/MOL
REMARK 927      BINDING AFFINITY PREDICTED BY RF-SCORE:    0.00 PKD
ROOT
HETATM    1  C   UNL     1      -7.844   5.696  70.522  1.00  0.00    -0.099 C  
HETATM    2  C   UNL     1      -6.415   5.899  70.112  1.00  0.00    -0.039 C  
HETATM    3  O   UNL     1      -5.460   5.397  70.692  1.00  0.00    -0.004 OA 
ENDROOT
BRANCH   2   4
HETATM    4  O   UNL     1      -6.379   6.739  68.998  1.00  0.00    -0.032 OA 
BRANCH   4   5
HETATM    5  C   UNL     1      -7.286   7.811  68.982  1.00  0.00    -0.089 A  
HETATM    6  C   UNL     1      -7.452   8.619  70.101  1.00  0.00    -0.054 A  
HETATM    7  C   UNL     1      -8.313   9.710  70.041  1.00  0.00    -0.197 A  
HETATM    8  C   UNL     1      -8.983  10.044  68.849  1.00  0.00    -0.152 A  
HETATM    9  C   UNL     1      -9.922  11.259  68.857  1.00  0.00    -0.169 C  
HETATM   10  C   UNL     1      -8.761   9.247  67.712  1.00  0.00    -0.120 A  
HETATM   11  C   UNL     1     -11.407  10.877  68.909  1.00  0.00    -0.288 A  
HETATM   12  C   UNL     1      -7.921   8.124  67.779  1.00  0.00    -0.127 A  
HETATM   13  C   UNL     1      -9.472  12.414  67.948  1.00  0.00    -0.198 A  
HETATM   14  C   UNL     1     -12.047  10.169  67.891  1.00  0.00     2.060 A  
HETATM   15  C   UNL     1     -10.235  12.959  66.905  1.00  0.00    -0.243 A  
HETATM   16  C   UNL     1     -13.385   9.803  68.048  1.00  0.00    10.924 A  
HETATM   17  C   UNL     1      -9.782  14.084  66.194  1.00  0.00    -0.300 A  
HETATM   18  C   UNL     1     -14.055  10.138  69.219  1.00  0.00     5.376 A  
HETATM   19  C   UNL     1      -8.568  14.689  66.528  1.00  0.00     0.012 A  
HETATM   20  C   UNL     1      -7.777  14.149  67.533  1.00  0.00    -0.201 A  
HETATM   21  C   UNL     1     -13.357  10.832  70.188  1.00  0.00     0.529 A  
HETATM   22  C   UNL     1      -8.227  13.023  68.231  1.00  0.00    -0.150 A  
HETATM   23  N   UNL     1     -12.067  11.211  70.055  1.00  0.00    -0.338 NA 
BRANCH  19  24
HETATM   24  O   UNL     1      -8.154  15.788  65.741  1.00  0.00     0.593 OA 
BRANCH  24  25
HETATM   25  C   UNL     1      -6.812  15.972  65.394  1.00  0.00     5.620 C  
HETATM   26  O   UNL     1      -6.270  15.635  64.349  1.00  0.00    12.736 OA 
HETATM   27  C   UNL     1      -6.108  16.704  66.502  1.00  0.00     0.141 C  
ENDBRANCH  24  25
ENDBRANCH  19  24
ENDBRANCH   4   5
ENDBRANCH   2   4
TORSDOF 4
ENDMDL
MODEL      133
REMARK 921   NORMALIZED FREE ENERGY PREDICTED BY IDOCK:   29.89 KCAL/MOL
REMARK 922        TOTAL FREE ENERGY PREDICTED BY IDOCK:   36.54 KCAL/MOL
REMARK 923 INTER-LIGAND FREE ENERGY PREDICTED BY IDOCK:   35.71 KCAL/MOL
REMARK 924 INTRA-LIGAND FREE ENERGY PREDICTED BY IDOCK:    0.83 KCAL/MOL
REMARK 927      BINDING AFFINITY PREDICTED BY RF-SCORE:    0.00 PKD
ROOT
HETATM    1  C   UNL     1     -13.384   6.758  65.508  1.00  0.00    12.972 C  
HETATM    2  C   UNL     1     -13.111   5.572  64.631  1.00  0.00     7.915 C  
HETATM    3  O   UNL     1     -13.280   5.565  63.418  1.00  0.00     6.294 OA 
ENDROOT
BRANCH   2   4
HETATM    4  O   UNL     1     -12.655   4.517  65.425  1.00  0.00     3.480 OA 
BRANCH   4   5
HETATM    5  C   UNL     1     -11.622   4.805  66.331  1.00  0.00     2.805 A  
HETATM    6  C   UNL     1     -10.326   4.360  66.096  1.00  0.00    -0.175 A  
HETATM    7  C   UNL     1      -9.307   4.708  66.977  1.00  0.00    -0.153 A  
HETATM    8  C   UNL     1      -9.555   5.549  68.079  1.00  0.00    -0.147 A  
HETATM    9  C   UNL     1      -8.383   5.888  69.013  1.00  0.00    -0.106 C  
HETATM   10  C   UNL     1     -10.860   6.035  68.269  1.00  0.00    -0.366 A  
HETATM   11  C   UNL     1      -8.416   5.108  70.333  1.00  0.00    -0.109 A  
HETATM   12  C   UNL     1     -11.897   5.655  67.403  1.00  0.00     2.881 A  
HETATM   13  C   UNL     1      -7.993   7.376  69.025  1.00  0.00    -0.122 A  
HETATM   14  C   UNL     1      -9.436   5.246  71.275  1.00  0.00    -0.197 A  
HETATM   15  C   UNL     1      -7.969   8.189  70.167  1.00  0.00    -0.107 A  
HETATM   16  C   UNL     1      -9.424   4.448  72.420  1.00  0.00    -0.182 A  
HETATM   17  C   UNL     1      -7.498   9.513  70.098  1.00  0.00    -0.137 A  
HETATM   18  C   UNL     1      -8.405   3.521  72.599  1.00  0.00    -0.081 A  
HETATM   19  C   UNL     1      -7.028  10.032  68.890  1.00  0.00    -0.062 A  
HETATM   20  C   UNL     1      -7.072   9.259  67.737  1.00  0.00    -0.082 A  
HETATM   21  C   UNL     1      -7.432   3.431  71.623  1.00  0.00    -0.051 A  
HETATM   22  C   UNL     1      -7.552   7.947  67.809  1.00  0.00    -0.109 A  
HETATM   23  N   UNL     1      -7.413   4.201  70.512  1.00  0.00    -0.045 NA 
BRANCH  19  24
HETATM   24  O   UNL     1      -6.612  11.383  68.885  1.00  0.00    -0.059 OA 
BRANCH  24  25
HETATM   25  C   UNL     1      -7.362  12.380  69.519  1.00  0.00     0.455 C  
HETATM   26  O   UNL     1      -6.932  13.303  70.198  1.00  0.00     0.373 OA 
HETATM   27  C   UNL     1      -8.819  12.179  69.207  1.00  0.00     0.824 C  
ENDBRANCH  24  25
ENDBRANCH  19  24
ENDBRANCH   4   5
ENDBRANCH   2   4
TORSDOF 4
ENDMDL
MODEL      134
REMARK 921   NORMALIZED FREE ENERGY PREDICTED BY IDOCK:   30.70 KCAL/MOL
REMARK 922        TOTAL FREE ENERGY PREDICTED BY IDOCK:   37.54 KCAL/MOL
REMARK 923 INTER-LIGAND FREE ENERGY PREDICTED BY IDOCK:   36.73 KCAL/MOL
REMARK 924 INTRA-LIGAND FREE ENERGY PREDICTED BY IDOCK:    0.81 KCAL/MOL
REMARK 927      BINDING AFFINITY PREDICTED BY RF-SCORE:    0.00 PKD
ROOT
HETATM    1  C   UNL     1      -6.122  11.194  67.350  1.00  0.00    -0.061 C  
HETATM    2  C   UNL     1      -7.074  11.919  66.445  1.00  0.00     0.336 C  
HETATM    3  O   UNL     1      -8.153  11.467  66.086  1.00  0.00    -0.123 OA 
ENDROOT
BRANCH   2   4
HETATM    4  O   UNL     1      -6.516  13.151  66.095  1.00  0.00     2.252 OA 
BRANCH   4   5
HETATM    5  C   UNL     1      -7.228  14.300  66.476  1.00  0.00     2.051 A  
HETATM    6  C   UNL     1      -8.405  14.197  67.208  1.00  0.00    -0.212 A  
HETATM    7  C   UNL     1      -9.060  15.351  67.625  1.00  0.00    -0.183 A  
HETATM    8  C   UNL     1      -8.525  16.627  67.363  1.00  0.00    -0.204 A  
HETATM    9  C   UNL     1      -9.305  17.857  67.849  1.00  0.00    -0.271 C  
HETATM   10  C   UNL     1      -7.305  16.710  66.670  1.00  0.00    -0.290 A  
HETATM   11  C   UNL     1     -10.062  18.576  66.726  1.00  0.00    -0.380 A  
HETATM   12  C   UNL     1      -6.660  15.548  66.216  1.00  0.00     2.585 A  
HETATM   13  C   UNL     1      -8.577  18.687  68.920  1.00  0.00    -0.203 A  
HETATM   14  C   UNL     1      -9.423  19.189  65.647  1.00  0.00     0.470 A  
HETATM   15  C   UNL     1      -8.260  20.048  68.802  1.00  0.00     0.013 A  
HETATM   16  C   UNL     1     -10.190  19.764  64.633  1.00  0.00     2.742 A  
HETATM   17  C   UNL     1      -7.686  20.748  69.878  1.00  0.00     2.073 A  
HETATM   18  C   UNL     1     -11.577  19.707  64.705  1.00  0.00     2.865 A  
HETATM   19  C   UNL     1      -7.437  20.100  71.090  1.00  0.00     1.273 A  
HETATM   20  C   UNL     1      -7.711  18.746  71.222  1.00  0.00     5.050 A  
HETATM   21  C   UNL     1     -12.142  19.078  65.796  1.00  0.00     4.922 A  
HETATM   22  C   UNL     1      -8.272  18.051  70.145  1.00  0.00     2.457 A  
HETATM   23  N   UNL     1     -11.423  18.526  66.799  1.00  0.00     0.913 NA 
BRANCH  19  24
HETATM   24  O   UNL     1      -6.816  20.855  72.111  1.00  0.00     0.511 OA 
BRANCH  24  25
HETATM   25  C   UNL     1      -5.675  20.388  72.772  1.00  0.00     2.001 C  
HETATM   26  O   UNL     1      -5.136  20.888  73.751  1.00  0.00     5.965 OA 
HETATM   27  C   UNL     1      -5.206  19.119  72.117  1.00  0.00     0.176 C  
ENDBRANCH  24  25
ENDBRANCH  19  24
ENDBRANCH   4   5
ENDBRANCH   2   4
TORSDOF 4
ENDMDL
MODEL      135
REMARK 921   NORMALIZED FREE ENERGY PREDICTED BY IDOCK:   31.78 KCAL/MOL
REMARK 922        TOTAL FREE ENERGY PREDICTED BY IDOCK:   38.87 KCAL/MOL
REMARK 923 INTER-LIGAND FREE ENERGY PREDICTED BY IDOCK:   38.36 KCAL/MOL
REMARK 924 INTRA-LIGAND FREE ENERGY PREDICTED BY IDOCK:    0.52 KCAL/MOL
REMARK 927      BINDING AFFINITY PREDICTED BY RF-SCORE:    0.00 PKD
ROOT
HETATM    1  C   UNL     1      -9.082  12.659  66.829  1.00  0.00    -0.214 C  
HETATM    2  C   UNL     1     -10.493  13.170  66.785  1.00  0.00    -0.261 C  
HETATM    3  O   UNL     1     -10.802  14.291  66.404  1.00  0.00    -0.300 OA 
ENDROOT
BRANCH   2   4
HETATM    4  O   UNL     1     -11.350  12.170  67.251  1.00  0.00    -0.291 OA 
BRANCH   4   5
HETATM    5  C   UNL     1     -11.058  10.853  66.864  1.00  0.00    -0.167 A  
HETATM    6  C   UNL     1     -10.546  10.580  65.601  1.00  0.00    -0.132 A  
HETATM    7  C   UNL     1     -10.209   9.274  65.261  1.00  0.00     0.726 A  
HETATM    8  C   UNL     1     -10.329   8.226  66.194  1.00  0.00     0.427 A  
HETATM    9  C   UNL     1      -9.942   6.807  65.749  1.00  0.00     0.724 C  
HETATM   10  C   UNL     1     -10.796   8.530  67.485  1.00  0.00    -0.086 A  
HETATM   11  C   UNL     1     -11.153   5.914  65.454  1.00  0.00     2.391 A  
HETATM   12  C   UNL     1     -11.172   9.841  67.818  1.00  0.00    -0.006 A  
HETATM   13  C   UNL     1      -8.733   6.217  66.493  1.00  0.00    -0.133 A  
HETATM   14  C   UNL     1     -12.083   5.545  66.429  1.00  0.00     3.426 A  
HETATM   15  C   UNL     1      -8.746   5.019  67.221  1.00  0.00    -0.103 A  
HETATM   16  C   UNL     1     -13.194   4.784  66.062  1.00  0.00    12.741 A  
HETATM   17  C   UNL     1      -7.562   4.505  67.781  1.00  0.00    -0.077 A  
HETATM   18  C   UNL     1     -13.365   4.417  64.732  1.00  0.00    10.811 A  
HETATM   19  C   UNL     1      -6.349   5.174  67.605  1.00  0.00    -0.040 A  
HETATM   20  C   UNL     1      -6.314   6.379  66.917  1.00  0.00    -0.041 A  
HETATM   21  C   UNL     1     -12.412   4.824  63.820  1.00  0.00     5.330 A  
HETATM   22  C   UNL     1      -7.496   6.892  66.371  1.00  0.00    -0.074 A  
HETATM   23  N   UNL     1     -11.320   5.548  64.151  1.00  0.00     3.741 NA 
BRANCH  19  24
HETATM   24  O   UNL     1      -5.209   4.624  68.235  1.00  0.00    -0.006 OA 
BRANCH  24  25
HETATM   25  C   UNL     1      -5.211   3.316  68.732  1.00  0.00    -0.012 C  
HETATM   26  O   UNL     1      -5.214   2.977  69.908  1.00  0.00    -0.007 OA 
HETATM   27  C   UNL     1      -5.253   2.348  67.583  1.00  0.00    -0.012 C  
ENDBRANCH  24  25
ENDBRANCH  19  24
ENDBRANCH   4   5
ENDBRANCH   2   4
TORSDOF 4
ENDMDL
MODEL      136
REMARK 921   NORMALIZED FREE ENERGY PREDICTED BY IDOCK:   34.13 KCAL/MOL
REMARK 922        TOTAL FREE ENERGY PREDICTED BY IDOCK:   41.77 KCAL/MOL
REMARK 923 INTER-LIGAND FREE ENERGY PREDICTED BY IDOCK:   41.94 KCAL/MOL
REMARK 924 INTRA-LIGAND FREE ENERGY PREDICTED BY IDOCK:   -0.17 KCAL/MOL
REMARK 927      BINDING AFFINITY PREDICTED BY RF-SCORE:    0.00 PKD
ROOT
HETATM    1  C   UNL     1     -11.841   2.849  65.520  1.00  0.00     7.671 C  
HETATM    2  C   UNL     1     -11.431   4.275  65.742  1.00  0.00     2.066 C  
HETATM    3  O   UNL     1     -10.537   4.834  65.119  1.00  0.00    -0.054 OA 
ENDROOT
BRANCH   2   4
HETATM    4  O   UNL     1     -12.220   4.821  66.757  1.00  0.00     5.710 OA 
BRANCH   4   5
HETATM    5  C   UNL     1     -11.776   6.024  67.329  1.00  0.00     1.524 A  
HETATM    6  C   UNL     1     -10.476   6.147  67.806  1.00  0.00    -0.290 A  
HETATM    7  C   UNL     1     -10.041   7.367  68.314  1.00  0.00    -0.201 A  
HETATM    8  C   UNL     1     -10.879   8.498  68.307  1.00  0.00     0.013 A  
HETATM    9  C   UNL     1     -10.334   9.811  68.889  1.00  0.00    -0.225 C  
HETATM   10  C   UNL     1     -12.172   8.369  67.770  1.00  0.00     5.561 A  
HETATM   11  C   UNL     1     -10.880  10.127  70.286  1.00  0.00    -0.310 A  
HETATM   12  C   UNL     1     -12.626   7.129  67.291  1.00  0.00     7.803 A  
HETATM   13  C   UNL     1     -10.187  10.946  67.862  1.00  0.00    -0.205 A  
HETATM   14  C   UNL     1     -12.231  10.371  70.539  1.00  0.00    -0.412 A  
HETATM   15  C   UNL     1     -10.804  12.202  67.960  1.00  0.00    -0.258 A  
HETATM   16  C   UNL     1     -12.655  10.585  71.852  1.00  0.00    -0.349 A  
HETATM   17  C   UNL     1     -10.526  13.214  67.024  1.00  0.00    -0.248 A  
HETATM   18  C   UNL     1     -11.729  10.539  72.888  1.00  0.00     5.128 A  
HETATM   19  C   UNL     1      -9.617  12.989  65.989  1.00  0.00    -0.165 A  
HETATM   20  C   UNL     1      -9.018  11.744  65.849  1.00  0.00    -0.060 A  
HETATM   21  C   UNL     1     -10.411  10.284  72.566  1.00  0.00     6.290 A  
HETATM   22  C   UNL     1      -9.305  10.737  66.776  1.00  0.00    -0.182 A  
HETATM   23  N   UNL     1      -9.972  10.088  71.303  1.00  0.00     0.510 NA 
BRANCH  19  24
HETATM   24  O   UNL     1      -9.422  14.036  65.059  1.00  0.00     0.193 OA 
BRANCH  24  25
HETATM   25  C   UNL     1     -10.424  14.404  64.155  1.00  0.00     0.826 C  
HETATM   26  O   UNL     1     -11.122  13.654  63.485  1.00  0.00     0.206 OA 
HETATM   27  C   UNL     1     -10.561  15.901  64.147  1.00  0.00     1.399 C  
ENDBRANCH  24  25
ENDBRANCH  19  24
ENDBRANCH   4   5
ENDBRANCH   2   4
TORSDOF 4
ENDMDL
MODEL      137
REMARK 921   NORMALIZED FREE ENERGY PREDICTED BY IDOCK:   35.16 KCAL/MOL
REMARK 922        TOTAL FREE ENERGY PREDICTED BY IDOCK:   43.04 KCAL/MOL
REMARK 923 INTER-LIGAND FREE ENERGY PREDICTED BY IDOCK:   43.06 KCAL/MOL
REMARK 924 INTRA-LIGAND FREE ENERGY PREDICTED BY IDOCK:   -0.02 KCAL/MOL
REMARK 927      BINDING AFFINITY PREDICTED BY RF-SCORE:    0.00 PKD
ROOT
HETATM    1  C   UNL     1      -7.392  12.528  70.867  1.00  0.00     4.609 C  
HETATM    2  C   UNL     1      -8.863  12.823  70.860  1.00  0.00    10.012 C  
HETATM    3  O   UNL     1      -9.394  13.633  70.110  1.00  0.00     2.177 OA 
ENDROOT
BRANCH   2   4
HETATM    4  O   UNL     1      -9.487  12.042  71.835  1.00  0.00    13.793 OA 
BRANCH   4   5
HETATM    5  C   UNL     1     -10.030  10.817  71.415  1.00  0.00     4.733 A  
HETATM    6  C   UNL     1     -11.152  10.782  70.595  1.00  0.00     0.075 A  
HETATM    7  C   UNL     1     -11.637   9.559  70.143  1.00  0.00    -0.156 A  
HETATM    8  C   UNL     1     -10.980   8.354  70.460  1.00  0.00    -0.258 A  
HETATM    9  C   UNL     1     -11.574   7.040  69.930  1.00  0.00    -0.179 C  
HETATM   10  C   UNL     1      -9.815   8.414  71.244  1.00  0.00    -0.255 A  
HETATM   11  C   UNL     1     -12.328   6.242  71.001  1.00  0.00     0.251 A  
HETATM   12  C   UNL     1      -9.345   9.644  71.732  1.00  0.00     1.346 A  
HETATM   13  C   UNL     1     -10.676   6.297  68.928  1.00  0.00    -0.357 A  
HETATM   14  C   UNL     1     -11.707   5.710  72.132  1.00  0.00    -0.149 A  
HETATM   15  C   UNL     1     -10.215   4.982  69.086  1.00  0.00    -0.227 A  
HETATM   16  C   UNL     1     -12.479   5.053  73.092  1.00  0.00     0.663 A  
HETATM   17  C   UNL     1      -9.483   4.349  68.065  1.00  0.00    -0.208 A  
HETATM   18  C   UNL     1     -13.854   4.950  72.914  1.00  0.00     2.669 A  
HETATM   19  C   UNL     1      -9.218   5.018  66.868  1.00  0.00    -0.120 A  
HETATM   20  C   UNL     1      -9.634   6.332  66.699  1.00  0.00    -0.190 A  
HETATM   21  C   UNL     1     -14.402   5.507  71.776  1.00  0.00     2.700 A  
HETATM   22  C   UNL     1     -10.352   6.960  67.722  1.00  0.00    -0.253 A  
HETATM   23  N   UNL     1     -13.676   6.135  70.825  1.00  0.00     2.395 NA 
BRANCH  19  24
HETATM   24  O   UNL     1      -8.438   4.337  65.905  1.00  0.00    -0.112 OA 
BRANCH  24  25
HETATM   25  C   UNL     1      -8.677   4.486  64.535  1.00  0.00    -0.148 C  
HETATM   26  O   UNL     1      -9.588   5.114  64.012  1.00  0.00     0.314 OA 
HETATM   27  C   UNL     1      -7.600   3.777  63.763  1.00  0.00    -0.070 C  
ENDBRANCH  24  25
ENDBRANCH  19  24
ENDBRANCH   4   5
ENDBRANCH   2   4
TORSDOF 4
ENDMDL
MODEL      138
REMARK 921   NORMALIZED FREE ENERGY PREDICTED BY IDOCK:   35.16 KCAL/MOL
REMARK 922        TOTAL FREE ENERGY PREDICTED BY IDOCK:   43.04 KCAL/MOL
REMARK 923 INTER-LIGAND FREE ENERGY PREDICTED BY IDOCK:   41.17 KCAL/MOL
REMARK 924 INTRA-LIGAND FREE ENERGY PREDICTED BY IDOCK:    1.87 KCAL/MOL
REMARK 927      BINDING AFFINITY PREDICTED BY RF-SCORE:    0.00 PKD
ROOT
HETATM    1  C   UNL     1     -10.831   4.210  64.449  1.00  0.00    -0.115 C  
HETATM    2  C   UNL     1     -12.199   4.761  64.174  1.00  0.00     3.967 C  
HETATM    3  O   UNL     1     -12.561   5.175  63.080  1.00  0.00     3.604 OA 
ENDROOT
BRANCH   2   4
HETATM    4  O   UNL     1     -12.947   4.725  65.353  1.00  0.00     4.757 OA 
BRANCH   4   5
HETATM    5  C   UNL     1     -12.234   4.804  66.559  1.00  0.00     7.088 A  
HETATM    6  C   UNL     1     -11.151   3.966  66.801  1.00  0.00     3.360 A  
HETATM    7  C   UNL     1     -10.424   4.103  67.979  1.00  0.00     0.810 A  
HETATM    8  C   UNL     1     -10.733   5.112  68.912  1.00  0.00     0.107 A  
HETATM    9  C   UNL     1      -9.890   5.201  70.193  1.00  0.00    -0.300 C  
HETATM   10  C   UNL     1     -11.796   5.985  68.624  1.00  0.00     1.569 A  
HETATM   11  C   UNL     1     -10.604   4.639  71.428  1.00  0.00     0.083 A  
HETATM   12  C   UNL     1     -12.555   5.825  67.454  1.00  0.00     8.430 A  
HETATM   13  C   UNL     1      -9.066   6.493  70.320  1.00  0.00    -0.155 A  
HETATM   14  C   UNL     1     -11.775   5.194  71.949  1.00  0.00     0.581 A  
HETATM   15  C   UNL     1      -9.156   7.400  71.386  1.00  0.00    -0.146 A  
HETATM   16  C   UNL     1     -12.398   4.581  73.037  1.00  0.00     0.476 A  
HETATM   17  C   UNL     1      -8.286   8.502  71.468  1.00  0.00    -0.199 A  
HETATM   18  C   UNL     1     -11.853   3.422  73.576  1.00  0.00     0.186 A  
HETATM   19  C   UNL     1      -7.304   8.700  70.494  1.00  0.00    -0.058 A  
HETATM   20  C   UNL     1      -7.215   7.836  69.411  1.00  0.00    -0.080 A  
HETATM   21  C   UNL     1     -10.699   2.923  73.005  1.00  0.00    -0.125 A  
HETATM   22  C   UNL     1      -8.090   6.748  69.329  1.00  0.00    -0.120 A  
HETATM   23  N   UNL     1     -10.068   3.505  71.962  1.00  0.00    -0.151 NA 
BRANCH  19  24
HETATM   24  O   UNL     1      -6.496   9.854  70.616  1.00  0.00    -0.100 OA 
BRANCH  24  25
HETATM   25  C   UNL     1      -7.013  11.059  71.102  1.00  0.00     2.392 C  
HETATM   26  O   UNL     1      -6.411  11.915  71.736  1.00  0.00     1.412 OA 
HETATM   27  C   UNL     1      -8.453  11.185  70.688  1.00  0.00     3.898 C  
ENDBRANCH  24  25
ENDBRANCH  19  24
ENDBRANCH   4   5
ENDBRANCH   2   4
TORSDOF 4
ENDMDL
MODEL      139
REMARK 921   NORMALIZED FREE ENERGY PREDICTED BY IDOCK:   47.63 KCAL/MOL
REMARK 922        TOTAL FREE ENERGY PREDICTED BY IDOCK:   58.43 KCAL/MOL
REMARK 923 INTER-LIGAND FREE ENERGY PREDICTED BY IDOCK:   58.64 KCAL/MOL
REMARK 924 INTRA-LIGAND FREE ENERGY PREDICTED BY IDOCK:   -0.21 KCAL/MOL
REMARK 927      BINDING AFFINITY PREDICTED BY RF-SCORE:    0.00 PKD
ROOT
HETATM    1  C   UNL     1      -7.994   6.207  72.125  1.00  0.00    -0.109 C  
HETATM    2  C   UNL     1      -6.867   6.543  71.193  1.00  0.00    -0.066 C  
HETATM    3  O   UNL     1      -6.438   5.779  70.337  1.00  0.00    -0.033 OA 
ENDROOT
BRANCH   2   4
HETATM    4  O   UNL     1      -6.411   7.831  71.480  1.00  0.00    -0.038 OA 
BRANCH   4   5
HETATM    5  C   UNL     1      -6.836   8.859  70.624  1.00  0.00    -0.057 A  
HETATM    6  C   UNL     1      -5.987   9.369  69.648  1.00  0.00    -0.036 A  
HETATM    7  C   UNL     1      -6.451  10.346  68.773  1.00  0.00    -0.051 A  
HETATM    8  C   UNL     1      -7.785  10.794  68.823  1.00  0.00    -0.121 A  
HETATM    9  C   UNL     1      -8.226  11.878  67.829  1.00  0.00    -0.148 C  
HETATM   10  C   UNL     1      -8.644  10.227  69.780  1.00  0.00    -0.078 A  
HETATM   11  C   UNL     1      -8.339  13.270  68.463  1.00  0.00    -0.075 A  
HETATM   12  C   UNL     1      -8.169   9.268  70.689  1.00  0.00    -0.224 A  
HETATM   13  C   UNL     1      -9.294  11.419  66.823  1.00  0.00    -0.192 A  
HETATM   14  C   UNL     1      -9.253  13.576  69.473  1.00  0.00     1.222 A  
HETATM   15  C   UNL     1     -10.551  12.018  66.657  1.00  0.00    -0.266 A  
HETATM   16  C   UNL     1      -9.245  14.851  70.042  1.00  0.00     0.452 A  
HETATM   17  C   UNL     1     -11.421  11.592  65.637  1.00  0.00    -0.171 A  
HETATM   18  C   UNL     1      -8.320  15.791  69.604  1.00  0.00    -0.013 A  
HETATM   19  C   UNL     1     -11.038  10.575  64.761  1.00  0.00     0.841 A  
HETATM   20  C   UNL     1      -9.813   9.942  64.924  1.00  0.00    -0.282 A  
HETATM   21  C   UNL     1      -7.440  15.418  68.608  1.00  0.00    -0.130 A  
HETATM   22  C   UNL     1      -8.955  10.361  65.947  1.00  0.00    -0.182 A  
HETATM   23  N   UNL     1      -7.436  14.196  68.030  1.00  0.00    -0.123 NA 
BRANCH  19  24
HETATM   24  O   UNL     1     -11.982  10.168  63.790  1.00  0.00     4.308 OA 
BRANCH  24  25
HETATM   25  C   UNL     1     -12.085   8.832  63.388  1.00  0.00    19.447 C  
HETATM   26  O   UNL     1     -11.281   8.204  62.710  1.00  0.00    11.968 OA 
HETATM   27  C   UNL     1     -13.342   8.237  63.957  1.00  0.00    22.797 C  
ENDBRANCH  24  25
ENDBRANCH  19  24
ENDBRANCH   4   5
ENDBRANCH   2   4
TORSDOF 4
ENDMDL
MODEL      140
REMARK 921   NORMALIZED FREE ENERGY PREDICTED BY IDOCK:   59.25 KCAL/MOL
REMARK 922        TOTAL FREE ENERGY PREDICTED BY IDOCK:   72.77 KCAL/MOL
REMARK 923 INTER-LIGAND FREE ENERGY PREDICTED BY IDOCK:   72.74 KCAL/MOL
REMARK 924 INTRA-LIGAND FREE ENERGY PREDICTED BY IDOCK:    0.03 KCAL/MOL
REMARK 927      BINDING AFFINITY PREDICTED BY RF-SCORE:    0.00 PKD
ROOT
HETATM    1  C   UNL     1     -11.018  19.729  73.041  1.00  0.00     6.068 C  
HETATM    2  C   UNL     1     -12.226  18.862  72.840  1.00  0.00     9.540 C  
HETATM    3  O   UNL     1     -13.073  18.661  73.701  1.00  0.00     6.692 OA 
ENDROOT
BRANCH   2   4
HETATM    4  O   UNL     1     -12.199  18.342  71.544  1.00  0.00     7.607 OA 
BRANCH   4   5
HETATM    5  C   UNL     1     -11.503  17.138  71.358  1.00  0.00     1.193 A  
HETATM    6  C   UNL     1     -10.503  16.751  72.242  1.00  0.00     4.070 A  
HETATM    7  C   UNL     1      -9.868  15.525  72.071  1.00  0.00     3.666 A  
HETATM    8  C   UNL     1     -10.256  14.642  71.045  1.00  0.00     1.474 A  
HETATM    9  C   UNL     1      -9.507  13.307  70.912  1.00  0.00     7.845 C  
HETATM   10  C   UNL     1     -11.307  15.026  70.195  1.00  0.00    -0.303 A  
HETATM   11  C   UNL     1      -8.498  13.291  69.758  1.00  0.00     2.064 A  
HETATM   12  C   UNL     1     -11.924  16.278  70.342  1.00  0.00     0.069 A  
HETATM   13  C   UNL     1     -10.376  12.065  71.172  1.00  0.00     6.596 A  
HETATM   14  C   UNL     1      -8.870  13.418  68.419  1.00  0.00    -0.133 A  
HETATM   15  C   UNL     1     -10.573  11.019  70.259  1.00  0.00     0.496 A  
HETATM   16  C   UNL     1      -7.881  13.461  67.434  1.00  0.00    -0.154 A  
HETATM   17  C   UNL     1     -11.301   9.873  70.625  1.00  0.00    -0.413 A  
HETATM   18  C   UNL     1      -6.543  13.390  67.803  1.00  0.00    -0.168 A  
HETATM   19  C   UNL     1     -11.826   9.751  71.913  1.00  0.00    -0.123 A  
HETATM   20  C   UNL     1     -11.674  10.787  72.825  1.00  0.00     5.057 A  
HETATM   21  C   UNL     1      -6.247  13.275  69.147  1.00  0.00    -0.099 A  
HETATM   22  C   UNL     1     -10.959  11.929  72.453  1.00  0.00     9.925 A  
HETATM   23  N   UNL     1      -7.184  13.216  70.118  1.00  0.00     0.964 NA 
BRANCH  19  24
HETATM   24  O   UNL     1     -12.585   8.593  72.196  1.00  0.00    -0.346 OA 
BRANCH  24  25
HETATM   25  C   UNL     1     -11.973   7.395  72.579  1.00  0.00    -0.132 C  
HETATM   26  O   UNL     1     -12.026   6.321  71.994  1.00  0.00    -0.330 OA 
HETATM   27  C   UNL     1     -11.175   7.624  73.833  1.00  0.00     1.614 C  
ENDBRANCH  24  25
ENDBRANCH  19  24
ENDBRANCH   4   5
ENDBRANCH   2   4
TORSDOF 4
ENDMDL
