MODEL        1
REMARK 921   NORMALIZED FREE ENERGY PREDICTED BY IDOCK:   -5.88 KCAL/MOL
REMARK 922        TOTAL FREE ENERGY PREDICTED BY IDOCK:  -11.03 KCAL/MOL
REMARK 923 INTER-LIGAND FREE ENERGY PREDICTED BY IDOCK:  -10.01 KCAL/MOL
REMARK 924 INTRA-LIGAND FREE ENERGY PREDICTED BY IDOCK:   -1.02 KCAL/MOL
REMARK 927      BINDING AFFINITY PREDICTED BY RF-SCORE:    0.00 PKD
ROOT
HETATM    1  C   UNL     1     -10.065   7.500  71.458  1.00  0.00    -0.201 C  
HETATM    2  C   UNL     1     -10.919   7.327  70.200  1.00  0.00    -0.260 C  
HETATM    3  C   UNL     1     -10.887   5.862  69.758  1.00  0.00    -0.447 C  
ENDROOT
BRANCH   2   4
HETATM    4  N   UNL     1     -12.280   7.775  70.499  1.00  0.00    -0.491 NA 
HETATM    5  H   UNL     1     -12.964   7.090  70.176  1.00  0.00     0.000 HD 
BRANCH   4   6
HETATM    6  C   UNL     1     -12.493   8.095  71.917  1.00  0.00    -0.332 C  
BRANCH   6   7
HETATM    7  C   UNL     1     -13.677   9.068  72.067  1.00  0.00    -0.461 C  
HETATM    8  O   UNL     1     -14.223   8.957  73.390  1.00  0.00    -1.241 OA 
HETATM    9  H   UNL     1     -14.954   9.557  73.483  1.00  0.00     0.000 HD 
BRANCH   7  10
HETATM   10  C   UNL     1     -13.258  10.518  71.801  1.00  0.00    -0.417 C  
BRANCH  10  11
HETATM   11  O   UNL     1     -12.028  10.528  71.060  1.00  0.00    -0.343 OA 
BRANCH  11  12
HETATM   12  C   UNL     1     -11.938  11.509  70.109  1.00  0.00    -0.369 A  
HETATM   13  C   UNL     1     -11.692  11.282  68.755  1.00  0.00    -0.405 A  
HETATM   14  C   UNL     1     -11.611  12.357  67.866  1.00  0.00    -0.415 A  
HETATM   15  C   UNL     1     -11.785  13.674  68.313  1.00  0.00    -0.398 A  
HETATM   16  C   UNL     1     -12.064  13.893  69.665  1.00  0.00    -0.404 A  
HETATM   17  C   UNL     1     -12.149  12.814  70.556  1.00  0.00    -0.369 A  
BRANCH  15  18
HETATM   18  C   UNL     1     -11.650  14.820  67.344  1.00  0.00    -0.360 C  
BRANCH  18  19
HETATM   19  O   UNL     1     -11.705  14.300  66.019  1.00  0.00    -0.358 OA 
BRANCH  19  20
HETATM   20  C   UNL     1     -11.143  15.200  65.067  1.00  0.00    -0.419 C  
BRANCH  20  21
HETATM   21  C   UNL     1     -10.257  16.192  65.811  1.00  0.00    -0.374 C  
BRANCH  21  22
HETATM   22  O   UNL     1     -10.606  17.528  65.451  1.00  0.00    -0.648 OA 
BRANCH  22  23
HETATM   23  C   UNL     1      -9.913  18.523  66.215  1.00  0.00    -0.365 C  
HETATM   24  C   UNL     1     -10.438  19.926  65.926  1.00  0.00    -0.567 C  
HETATM   25  C   UNL     1     -10.119  18.184  67.687  1.00  0.00    -0.367 C  
ENDBRANCH  22  23
ENDBRANCH  21  22
ENDBRANCH  20  21
ENDBRANCH  19  20
ENDBRANCH  18  19
ENDBRANCH  15  18
ENDBRANCH  11  12
ENDBRANCH  10  11
ENDBRANCH   7  10
ENDBRANCH   6   7
ENDBRANCH   4   6
ENDBRANCH   2   4
TORSDOF 12
ENDMDL
MODEL        2
REMARK 921   NORMALIZED FREE ENERGY PREDICTED BY IDOCK:   -5.76 KCAL/MOL
REMARK 922        TOTAL FREE ENERGY PREDICTED BY IDOCK:  -10.83 KCAL/MOL
REMARK 923 INTER-LIGAND FREE ENERGY PREDICTED BY IDOCK:   -9.73 KCAL/MOL
REMARK 924 INTRA-LIGAND FREE ENERGY PREDICTED BY IDOCK:   -1.10 KCAL/MOL
REMARK 927      BINDING AFFINITY PREDICTED BY RF-SCORE:    0.00 PKD
ROOT
HETATM    1  C   UNL     1     -10.687   5.910  71.366  1.00  0.00    -0.319 C  
HETATM    2  C   UNL     1     -11.046   6.877  70.235  1.00  0.00    -0.297 C  
HETATM    3  C   UNL     1     -11.034   6.128  68.900  1.00  0.00    -0.424 C  
ENDROOT
BRANCH   2   4
HETATM    4  N   UNL     1     -12.360   7.456  70.521  1.00  0.00    -0.554 NA 
HETATM    5  H   UNL     1     -13.104   6.801  70.281  1.00  0.00     0.000 HD 
BRANCH   4   6
HETATM    6  C   UNL     1     -12.504   7.924  71.907  1.00  0.00    -0.321 C  
BRANCH   6   7
HETATM    7  C   UNL     1     -13.639   8.960  71.999  1.00  0.00    -0.441 C  
HETATM    8  O   UNL     1     -14.331   8.803  73.247  1.00  0.00    -1.125 OA 
HETATM    9  H   UNL     1     -15.032   9.443  73.304  1.00  0.00     0.000 HD 
BRANCH   7  10
HETATM   10  C   UNL     1     -13.111  10.394  71.879  1.00  0.00    -0.458 C  
BRANCH  10  11
HETATM   11  O   UNL     1     -11.863  10.381  71.168  1.00  0.00    -0.356 OA 
BRANCH  11  12
HETATM   12  C   UNL     1     -11.803  11.230  70.096  1.00  0.00    -0.364 A  
HETATM   13  C   UNL     1     -11.544  10.836  68.784  1.00  0.00    -0.350 A  
HETATM   14  C   UNL     1     -11.496  11.787  67.761  1.00  0.00    -0.381 A  
HETATM   15  C   UNL     1     -11.718  13.145  68.031  1.00  0.00    -0.394 A  
HETATM   16  C   UNL     1     -12.011  13.530  69.342  1.00  0.00    -0.383 A  
HETATM   17  C   UNL     1     -12.062  12.574  70.367  1.00  0.00    -0.380 A  
BRANCH  15  18
HETATM   18  C   UNL     1     -11.619  14.157  66.920  1.00  0.00    -0.391 C  
BRANCH  18  19
HETATM   19  O   UNL     1     -12.628  13.869  65.955  1.00  0.00    -0.467 OA 
BRANCH  19  20
HETATM   20  C   UNL     1     -12.180  14.108  64.623  1.00  0.00    -0.445 C  
BRANCH  20  21
HETATM   21  C   UNL     1     -10.885  13.332  64.408  1.00  0.00    -0.403 C  
BRANCH  21  22
HETATM   22  O   UNL     1     -11.034  12.423  63.318  1.00  0.00    -0.438 OA 
BRANCH  22  23
HETATM   23  C   UNL     1     -10.284  11.213  63.480  1.00  0.00    -0.390 C  
HETATM   24  C   UNL     1      -9.151  11.109  62.462  1.00  0.00    -0.347 C  
HETATM   25  C   UNL     1      -9.712  11.224  64.894  1.00  0.00    -0.297 C  
ENDBRANCH  22  23
ENDBRANCH  21  22
ENDBRANCH  20  21
ENDBRANCH  19  20
ENDBRANCH  18  19
ENDBRANCH  15  18
ENDBRANCH  11  12
ENDBRANCH  10  11
ENDBRANCH   7  10
ENDBRANCH   6   7
ENDBRANCH   4   6
ENDBRANCH   2   4
TORSDOF 12
ENDMDL
MODEL        3
REMARK 921   NORMALIZED FREE ENERGY PREDICTED BY IDOCK:   -5.76 KCAL/MOL
REMARK 922        TOTAL FREE ENERGY PREDICTED BY IDOCK:  -10.82 KCAL/MOL
REMARK 923 INTER-LIGAND FREE ENERGY PREDICTED BY IDOCK:   -9.75 KCAL/MOL
REMARK 924 INTRA-LIGAND FREE ENERGY PREDICTED BY IDOCK:   -1.07 KCAL/MOL
REMARK 927      BINDING AFFINITY PREDICTED BY RF-SCORE:    0.00 PKD
ROOT
HETATM    1  C   UNL     1     -10.745   6.811  70.787  1.00  0.00    -0.270 C  
HETATM    2  C   UNL     1     -10.601   7.246  72.247  1.00  0.00    -0.224 C  
HETATM    3  C   UNL     1      -9.562   8.366  72.345  1.00  0.00    -0.373 C  
ENDROOT
BRANCH   2   4
HETATM    4  N   UNL     1     -11.912   7.679  72.733  1.00  0.00    -0.592 NA 
HETATM    5  H   UNL     1     -11.818   8.469  73.371  1.00  0.00     0.000 HD 
BRANCH   4   6
HETATM    6  C   UNL     1     -12.862   7.990  71.656  1.00  0.00    -0.329 C  
BRANCH   6   7
HETATM    7  C   UNL     1     -13.770   9.161  72.074  1.00  0.00    -0.448 C  
HETATM    8  O   UNL     1     -14.232   8.953  73.419  1.00  0.00    -1.241 OA 
HETATM    9  H   UNL     1     -14.792   9.676  73.677  1.00  0.00     0.000 HD 
BRANCH   7  10
HETATM   10  C   UNL     1     -13.042  10.506  71.982  1.00  0.00    -0.406 C  
BRANCH  10  11
HETATM   11  O   UNL     1     -11.962  10.396  71.041  1.00  0.00    -0.339 OA 
BRANCH  11  12
HETATM   12  C   UNL     1     -11.928  11.378  70.087  1.00  0.00    -0.377 A  
HETATM   13  C   UNL     1     -12.064  12.742  70.347  1.00  0.00    -0.382 A  
HETATM   14  C   UNL     1     -12.023  13.664  69.299  1.00  0.00    -0.384 A  
HETATM   15  C   UNL     1     -11.836  13.240  67.975  1.00  0.00    -0.392 A  
HETATM   16  C   UNL     1     -11.667  11.875  67.725  1.00  0.00    -0.362 A  
HETATM   17  C   UNL     1     -11.704  10.951  68.778  1.00  0.00    -0.355 A  
BRANCH  15  18
HETATM   18  C   UNL     1     -11.838  14.249  66.857  1.00  0.00    -0.433 C  
BRANCH  18  19
HETATM   19  O   UNL     1     -10.963  13.789  65.831  1.00  0.00    -0.282 OA 
BRANCH  19  20
HETATM   20  C   UNL     1     -10.530  14.848  64.980  1.00  0.00    -0.401 C  
BRANCH  20  21
HETATM   21  C   UNL     1      -9.755  15.853  65.825  1.00  0.00    -0.325 C  
BRANCH  21  22
HETATM   22  O   UNL     1      -9.988  17.177  65.349  1.00  0.00    -0.547 OA 
BRANCH  22  23
HETATM   23  C   UNL     1      -9.787  18.186  66.347  1.00  0.00    -0.353 C  
HETATM   24  C   UNL     1     -10.345  19.536  65.909  1.00  0.00    -0.562 C  
HETATM   25  C   UNL     1     -10.499  17.714  67.611  1.00  0.00    -0.372 C  
ENDBRANCH  22  23
ENDBRANCH  21  22
ENDBRANCH  20  21
ENDBRANCH  19  20
ENDBRANCH  18  19
ENDBRANCH  15  18
ENDBRANCH  11  12
ENDBRANCH  10  11
ENDBRANCH   7  10
ENDBRANCH   6   7
ENDBRANCH   4   6
ENDBRANCH   2   4
TORSDOF 12
ENDMDL
MODEL        4
REMARK 921   NORMALIZED FREE ENERGY PREDICTED BY IDOCK:   -5.57 KCAL/MOL
REMARK 922        TOTAL FREE ENERGY PREDICTED BY IDOCK:  -10.50 KCAL/MOL
REMARK 923 INTER-LIGAND FREE ENERGY PREDICTED BY IDOCK:   -8.87 KCAL/MOL
REMARK 924 INTRA-LIGAND FREE ENERGY PREDICTED BY IDOCK:   -1.63 KCAL/MOL
REMARK 927      BINDING AFFINITY PREDICTED BY RF-SCORE:    0.00 PKD
ROOT
HETATM    1  C   UNL     1     -11.128   6.284  68.753  1.00  0.00    -0.424 C  
HETATM    2  C   UNL     1     -11.331   6.332  70.269  1.00  0.00    -0.388 C  
HETATM    3  C   UNL     1     -10.046   6.824  70.940  1.00  0.00    -0.207 C  
ENDROOT
BRANCH   2   4
HETATM    4  N   UNL     1     -12.465   7.212  70.557  1.00  0.00    -0.614 NA 
HETATM    5  H   UNL     1     -13.346   6.703  70.479  1.00  0.00     0.000 HD 
BRANCH   4   6
HETATM    6  C   UNL     1     -12.367   7.885  71.859  1.00  0.00    -0.315 C  
BRANCH   6   7
HETATM    7  C   UNL     1     -13.399   9.025  71.943  1.00  0.00    -0.417 C  
HETATM    8  O   UNL     1     -13.998   9.035  73.249  1.00  0.00    -1.205 OA 
HETATM    9  H   UNL     1     -14.634   9.739  73.300  1.00  0.00     0.000 HD 
BRANCH   7  10
HETATM   10  C   UNL     1     -12.763  10.390  71.658  1.00  0.00    -0.455 C  
BRANCH  10  11
HETATM   11  O   UNL     1     -11.521  10.197  70.961  1.00  0.00    -0.354 OA 
BRANCH  11  12
HETATM   12  C   UNL     1     -11.477  10.740  69.705  1.00  0.00    -0.305 A  
HETATM   13  C   UNL     1     -11.909  12.025  69.379  1.00  0.00    -0.384 A  
HETATM   14  C   UNL     1     -11.828  12.481  68.061  1.00  0.00    -0.382 A  
HETATM   15  C   UNL     1     -11.303  11.664  67.050  1.00  0.00    -0.373 A  
HETATM   16  C   UNL     1     -10.840  10.390  67.388  1.00  0.00    -0.344 A  
HETATM   17  C   UNL     1     -10.919   9.935  68.711  1.00  0.00    -0.217 A  
BRANCH  15  18
HETATM   18  C   UNL     1     -11.265  12.161  65.628  1.00  0.00    -0.335 C  
BRANCH  18  19
HETATM   19  O   UNL     1     -11.788  13.486  65.598  1.00  0.00    -0.338 OA 
BRANCH  19  20
HETATM   20  C   UNL     1     -11.170  14.284  64.590  1.00  0.00    -0.366 C  
BRANCH  20  21
HETATM   21  C   UNL     1     -10.081  15.124  65.247  1.00  0.00    -0.330 C  
BRANCH  21  22
HETATM   22  O   UNL     1     -10.668  16.162  66.030  1.00  0.00    -0.308 OA 
BRANCH  22  23
HETATM   23  C   UNL     1     -10.115  16.263  67.349  1.00  0.00    -0.260 C  
HETATM   24  C   UNL     1     -11.184  16.106  68.425  1.00  0.00    -0.358 C  
HETATM   25  C   UNL     1      -9.074  15.156  67.485  1.00  0.00    -0.187 C  
ENDBRANCH  22  23
ENDBRANCH  21  22
ENDBRANCH  20  21
ENDBRANCH  19  20
ENDBRANCH  18  19
ENDBRANCH  15  18
ENDBRANCH  11  12
ENDBRANCH  10  11
ENDBRANCH   7  10
ENDBRANCH   6   7
ENDBRANCH   4   6
ENDBRANCH   2   4
TORSDOF 12
ENDMDL
MODEL        5
REMARK 921   NORMALIZED FREE ENERGY PREDICTED BY IDOCK:   -5.54 KCAL/MOL
REMARK 922        TOTAL FREE ENERGY PREDICTED BY IDOCK:  -10.45 KCAL/MOL
REMARK 923 INTER-LIGAND FREE ENERGY PREDICTED BY IDOCK:   -9.51 KCAL/MOL
REMARK 924 INTRA-LIGAND FREE ENERGY PREDICTED BY IDOCK:   -0.94 KCAL/MOL
REMARK 927      BINDING AFFINITY PREDICTED BY RF-SCORE:    0.00 PKD
ROOT
HETATM    1  C   UNL     1     -11.475   6.475  70.459  1.00  0.00    -0.448 C  
HETATM    2  C   UNL     1     -11.709   6.275  71.959  1.00  0.00    -0.322 C  
HETATM    3  C   UNL     1     -10.688   7.098  72.749  1.00  0.00    -0.325 C  
ENDROOT
BRANCH   2   4
HETATM    4  N   UNL     1     -13.083   6.672  72.270  1.00  0.00    -0.526 NA 
HETATM    5  H   UNL     1     -13.137   7.090  73.199  1.00  0.00     0.000 HD 
BRANCH   4   6
HETATM    6  C   UNL     1     -13.678   7.562  71.263  1.00  0.00    -0.251 C  
BRANCH   6   7
HETATM    7  C   UNL     1     -13.935   8.952  71.873  1.00  0.00    -0.419 C  
HETATM    8  O   UNL     1     -13.989   8.845  73.305  1.00  0.00    -1.203 OA 
HETATM    9  H   UNL     1     -14.148   9.703  73.681  1.00  0.00     0.000 HD 
BRANCH   7  10
HETATM   10  C   UNL     1     -12.852   9.959  71.472  1.00  0.00    -0.421 C  
BRANCH  10  11
HETATM   11  O   UNL     1     -13.165  11.242  72.037  1.00  0.00    -0.506 OA 
BRANCH  11  12
HETATM   12  C   UNL     1     -12.766  12.314  71.285  1.00  0.00    -0.251 A  
HETATM   13  C   UNL     1     -12.097  12.223  70.064  1.00  0.00    -0.346 A  
HETATM   14  C   UNL     1     -11.726  13.382  69.379  1.00  0.00    -0.382 A  
HETATM   15  C   UNL     1     -12.025  14.650  69.896  1.00  0.00    -0.381 A  
HETATM   16  C   UNL     1     -12.724  14.736  71.104  1.00  0.00    -0.402 A  
HETATM   17  C   UNL     1     -13.100  13.571  71.789  1.00  0.00    -0.475 A  
BRANCH  15  18
HETATM   18  C   UNL     1     -11.576  15.886  69.161  1.00  0.00    -0.379 C  
BRANCH  18  19
HETATM   19  O   UNL     1     -10.733  15.490  68.083  1.00  0.00    -0.265 OA 
BRANCH  19  20
HETATM   20  C   UNL     1     -10.384  16.589  67.243  1.00  0.00    -0.296 C  
BRANCH  20  21
HETATM   21  C   UNL     1     -10.502  16.137  65.792  1.00  0.00    -0.367 C  
BRANCH  21  22
HETATM   22  O   UNL     1     -11.389  15.023  65.696  1.00  0.00    -0.345 OA 
BRANCH  22  23
HETATM   23  C   UNL     1     -10.895  13.972  64.856  1.00  0.00    -0.410 C  
HETATM   24  C   UNL     1     -10.219  12.870  65.666  1.00  0.00    -0.295 C  
HETATM   25  C   UNL     1     -12.091  13.402  64.100  1.00  0.00    -0.491 C  
ENDBRANCH  22  23
ENDBRANCH  21  22
ENDBRANCH  20  21
ENDBRANCH  19  20
ENDBRANCH  18  19
ENDBRANCH  15  18
ENDBRANCH  11  12
ENDBRANCH  10  11
ENDBRANCH   7  10
ENDBRANCH   6   7
ENDBRANCH   4   6
ENDBRANCH   2   4
TORSDOF 12
ENDMDL
MODEL        6
REMARK 921   NORMALIZED FREE ENERGY PREDICTED BY IDOCK:   -5.47 KCAL/MOL
REMARK 922        TOTAL FREE ENERGY PREDICTED BY IDOCK:  -10.32 KCAL/MOL
REMARK 923 INTER-LIGAND FREE ENERGY PREDICTED BY IDOCK:   -9.17 KCAL/MOL
REMARK 924 INTRA-LIGAND FREE ENERGY PREDICTED BY IDOCK:   -1.15 KCAL/MOL
REMARK 927      BINDING AFFINITY PREDICTED BY RF-SCORE:    0.00 PKD
ROOT
HETATM    1  C   UNL     1     -12.042  12.386  63.539  1.00  0.00    -0.651 C  
HETATM    2  C   UNL     1     -10.661  12.165  64.160  1.00  0.00    -0.365 C  
HETATM    3  C   UNL     1      -9.873  11.165  63.310  1.00  0.00    -0.415 C  
ENDROOT
BRANCH   2   4
HETATM    4  N   UNL     1      -9.980  13.459  64.246  1.00  0.00    -0.746 NA 
HETATM    5  H   UNL     1      -9.412  13.624  63.415  1.00  0.00     0.000 HD 
BRANCH   4   6
HETATM    6  C   UNL     1     -10.893  14.585  64.486  1.00  0.00    -0.219 C  
BRANCH   6   7
HETATM    7  C   UNL     1     -10.314  15.512  65.570  1.00  0.00    -0.394 C  
HETATM    8  O   UNL     1     -10.688  16.870  65.289  1.00  0.00    -0.599 OA 
HETATM    9  H   UNL     1     -10.331  17.443  65.958  1.00  0.00     0.000 HD 
BRANCH   7  10
HETATM   10  C   UNL     1     -10.801  15.123  66.970  1.00  0.00    -0.314 C  
BRANCH  10  11
HETATM   11  O   UNL     1     -11.746  14.047  66.860  1.00  0.00    -0.366 OA 
BRANCH  11  12
HETATM   12  C   UNL     1     -11.852  13.259  67.976  1.00  0.00    -0.355 A  
HETATM   13  C   UNL     1     -12.076  13.737  69.267  1.00  0.00    -0.374 A  
HETATM   14  C   UNL     1     -12.160  12.847  70.340  1.00  0.00    -0.385 A  
HETATM   15  C   UNL     1     -12.032  11.465  70.140  1.00  0.00    -0.460 A  
HETATM   16  C   UNL     1     -11.841  10.989  68.839  1.00  0.00    -0.378 A  
HETATM   17  C   UNL     1     -11.761  11.883  67.762  1.00  0.00    -0.362 A  
BRANCH  15  18
HETATM   18  C   UNL     1     -12.083  10.528  71.318  1.00  0.00    -0.332 C  
BRANCH  18  19
HETATM   19  O   UNL     1     -13.373   9.927  71.363  1.00  0.00    -0.383 OA 
BRANCH  19  20
HETATM   20  C   UNL     1     -13.420   8.822  72.263  1.00  0.00    -0.420 C  
BRANCH  20  21
HETATM   21  C   UNL     1     -12.134   8.019  72.100  1.00  0.00    -0.343 C  
BRANCH  21  22
HETATM   22  O   UNL     1     -12.305   7.017  71.099  1.00  0.00    -0.359 OA 
BRANCH  22  23
HETATM   23  C   UNL     1     -11.068   6.480  70.613  1.00  0.00    -0.309 C  
HETATM   24  C   UNL     1     -11.075   6.323  69.096  1.00  0.00    -0.457 C  
HETATM   25  C   UNL     1      -9.964   7.447  71.030  1.00  0.00    -0.183 C  
ENDBRANCH  22  23
ENDBRANCH  21  22
ENDBRANCH  20  21
ENDBRANCH  19  20
ENDBRANCH  18  19
ENDBRANCH  15  18
ENDBRANCH  11  12
ENDBRANCH  10  11
ENDBRANCH   7  10
ENDBRANCH   6   7
ENDBRANCH   4   6
ENDBRANCH   2   4
TORSDOF 12
ENDMDL
MODEL        7
REMARK 921   NORMALIZED FREE ENERGY PREDICTED BY IDOCK:   -5.41 KCAL/MOL
REMARK 922        TOTAL FREE ENERGY PREDICTED BY IDOCK:  -10.22 KCAL/MOL
REMARK 923 INTER-LIGAND FREE ENERGY PREDICTED BY IDOCK:   -9.27 KCAL/MOL
REMARK 924 INTRA-LIGAND FREE ENERGY PREDICTED BY IDOCK:   -0.95 KCAL/MOL
REMARK 927      BINDING AFFINITY PREDICTED BY RF-SCORE:    0.00 PKD
ROOT
HETATM    1  C   UNL     1     -10.561  19.586  66.061  1.00  0.00    -0.589 C  
HETATM    2  C   UNL     1      -9.991  18.217  66.438  1.00  0.00    -0.380 C  
HETATM    3  C   UNL     1     -10.491  17.822  67.830  1.00  0.00    -0.401 C  
ENDROOT
BRANCH   2   4
HETATM    4  N   UNL     1     -10.399  17.248  65.420  1.00  0.00    -0.639 NA 
HETATM    5  H   UNL     1     -10.075  17.537  64.496  1.00  0.00     0.000 HD 
BRANCH   4   6
HETATM    6  C   UNL     1      -9.973  15.873  65.715  1.00  0.00    -0.360 C  
BRANCH   6   7
HETATM    7  C   UNL     1     -10.908  14.869  65.016  1.00  0.00    -0.423 C  
HETATM    8  O   UNL     1     -10.129  13.800  64.455  1.00  0.00    -0.692 OA 
HETATM    9  H   UNL     1     -10.706  13.181  64.024  1.00  0.00     0.000 HD 
BRANCH   7  10
HETATM   10  C   UNL     1     -11.950  14.295  65.982  1.00  0.00    -0.400 C  
BRANCH  10  11
HETATM   11  O   UNL     1     -11.647  14.728  67.318  1.00  0.00    -0.370 OA 
BRANCH  11  12
HETATM   12  C   UNL     1     -11.852  13.784  68.288  1.00  0.00    -0.378 A  
HETATM   13  C   UNL     1     -11.737  12.408  68.094  1.00  0.00    -0.408 A  
HETATM   14  C   UNL     1     -11.976  11.527  69.151  1.00  0.00    -0.386 A  
HETATM   15  C   UNL     1     -12.323  12.007  70.422  1.00  0.00    -0.317 A  
HETATM   16  C   UNL     1     -12.403  13.388  70.620  1.00  0.00    -0.423 A  
HETATM   17  C   UNL     1     -12.159  14.271  69.559  1.00  0.00    -0.376 A  
BRANCH  15  18
HETATM   18  C   UNL     1     -12.618  11.036  71.536  1.00  0.00    -0.356 C  
BRANCH  18  19
HETATM   19  O   UNL     1     -13.164   9.849  70.969  1.00  0.00    -0.373 OA 
BRANCH  19  20
HETATM   20  C   UNL     1     -13.635   8.946  71.967  1.00  0.00    -0.441 C  
BRANCH  20  21
HETATM   21  C   UNL     1     -13.106   7.554  71.638  1.00  0.00    -0.358 C  
BRANCH  21  22
HETATM   22  O   UNL     1     -11.930   7.653  70.838  1.00  0.00    -0.291 OA 
BRANCH  22  23
HETATM   23  C   UNL     1     -10.740   7.235  71.519  1.00  0.00    -0.219 C  
HETATM   24  C   UNL     1     -10.045   8.402  72.213  1.00  0.00    -0.382 C  
HETATM   25  C   UNL     1     -11.157   6.190  72.549  1.00  0.00    -0.313 C  
ENDBRANCH  22  23
ENDBRANCH  21  22
ENDBRANCH  20  21
ENDBRANCH  19  20
ENDBRANCH  18  19
ENDBRANCH  15  18
ENDBRANCH  11  12
ENDBRANCH  10  11
ENDBRANCH   7  10
ENDBRANCH   6   7
ENDBRANCH   4   6
ENDBRANCH   2   4
TORSDOF 12
ENDMDL
MODEL        8
REMARK 921   NORMALIZED FREE ENERGY PREDICTED BY IDOCK:   -5.39 KCAL/MOL
REMARK 922        TOTAL FREE ENERGY PREDICTED BY IDOCK:  -10.19 KCAL/MOL
REMARK 923 INTER-LIGAND FREE ENERGY PREDICTED BY IDOCK:   -9.51 KCAL/MOL
REMARK 924 INTRA-LIGAND FREE ENERGY PREDICTED BY IDOCK:   -0.68 KCAL/MOL
REMARK 927      BINDING AFFINITY PREDICTED BY RF-SCORE:    0.00 PKD
ROOT
HETATM    1  C   UNL     1     -10.823   6.687  68.944  1.00  0.00    -0.326 C  
HETATM    2  C   UNL     1     -11.426   6.369  70.314  1.00  0.00    -0.402 C  
HETATM    3  C   UNL     1     -10.436   6.764  71.412  1.00  0.00    -0.238 C  
ENDROOT
BRANCH   2   4
HETATM    4  N   UNL     1     -12.694   7.090  70.441  1.00  0.00    -0.480 NA 
HETATM    5  H   UNL     1     -13.434   6.613  69.926  1.00  0.00     0.000 HD 
BRANCH   4   6
HETATM    6  C   UNL     1     -13.097   7.324  71.835  1.00  0.00    -0.242 C  
BRANCH   6   7
HETATM    7  C   UNL     1     -13.659   8.749  71.989  1.00  0.00    -0.427 C  
HETATM    8  O   UNL     1     -14.133   8.934  73.333  1.00  0.00    -1.256 OA 
HETATM    9  H   UNL     1     -14.479   9.814  73.429  1.00  0.00     0.000 HD 
BRANCH   7  10
HETATM   10  C   UNL     1     -12.607   9.814  71.663  1.00  0.00    -0.416 C  
BRANCH  10  11
HETATM   11  O   UNL     1     -13.135  11.113  71.976  1.00  0.00    -0.492 OA 
BRANCH  11  12
HETATM   12  C   UNL     1     -12.747  12.112  71.123  1.00  0.00    -0.253 A  
HETATM   13  C   UNL     1     -12.875  13.476  71.386  1.00  0.00    -0.440 A  
HETATM   14  C   UNL     1     -12.454  14.415  70.442  1.00  0.00    -0.420 A  
HETATM   15  C   UNL     1     -11.890  14.009  69.225  1.00  0.00    -0.389 A  
HETATM   16  C   UNL     1     -11.733  12.641  68.980  1.00  0.00    -0.367 A  
HETATM   17  C   UNL     1     -12.152  11.699  69.930  1.00  0.00    -0.373 A  
BRANCH  15  18
HETATM   18  C   UNL     1     -11.483  15.040  68.205  1.00  0.00    -0.339 C  
BRANCH  18  19
HETATM   19  O   UNL     1     -11.409  16.308  68.848  1.00  0.00    -0.342 OA 
BRANCH  19  20
HETATM   20  C   UNL     1     -10.416  17.149  68.264  1.00  0.00    -0.373 C  
BRANCH  20  21
HETATM   21  C   UNL     1      -9.939  16.498  66.971  1.00  0.00    -0.268 C  
BRANCH  21  22
HETATM   22  O   UNL     1      -9.776  17.487  65.955  1.00  0.00    -0.473 OA 
BRANCH  22  23
HETATM   23  C   UNL     1      -9.575  18.808  66.474  1.00  0.00    -0.348 C  
HETATM   24  C   UNL     1      -8.156  19.308  66.219  1.00  0.00    -0.322 C  
HETATM   25  C   UNL     1     -10.580  19.721  65.778  1.00  0.00    -0.522 C  
ENDBRANCH  22  23
ENDBRANCH  21  22
ENDBRANCH  20  21
ENDBRANCH  19  20
ENDBRANCH  18  19
ENDBRANCH  15  18
ENDBRANCH  11  12
ENDBRANCH  10  11
ENDBRANCH   7  10
ENDBRANCH   6   7
ENDBRANCH   4   6
ENDBRANCH   2   4
TORSDOF 12
ENDMDL
MODEL        9
REMARK 921   NORMALIZED FREE ENERGY PREDICTED BY IDOCK:   -5.38 KCAL/MOL
REMARK 922        TOTAL FREE ENERGY PREDICTED BY IDOCK:  -10.18 KCAL/MOL
REMARK 923 INTER-LIGAND FREE ENERGY PREDICTED BY IDOCK:   -9.48 KCAL/MOL
REMARK 924 INTRA-LIGAND FREE ENERGY PREDICTED BY IDOCK:   -0.70 KCAL/MOL
REMARK 927      BINDING AFFINITY PREDICTED BY RF-SCORE:    0.00 PKD
ROOT
HETATM    1  C   UNL     1      -9.191  16.921  66.292  1.00  0.00    -0.299 C  
HETATM    2  C   UNL     1     -10.546  17.586  66.036  1.00  0.00    -0.217 C  
HETATM    3  C   UNL     1     -10.368  19.106  65.990  1.00  0.00    -0.538 C  
ENDROOT
BRANCH   2   4
HETATM    4  N   UNL     1     -11.088  17.065  64.781  1.00  0.00    -0.906 NA 
HETATM    5  H   UNL     1     -10.689  17.558  63.982  1.00  0.00     0.000 HD 
BRANCH   4   6
HETATM    6  C   UNL     1     -10.924  15.612  64.630  1.00  0.00    -0.325 C  
BRANCH   6   7
HETATM    7  C   UNL     1     -12.301  14.930  64.548  1.00  0.00    -0.315 C  
HETATM    8  O   UNL     1     -12.459  14.322  63.256  1.00  0.00    -1.133 OA 
HETATM    9  H   UNL     1     -13.309  13.901  63.205  1.00  0.00     0.000 HD 
BRANCH   7  10
HETATM   10  C   UNL     1     -12.478  13.871  65.641  1.00  0.00    -0.505 C  
BRANCH  10  11
HETATM   11  O   UNL     1     -11.581  14.157  66.726  1.00  0.00    -0.353 OA 
BRANCH  11  12
HETATM   12  C   UNL     1     -11.767  13.387  67.844  1.00  0.00    -0.361 A  
HETATM   13  C   UNL     1     -11.652  11.998  67.880  1.00  0.00    -0.405 A  
HETATM   14  C   UNL     1     -11.872  11.305  69.073  1.00  0.00    -0.421 A  
HETATM   15  C   UNL     1     -12.200  11.990  70.251  1.00  0.00    -0.348 A  
HETATM   16  C   UNL     1     -12.281  13.385  70.217  1.00  0.00    -0.405 A  
HETATM   17  C   UNL     1     -12.057  14.079  69.020  1.00  0.00    -0.358 A  
BRANCH  15  18
HETATM   18  C   UNL     1     -12.474  11.219  71.516  1.00  0.00    -0.227 C  
BRANCH  18  19
HETATM   19  O   UNL     1     -11.648  10.059  71.527  1.00  0.00    -0.353 OA 
BRANCH  19  20
HETATM   20  C   UNL     1     -12.326   8.922  72.057  1.00  0.00    -0.390 C  
BRANCH  20  21
HETATM   21  C   UNL     1     -11.289   7.849  72.368  1.00  0.00    -0.369 C  
BRANCH  21  22
HETATM   22  O   UNL     1     -10.607   7.465  71.175  1.00  0.00    -0.220 OA 
BRANCH  22  23
HETATM   23  C   UNL     1     -11.130   6.271  70.579  1.00  0.00    -0.335 C  
HETATM   24  C   UNL     1     -11.179   6.371  69.057  1.00  0.00    -0.402 C  
HETATM   25  C   UNL     1     -10.214   5.124  70.995  1.00  0.00    -0.295 C  
ENDBRANCH  22  23
ENDBRANCH  21  22
ENDBRANCH  20  21
ENDBRANCH  19  20
ENDBRANCH  18  19
ENDBRANCH  15  18
ENDBRANCH  11  12
ENDBRANCH  10  11
ENDBRANCH   7  10
ENDBRANCH   6   7
ENDBRANCH   4   6
ENDBRANCH   2   4
TORSDOF 12
ENDMDL
MODEL       10
REMARK 921   NORMALIZED FREE ENERGY PREDICTED BY IDOCK:   -5.38 KCAL/MOL
REMARK 922        TOTAL FREE ENERGY PREDICTED BY IDOCK:  -10.17 KCAL/MOL
REMARK 923 INTER-LIGAND FREE ENERGY PREDICTED BY IDOCK:   -8.85 KCAL/MOL
REMARK 924 INTRA-LIGAND FREE ENERGY PREDICTED BY IDOCK:   -1.33 KCAL/MOL
REMARK 927      BINDING AFFINITY PREDICTED BY RF-SCORE:    0.00 PKD
ROOT
HETATM    1  C   UNL     1     -11.620  15.146  64.475  1.00  0.00    -0.330 C  
HETATM    2  C   UNL     1     -11.146  13.790  65.003  1.00  0.00    -0.346 C  
HETATM    3  C   UNL     1     -12.359  12.901  65.290  1.00  0.00    -0.544 C  
ENDROOT
BRANCH   2   4
HETATM    4  N   UNL     1     -10.257  13.190  64.007  1.00  0.00    -0.725 NA 
HETATM    5  H   UNL     1      -9.330  13.026  64.401  1.00  0.00     0.000 HD 
BRANCH   4   6
HETATM    6  C   UNL     1     -10.793  11.959  63.409  1.00  0.00    -0.399 C  
BRANCH   6   7
HETATM    7  C   UNL     1      -9.659  10.944  63.182  1.00  0.00    -0.357 C  
HETATM    8  O   UNL     1      -8.462  11.640  62.799  1.00  0.00    -0.607 OA 
HETATM    9  H   UNL     1      -7.762  11.013  62.659  1.00  0.00     0.000 HD 
BRANCH   7  10
HETATM   10  C   UNL     1      -9.387  10.105  64.436  1.00  0.00    -0.293 C  
BRANCH  10  11
HETATM   11  O   UNL     1      -8.917  10.963  65.487  1.00  0.00    -0.191 OA 
BRANCH  11  12
HETATM   12  C   UNL     1      -9.586  10.837  66.675  1.00  0.00    -0.178 A  
HETATM   13  C   UNL     1      -9.719  11.850  67.625  1.00  0.00    -0.186 A  
HETATM   14  C   UNL     1     -10.417  11.613  68.811  1.00  0.00    -0.226 A  
HETATM   15  C   UNL     1     -11.003  10.365  69.064  1.00  0.00    -0.282 A  
HETATM   16  C   UNL     1     -10.896   9.364  68.095  1.00  0.00    -0.174 A  
HETATM   17  C   UNL     1     -10.198   9.603  66.902  1.00  0.00    -0.304 A  
BRANCH  15  18
HETATM   18  C   UNL     1     -11.714  10.121  70.369  1.00  0.00    -0.308 C  
BRANCH  18  19
HETATM   19  O   UNL     1     -12.801  11.035  70.471  1.00  0.00    -0.266 OA 
BRANCH  19  20
HETATM   20  C   UNL     1     -12.911  11.595  71.778  1.00  0.00    -0.377 C  
BRANCH  20  21
HETATM   21  C   UNL     1     -12.931  13.113  71.647  1.00  0.00    -0.335 C  
BRANCH  21  22
HETATM   22  O   UNL     1     -13.431  13.702  72.847  1.00  0.00    -0.639 OA 
BRANCH  22  23
HETATM   23  C   UNL     1     -13.375  15.134  72.845  1.00  0.00    -0.502 C  
HETATM   24  C   UNL     1     -12.469  15.667  73.951  1.00  0.00    -0.759 C  
HETATM   25  C   UNL     1     -12.837  15.561  71.483  1.00  0.00    -0.519 C  
ENDBRANCH  22  23
ENDBRANCH  21  22
ENDBRANCH  20  21
ENDBRANCH  19  20
ENDBRANCH  18  19
ENDBRANCH  15  18
ENDBRANCH  11  12
ENDBRANCH  10  11
ENDBRANCH   7  10
ENDBRANCH   6   7
ENDBRANCH   4   6
ENDBRANCH   2   4
TORSDOF 12
ENDMDL
MODEL       11
REMARK 921   NORMALIZED FREE ENERGY PREDICTED BY IDOCK:   -5.36 KCAL/MOL
REMARK 922        TOTAL FREE ENERGY PREDICTED BY IDOCK:  -10.15 KCAL/MOL
REMARK 923 INTER-LIGAND FREE ENERGY PREDICTED BY IDOCK:   -9.26 KCAL/MOL
REMARK 924 INTRA-LIGAND FREE ENERGY PREDICTED BY IDOCK:   -0.89 KCAL/MOL
REMARK 927      BINDING AFFINITY PREDICTED BY RF-SCORE:    0.00 PKD
ROOT
HETATM    1  C   UNL     1      -9.238  16.756  66.229  1.00  0.00    -0.313 C  
HETATM    2  C   UNL     1     -10.619  17.353  65.947  1.00  0.00    -0.200 C  
HETATM    3  C   UNL     1     -10.530  18.880  65.968  1.00  0.00    -0.507 C  
ENDROOT
BRANCH   2   4
HETATM    4  N   UNL     1     -11.083  16.854  64.650  1.00  0.00    -0.990 NA 
HETATM    5  H   UNL     1     -10.622  17.350  63.887  1.00  0.00     0.000 HD 
BRANCH   4   6
HETATM    6  C   UNL     1     -10.931  15.401  64.494  1.00  0.00    -0.203 C  
BRANCH   6   7
HETATM    7  C   UNL     1     -12.315  14.733  64.399  1.00  0.00    -0.368 C  
HETATM    8  O   UNL     1     -12.441  14.069  63.131  1.00  0.00    -1.137 OA 
HETATM    9  H   UNL     1     -13.295  13.657  63.073  1.00  0.00     0.000 HD 
BRANCH   7  10
HETATM   10  C   UNL     1     -12.539  13.726  65.532  1.00  0.00    -0.512 C  
BRANCH  10  11
HETATM   11  O   UNL     1     -11.869  14.189  66.716  1.00  0.00    -0.386 OA 
BRANCH  11  12
HETATM   12  C   UNL     1     -11.810  13.277  67.736  1.00  0.00    -0.353 A  
HETATM   13  C   UNL     1     -12.006  13.579  69.084  1.00  0.00    -0.378 A  
HETATM   14  C   UNL     1     -11.915  12.573  70.049  1.00  0.00    -0.372 A  
HETATM   15  C   UNL     1     -11.638  11.249  69.684  1.00  0.00    -0.401 A  
HETATM   16  C   UNL     1     -11.476  10.945  68.329  1.00  0.00    -0.376 A  
HETATM   17  C   UNL     1     -11.571  11.955  67.360  1.00  0.00    -0.367 A  
BRANCH  15  18
HETATM   18  C   UNL     1     -11.502  10.189  70.746  1.00  0.00    -0.357 C  
BRANCH  18  19
HETATM   19  O   UNL     1     -11.174   8.955  70.115  1.00  0.00    -0.238 OA 
BRANCH  19  20
HETATM   20  C   UNL     1     -11.359   7.841  70.986  1.00  0.00    -0.271 C  
BRANCH  20  21
HETATM   21  C   UNL     1     -11.607   6.603  70.132  1.00  0.00    -0.386 C  
BRANCH  21  22
HETATM   22  O   UNL     1     -10.533   6.420  69.211  1.00  0.00    -0.191 OA 
BRANCH  22  23
HETATM   23  C   UNL     1     -10.967   6.265  67.853  1.00  0.00    -0.327 C  
HETATM   24  C   UNL     1     -10.630   7.490  67.008  1.00  0.00    -0.409 C  
HETATM   25  C   UNL     1     -10.258   5.036  67.293  1.00  0.00    -0.219 C  
ENDBRANCH  22  23
ENDBRANCH  21  22
ENDBRANCH  20  21
ENDBRANCH  19  20
ENDBRANCH  18  19
ENDBRANCH  15  18
ENDBRANCH  11  12
ENDBRANCH  10  11
ENDBRANCH   7  10
ENDBRANCH   6   7
ENDBRANCH   4   6
ENDBRANCH   2   4
TORSDOF 12
ENDMDL
MODEL       12
REMARK 921   NORMALIZED FREE ENERGY PREDICTED BY IDOCK:   -5.35 KCAL/MOL
REMARK 922        TOTAL FREE ENERGY PREDICTED BY IDOCK:  -10.12 KCAL/MOL
REMARK 923 INTER-LIGAND FREE ENERGY PREDICTED BY IDOCK:   -8.80 KCAL/MOL
REMARK 924 INTRA-LIGAND FREE ENERGY PREDICTED BY IDOCK:   -1.33 KCAL/MOL
REMARK 927      BINDING AFFINITY PREDICTED BY RF-SCORE:    0.00 PKD
ROOT
HETATM    1  C   UNL     1     -11.836   7.718  72.314  1.00  0.00    -0.378 C  
HETATM    2  C   UNL     1     -12.809   6.882  71.480  1.00  0.00    -0.333 C  
HETATM    3  C   UNL     1     -14.217   7.470  71.596  1.00  0.00    -0.592 C  
ENDROOT
BRANCH   2   4
HETATM    4  N   UNL     1     -12.338   6.869  70.094  1.00  0.00    -0.578 NA 
HETATM    5  H   UNL     1     -12.319   7.814  69.711  1.00  0.00     0.000 HD 
BRANCH   4   6
HETATM    6  C   UNL     1     -11.036   6.211  69.924  1.00  0.00    -0.389 C  
BRANCH   6   7
HETATM    7  C   UNL     1     -10.523   6.419  68.487  1.00  0.00    -0.224 C  
HETATM    8  O   UNL     1     -11.632   6.396  67.574  1.00  0.00    -0.663 OA 
HETATM    9  H   UNL     1     -11.315   6.524  66.688  1.00  0.00     0.000 HD 
BRANCH   7  10
HETATM   10  C   UNL     1      -9.761   7.740  68.340  1.00  0.00    -0.159 C  
BRANCH  10  11
HETATM   11  O   UNL     1     -10.280   8.693  69.282  1.00  0.00    -0.201 OA 
BRANCH  11  12
HETATM   12  C   UNL     1     -10.684   9.881  68.734  1.00  0.00    -0.220 A  
HETATM   13  C   UNL     1     -10.559  10.218  67.387  1.00  0.00    -0.324 A  
HETATM   14  C   UNL     1     -10.997  11.463  66.931  1.00  0.00    -0.355 A  
HETATM   15  C   UNL     1     -11.577  12.388  67.810  1.00  0.00    -0.413 A  
HETATM   16  C   UNL     1     -11.730  12.032  69.154  1.00  0.00    -0.389 A  
HETATM   17  C   UNL     1     -11.294  10.780  69.610  1.00  0.00    -0.362 A  
BRANCH  15  18
HETATM   18  C   UNL     1     -12.003  13.741  67.304  1.00  0.00    -0.401 C  
BRANCH  18  19
HETATM   19  O   UNL     1     -12.271  14.579  68.423  1.00  0.00    -0.251 OA 
BRANCH  19  20
HETATM   20  C   UNL     1     -11.336  15.651  68.528  1.00  0.00    -0.360 C  
BRANCH  20  21
HETATM   21  C   UNL     1     -10.870  15.739  69.976  1.00  0.00    -0.342 C  
BRANCH  21  22
HETATM   22  O   UNL     1     -11.987  15.953  70.838  1.00  0.00    -0.376 OA 
BRANCH  22  23
HETATM   23  C   UNL     1     -11.901  15.230  72.073  1.00  0.00    -0.434 C  
HETATM   24  C   UNL     1     -12.238  16.113  73.271  1.00  0.00    -0.639 C  
HETATM   25  C   UNL     1     -12.890  14.073  71.985  1.00  0.00    -0.415 C  
ENDBRANCH  22  23
ENDBRANCH  21  22
ENDBRANCH  20  21
ENDBRANCH  19  20
ENDBRANCH  18  19
ENDBRANCH  15  18
ENDBRANCH  11  12
ENDBRANCH  10  11
ENDBRANCH   7  10
ENDBRANCH   6   7
ENDBRANCH   4   6
ENDBRANCH   2   4
TORSDOF 12
ENDMDL
MODEL       13
REMARK 921   NORMALIZED FREE ENERGY PREDICTED BY IDOCK:   -5.31 KCAL/MOL
REMARK 922        TOTAL FREE ENERGY PREDICTED BY IDOCK:  -10.06 KCAL/MOL
REMARK 923 INTER-LIGAND FREE ENERGY PREDICTED BY IDOCK:   -8.98 KCAL/MOL
REMARK 924 INTRA-LIGAND FREE ENERGY PREDICTED BY IDOCK:   -1.08 KCAL/MOL
REMARK 927      BINDING AFFINITY PREDICTED BY RF-SCORE:    0.00 PKD
ROOT
HETATM    1  C   UNL     1     -12.898  14.017  65.614  1.00  0.00    -0.442 C  
HETATM    2  C   UNL     1     -12.502  14.755  64.332  1.00  0.00    -0.252 C  
HETATM    3  C   UNL     1     -11.312  15.674  64.619  1.00  0.00    -0.355 C  
ENDROOT
BRANCH   2   4
HETATM    4  N   UNL     1     -12.187  13.762  63.304  1.00  0.00    -1.096 NA 
HETATM    5  H   UNL     1     -11.286  13.964  62.871  1.00  0.00     0.000 HD 
BRANCH   4   6
HETATM    6  C   UNL     1     -12.229  12.377  63.795  1.00  0.00    -0.533 C  
BRANCH   6   7
HETATM    7  C   UNL     1     -10.840  11.727  63.662  1.00  0.00    -0.440 C  
HETATM    8  O   UNL     1      -9.866  12.736  63.352  1.00  0.00    -0.644 OA 
HETATM    9  H   UNL     1      -9.009  12.334  63.270  1.00  0.00     0.000 HD 
BRANCH   7  10
HETATM   10  C   UNL     1     -10.431  10.992  64.943  1.00  0.00    -0.303 C  
BRANCH  10  11
HETATM   11  O   UNL     1      -9.972  11.948  65.912  1.00  0.00    -0.222 OA 
BRANCH  11  12
HETATM   12  C   UNL     1     -10.574  11.857  67.139  1.00  0.00    -0.231 A  
HETATM   13  C   UNL     1     -10.800  12.934  67.995  1.00  0.00    -0.261 A  
HETATM   14  C   UNL     1     -11.415  12.731  69.232  1.00  0.00    -0.349 A  
HETATM   15  C   UNL     1     -11.825  11.450  69.630  1.00  0.00    -0.431 A  
HETATM   16  C   UNL     1     -11.626  10.379  68.754  1.00  0.00    -0.188 A  
HETATM   17  C   UNL     1     -11.012  10.585  67.510  1.00  0.00    -0.365 A  
BRANCH  15  18
HETATM   18  C   UNL     1     -12.448  11.249  70.986  1.00  0.00    -0.400 C  
BRANCH  18  19
HETATM   19  O   UNL     1     -13.394  10.188  70.897  1.00  0.00    -0.388 OA 
BRANCH  19  20
HETATM   20  C   UNL     1     -13.448   9.415  72.094  1.00  0.00    -0.471 C  
BRANCH  20  21
HETATM   21  C   UNL     1     -13.315   7.943  71.719  1.00  0.00    -0.328 C  
BRANCH  21  22
HETATM   22  O   UNL     1     -11.940   7.604  71.546  1.00  0.00    -0.282 OA 
BRANCH  22  23
HETATM   23  C   UNL     1     -11.136   7.874  72.702  1.00  0.00    -0.385 C  
HETATM   24  C   UNL     1     -10.557   6.595  73.300  1.00  0.00    -0.316 C  
HETATM   25  C   UNL     1     -10.007   8.798  72.258  1.00  0.00    -0.302 C  
ENDBRANCH  22  23
ENDBRANCH  21  22
ENDBRANCH  20  21
ENDBRANCH  19  20
ENDBRANCH  18  19
ENDBRANCH  15  18
ENDBRANCH  11  12
ENDBRANCH  10  11
ENDBRANCH   7  10
ENDBRANCH   6   7
ENDBRANCH   4   6
ENDBRANCH   2   4
TORSDOF 12
ENDMDL
MODEL       14
REMARK 921   NORMALIZED FREE ENERGY PREDICTED BY IDOCK:   -5.30 KCAL/MOL
REMARK 922        TOTAL FREE ENERGY PREDICTED BY IDOCK:  -10.05 KCAL/MOL
REMARK 923 INTER-LIGAND FREE ENERGY PREDICTED BY IDOCK:   -8.74 KCAL/MOL
REMARK 924 INTRA-LIGAND FREE ENERGY PREDICTED BY IDOCK:   -1.30 KCAL/MOL
REMARK 927      BINDING AFFINITY PREDICTED BY RF-SCORE:    0.00 PKD
ROOT
HETATM    1  C   UNL     1     -11.085   6.791  67.168  1.00  0.00    -0.404 C  
HETATM    2  C   UNL     1     -10.645   6.105  68.463  1.00  0.00    -0.271 C  
HETATM    3  C   UNL     1      -9.235   6.570  68.834  1.00  0.00    -0.129 C  
ENDROOT
BRANCH   2   4
HETATM    4  N   UNL     1     -11.616   6.426  69.511  1.00  0.00    -0.616 NA 
HETATM    5  H   UNL     1     -12.492   5.927  69.357  1.00  0.00     0.000 HD 
BRANCH   4   6
HETATM    6  C   UNL     1     -11.112   6.186  70.870  1.00  0.00    -0.307 C  
BRANCH   6   7
HETATM    7  C   UNL     1     -12.159   6.629  71.908  1.00  0.00    -0.340 C  
HETATM    8  O   UNL     1     -11.495   7.046  73.111  1.00  0.00    -0.534 OA 
HETATM    9  H   UNL     1     -12.141   7.319  73.752  1.00  0.00     0.000 HD 
BRANCH   7  10
HETATM   10  C   UNL     1     -13.035   7.771  71.381  1.00  0.00    -0.288 C  
BRANCH  10  11
HETATM   11  O   UNL     1     -12.688   8.987  72.062  1.00  0.00    -0.344 OA 
BRANCH  11  12
HETATM   12  C   UNL     1     -12.288  10.010  71.244  1.00  0.00    -0.398 A  
HETATM   13  C   UNL     1     -11.390   9.876  70.186  1.00  0.00    -0.335 A  
HETATM   14  C   UNL     1     -11.042  10.988  69.416  1.00  0.00    -0.320 A  
HETATM   15  C   UNL     1     -11.592  12.249  69.684  1.00  0.00    -0.348 A  
HETATM   16  C   UNL     1     -12.517  12.372  70.725  1.00  0.00    -0.356 A  
HETATM   17  C   UNL     1     -12.869  11.254  71.495  1.00  0.00    -0.519 A  
BRANCH  15  18
HETATM   18  C   UNL     1     -11.168  13.442  68.867  1.00  0.00    -0.276 C  
BRANCH  18  19
HETATM   19  O   UNL     1     -12.270  13.855  68.064  1.00  0.00    -0.326 OA 
BRANCH  19  20
HETATM   20  C   UNL     1     -11.851  14.372  66.803  1.00  0.00    -0.410 C  
BRANCH  20  21
HETATM   21  C   UNL     1     -12.767  13.804  65.725  1.00  0.00    -0.446 C  
BRANCH  21  22
HETATM   22  O   UNL     1     -12.448  12.435  65.483  1.00  0.00    -0.643 OA 
BRANCH  22  23
HETATM   23  C   UNL     1     -11.083  12.227  65.097  1.00  0.00    -0.317 C  
HETATM   24  C   UNL     1     -10.485  10.995  65.769  1.00  0.00    -0.290 C  
HETATM   25  C   UNL     1     -11.067  12.052  63.582  1.00  0.00    -0.525 C  
ENDBRANCH  22  23
ENDBRANCH  21  22
ENDBRANCH  20  21
ENDBRANCH  19  20
ENDBRANCH  18  19
ENDBRANCH  15  18
ENDBRANCH  11  12
ENDBRANCH  10  11
ENDBRANCH   7  10
ENDBRANCH   6   7
ENDBRANCH   4   6
ENDBRANCH   2   4
TORSDOF 12
ENDMDL
MODEL       15
REMARK 921   NORMALIZED FREE ENERGY PREDICTED BY IDOCK:   -5.26 KCAL/MOL
REMARK 922        TOTAL FREE ENERGY PREDICTED BY IDOCK:   -9.98 KCAL/MOL
REMARK 923 INTER-LIGAND FREE ENERGY PREDICTED BY IDOCK:   -8.49 KCAL/MOL
REMARK 924 INTRA-LIGAND FREE ENERGY PREDICTED BY IDOCK:   -1.48 KCAL/MOL
REMARK 927      BINDING AFFINITY PREDICTED BY RF-SCORE:    0.00 PKD
ROOT
HETATM    1  C   UNL     1     -11.263  10.415  70.448  1.00  0.00    -0.399 C  
HETATM    2  C   UNL     1     -12.371  11.468  70.531  1.00  0.00    -0.342 C  
HETATM    3  C   UNL     1     -13.140  11.297  71.844  1.00  0.00    -0.510 C  
ENDROOT
BRANCH   2   4
HETATM    4  N   UNL     1     -11.758  12.794  70.429  1.00  0.00    -0.541 NA 
HETATM    5  H   UNL     1     -11.545  13.020  69.458  1.00  0.00     0.000 HD 
BRANCH   4   6
HETATM    6  C   UNL     1     -12.560  13.858  71.048  1.00  0.00    -0.371 C  
BRANCH   6   7
HETATM    7  C   UNL     1     -12.316  15.193  70.321  1.00  0.00    -0.352 C  
HETATM    8  O   UNL     1     -12.140  16.240  71.288  1.00  0.00    -0.606 OA 
HETATM    9  H   UNL     1     -11.990  17.064  70.840  1.00  0.00     0.000 HD 
BRANCH   7  10
HETATM   10  C   UNL     1     -11.090  15.126  69.404  1.00  0.00    -0.276 C  
BRANCH  10  11
HETATM   11  O   UNL     1     -11.399  15.761  68.153  1.00  0.00    -0.350 OA 
BRANCH  11  12
HETATM   12  C   UNL     1     -11.406  14.923  67.070  1.00  0.00    -0.342 A  
HETATM   13  C   UNL     1     -12.244  13.817  66.927  1.00  0.00    -0.408 A  
HETATM   14  C   UNL     1     -12.164  13.019  65.783  1.00  0.00    -0.511 A  
HETATM   15  C   UNL     1     -11.255  13.319  64.759  1.00  0.00    -0.350 A  
HETATM   16  C   UNL     1     -10.441  14.448  64.893  1.00  0.00    -0.448 A  
HETATM   17  C   UNL     1     -10.524  15.250  66.040  1.00  0.00    -0.328 A  
BRANCH  15  18
HETATM   18  C   UNL     1     -11.157  12.420  63.554  1.00  0.00    -0.458 C  
BRANCH  18  19
HETATM   19  O   UNL     1      -9.786  12.303  63.187  1.00  0.00    -0.373 OA 
BRANCH  19  20
HETATM   20  C   UNL     1      -9.359  10.943  63.135  1.00  0.00    -0.324 C  
BRANCH  20  21
HETATM   21  C   UNL     1      -8.873  10.542  64.523  1.00  0.00    -0.200 C  
BRANCH  21  22
HETATM   22  O   UNL     1      -9.677   9.482  65.036  1.00  0.00    -0.248 OA 
BRANCH  22  23
HETATM   23  C   UNL     1     -10.256   9.773  66.315  1.00  0.00    -0.212 C  
HETATM   24  C   UNL     1     -10.256   8.551  67.229  1.00  0.00    -0.346 C  
HETATM   25  C   UNL     1      -9.425  10.889  66.940  1.00  0.00    -0.198 C  
ENDBRANCH  22  23
ENDBRANCH  21  22
ENDBRANCH  20  21
ENDBRANCH  19  20
ENDBRANCH  18  19
ENDBRANCH  15  18
ENDBRANCH  11  12
ENDBRANCH  10  11
ENDBRANCH   7  10
ENDBRANCH   6   7
ENDBRANCH   4   6
ENDBRANCH   2   4
TORSDOF 12
ENDMDL
MODEL       16
REMARK 921   NORMALIZED FREE ENERGY PREDICTED BY IDOCK:   -5.21 KCAL/MOL
REMARK 922        TOTAL FREE ENERGY PREDICTED BY IDOCK:   -9.89 KCAL/MOL
REMARK 923 INTER-LIGAND FREE ENERGY PREDICTED BY IDOCK:   -8.46 KCAL/MOL
REMARK 924 INTRA-LIGAND FREE ENERGY PREDICTED BY IDOCK:   -1.43 KCAL/MOL
REMARK 927      BINDING AFFINITY PREDICTED BY RF-SCORE:    0.00 PKD
ROOT
HETATM    1  C   UNL     1     -12.784  12.168  63.562  1.00  0.00    -0.553 C  
HETATM    2  C   UNL     1     -11.672  12.078  64.610  1.00  0.00    -0.287 C  
HETATM    3  C   UNL     1     -10.552  13.058  64.252  1.00  0.00    -0.434 C  
ENDROOT
BRANCH   2   4
HETATM    4  N   UNL     1     -12.249  12.370  65.924  1.00  0.00    -0.632 NA 
HETATM    5  H   UNL     1     -11.863  11.748  66.634  1.00  0.00     0.000 HD 
BRANCH   4   6
HETATM    6  C   UNL     1     -12.104  13.775  66.328  1.00  0.00    -0.446 C  
BRANCH   6   7
HETATM    7  C   UNL     1     -11.579  13.858  67.773  1.00  0.00    -0.347 C  
HETATM    8  O   UNL     1     -12.578  14.461  68.611  1.00  0.00    -0.542 OA 
HETATM    9  H   UNL     1     -12.254  14.512  69.503  1.00  0.00     0.000 HD 
BRANCH   7  10
HETATM   10  C   UNL     1     -11.209  12.477  68.324  1.00  0.00    -0.266 C  
BRANCH  10  11
HETATM   11  O   UNL     1     -12.361  11.895  68.955  1.00  0.00    -0.229 OA 
BRANCH  11  12
HETATM   12  C   UNL     1     -12.079  10.939  69.895  1.00  0.00    -0.354 A  
HETATM   13  C   UNL     1     -12.990  10.456  70.834  1.00  0.00    -0.475 A  
HETATM   14  C   UNL     1     -12.598   9.484  71.757  1.00  0.00    -0.490 A  
HETATM   15  C   UNL     1     -11.294   8.971  71.750  1.00  0.00    -0.447 A  
HETATM   16  C   UNL     1     -10.394   9.434  70.785  1.00  0.00    -0.366 A  
HETATM   17  C   UNL     1     -10.790  10.407  69.857  1.00  0.00    -0.353 A  
BRANCH  15  18
HETATM   18  C   UNL     1     -10.881   7.954  72.783  1.00  0.00    -0.386 C  
BRANCH  18  19
HETATM   19  O   UNL     1     -10.128   6.933  72.137  1.00  0.00    -0.181 OA 
BRANCH  19  20
HETATM   20  C   UNL     1     -10.951   5.852  71.703  1.00  0.00    -0.268 C  
BRANCH  20  21
HETATM   21  C   UNL     1     -10.585   5.522  70.260  1.00  0.00    -0.287 C  
BRANCH  21  22
HETATM   22  O   UNL     1     -11.392   6.284  69.364  1.00  0.00    -0.412 OA 
BRANCH  22  23
HETATM   23  C   UNL     1     -10.650   6.868  68.285  1.00  0.00    -0.215 C  
HETATM   24  C   UNL     1      -9.146   6.805  68.533  1.00  0.00    -0.129 C  
HETATM   25  C   UNL     1     -11.003   6.086  67.024  1.00  0.00    -0.364 C  
ENDBRANCH  22  23
ENDBRANCH  21  22
ENDBRANCH  20  21
ENDBRANCH  19  20
ENDBRANCH  18  19
ENDBRANCH  15  18
ENDBRANCH  11  12
ENDBRANCH  10  11
ENDBRANCH   7  10
ENDBRANCH   6   7
ENDBRANCH   4   6
ENDBRANCH   2   4
TORSDOF 12
ENDMDL
MODEL       17
REMARK 921   NORMALIZED FREE ENERGY PREDICTED BY IDOCK:   -5.21 KCAL/MOL
REMARK 922        TOTAL FREE ENERGY PREDICTED BY IDOCK:   -9.88 KCAL/MOL
REMARK 923 INTER-LIGAND FREE ENERGY PREDICTED BY IDOCK:   -8.36 KCAL/MOL
REMARK 924 INTRA-LIGAND FREE ENERGY PREDICTED BY IDOCK:   -1.52 KCAL/MOL
REMARK 927      BINDING AFFINITY PREDICTED BY RF-SCORE:    0.00 PKD
ROOT
HETATM    1  C   UNL     1     -12.032  13.933  68.911  1.00  0.00    -0.393 C  
HETATM    2  C   UNL     1     -11.830  14.733  67.621  1.00  0.00    -0.292 C  
HETATM    3  C   UNL     1     -10.332  14.896  67.352  1.00  0.00    -0.243 C  
ENDROOT
BRANCH   2   4
HETATM    4  N   UNL     1     -12.504  14.028  66.529  1.00  0.00    -0.512 NA 
HETATM    5  H   UNL     1     -13.503  14.236  66.528  1.00  0.00     0.000 HD 
BRANCH   4   6
HETATM    6  C   UNL     1     -11.915  14.294  65.210  1.00  0.00    -0.389 C  
BRANCH   6   7
HETATM    7  C   UNL     1     -12.229  13.134  64.248  1.00  0.00    -0.396 C  
HETATM    8  O   UNL     1     -12.624  13.662  62.972  1.00  0.00    -0.957 OA 
HETATM    9  H   UNL     1     -12.818  12.946  62.379  1.00  0.00     0.000 HD 
BRANCH   7  10
HETATM   10  C   UNL     1     -11.027  12.201  64.069  1.00  0.00    -0.380 C  
BRANCH  10  11
HETATM   11  O   UNL     1     -10.264  12.174  65.286  1.00  0.00    -0.263 OA 
BRANCH  11  12
HETATM   12  C   UNL     1     -10.296  10.981  65.958  1.00  0.00    -0.254 A  
HETATM   13  C   UNL     1      -9.857   9.764  65.438  1.00  0.00    -0.365 A  
HETATM   14  C   UNL     1      -9.942   8.600  66.205  1.00  0.00    -0.287 A  
HETATM   15  C   UNL     1     -10.456   8.635  67.509  1.00  0.00    -0.335 A  
HETATM   16  C   UNL     1     -10.863   9.863  68.038  1.00  0.00    -0.294 A  
HETATM   17  C   UNL     1     -10.774  11.031  67.268  1.00  0.00    -0.312 A  
BRANCH  15  18
HETATM   18  C   UNL     1     -10.578   7.360  68.303  1.00  0.00    -0.157 C  
BRANCH  18  19
HETATM   19  O   UNL     1     -10.291   7.648  69.668  1.00  0.00    -0.203 OA 
BRANCH  19  20
HETATM   20  C   UNL     1     -11.269   7.100  70.549  1.00  0.00    -0.290 C  
BRANCH  20  21
HETATM   21  C   UNL     1     -11.115   7.768  71.910  1.00  0.00    -0.257 C  
BRANCH  21  22
HETATM   22  O   UNL     1     -11.275   9.180  71.783  1.00  0.00    -0.355 OA 
BRANCH  22  23
HETATM   23  C   UNL     1     -12.581   9.568  71.337  1.00  0.00    -0.359 C  
HETATM   24  C   UNL     1     -13.657   9.216  72.360  1.00  0.00    -0.544 C  
HETATM   25  C   UNL     1     -12.550  11.076  71.114  1.00  0.00    -0.522 C  
ENDBRANCH  22  23
ENDBRANCH  21  22
ENDBRANCH  20  21
ENDBRANCH  19  20
ENDBRANCH  18  19
ENDBRANCH  15  18
ENDBRANCH  11  12
ENDBRANCH  10  11
ENDBRANCH   7  10
ENDBRANCH   6   7
ENDBRANCH   4   6
ENDBRANCH   2   4
TORSDOF 12
ENDMDL
MODEL       18
REMARK 921   NORMALIZED FREE ENERGY PREDICTED BY IDOCK:   -5.20 KCAL/MOL
REMARK 922        TOTAL FREE ENERGY PREDICTED BY IDOCK:   -9.86 KCAL/MOL
REMARK 923 INTER-LIGAND FREE ENERGY PREDICTED BY IDOCK:   -8.89 KCAL/MOL
REMARK 924 INTRA-LIGAND FREE ENERGY PREDICTED BY IDOCK:   -0.97 KCAL/MOL
REMARK 927      BINDING AFFINITY PREDICTED BY RF-SCORE:    0.00 PKD
ROOT
HETATM    1  C   UNL     1     -14.032  15.173  72.395  1.00  0.00    -0.616 C  
HETATM    2  C   UNL     1     -12.749  15.915  72.777  1.00  0.00    -0.467 C  
HETATM    3  C   UNL     1     -12.507  15.773  74.282  1.00  0.00    -0.800 C  
ENDROOT
BRANCH   2   4
HETATM    4  N   UNL     1     -11.643  15.360  71.994  1.00  0.00    -0.438 NA 
HETATM    5  H   UNL     1     -11.790  14.367  71.815  1.00  0.00     0.000 HD 
BRANCH   4   6
HETATM    6  C   UNL     1     -11.392  16.084  70.741  1.00  0.00    -0.398 C  
BRANCH   6   7
HETATM    7  C   UNL     1     -11.179  15.086  69.588  1.00  0.00    -0.275 C  
HETATM    8  O   UNL     1      -9.871  14.501  69.696  1.00  0.00    -0.417 OA 
HETATM    9  H   UNL     1      -9.740  13.885  68.985  1.00  0.00     0.000 HD 
BRANCH   7  10
HETATM   10  C   UNL     1     -12.239  13.980  69.590  1.00  0.00    -0.332 C  
BRANCH  10  11
HETATM   11  O   UNL     1     -11.713  12.818  68.930  1.00  0.00    -0.290 OA 
BRANCH  11  12
HETATM   12  C   UNL     1     -11.698  11.681  69.693  1.00  0.00    -0.350 A  
HETATM   13  C   UNL     1     -10.817  10.615  69.513  1.00  0.00    -0.303 A  
HETATM   14  C   UNL     1     -10.893   9.494  70.344  1.00  0.00    -0.338 A  
HETATM   15  C   UNL     1     -11.842   9.425  71.373  1.00  0.00    -0.447 A  
HETATM   16  C   UNL     1     -12.700  10.510  71.570  1.00  0.00    -0.558 A  
HETATM   17  C   UNL     1     -12.621  11.636  70.738  1.00  0.00    -0.365 A  
BRANCH  15  18
HETATM   18  C   UNL     1     -11.932   8.188  72.229  1.00  0.00    -0.377 C  
BRANCH  18  19
HETATM   19  O   UNL     1     -12.127   7.063  71.378  1.00  0.00    -0.314 OA 
BRANCH  19  20
HETATM   20  C   UNL     1     -11.122   6.068  71.564  1.00  0.00    -0.276 C  
BRANCH  20  21
HETATM   21  C   UNL     1     -10.660   5.593  70.191  1.00  0.00    -0.309 C  
BRANCH  21  22
HETATM   22  O   UNL     1     -11.331   6.326  69.168  1.00  0.00    -0.395 OA 
BRANCH  22  23
HETATM   23  C   UNL     1     -10.831   6.054  67.852  1.00  0.00    -0.290 C  
HETATM   24  C   UNL     1     -10.272   7.309  67.188  1.00  0.00    -0.339 C  
HETATM   25  C   UNL     1      -9.731   5.008  67.997  1.00  0.00    -0.197 C  
ENDBRANCH  22  23
ENDBRANCH  21  22
ENDBRANCH  20  21
ENDBRANCH  19  20
ENDBRANCH  18  19
ENDBRANCH  15  18
ENDBRANCH  11  12
ENDBRANCH  10  11
ENDBRANCH   7  10
ENDBRANCH   6   7
ENDBRANCH   4   6
ENDBRANCH   2   4
TORSDOF 12
ENDMDL
MODEL       19
REMARK 921   NORMALIZED FREE ENERGY PREDICTED BY IDOCK:   -5.20 KCAL/MOL
REMARK 922        TOTAL FREE ENERGY PREDICTED BY IDOCK:   -9.86 KCAL/MOL
REMARK 923 INTER-LIGAND FREE ENERGY PREDICTED BY IDOCK:   -8.75 KCAL/MOL
REMARK 924 INTRA-LIGAND FREE ENERGY PREDICTED BY IDOCK:   -1.11 KCAL/MOL
REMARK 927      BINDING AFFINITY PREDICTED BY RF-SCORE:    0.00 PKD
ROOT
HETATM    1  C   UNL     1     -12.600  13.913  65.916  1.00  0.00    -0.498 C  
HETATM    2  C   UNL     1     -12.018  13.603  67.298  1.00  0.00    -0.381 C  
HETATM    3  C   UNL     1     -10.498  13.459  67.191  1.00  0.00    -0.249 C  
ENDROOT
BRANCH   2   4
HETATM    4  N   UNL     1     -12.398  14.682  68.212  1.00  0.00    -0.593 NA 
HETATM    5  H   UNL     1     -13.370  14.580  68.507  1.00  0.00     0.000 HD 
BRANCH   4   6
HETATM    6  C   UNL     1     -11.511  14.802  69.377  1.00  0.00    -0.301 C  
BRANCH   6   7
HETATM    7  C   UNL     1     -12.343  14.868  70.670  1.00  0.00    -0.344 C  
HETATM    8  O   UNL     1     -13.512  15.672  70.447  1.00  0.00    -0.804 OA 
HETATM    9  H   UNL     1     -14.026  15.713  71.245  1.00  0.00     0.000 HD 
BRANCH   7  10
HETATM   10  C   UNL     1     -12.760  13.474  71.151  1.00  0.00    -0.344 C  
BRANCH  10  11
HETATM   11  O   UNL     1     -12.341  12.496  70.186  1.00  0.00    -0.239 OA 
BRANCH  11  12
HETATM   12  C   UNL     1     -12.181  11.230  70.684  1.00  0.00    -0.393 A  
HETATM   13  C   UNL     1     -13.006  10.643  71.643  1.00  0.00    -0.582 A  
HETATM   14  C   UNL     1     -12.750   9.345  72.090  1.00  0.00    -0.460 A  
HETATM   15  C   UNL     1     -11.672   8.608  71.580  1.00  0.00    -0.369 A  
HETATM   16  C   UNL     1     -10.868   9.188  70.594  1.00  0.00    -0.321 A  
HETATM   17  C   UNL     1     -11.129  10.490  70.143  1.00  0.00    -0.369 A  
BRANCH  15  18
HETATM   18  C   UNL     1     -11.390   7.226  72.108  1.00  0.00    -0.265 C  
BRANCH  18  19
HETATM   19  O   UNL     1     -11.670   6.282  71.079  1.00  0.00    -0.319 OA 
BRANCH  19  20
HETATM   20  C   UNL     1     -10.521   5.511  70.732  1.00  0.00    -0.260 C  
BRANCH  20  21
HETATM   21  C   UNL     1     -10.442   5.430  69.212  1.00  0.00    -0.239 C  
BRANCH  21  22
HETATM   22  O   UNL     1     -11.373   6.337  68.623  1.00  0.00    -0.337 OA 
BRANCH  22  23
HETATM   23  C   UNL     1     -11.127   6.583  67.233  1.00  0.00    -0.350 C  
HETATM   24  C   UNL     1     -10.362   7.886  67.015  1.00  0.00    -0.411 C  
HETATM   25  C   UNL     1     -10.312   5.407  66.706  1.00  0.00    -0.321 C  
ENDBRANCH  22  23
ENDBRANCH  21  22
ENDBRANCH  20  21
ENDBRANCH  19  20
ENDBRANCH  18  19
ENDBRANCH  15  18
ENDBRANCH  11  12
ENDBRANCH  10  11
ENDBRANCH   7  10
ENDBRANCH   6   7
ENDBRANCH   4   6
ENDBRANCH   2   4
TORSDOF 12
ENDMDL
MODEL       20
REMARK 921   NORMALIZED FREE ENERGY PREDICTED BY IDOCK:   -5.18 KCAL/MOL
REMARK 922        TOTAL FREE ENERGY PREDICTED BY IDOCK:   -9.83 KCAL/MOL
REMARK 923 INTER-LIGAND FREE ENERGY PREDICTED BY IDOCK:   -8.70 KCAL/MOL
REMARK 924 INTRA-LIGAND FREE ENERGY PREDICTED BY IDOCK:   -1.13 KCAL/MOL
REMARK 927      BINDING AFFINITY PREDICTED BY RF-SCORE:    0.00 PKD
ROOT
HETATM    1  C   UNL     1     -10.265   5.957  71.424  1.00  0.00    -0.261 C  
HETATM    2  C   UNL     1     -11.014   6.011  72.757  1.00  0.00    -0.264 C  
HETATM    3  C   UNL     1     -10.020   5.839  73.909  1.00  0.00    -0.205 C  
ENDROOT
BRANCH   2   4
HETATM    4  N   UNL     1     -11.723   7.290  72.838  1.00  0.00    -0.561 NA 
HETATM    5  H   UNL     1     -11.067   8.059  72.976  1.00  0.00     0.000 HD 
BRANCH   4   6
HETATM    6  C   UNL     1     -12.594   7.550  71.684  1.00  0.00    -0.348 C  
BRANCH   6   7
HETATM    7  C   UNL     1     -13.361   8.869  71.889  1.00  0.00    -0.405 C  
HETATM    8  O   UNL     1     -13.932   8.893  73.207  1.00  0.00    -1.203 OA 
HETATM    9  H   UNL     1     -14.405   9.707  73.333  1.00  0.00     0.000 HD 
BRANCH   7  10
HETATM   10  C   UNL     1     -12.455  10.090  71.698  1.00  0.00    -0.418 C  
BRANCH  10  11
HETATM   11  O   UNL     1     -11.178   9.658  71.201  1.00  0.00    -0.331 OA 
BRANCH  11  12
HETATM   12  C   UNL     1     -10.885  10.076  69.929  1.00  0.00    -0.285 A  
HETATM   13  C   UNL     1     -11.791  10.697  69.069  1.00  0.00    -0.256 A  
HETATM   14  C   UNL     1     -11.392  11.076  67.786  1.00  0.00    -0.365 A  
HETATM   15  C   UNL     1     -10.080  10.852  67.344  1.00  0.00    -0.223 A  
HETATM   16  C   UNL     1      -9.168  10.260  68.222  1.00  0.00    -0.139 A  
HETATM   17  C   UNL     1      -9.568   9.882  69.512  1.00  0.00    -0.242 A  
BRANCH  15  18
HETATM   18  C   UNL     1      -9.685  11.232  65.941  1.00  0.00    -0.224 C  
BRANCH  18  19
HETATM   19  O   UNL     1     -10.825  11.097  65.098  1.00  0.00    -0.248 OA 
BRANCH  19  20
HETATM   20  C   UNL     1     -10.628  11.712  63.826  1.00  0.00    -0.416 C  
BRANCH  20  21
HETATM   21  C   UNL     1     -11.704  12.776  63.639  1.00  0.00    -0.519 C  
BRANCH  21  22
HETATM   22  O   UNL     1     -12.595  12.773  64.753  1.00  0.00    -0.556 OA 
BRANCH  22  23
HETATM   23  C   UNL     1     -12.774  14.067  65.344  1.00  0.00    -0.471 C  
HETATM   24  C   UNL     1     -11.997  14.205  66.650  1.00  0.00    -0.470 C  
HETATM   25  C   UNL     1     -12.276  15.094  64.332  1.00  0.00    -0.289 C  
ENDBRANCH  22  23
ENDBRANCH  21  22
ENDBRANCH  20  21
ENDBRANCH  19  20
ENDBRANCH  18  19
ENDBRANCH  15  18
ENDBRANCH  11  12
ENDBRANCH  10  11
ENDBRANCH   7  10
ENDBRANCH   6   7
ENDBRANCH   4   6
ENDBRANCH   2   4
TORSDOF 12
ENDMDL
MODEL       21
REMARK 921   NORMALIZED FREE ENERGY PREDICTED BY IDOCK:   -5.17 KCAL/MOL
REMARK 922        TOTAL FREE ENERGY PREDICTED BY IDOCK:   -9.82 KCAL/MOL
REMARK 923 INTER-LIGAND FREE ENERGY PREDICTED BY IDOCK:   -9.05 KCAL/MOL
REMARK 924 INTRA-LIGAND FREE ENERGY PREDICTED BY IDOCK:   -0.77 KCAL/MOL
REMARK 927      BINDING AFFINITY PREDICTED BY RF-SCORE:    0.00 PKD
ROOT
HETATM    1  C   UNL     1     -10.001  19.453  68.428  1.00  0.00    -0.527 C  
HETATM    2  C   UNL     1     -10.862  19.010  67.242  1.00  0.00    -0.408 C  
HETATM    3  C   UNL     1     -10.506  19.847  66.011  1.00  0.00    -0.580 C  
ENDROOT
BRANCH   2   4
HETATM    4  N   UNL     1     -10.635  17.582  67.013  1.00  0.00    -0.292 NA 
HETATM    5  H   UNL     1     -11.440  17.035  67.317  1.00  0.00     0.000 HD 
BRANCH   4   6
HETATM    6  C   UNL     1     -10.282  17.261  65.623  1.00  0.00    -0.124 C  
BRANCH   6   7
HETATM    7  C   UNL     1     -11.156  16.103  65.110  1.00  0.00    -0.249 C  
HETATM    8  O   UNL     1     -11.471  16.318  63.725  1.00  0.00    -1.475 OA 
HETATM    9  H   UNL     1     -12.011  15.604  63.408  1.00  0.00     0.000 HD 
BRANCH   7  10
HETATM   10  C   UNL     1     -10.462  14.748  65.276  1.00  0.00    -0.404 C  
BRANCH  10  11
HETATM   11  O   UNL     1     -11.455  13.723  65.439  1.00  0.00    -0.304 OA 
BRANCH  11  12
HETATM   12  C   UNL     1     -11.612  13.275  66.724  1.00  0.00    -0.365 A  
HETATM   13  C   UNL     1     -11.941  14.081  67.813  1.00  0.00    -0.392 A  
HETATM   14  C   UNL     1     -12.069  13.523  69.087  1.00  0.00    -0.331 A  
HETATM   15  C   UNL     1     -11.880  12.150  69.292  1.00  0.00    -0.370 A  
HETATM   16  C   UNL     1     -11.583  11.340  68.192  1.00  0.00    -0.359 A  
HETATM   17  C   UNL     1     -11.459  11.901  66.913  1.00  0.00    -0.390 A  
BRANCH  15  18
HETATM   18  C   UNL     1     -11.981  11.578  70.682  1.00  0.00    -0.292 C  
BRANCH  18  19
HETATM   19  O   UNL     1     -13.048  10.634  70.707  1.00  0.00    -0.341 OA 
BRANCH  19  20
HETATM   20  C   UNL     1     -13.060   9.869  71.911  1.00  0.00    -0.459 C  
BRANCH  20  21
HETATM   21  C   UNL     1     -12.357   8.544  71.642  1.00  0.00    -0.326 C  
BRANCH  21  22
HETATM   22  O   UNL     1     -11.004   8.607  72.090  1.00  0.00    -0.341 OA 
BRANCH  22  23
HETATM   23  C   UNL     1     -10.078   7.976  71.196  1.00  0.00    -0.188 C  
HETATM   24  C   UNL     1     -10.631   7.886  69.777  1.00  0.00    -0.242 C  
HETATM   25  C   UNL     1      -8.804   8.815  71.205  1.00  0.00    -0.288 C  
ENDBRANCH  22  23
ENDBRANCH  21  22
ENDBRANCH  20  21
ENDBRANCH  19  20
ENDBRANCH  18  19
ENDBRANCH  15  18
ENDBRANCH  11  12
ENDBRANCH  10  11
ENDBRANCH   7  10
ENDBRANCH   6   7
ENDBRANCH   4   6
ENDBRANCH   2   4
TORSDOF 12
ENDMDL
MODEL       22
REMARK 921   NORMALIZED FREE ENERGY PREDICTED BY IDOCK:   -5.15 KCAL/MOL
REMARK 922        TOTAL FREE ENERGY PREDICTED BY IDOCK:   -9.78 KCAL/MOL
REMARK 923 INTER-LIGAND FREE ENERGY PREDICTED BY IDOCK:   -8.75 KCAL/MOL
REMARK 924 INTRA-LIGAND FREE ENERGY PREDICTED BY IDOCK:   -1.03 KCAL/MOL
REMARK 927      BINDING AFFINITY PREDICTED BY RF-SCORE:    0.00 PKD
ROOT
HETATM    1  C   UNL     1     -11.657   7.695  72.355  1.00  0.00    -0.386 C  
HETATM    2  C   UNL     1     -12.780   6.990  71.590  1.00  0.00    -0.377 C  
HETATM    3  C   UNL     1     -14.072   7.799  71.719  1.00  0.00    -0.519 C  
ENDROOT
BRANCH   2   4
HETATM    4  N   UNL     1     -12.368   6.844  70.193  1.00  0.00    -0.578 NA 
HETATM    5  H   UNL     1     -12.554   7.700  69.670  1.00  0.00     0.000 HD 
BRANCH   4   6
HETATM    6  C   UNL     1     -10.966   6.432  70.035  1.00  0.00    -0.337 C  
BRANCH   6   7
HETATM    7  C   UNL     1     -10.433   6.885  68.664  1.00  0.00    -0.195 C  
HETATM    8  O   UNL     1     -11.457   6.713  67.671  1.00  0.00    -0.687 OA 
HETATM    9  H   UNL     1     -11.129   6.992  66.825  1.00  0.00     0.000 HD 
BRANCH   7  10
HETATM   10  C   UNL     1      -9.977   8.347  68.685  1.00  0.00    -0.184 C  
BRANCH  10  11
HETATM   11  O   UNL     1     -10.971   9.144  69.349  1.00  0.00    -0.197 OA 
BRANCH  11  12
HETATM   12  C   UNL     1     -11.154  10.393  68.818  1.00  0.00    -0.250 A  
HETATM   13  C   UNL     1     -11.528  11.520  69.550  1.00  0.00    -0.378 A  
HETATM   14  C   UNL     1     -11.696  12.750  68.910  1.00  0.00    -0.370 A  
HETATM   15  C   UNL     1     -11.484  12.877  67.530  1.00  0.00    -0.386 A  
HETATM   16  C   UNL     1     -11.077  11.752  66.807  1.00  0.00    -0.360 A  
HETATM   17  C   UNL     1     -10.904  10.519  67.451  1.00  0.00    -0.349 A  
BRANCH  15  18
HETATM   18  C   UNL     1     -11.713  14.203  66.854  1.00  0.00    -0.414 C  
BRANCH  18  19
HETATM   19  O   UNL     1     -11.496  14.042  65.455  1.00  0.00    -0.308 OA 
BRANCH  19  20
HETATM   20  C   UNL     1     -10.946  15.214  64.859  1.00  0.00    -0.419 C  
BRANCH  20  21
HETATM   21  C   UNL     1     -10.482  16.145  65.973  1.00  0.00    -0.338 C  
BRANCH  21  22
HETATM   22  O   UNL     1     -10.600  17.504  65.558  1.00  0.00    -0.612 OA 
BRANCH  22  23
HETATM   23  C   UNL     1      -9.753  18.400  66.290  1.00  0.00    -0.294 C  
HETATM   24  C   UNL     1     -10.496  19.064  67.446  1.00  0.00    -0.539 C  
HETATM   25  C   UNL     1      -8.587  17.576  66.827  1.00  0.00    -0.276 C  
ENDBRANCH  22  23
ENDBRANCH  21  22
ENDBRANCH  20  21
ENDBRANCH  19  20
ENDBRANCH  18  19
ENDBRANCH  15  18
ENDBRANCH  11  12
ENDBRANCH  10  11
ENDBRANCH   7  10
ENDBRANCH   6   7
ENDBRANCH   4   6
ENDBRANCH   2   4
TORSDOF 12
ENDMDL
MODEL       23
REMARK 921   NORMALIZED FREE ENERGY PREDICTED BY IDOCK:   -5.15 KCAL/MOL
REMARK 922        TOTAL FREE ENERGY PREDICTED BY IDOCK:   -9.78 KCAL/MOL
REMARK 923 INTER-LIGAND FREE ENERGY PREDICTED BY IDOCK:   -8.37 KCAL/MOL
REMARK 924 INTRA-LIGAND FREE ENERGY PREDICTED BY IDOCK:   -1.41 KCAL/MOL
REMARK 927      BINDING AFFINITY PREDICTED BY RF-SCORE:    0.00 PKD
ROOT
HETATM    1  C   UNL     1      -8.835  11.665  65.995  1.00  0.00    -0.105 C  
HETATM    2  C   UNL     1      -9.631  10.640  65.182  1.00  0.00    -0.251 C  
HETATM    3  C   UNL     1      -9.839   9.376  66.019  1.00  0.00    -0.366 C  
ENDROOT
BRANCH   2   4
HETATM    4  N   UNL     1     -10.905  11.248  64.791  1.00  0.00    -0.281 NA 
HETATM    5  H   UNL     1     -11.432  11.543  65.613  1.00  0.00     0.000 HD 
BRANCH   4   6
HETATM    6  C   UNL     1     -10.756  12.359  63.842  1.00  0.00    -0.426 C  
BRANCH   6   7
HETATM    7  C   UNL     1     -11.568  13.576  64.321  1.00  0.00    -0.397 C  
HETATM    8  O   UNL     1     -12.527  13.939  63.314  1.00  0.00    -1.113 OA 
HETATM    9  H   UNL     1     -13.028  14.690  63.610  1.00  0.00     0.000 HD 
BRANCH   7  10
HETATM   10  C   UNL     1     -12.291  13.293  65.642  1.00  0.00    -0.465 C  
BRANCH  10  11
HETATM   11  O   UNL     1     -11.483  13.762  66.734  1.00  0.00    -0.321 OA 
BRANCH  11  12
HETATM   12  C   UNL     1     -11.731  13.153  67.935  1.00  0.00    -0.357 A  
HETATM   13  C   UNL     1     -11.936  13.827  69.139  1.00  0.00    -0.403 A  
HETATM   14  C   UNL     1     -12.173  13.109  70.314  1.00  0.00    -0.376 A  
HETATM   15  C   UNL     1     -12.221  11.708  70.303  1.00  0.00    -0.401 A  
HETATM   16  C   UNL     1     -12.048  11.039  69.087  1.00  0.00    -0.333 A  
HETATM   17  C   UNL     1     -11.814  11.761  67.908  1.00  0.00    -0.289 A  
BRANCH  15  18
HETATM   18  C   UNL     1     -12.436  10.954  71.589  1.00  0.00    -0.242 C  
BRANCH  18  19
HETATM   19  O   UNL     1     -13.598  10.141  71.448  1.00  0.00    -0.279 OA 
BRANCH  19  20
HETATM   20  C   UNL     1     -13.468   8.897  72.133  1.00  0.00    -0.448 C  
BRANCH  20  21
HETATM   21  C   UNL     1     -11.989   8.531  72.182  1.00  0.00    -0.383 C  
BRANCH  21  22
HETATM   22  O   UNL     1     -11.818   7.146  71.882  1.00  0.00    -0.279 OA 
BRANCH  22  23
HETATM   23  C   UNL     1     -11.341   6.906  70.552  1.00  0.00    -0.327 C  
HETATM   24  C   UNL     1     -10.348   7.975  70.104  1.00  0.00    -0.215 C  
HETATM   25  C   UNL     1     -10.664   5.539  70.558  1.00  0.00    -0.310 C  
ENDBRANCH  22  23
ENDBRANCH  21  22
ENDBRANCH  20  21
ENDBRANCH  19  20
ENDBRANCH  18  19
ENDBRANCH  15  18
ENDBRANCH  11  12
ENDBRANCH  10  11
ENDBRANCH   7  10
ENDBRANCH   6   7
ENDBRANCH   4   6
ENDBRANCH   2   4
TORSDOF 12
ENDMDL
MODEL       24
REMARK 921   NORMALIZED FREE ENERGY PREDICTED BY IDOCK:   -5.15 KCAL/MOL
REMARK 922        TOTAL FREE ENERGY PREDICTED BY IDOCK:   -9.78 KCAL/MOL
REMARK 923 INTER-LIGAND FREE ENERGY PREDICTED BY IDOCK:   -8.12 KCAL/MOL
REMARK 924 INTRA-LIGAND FREE ENERGY PREDICTED BY IDOCK:   -1.66 KCAL/MOL
REMARK 927      BINDING AFFINITY PREDICTED BY RF-SCORE:    0.00 PKD
ROOT
HETATM    1  C   UNL     1     -13.036  10.609  71.576  1.00  0.00    -0.527 C  
HETATM    2  C   UNL     1     -12.946   9.103  71.831  1.00  0.00    -0.404 C  
HETATM    3  C   UNL     1     -14.357   8.519  71.943  1.00  0.00    -0.536 C  
ENDROOT
BRANCH   2   4
HETATM    4  N   UNL     1     -12.191   8.492  70.735  1.00  0.00    -0.495 NA 
HETATM    5  H   UNL     1     -12.061   9.156  69.972  1.00  0.00     0.000 HD 
BRANCH   4   6
HETATM    6  C   UNL     1     -10.903   7.925  71.157  1.00  0.00    -0.234 C  
BRANCH   6   7
HETATM    7  C   UNL     1      -9.852   9.041  71.289  1.00  0.00    -0.306 C  
HETATM    8  O   UNL     1      -8.962   8.737  72.375  1.00  0.00    -0.379 OA 
HETATM    9  H   UNL     1      -8.314   9.426  72.456  1.00  0.00     0.000 HD 
BRANCH   7  10
HETATM   10  C   UNL     1      -9.046   9.220  69.998  1.00  0.00    -0.210 C  
BRANCH  10  11
HETATM   11  O   UNL     1      -9.951   9.374  68.892  1.00  0.00    -0.169 OA 
BRANCH  11  12
HETATM   12  C   UNL     1     -10.179  10.670  68.513  1.00  0.00    -0.175 A  
HETATM   13  C   UNL     1      -9.186  11.632  68.332  1.00  0.00    -0.182 A  
HETATM   14  C   UNL     1      -9.527  12.931  67.952  1.00  0.00    -0.208 A  
HETATM   15  C   UNL     1     -10.865  13.289  67.735  1.00  0.00    -0.268 A  
HETATM   16  C   UNL     1     -11.855  12.313  67.885  1.00  0.00    -0.358 A  
HETATM   17  C   UNL     1     -11.510  11.007  68.264  1.00  0.00    -0.374 A  
BRANCH  15  18
HETATM   18  C   UNL     1     -11.213  14.708  67.367  1.00  0.00    -0.342 C  
BRANCH  18  19
HETATM   19  O   UNL     1     -10.381  15.111  66.283  1.00  0.00    -0.273 OA 
BRANCH  19  20
HETATM   20  C   UNL     1     -11.139  15.483  65.134  1.00  0.00    -0.374 C  
BRANCH  20  21
HETATM   21  C   UNL     1     -11.586  14.211  64.424  1.00  0.00    -0.362 C  
BRANCH  21  22
HETATM   22  O   UNL     1     -10.471  13.346  64.220  1.00  0.00    -0.429 OA 
BRANCH  22  23
HETATM   23  C   UNL     1     -10.834  12.061  63.699  1.00  0.00    -0.446 C  
HETATM   24  C   UNL     1     -10.311  10.926  64.574  1.00  0.00    -0.417 C  
HETATM   25  C   UNL     1     -12.358  12.014  63.642  1.00  0.00    -0.648 C  
ENDBRANCH  22  23
ENDBRANCH  21  22
ENDBRANCH  20  21
ENDBRANCH  19  20
ENDBRANCH  18  19
ENDBRANCH  15  18
ENDBRANCH  11  12
ENDBRANCH  10  11
ENDBRANCH   7  10
ENDBRANCH   6   7
ENDBRANCH   4   6
ENDBRANCH   2   4
TORSDOF 12
ENDMDL
MODEL       25
REMARK 921   NORMALIZED FREE ENERGY PREDICTED BY IDOCK:   -5.13 KCAL/MOL
REMARK 922        TOTAL FREE ENERGY PREDICTED BY IDOCK:   -9.75 KCAL/MOL
REMARK 923 INTER-LIGAND FREE ENERGY PREDICTED BY IDOCK:   -8.84 KCAL/MOL
REMARK 924 INTRA-LIGAND FREE ENERGY PREDICTED BY IDOCK:   -0.91 KCAL/MOL
REMARK 927      BINDING AFFINITY PREDICTED BY RF-SCORE:    0.00 PKD
ROOT
HETATM    1  C   UNL     1     -11.882  11.961  63.683  1.00  0.00    -0.573 C  
HETATM    2  C   UNL     1     -10.394  12.034  64.032  1.00  0.00    -0.373 C  
HETATM    3  C   UNL     1      -9.570  11.463  62.875  1.00  0.00    -0.366 C  
ENDROOT
BRANCH   2   4
HETATM    4  N   UNL     1     -10.050  13.430  64.305  1.00  0.00    -0.748 NA 
HETATM    5  H   UNL     1      -9.588  13.853  63.500  1.00  0.00     0.000 HD 
BRANCH   4   6
HETATM    6  C   UNL     1     -11.197  14.243  64.733  1.00  0.00    -0.385 C  
BRANCH   6   7
HETATM    7  C   UNL     1     -10.975  15.716  64.345  1.00  0.00    -0.036 C  
HETATM    8  O   UNL     1     -12.188  16.255  63.795  1.00  0.00    -1.239 OA 
HETATM    9  H   UNL     1     -12.051  17.164  63.556  1.00  0.00     0.000 HD 
BRANCH   7  10
HETATM   10  C   UNL     1     -10.534  16.560  65.545  1.00  0.00    -0.301 C  
BRANCH  10  11
HETATM   11  O   UNL     1      -9.912  15.707  66.520  1.00  0.00    -0.252 OA 
BRANCH  11  12
HETATM   12  C   UNL     1     -10.455  15.779  67.776  1.00  0.00    -0.283 A  
HETATM   13  C   UNL     1     -10.030  16.653  68.776  1.00  0.00    -0.265 A  
HETATM   14  C   UNL     1     -10.648  16.640  70.029  1.00  0.00    -0.104 A  
HETATM   15  C   UNL     1     -11.706  15.762  70.299  1.00  0.00    -0.373 A  
HETATM   16  C   UNL     1     -12.151  14.911  69.282  1.00  0.00    -0.286 A  
HETATM   17  C   UNL     1     -11.532  14.928  68.024  1.00  0.00    -0.355 A  
BRANCH  15  18
HETATM   18  C   UNL     1     -12.329  15.736  71.671  1.00  0.00    -0.457 C  
BRANCH  18  19
HETATM   19  O   UNL     1     -13.426  14.828  71.653  1.00  0.00    -0.336 OA 
BRANCH  19  20
HETATM   20  C   UNL     1     -13.368  13.894  72.729  1.00  0.00    -0.462 C  
BRANCH  20  21
HETATM   21  C   UNL     1     -13.362  12.488  72.142  1.00  0.00    -0.435 C  
BRANCH  21  22
HETATM   22  O   UNL     1     -12.179  12.283  71.371  1.00  0.00    -0.077 OA 
BRANCH  22  23
HETATM   23  C   UNL     1     -12.018  10.931  70.923  1.00  0.00    -0.311 C  
HETATM   24  C   UNL     1     -13.037   9.995  71.567  1.00  0.00    -0.531 C  
HETATM   25  C   UNL     1     -12.201  10.935  69.409  1.00  0.00    -0.293 C  
ENDBRANCH  22  23
ENDBRANCH  21  22
ENDBRANCH  20  21
ENDBRANCH  19  20
ENDBRANCH  18  19
ENDBRANCH  15  18
ENDBRANCH  11  12
ENDBRANCH  10  11
ENDBRANCH   7  10
ENDBRANCH   6   7
ENDBRANCH   4   6
ENDBRANCH   2   4
TORSDOF 12
ENDMDL
MODEL       26
REMARK 921   NORMALIZED FREE ENERGY PREDICTED BY IDOCK:   -5.12 KCAL/MOL
REMARK 922        TOTAL FREE ENERGY PREDICTED BY IDOCK:   -9.73 KCAL/MOL
REMARK 923 INTER-LIGAND FREE ENERGY PREDICTED BY IDOCK:   -8.93 KCAL/MOL
REMARK 924 INTRA-LIGAND FREE ENERGY PREDICTED BY IDOCK:   -0.81 KCAL/MOL
REMARK 927      BINDING AFFINITY PREDICTED BY RF-SCORE:    0.00 PKD
ROOT
HETATM    1  C   UNL     1     -12.636  11.920  63.394  1.00  0.00    -0.555 C  
HETATM    2  C   UNL     1     -11.318  12.364  64.035  1.00  0.00    -0.399 C  
HETATM    3  C   UNL     1     -10.144  11.822  63.216  1.00  0.00    -0.448 C  
ENDROOT
BRANCH   2   4
HETATM    4  N   UNL     1     -11.304  13.826  64.102  1.00  0.00    -0.585 NA 
HETATM    5  H   UNL     1     -12.254  14.194  64.158  1.00  0.00     0.000 HD 
BRANCH   4   6
HETATM    6  C   UNL     1     -10.476  14.354  65.194  1.00  0.00    -0.415 C  
BRANCH   6   7
HETATM    7  C   UNL     1     -11.333  14.559  66.456  1.00  0.00    -0.352 C  
HETATM    8  O   UNL     1     -12.713  14.308  66.144  1.00  0.00    -0.489 OA 
HETATM    9  H   UNL     1     -13.242  14.434  66.923  1.00  0.00     0.000 HD 
BRANCH   7  10
HETATM   10  C   UNL     1     -10.888  13.642  67.600  1.00  0.00    -0.256 C  
BRANCH  10  11
HETATM   11  O   UNL     1     -11.433  14.129  68.837  1.00  0.00    -0.256 OA 
BRANCH  11  12
HETATM   12  C   UNL     1     -11.912  13.159  69.676  1.00  0.00    -0.306 A  
HETATM   13  C   UNL     1     -12.555  13.404  70.890  1.00  0.00    -0.406 A  
HETATM   14  C   UNL     1     -12.999  12.339  71.677  1.00  0.00    -0.416 A  
HETATM   15  C   UNL     1     -12.818  11.013  71.261  1.00  0.00    -0.528 A  
HETATM   16  C   UNL     1     -12.203  10.774  70.028  1.00  0.00    -0.409 A  
HETATM   17  C   UNL     1     -11.761  11.843  69.237  1.00  0.00    -0.389 A  
BRANCH  15  18
HETATM   18  C   UNL     1     -13.267   9.880  72.146  1.00  0.00    -0.415 C  
BRANCH  18  19
HETATM   19  O   UNL     1     -12.830   8.654  71.569  1.00  0.00    -0.323 OA 
BRANCH  19  20
HETATM   20  C   UNL     1     -11.910   7.962  72.410  1.00  0.00    -0.348 C  
BRANCH  20  21
HETATM   21  C   UNL     1     -11.503   6.670  71.712  1.00  0.00    -0.291 C  
BRANCH  21  22
HETATM   22  O   UNL     1     -12.149   6.573  70.444  1.00  0.00    -0.360 OA 
BRANCH  22  23
HETATM   23  C   UNL     1     -11.257   6.234  69.374  1.00  0.00    -0.420 C  
HETATM   24  C   UNL     1     -10.413   7.429  68.941  1.00  0.00    -0.213 C  
HETATM   25  C   UNL     1     -10.352   5.116  69.882  1.00  0.00    -0.347 C  
ENDBRANCH  22  23
ENDBRANCH  21  22
ENDBRANCH  20  21
ENDBRANCH  19  20
ENDBRANCH  18  19
ENDBRANCH  15  18
ENDBRANCH  11  12
ENDBRANCH  10  11
ENDBRANCH   7  10
ENDBRANCH   6   7
ENDBRANCH   4   6
ENDBRANCH   2   4
TORSDOF 12
ENDMDL
MODEL       27
REMARK 921   NORMALIZED FREE ENERGY PREDICTED BY IDOCK:   -5.12 KCAL/MOL
REMARK 922        TOTAL FREE ENERGY PREDICTED BY IDOCK:   -9.73 KCAL/MOL
REMARK 923 INTER-LIGAND FREE ENERGY PREDICTED BY IDOCK:   -8.39 KCAL/MOL
REMARK 924 INTRA-LIGAND FREE ENERGY PREDICTED BY IDOCK:   -1.33 KCAL/MOL
REMARK 927      BINDING AFFINITY PREDICTED BY RF-SCORE:    0.00 PKD
ROOT
HETATM    1  C   UNL     1      -9.708  16.669  66.190  1.00  0.00    -0.329 C  
HETATM    2  C   UNL     1      -9.286  15.212  66.393  1.00  0.00    -0.300 C  
HETATM    3  C   UNL     1      -9.701  14.750  67.792  1.00  0.00    -0.213 C  
ENDROOT
BRANCH   2   4
HETATM    4  N   UNL     1      -9.907  14.399  65.346  1.00  0.00    -0.541 NA 
HETATM    5  H   UNL     1     -10.121  13.464  65.694  1.00  0.00     0.000 HD 
BRANCH   4   6
HETATM    6  C   UNL     1     -11.100  15.020  64.753  1.00  0.00    -0.376 C  
BRANCH   6   7
HETATM    7  C   UNL     1     -12.183  13.954  64.508  1.00  0.00    -0.417 C  
HETATM    8  O   UNL     1     -12.352  13.759  63.095  1.00  0.00    -1.099 OA 
HETATM    9  H   UNL     1     -13.021  13.101  62.943  1.00  0.00     0.000 HD 
BRANCH   7  10
HETATM   10  C   UNL     1     -11.831  12.620  65.174  1.00  0.00    -0.396 C  
BRANCH  10  11
HETATM   11  O   UNL     1     -12.252  12.651  66.548  1.00  0.00    -0.538 OA 
BRANCH  11  12
HETATM   12  C   UNL     1     -11.627  11.744  67.361  1.00  0.00    -0.280 A  
HETATM   13  C   UNL     1     -11.893  11.580  68.720  1.00  0.00    -0.394 A  
HETATM   14  C   UNL     1     -11.191  10.628  69.463  1.00  0.00    -0.331 A  
HETATM   15  C   UNL     1     -10.221   9.817  68.859  1.00  0.00    -0.213 A  
HETATM   16  C   UNL     1      -9.982   9.962  67.489  1.00  0.00    -0.229 A  
HETATM   17  C   UNL     1     -10.690  10.915  66.743  1.00  0.00    -0.309 A  
BRANCH  15  18
HETATM   18  C   UNL     1      -9.447   8.827  69.689  1.00  0.00    -0.170 C  
BRANCH  18  19
HETATM   19  O   UNL     1      -9.265   7.639  68.924  1.00  0.00    -0.140 OA 
BRANCH  19  20
HETATM   20  C   UNL     1     -10.459   6.864  68.844  1.00  0.00    -0.208 C  
BRANCH  20  21
HETATM   21  C   UNL     1     -10.886   6.496  70.261  1.00  0.00    -0.279 C  
BRANCH  21  22
HETATM   22  O   UNL     1     -12.283   6.732  70.429  1.00  0.00    -0.324 OA 
BRANCH  22  23
HETATM   23  C   UNL     1     -12.652   7.032  71.781  1.00  0.00    -0.350 C  
HETATM   24  C   UNL     1     -11.799   8.155  72.365  1.00  0.00    -0.448 C  
HETATM   25  C   UNL     1     -14.119   7.449  71.764  1.00  0.00    -0.510 C  
ENDBRANCH  22  23
ENDBRANCH  21  22
ENDBRANCH  20  21
ENDBRANCH  19  20
ENDBRANCH  18  19
ENDBRANCH  15  18
ENDBRANCH  11  12
ENDBRANCH  10  11
ENDBRANCH   7  10
ENDBRANCH   6   7
ENDBRANCH   4   6
ENDBRANCH   2   4
TORSDOF 12
ENDMDL
MODEL       28
REMARK 921   NORMALIZED FREE ENERGY PREDICTED BY IDOCK:   -5.11 KCAL/MOL
REMARK 922        TOTAL FREE ENERGY PREDICTED BY IDOCK:   -9.71 KCAL/MOL
REMARK 923 INTER-LIGAND FREE ENERGY PREDICTED BY IDOCK:   -8.57 KCAL/MOL
REMARK 924 INTRA-LIGAND FREE ENERGY PREDICTED BY IDOCK:   -1.14 KCAL/MOL
REMARK 927      BINDING AFFINITY PREDICTED BY RF-SCORE:    0.00 PKD
ROOT
HETATM    1  C   UNL     1     -10.186   5.274  69.950  1.00  0.00    -0.364 C  
HETATM    2  C   UNL     1     -10.674   6.501  69.176  1.00  0.00    -0.275 C  
HETATM    3  C   UNL     1     -10.908   6.121  67.712  1.00  0.00    -0.413 C  
ENDROOT
BRANCH   2   4
HETATM    4  N   UNL     1     -11.897   6.995  69.812  1.00  0.00    -0.590 NA 
HETATM    5  H   UNL     1     -12.721   6.685  69.297  1.00  0.00     0.000 HD 
BRANCH   4   6
HETATM    6  C   UNL     1     -12.004   6.635  71.232  1.00  0.00    -0.355 C  
BRANCH   6   7
HETATM    7  C   UNL     1     -12.697   7.767  72.012  1.00  0.00    -0.258 C  
HETATM    8  O   UNL     1     -12.010   7.983  73.255  1.00  0.00    -0.598 OA 
HETATM    9  H   UNL     1     -12.438   8.682  73.737  1.00  0.00     0.000 HD 
BRANCH   7  10
HETATM   10  C   UNL     1     -12.734   9.072  71.210  1.00  0.00    -0.262 C  
BRANCH  10  11
HETATM   11  O   UNL     1     -13.076  10.157  72.087  1.00  0.00    -0.435 OA 
BRANCH  11  12
HETATM   12  C   UNL     1     -12.838  11.405  71.575  1.00  0.00    -0.403 A  
HETATM   13  C   UNL     1     -13.359  12.590  72.096  1.00  0.00    -0.540 A  
HETATM   14  C   UNL     1     -13.061  13.813  71.492  1.00  0.00    -0.435 A  
HETATM   15  C   UNL     1     -12.229  13.875  70.366  1.00  0.00    -0.438 A  
HETATM   16  C   UNL     1     -11.682  12.689  69.868  1.00  0.00    -0.320 A  
HETATM   17  C   UNL     1     -11.979  11.461  70.477  1.00  0.00    -0.451 A  
BRANCH  15  18
HETATM   18  C   UNL     1     -11.956  15.202  69.706  1.00  0.00    -0.334 C  
BRANCH  18  19
HETATM   19  O   UNL     1     -10.796  15.071  68.889  1.00  0.00    -0.226 OA 
BRANCH  19  20
HETATM   20  C   UNL     1     -10.911  15.807  67.673  1.00  0.00    -0.310 C  
BRANCH  20  21
HETATM   21  C   UNL     1     -11.342  14.846  66.571  1.00  0.00    -0.319 C  
BRANCH  21  22
HETATM   22  O   UNL     1     -10.195  14.296  65.925  1.00  0.00    -0.298 OA 
BRANCH  22  23
HETATM   23  C   UNL     1     -10.197  12.863  65.882  1.00  0.00    -0.290 C  
HETATM   24  C   UNL     1      -9.326  12.262  66.980  1.00  0.00    -0.205 C  
HETATM   25  C   UNL     1     -11.643  12.411  66.060  1.00  0.00    -0.455 C  
ENDBRANCH  22  23
ENDBRANCH  21  22
ENDBRANCH  20  21
ENDBRANCH  19  20
ENDBRANCH  18  19
ENDBRANCH  15  18
ENDBRANCH  11  12
ENDBRANCH  10  11
ENDBRANCH   7  10
ENDBRANCH   6   7
ENDBRANCH   4   6
ENDBRANCH   2   4
TORSDOF 12
ENDMDL
MODEL       29
REMARK 921   NORMALIZED FREE ENERGY PREDICTED BY IDOCK:   -5.10 KCAL/MOL
REMARK 922        TOTAL FREE ENERGY PREDICTED BY IDOCK:   -9.69 KCAL/MOL
REMARK 923 INTER-LIGAND FREE ENERGY PREDICTED BY IDOCK:   -8.54 KCAL/MOL
REMARK 924 INTRA-LIGAND FREE ENERGY PREDICTED BY IDOCK:   -1.15 KCAL/MOL
REMARK 927      BINDING AFFINITY PREDICTED BY RF-SCORE:    0.00 PKD
ROOT
HETATM    1  C   UNL     1      -9.508   7.581  72.978  1.00  0.00    -0.255 C  
HETATM    2  C   UNL     1      -9.809   8.778  72.073  1.00  0.00    -0.306 C  
HETATM    3  C   UNL     1      -8.750   8.865  70.972  1.00  0.00    -0.276 C  
ENDROOT
BRANCH   2   4
HETATM    4  N   UNL     1     -11.155   8.614  71.520  1.00  0.00    -0.266 NA 
HETATM    5  H   UNL     1     -11.131   8.043  70.675  1.00  0.00     0.000 HD 
BRANCH   4   6
HETATM    6  C   UNL     1     -12.123   8.075  72.485  1.00  0.00    -0.284 C  
BRANCH   6   7
HETATM    7  C   UNL     1     -13.542   8.555  72.134  1.00  0.00    -0.364 C  
HETATM    8  O   UNL     1     -14.258   8.858  73.342  1.00  0.00    -1.241 OA 
HETATM    9  H   UNL     1     -15.134   9.155  73.126  1.00  0.00     0.000 HD 
BRANCH   7  10
HETATM   10  C   UNL     1     -13.517   9.790  71.227  1.00  0.00    -0.290 C  
BRANCH  10  11
HETATM   11  O   UNL     1     -13.164  10.943  72.007  1.00  0.00    -0.492 OA 
BRANCH  11  12
HETATM   12  C   UNL     1     -12.780  12.036  71.275  1.00  0.00    -0.279 A  
HETATM   13  C   UNL     1     -12.026  11.982  70.104  1.00  0.00    -0.401 A  
HETATM   14  C   UNL     1     -11.680  13.160  69.437  1.00  0.00    -0.386 A  
HETATM   15  C   UNL     1     -12.091  14.409  69.922  1.00  0.00    -0.398 A  
HETATM   16  C   UNL     1     -12.876  14.455  71.079  1.00  0.00    -0.423 A  
HETATM   17  C   UNL     1     -13.225  13.272  71.745  1.00  0.00    -0.495 A  
BRANCH  15  18
HETATM   18  C   UNL     1     -11.670  15.667  69.210  1.00  0.00    -0.375 C  
BRANCH  18  19
HETATM   19  O   UNL     1     -10.590  16.254  69.929  1.00  0.00    -0.306 OA 
BRANCH  19  20
HETATM   20  C   UNL     1      -9.322  15.877  69.396  1.00  0.00    -0.250 C  
BRANCH  20  21
HETATM   21  C   UNL     1      -9.020  16.774  68.201  1.00  0.00    -0.224 C  
BRANCH  21  22
HETATM   22  O   UNL     1      -8.865  15.986  67.023  1.00  0.00    -0.189 OA 
BRANCH  22  23
HETATM   23  C   UNL     1      -9.663  16.442  65.923  1.00  0.00    -0.294 C  
HETATM   24  C   UNL     1     -10.686  15.394  65.493  1.00  0.00    -0.397 C  
HETATM   25  C   UNL     1     -10.379  17.708  66.382  1.00  0.00    -0.345 C  
ENDBRANCH  22  23
ENDBRANCH  21  22
ENDBRANCH  20  21
ENDBRANCH  19  20
ENDBRANCH  18  19
ENDBRANCH  15  18
ENDBRANCH  11  12
ENDBRANCH  10  11
ENDBRANCH   7  10
ENDBRANCH   6   7
ENDBRANCH   4   6
ENDBRANCH   2   4
TORSDOF 12
ENDMDL
MODEL       30
REMARK 921   NORMALIZED FREE ENERGY PREDICTED BY IDOCK:   -5.09 KCAL/MOL
REMARK 922        TOTAL FREE ENERGY PREDICTED BY IDOCK:   -9.68 KCAL/MOL
REMARK 923 INTER-LIGAND FREE ENERGY PREDICTED BY IDOCK:   -8.23 KCAL/MOL
REMARK 924 INTRA-LIGAND FREE ENERGY PREDICTED BY IDOCK:   -1.45 KCAL/MOL
REMARK 927      BINDING AFFINITY PREDICTED BY RF-SCORE:    0.00 PKD
ROOT
HETATM    1  C   UNL     1     -10.167  16.490  66.690  1.00  0.00    -0.302 C  
HETATM    2  C   UNL     1      -9.287  15.420  66.039  1.00  0.00    -0.329 C  
HETATM    3  C   UNL     1      -8.759  14.469  67.115  1.00  0.00    -0.237 C  
ENDROOT
BRANCH   2   4
HETATM    4  N   UNL     1     -10.084  14.714  65.034  1.00  0.00    -0.458 NA 
HETATM    5  H   UNL     1     -10.453  13.842  65.414  1.00  0.00     0.000 HD 
BRANCH   4   6
HETATM    6  C   UNL     1     -11.163  15.531  64.462  1.00  0.00    -0.315 C  
BRANCH   6   7
HETATM    7  C   UNL     1     -12.461  14.707  64.376  1.00  0.00    -0.288 C  
HETATM    8  O   UNL     1     -12.381  13.802  63.263  1.00  0.00    -1.069 OA 
HETATM    9  H   UNL     1     -13.182  13.294  63.210  1.00  0.00     0.000 HD 
BRANCH   7  10
HETATM   10  C   UNL     1     -12.720  13.918  65.664  1.00  0.00    -0.495 C  
BRANCH  10  11
HETATM   11  O   UNL     1     -12.454  12.526  65.428  1.00  0.00    -0.630 OA 
BRANCH  11  12
HETATM   12  C   UNL     1     -11.580  11.950  66.311  1.00  0.00    -0.246 A  
HETATM   13  C   UNL     1     -10.552  11.077  65.957  1.00  0.00    -0.275 A  
HETATM   14  C   UNL     1      -9.719  10.537  66.940  1.00  0.00    -0.218 A  
HETATM   15  C   UNL     1      -9.893  10.869  68.291  1.00  0.00    -0.179 A  
HETATM   16  C   UNL     1     -10.904  11.770  68.637  1.00  0.00    -0.259 A  
HETATM   17  C   UNL     1     -11.737  12.314  67.649  1.00  0.00    -0.403 A  
BRANCH  15  18
HETATM   18  C   UNL     1      -9.010  10.241  69.338  1.00  0.00    -0.176 C  
BRANCH  18  19
HETATM   19  O   UNL     1      -9.715   9.155  69.932  1.00  0.00    -0.173 OA 
BRANCH  19  20
HETATM   20  C   UNL     1      -9.350   8.962  71.297  1.00  0.00    -0.266 C  
BRANCH  20  21
HETATM   21  C   UNL     1     -10.605   8.588  72.078  1.00  0.00    -0.338 C  
BRANCH  21  22
HETATM   22  O   UNL     1     -11.708   9.381  71.643  1.00  0.00    -0.358 OA 
BRANCH  22  23
HETATM   23  C   UNL     1     -12.886   8.614  71.364  1.00  0.00    -0.264 C  
HETATM   24  C   UNL     1     -12.610   7.114  71.409  1.00  0.00    -0.432 C  
HETATM   25  C   UNL     1     -13.923   8.983  72.421  1.00  0.00    -0.517 C  
ENDBRANCH  22  23
ENDBRANCH  21  22
ENDBRANCH  20  21
ENDBRANCH  19  20
ENDBRANCH  18  19
ENDBRANCH  15  18
ENDBRANCH  11  12
ENDBRANCH  10  11
ENDBRANCH   7  10
ENDBRANCH   6   7
ENDBRANCH   4   6
ENDBRANCH   2   4
TORSDOF 12
ENDMDL
MODEL       31
REMARK 921   NORMALIZED FREE ENERGY PREDICTED BY IDOCK:   -5.07 KCAL/MOL
REMARK 922        TOTAL FREE ENERGY PREDICTED BY IDOCK:   -9.65 KCAL/MOL
REMARK 923 INTER-LIGAND FREE ENERGY PREDICTED BY IDOCK:   -8.60 KCAL/MOL
REMARK 924 INTRA-LIGAND FREE ENERGY PREDICTED BY IDOCK:   -1.04 KCAL/MOL
REMARK 927      BINDING AFFINITY PREDICTED BY RF-SCORE:    0.00 PKD
ROOT
HETATM    1  C   UNL     1     -10.968   7.504  71.999  1.00  0.00    -0.282 C  
HETATM    2  C   UNL     1     -12.298   7.080  71.371  1.00  0.00    -0.377 C  
HETATM    3  C   UNL     1     -13.333   8.189  71.572  1.00  0.00    -0.313 C  
ENDROOT
BRANCH   2   4
HETATM    4  N   UNL     1     -12.071   6.800  69.952  1.00  0.00    -0.625 NA 
HETATM    5  H   UNL     1     -12.458   7.544  69.370  1.00  0.00     0.000 HD 
BRANCH   4   6
HETATM    6  C   UNL     1     -10.660   6.561  69.620  1.00  0.00    -0.243 C  
BRANCH   6   7
HETATM    7  C   UNL     1     -10.420   6.813  68.121  1.00  0.00    -0.211 C  
HETATM    8  O   UNL     1     -11.647   6.619  67.399  1.00  0.00    -0.727 OA 
HETATM    9  H   UNL     1     -11.498   6.775  66.474  1.00  0.00     0.000 HD 
BRANCH   7  10
HETATM   10  C   UNL     1      -9.885   8.225  67.859  1.00  0.00    -0.169 C  
BRANCH  10  11
HETATM   11  O   UNL     1     -10.563   9.154  68.721  1.00  0.00    -0.218 OA 
BRANCH  11  12
HETATM   12  C   UNL     1     -10.902  10.342  68.130  1.00  0.00    -0.264 A  
HETATM   13  C   UNL     1     -10.728  10.636  66.778  1.00  0.00    -0.272 A  
HETATM   14  C   UNL     1     -11.100  11.885  66.277  1.00  0.00    -0.364 A  
HETATM   15  C   UNL     1     -11.663  12.858  67.115  1.00  0.00    -0.437 A  
HETATM   16  C   UNL     1     -11.867  12.546  68.463  1.00  0.00    -0.341 A  
HETATM   17  C   UNL     1     -11.496  11.291  68.964  1.00  0.00    -0.369 A  
BRANCH  15  18
HETATM   18  C   UNL     1     -12.018  14.213  66.561  1.00  0.00    -0.442 C  
BRANCH  18  19
HETATM   19  O   UNL     1     -11.903  14.165  65.142  1.00  0.00    -0.341 OA 
BRANCH  19  20
HETATM   20  C   UNL     1     -11.102  15.229  64.633  1.00  0.00    -0.332 C  
BRANCH  20  21
HETATM   21  C   UNL     1     -10.754  16.161  65.788  1.00  0.00    -0.280 C  
BRANCH  21  22
HETATM   22  O   UNL     1     -10.752  17.516  65.342  1.00  0.00    -0.612 OA 
BRANCH  22  23
HETATM   23  C   UNL     1     -10.093  18.412  66.246  1.00  0.00    -0.392 C  
HETATM   24  C   UNL     1     -10.372  19.872  65.899  1.00  0.00    -0.567 C  
HETATM   25  C   UNL     1     -10.614  18.102  67.645  1.00  0.00    -0.424 C  
ENDBRANCH  22  23
ENDBRANCH  21  22
ENDBRANCH  20  21
ENDBRANCH  19  20
ENDBRANCH  18  19
ENDBRANCH  15  18
ENDBRANCH  11  12
ENDBRANCH  10  11
ENDBRANCH   7  10
ENDBRANCH   6   7
ENDBRANCH   4   6
ENDBRANCH   2   4
TORSDOF 12
ENDMDL
MODEL       32
REMARK 921   NORMALIZED FREE ENERGY PREDICTED BY IDOCK:   -5.07 KCAL/MOL
REMARK 922        TOTAL FREE ENERGY PREDICTED BY IDOCK:   -9.65 KCAL/MOL
REMARK 923 INTER-LIGAND FREE ENERGY PREDICTED BY IDOCK:   -8.08 KCAL/MOL
REMARK 924 INTRA-LIGAND FREE ENERGY PREDICTED BY IDOCK:   -1.56 KCAL/MOL
REMARK 927      BINDING AFFINITY PREDICTED BY RF-SCORE:    0.00 PKD
ROOT
HETATM    1  C   UNL     1     -12.471  12.018  63.424  1.00  0.00    -0.625 C  
HETATM    2  C   UNL     1     -11.601  13.129  64.015  1.00  0.00    -0.428 C  
HETATM    3  C   UNL     1     -12.261  13.674  65.284  1.00  0.00    -0.466 C  
ENDROOT
BRANCH   2   4
HETATM    4  N   UNL     1     -10.271  12.581  64.288  1.00  0.00    -0.471 NA 
HETATM    5  H   UNL     1     -10.193  12.290  65.263  1.00  0.00     0.000 HD 
BRANCH   4   6
HETATM    6  C   UNL     1      -9.894  11.484  63.386  1.00  0.00    -0.401 C  
BRANCH   6   7
HETATM    7  C   UNL     1      -9.179  10.372  64.175  1.00  0.00    -0.259 C  
HETATM    8  O   UNL     1      -7.863  10.815  64.542  1.00  0.00    -0.358 OA 
HETATM    9  H   UNL     1      -7.422  10.129  65.030  1.00  0.00     0.000 HD 
BRANCH   7  10
HETATM   10  C   UNL     1      -9.960   9.977  65.433  1.00  0.00    -0.294 C  
BRANCH  10  11
HETATM   11  O   UNL     1      -9.242  10.423  66.595  1.00  0.00    -0.153 OA 
BRANCH  11  12
HETATM   12  C   UNL     1      -9.985  10.477  67.744  1.00  0.00    -0.171 A  
HETATM   13  C   UNL     1      -9.607   9.912  68.962  1.00  0.00    -0.188 A  
HETATM   14  C   UNL     1     -10.445  10.017  70.075  1.00  0.00    -0.337 A  
HETATM   15  C   UNL     1     -11.669  10.696  69.992  1.00  0.00    -0.405 A  
HETATM   16  C   UNL     1     -12.027  11.289  68.778  1.00  0.00    -0.350 A  
HETATM   17  C   UNL     1     -11.184  11.187  67.663  1.00  0.00    -0.364 A  
BRANCH  15  18
HETATM   18  C   UNL     1     -12.575  10.759  71.194  1.00  0.00    -0.428 C  
BRANCH  18  19
HETATM   19  O   UNL     1     -12.334   9.612  72.003  1.00  0.00    -0.361 OA 
BRANCH  19  20
HETATM   20  C   UNL     1     -13.492   8.789  72.126  1.00  0.00    -0.427 C  
BRANCH  20  21
HETATM   21  C   UNL     1     -13.209   7.460  71.434  1.00  0.00    -0.339 C  
BRANCH  21  22
HETATM   22  O   UNL     1     -12.262   6.707  72.189  1.00  0.00    -0.299 OA 
BRANCH  22  23
HETATM   23  C   UNL     1     -11.213   6.144  71.390  1.00  0.00    -0.287 C  
HETATM   24  C   UNL     1     -11.403   6.453  69.908  1.00  0.00    -0.500 C  
HETATM   25  C   UNL     1      -9.901   6.746  71.883  1.00  0.00    -0.173 C  
ENDBRANCH  22  23
ENDBRANCH  21  22
ENDBRANCH  20  21
ENDBRANCH  19  20
ENDBRANCH  18  19
ENDBRANCH  15  18
ENDBRANCH  11  12
ENDBRANCH  10  11
ENDBRANCH   7  10
ENDBRANCH   6   7
ENDBRANCH   4   6
ENDBRANCH   2   4
TORSDOF 12
ENDMDL
MODEL       33
REMARK 921   NORMALIZED FREE ENERGY PREDICTED BY IDOCK:   -5.04 KCAL/MOL
REMARK 922        TOTAL FREE ENERGY PREDICTED BY IDOCK:   -9.60 KCAL/MOL
REMARK 923 INTER-LIGAND FREE ENERGY PREDICTED BY IDOCK:   -8.10 KCAL/MOL
REMARK 924 INTRA-LIGAND FREE ENERGY PREDICTED BY IDOCK:   -1.49 KCAL/MOL
REMARK 927      BINDING AFFINITY PREDICTED BY RF-SCORE:    0.00 PKD
ROOT
HETATM    1  C   UNL     1      -9.379  16.004  66.288  1.00  0.00    -0.356 C  
HETATM    2  C   UNL     1     -10.479  15.538  67.245  1.00  0.00    -0.279 C  
HETATM    3  C   UNL     1     -10.884  16.697  68.159  1.00  0.00    -0.348 C  
ENDROOT
BRANCH   2   4
HETATM    4  N   UNL     1     -11.609  15.052  66.451  1.00  0.00    -0.241 NA 
HETATM    5  H   UNL     1     -12.424  15.653  66.576  1.00  0.00     0.000 HD 
BRANCH   4   6
HETATM    6  C   UNL     1     -11.296  14.892  65.024  1.00  0.00    -0.398 C  
BRANCH   6   7
HETATM    7  C   UNL     1     -12.041  13.672  64.453  1.00  0.00    -0.427 C  
HETATM    8  O   UNL     1     -12.481  13.961  63.117  1.00  0.00    -1.121 OA 
HETATM    9  H   UNL     1     -12.941  13.208  62.765  1.00  0.00     0.000 HD 
BRANCH   7  10
HETATM   10  C   UNL     1     -11.159  12.419  64.446  1.00  0.00    -0.333 C  
BRANCH  10  11
HETATM   11  O   UNL     1      -9.970  12.673  65.212  1.00  0.00    -0.266 OA 
BRANCH  11  12
HETATM   12  C   UNL     1      -9.895  11.991  66.398  1.00  0.00    -0.220 A  
HETATM   13  C   UNL     1      -8.971  12.256  67.409  1.00  0.00    -0.183 A  
HETATM   14  C   UNL     1      -8.974  11.494  68.580  1.00  0.00    -0.146 A  
HETATM   15  C   UNL     1      -9.905  10.463  68.764  1.00  0.00    -0.190 A  
HETATM   16  C   UNL     1     -10.849  10.223  67.762  1.00  0.00    -0.346 A  
HETATM   17  C   UNL     1     -10.849  10.991  66.589  1.00  0.00    -0.284 A  
BRANCH  15  18
HETATM   18  C   UNL     1      -9.860   9.627  70.016  1.00  0.00    -0.246 C  
BRANCH  18  19
HETATM   19  O   UNL     1     -11.166   9.115  70.265  1.00  0.00    -0.245 OA 
BRANCH  19  20
HETATM   20  C   UNL     1     -11.769   9.715  71.410  1.00  0.00    -0.404 C  
BRANCH  20  21
HETATM   21  C   UNL     1     -12.933  10.579  70.939  1.00  0.00    -0.367 C  
BRANCH  21  22
HETATM   22  O   UNL     1     -13.330  11.474  71.976  1.00  0.00    -0.476 OA 
BRANCH  22  23
HETATM   23  C   UNL     1     -12.814  12.802  71.811  1.00  0.00    -0.237 C  
HETATM   24  C   UNL     1     -12.361  13.059  70.376  1.00  0.00    -0.351 C  
HETATM   25  C   UNL     1     -13.935  13.768  72.183  1.00  0.00    -0.638 C  
ENDBRANCH  22  23
ENDBRANCH  21  22
ENDBRANCH  20  21
ENDBRANCH  19  20
ENDBRANCH  18  19
ENDBRANCH  15  18
ENDBRANCH  11  12
ENDBRANCH  10  11
ENDBRANCH   7  10
ENDBRANCH   6   7
ENDBRANCH   4   6
ENDBRANCH   2   4
TORSDOF 12
ENDMDL
MODEL       34
REMARK 921   NORMALIZED FREE ENERGY PREDICTED BY IDOCK:   -5.03 KCAL/MOL
REMARK 922        TOTAL FREE ENERGY PREDICTED BY IDOCK:   -9.59 KCAL/MOL
REMARK 923 INTER-LIGAND FREE ENERGY PREDICTED BY IDOCK:   -8.34 KCAL/MOL
REMARK 924 INTRA-LIGAND FREE ENERGY PREDICTED BY IDOCK:   -1.25 KCAL/MOL
REMARK 927      BINDING AFFINITY PREDICTED BY RF-SCORE:    0.00 PKD
ROOT
HETATM    1  C   UNL     1     -12.212  12.754  63.925  1.00  0.00    -0.543 C  
HETATM    2  C   UNL     1     -10.837  12.239  64.356  1.00  0.00    -0.329 C  
HETATM    3  C   UNL     1     -10.239  11.385  63.235  1.00  0.00    -0.430 C  
ENDROOT
BRANCH   2   4
HETATM    4  N   UNL     1      -9.990  13.390  64.673  1.00  0.00    -0.629 NA 
HETATM    5  H   UNL     1      -9.223  13.469  64.005  1.00  0.00     0.000 HD 
BRANCH   4   6
HETATM    6  C   UNL     1     -10.731  14.655  64.767  1.00  0.00    -0.377 C  
BRANCH   6   7
HETATM    7  C   UNL     1     -10.121  15.544  65.866  1.00  0.00    -0.349 C  
HETATM    8  O   UNL     1     -10.177  16.919  65.454  1.00  0.00    -0.605 OA 
HETATM    9  H   UNL     1      -9.800  17.468  66.132  1.00  0.00     0.000 HD 
BRANCH   7  10
HETATM   10  C   UNL     1     -10.850  15.376  67.203  1.00  0.00    -0.321 C  
BRANCH  10  11
HETATM   11  O   UNL     1     -11.889  14.395  67.056  1.00  0.00    -0.391 OA 
BRANCH  11  12
HETATM   12  C   UNL     1     -11.895  13.417  68.014  1.00  0.00    -0.357 A  
HETATM   13  C   UNL     1     -11.694  12.059  67.765  1.00  0.00    -0.379 A  
HETATM   14  C   UNL     1     -11.728  11.140  68.816  1.00  0.00    -0.394 A  
HETATM   15  C   UNL     1     -11.953  11.562  70.133  1.00  0.00    -0.452 A  
HETATM   16  C   UNL     1     -12.121  12.927  70.382  1.00  0.00    -0.385 A  
HETATM   17  C   UNL     1     -12.083  13.850  69.327  1.00  0.00    -0.383 A  
BRANCH  15  18
HETATM   18  C   UNL     1     -12.028  10.547  71.244  1.00  0.00    -0.289 C  
BRANCH  18  19
HETATM   19  O   UNL     1     -12.028   9.244  70.668  1.00  0.00    -0.253 OA 
BRANCH  19  20
HETATM   20  C   UNL     1     -10.850   8.512  70.999  1.00  0.00    -0.241 C  
BRANCH  20  21
HETATM   21  C   UNL     1     -10.148   8.125  69.703  1.00  0.00    -0.199 C  
BRANCH  21  22
HETATM   22  O   UNL     1     -10.838   7.046  69.074  1.00  0.00    -0.222 OA 
BRANCH  22  23
HETATM   23  C   UNL     1     -10.996   7.218  67.660  1.00  0.00    -0.110 C  
HETATM   24  C   UNL     1     -10.253   8.450  67.152  1.00  0.00    -0.362 C  
HETATM   25  C   UNL     1     -10.442   5.964  66.991  1.00  0.00    -0.341 C  
ENDBRANCH  22  23
ENDBRANCH  21  22
ENDBRANCH  20  21
ENDBRANCH  19  20
ENDBRANCH  18  19
ENDBRANCH  15  18
ENDBRANCH  11  12
ENDBRANCH  10  11
ENDBRANCH   7  10
ENDBRANCH   6   7
ENDBRANCH   4   6
ENDBRANCH   2   4
TORSDOF 12
ENDMDL
MODEL       35
REMARK 921   NORMALIZED FREE ENERGY PREDICTED BY IDOCK:   -5.03 KCAL/MOL
REMARK 922        TOTAL FREE ENERGY PREDICTED BY IDOCK:   -9.57 KCAL/MOL
REMARK 923 INTER-LIGAND FREE ENERGY PREDICTED BY IDOCK:   -8.29 KCAL/MOL
REMARK 924 INTRA-LIGAND FREE ENERGY PREDICTED BY IDOCK:   -1.28 KCAL/MOL
REMARK 927      BINDING AFFINITY PREDICTED BY RF-SCORE:    0.00 PKD
ROOT
HETATM    1  C   UNL     1     -10.035   9.745  67.476  1.00  0.00    -0.230 C  
HETATM    2  C   UNL     1     -10.254  11.232  67.188  1.00  0.00    -0.201 C  
HETATM    3  C   UNL     1      -9.573  12.068  68.273  1.00  0.00    -0.204 C  
ENDROOT
BRANCH   2   4
HETATM    4  N   UNL     1      -9.720  11.530  65.858  1.00  0.00    -0.225 NA 
HETATM    5  H   UNL     1      -8.700  11.497  65.862  1.00  0.00     0.000 HD 
BRANCH   4   6
HETATM    6  C   UNL     1     -10.263  10.665  64.801  1.00  0.00    -0.331 C  
BRANCH   6   7
HETATM    7  C   UNL     1     -10.598  11.502  63.553  1.00  0.00    -0.423 C  
HETATM    8  O   UNL     1     -10.247  10.763  62.372  1.00  0.00    -0.717 OA 
HETATM    9  H   UNL     1     -10.454  11.279  61.602  1.00  0.00     0.000 HD 
BRANCH   7  10
HETATM   10  C   UNL     1     -12.082  11.879  63.503  1.00  0.00    -0.470 C  
BRANCH  10  11
HETATM   11  O   UNL     1     -12.205  13.310  63.451  1.00  0.00    -0.664 OA 
BRANCH  11  12
HETATM   12  C   UNL     1     -11.763  13.965  64.569  1.00  0.00    -0.410 A  
HETATM   13  C   UNL     1     -10.701  14.870  64.592  1.00  0.00    -0.259 A  
HETATM   14  C   UNL     1     -10.323  15.479  65.791  1.00  0.00    -0.384 A  
HETATM   15  C   UNL     1     -11.007  15.204  66.983  1.00  0.00    -0.322 A  
HETATM   16  C   UNL     1     -12.091  14.323  66.949  1.00  0.00    -0.440 A  
HETATM   17  C   UNL     1     -12.472  13.714  65.744  1.00  0.00    -0.524 A  
BRANCH  15  18
HETATM   18  C   UNL     1     -10.554  15.840  68.272  1.00  0.00    -0.271 C  
BRANCH  18  19
HETATM   19  O   UNL     1      -9.159  15.603  68.428  1.00  0.00    -0.183 OA 
BRANCH  19  20
HETATM   20  C   UNL     1      -8.491  16.709  69.032  1.00  0.00    -0.176 C  
BRANCH  20  21
HETATM   21  C   UNL     1      -8.442  17.849  68.021  1.00  0.00    -0.256 C  
BRANCH  21  22
HETATM   22  O   UNL     1      -9.053  19.016  68.568  1.00  0.00    -0.333 OA 
BRANCH  22  23
HETATM   23  C   UNL     1      -9.302  20.039  67.595  1.00  0.00    -0.360 C  
HETATM   24  C   UNL     1      -8.082  20.293  66.715  1.00  0.00    -0.321 C  
HETATM   25  C   UNL     1     -10.472  19.566  66.737  1.00  0.00    -0.590 C  
ENDBRANCH  22  23
ENDBRANCH  21  22
ENDBRANCH  20  21
ENDBRANCH  19  20
ENDBRANCH  18  19
ENDBRANCH  15  18
ENDBRANCH  11  12
ENDBRANCH  10  11
ENDBRANCH   7  10
ENDBRANCH   6   7
ENDBRANCH   4   6
ENDBRANCH   2   4
TORSDOF 12
ENDMDL
MODEL       36
REMARK 921   NORMALIZED FREE ENERGY PREDICTED BY IDOCK:   -5.02 KCAL/MOL
REMARK 922        TOTAL FREE ENERGY PREDICTED BY IDOCK:   -9.56 KCAL/MOL
REMARK 923 INTER-LIGAND FREE ENERGY PREDICTED BY IDOCK:   -7.75 KCAL/MOL
REMARK 924 INTRA-LIGAND FREE ENERGY PREDICTED BY IDOCK:   -1.81 KCAL/MOL
REMARK 927      BINDING AFFINITY PREDICTED BY RF-SCORE:    0.00 PKD
ROOT
HETATM    1  C   UNL     1     -12.300  14.276  64.444  1.00  0.00    -0.417 C  
HETATM    2  C   UNL     1     -12.181  12.776  64.724  1.00  0.00    -0.459 C  
HETATM    3  C   UNL     1     -12.442  11.994  63.435  1.00  0.00    -0.625 C  
ENDROOT
BRANCH   2   4
HETATM    4  N   UNL     1     -10.845  12.509  65.260  1.00  0.00    -0.279 NA 
HETATM    5  H   UNL     1     -10.367  13.380  65.490  1.00  0.00     0.000 HD 
BRANCH   4   6
HETATM    6  C   UNL     1     -10.848  11.598  66.413  1.00  0.00    -0.287 C  
BRANCH   6   7
HETATM    7  C   UNL     1     -11.821  12.111  67.490  1.00  0.00    -0.237 C  
HETATM    8  O   UNL     1     -12.272  11.009  68.292  1.00  0.00    -0.769 OA 
HETATM    9  H   UNL     1     -12.873  11.325  68.957  1.00  0.00     0.000 HD 
BRANCH   7  10
HETATM   10  C   UNL     1     -11.170  13.169  68.387  1.00  0.00    -0.271 C  
BRANCH  10  11
HETATM   11  O   UNL     1     -11.304  14.460  67.771  1.00  0.00    -0.283 OA 
BRANCH  11  12
HETATM   12  C   UNL     1     -10.132  15.154  67.630  1.00  0.00    -0.231 A  
HETATM   13  C   UNL     1      -9.643  15.651  66.422  1.00  0.00    -0.316 A  
HETATM   14  C   UNL     1      -8.429  16.340  66.386  1.00  0.00    -0.365 A  
HETATM   15  C   UNL     1      -7.689  16.554  67.557  1.00  0.00    -0.171 A  
HETATM   16  C   UNL     1      -8.199  16.084  68.770  1.00  0.00    -0.211 A  
HETATM   17  C   UNL     1      -9.420  15.395  68.806  1.00  0.00    -0.211 A  
BRANCH  15  18
HETATM   18  C   UNL     1      -6.361  17.263  67.487  1.00  0.00    -0.149 C  
BRANCH  18  19
HETATM   19  O   UNL     1      -6.564  18.547  66.906  1.00  0.00    -0.181 OA 
BRANCH  19  20
HETATM   20  C   UNL     1      -6.264  19.602  67.818  1.00  0.00    -0.201 C  
BRANCH  20  21
HETATM   21  C   UNL     1      -7.568  20.075  68.449  1.00  0.00    -0.204 C  
BRANCH  21  22
HETATM   22  O   UNL     1      -8.435  20.602  67.445  1.00  0.00    -0.334 OA 
BRANCH  22  23
HETATM   23  C   UNL     1      -9.815  20.275  67.655  1.00  0.00    -0.423 C  
HETATM   24  C   UNL     1     -10.434  19.616  66.426  1.00  0.00    -0.618 C  
HETATM   25  C   UNL     1      -9.874  19.320  68.843  1.00  0.00    -0.512 C  
ENDBRANCH  22  23
ENDBRANCH  21  22
ENDBRANCH  20  21
ENDBRANCH  19  20
ENDBRANCH  18  19
ENDBRANCH  15  18
ENDBRANCH  11  12
ENDBRANCH  10  11
ENDBRANCH   7  10
ENDBRANCH   6   7
ENDBRANCH   4   6
ENDBRANCH   2   4
TORSDOF 12
ENDMDL
MODEL       37
REMARK 921   NORMALIZED FREE ENERGY PREDICTED BY IDOCK:   -5.02 KCAL/MOL
REMARK 922        TOTAL FREE ENERGY PREDICTED BY IDOCK:   -9.56 KCAL/MOL
REMARK 923 INTER-LIGAND FREE ENERGY PREDICTED BY IDOCK:   -8.61 KCAL/MOL
REMARK 924 INTRA-LIGAND FREE ENERGY PREDICTED BY IDOCK:   -0.95 KCAL/MOL
REMARK 927      BINDING AFFINITY PREDICTED BY RF-SCORE:    0.00 PKD
ROOT
HETATM    1  C   UNL     1     -10.407  18.967  66.495  1.00  0.00    -0.512 C  
HETATM    2  C   UNL     1      -9.692  17.637  66.743  1.00  0.00    -0.300 C  
HETATM    3  C   UNL     1     -10.196  17.023  68.051  1.00  0.00    -0.319 C  
ENDROOT
BRANCH   2   4
HETATM    4  N   UNL     1      -9.940  16.758  65.599  1.00  0.00    -0.575 NA 
HETATM    5  H   UNL     1      -9.063  16.496  65.148  1.00  0.00     0.000 HD 
BRANCH   4   6
HETATM    6  C   UNL     1     -10.728  15.565  65.938  1.00  0.00    -0.339 C  
BRANCH   6   7
HETATM    7  C   UNL     1     -11.816  15.331  64.875  1.00  0.00    -0.170 C  
HETATM    8  O   UNL     1     -11.602  16.218  63.766  1.00  0.00    -1.539 OA 
HETATM    9  H   UNL     1     -12.273  16.074  63.110  1.00  0.00     0.000 HD 
BRANCH   7  10
HETATM   10  C   UNL     1     -11.827  13.881  64.380  1.00  0.00    -0.429 C  
BRANCH  10  11
HETATM   11  O   UNL     1     -10.474  13.433  64.199  1.00  0.00    -0.393 OA 
BRANCH  11  12
HETATM   12  C   UNL     1     -10.219  12.170  64.664  1.00  0.00    -0.284 A  
HETATM   13  C   UNL     1      -9.611  11.158  63.923  1.00  0.00    -0.286 A  
HETATM   14  C   UNL     1      -9.404   9.898  64.491  1.00  0.00    -0.336 A  
HETATM   15  C   UNL     1      -9.793   9.633  65.811  1.00  0.00    -0.373 A  
HETATM   16  C   UNL     1     -10.372  10.661  66.561  1.00  0.00    -0.299 A  
HETATM   17  C   UNL     1     -10.575  11.926  65.991  1.00  0.00    -0.304 A  
BRANCH  15  18
HETATM   18  C   UNL     1      -9.599   8.255  66.388  1.00  0.00    -0.230 C  
BRANCH  18  19
HETATM   19  O   UNL     1     -10.750   7.920  67.158  1.00  0.00    -0.326 OA 
BRANCH  19  20
HETATM   20  C   UNL     1     -10.501   6.839  68.053  1.00  0.00    -0.211 C  
BRANCH  20  21
HETATM   21  C   UNL     1      -9.939   7.411  69.349  1.00  0.00    -0.176 C  
BRANCH  21  22
HETATM   22  O   UNL     1     -10.994   7.945  70.147  1.00  0.00    -0.253 OA 
BRANCH  22  23
HETATM   23  C   UNL     1     -11.042   9.378  70.145  1.00  0.00    -0.242 C  
HETATM   24  C   UNL     1     -11.795   9.922  71.355  1.00  0.00    -0.476 C  
HETATM   25  C   UNL     1      -9.600   9.875  70.163  1.00  0.00    -0.237 C  
ENDBRANCH  22  23
ENDBRANCH  21  22
ENDBRANCH  20  21
ENDBRANCH  19  20
ENDBRANCH  18  19
ENDBRANCH  15  18
ENDBRANCH  11  12
ENDBRANCH  10  11
ENDBRANCH   7  10
ENDBRANCH   6   7
ENDBRANCH   4   6
ENDBRANCH   2   4
TORSDOF 12
ENDMDL
MODEL       38
REMARK 921   NORMALIZED FREE ENERGY PREDICTED BY IDOCK:   -5.02 KCAL/MOL
REMARK 922        TOTAL FREE ENERGY PREDICTED BY IDOCK:   -9.55 KCAL/MOL
REMARK 923 INTER-LIGAND FREE ENERGY PREDICTED BY IDOCK:   -7.97 KCAL/MOL
REMARK 924 INTRA-LIGAND FREE ENERGY PREDICTED BY IDOCK:   -1.58 KCAL/MOL
REMARK 927      BINDING AFFINITY PREDICTED BY RF-SCORE:    0.00 PKD
ROOT
HETATM    1  C   UNL     1     -12.818  13.688  65.206  1.00  0.00    -0.421 C  
HETATM    2  C   UNL     1     -11.533  14.436  64.844  1.00  0.00    -0.386 C  
HETATM    3  C   UNL     1     -10.834  14.898  66.125  1.00  0.00    -0.327 C  
ENDROOT
BRANCH   2   4
HETATM    4  N   UNL     1     -10.684  13.543  64.054  1.00  0.00    -0.536 NA 
HETATM    5  H   UNL     1      -9.782  13.404  64.511  1.00  0.00     0.000 HD 
BRANCH   4   6
HETATM    6  C   UNL     1     -11.317  12.253  63.748  1.00  0.00    -0.459 C  
BRANCH   6   7
HETATM    7  C   UNL     1     -10.244  11.157  63.611  1.00  0.00    -0.387 C  
HETATM    8  O   UNL     1      -9.008  11.748  63.180  1.00  0.00    -0.591 OA 
HETATM    9  H   UNL     1      -8.345  11.072  63.095  1.00  0.00     0.000 HD 
BRANCH   7  10
HETATM   10  C   UNL     1     -10.024  10.409  64.930  1.00  0.00    -0.339 C  
BRANCH  10  11
HETATM   11  O   UNL     1      -9.684  11.352  65.959  1.00  0.00    -0.208 OA 
BRANCH  11  12
HETATM   12  C   UNL     1     -10.237  11.089  67.184  1.00  0.00    -0.206 A  
HETATM   13  C   UNL     1     -11.492  11.532  67.601  1.00  0.00    -0.357 A  
HETATM   14  C   UNL     1     -11.960  11.214  68.878  1.00  0.00    -0.367 A  
HETATM   15  C   UNL     1     -11.187  10.441  69.756  1.00  0.00    -0.353 A  
HETATM   16  C   UNL     1      -9.944   9.971  69.321  1.00  0.00    -0.226 A  
HETATM   17  C   UNL     1      -9.477  10.287  68.037  1.00  0.00    -0.156 A  
BRANCH  15  18
HETATM   18  C   UNL     1     -11.694  10.147  71.143  1.00  0.00    -0.366 C  
BRANCH  18  19
HETATM   19  O   UNL     1     -10.852   9.163  71.734  1.00  0.00    -0.351 OA 
BRANCH  19  20
HETATM   20  C   UNL     1     -11.598   8.163  72.425  1.00  0.00    -0.399 C  
BRANCH  20  21
HETATM   21  C   UNL     1     -11.231   6.804  71.840  1.00  0.00    -0.260 C  
BRANCH  21  22
HETATM   22  O   UNL     1     -11.558   6.764  70.452  1.00  0.00    -0.339 OA 
BRANCH  22  23
HETATM   23  C   UNL     1     -10.472   6.330  69.623  1.00  0.00    -0.238 C  
HETATM   24  C   UNL     1     -10.110   4.870  69.881  1.00  0.00    -0.332 C  
HETATM   25  C   UNL     1     -10.915   6.507  68.174  1.00  0.00    -0.365 C  
ENDBRANCH  22  23
ENDBRANCH  21  22
ENDBRANCH  20  21
ENDBRANCH  19  20
ENDBRANCH  18  19
ENDBRANCH  15  18
ENDBRANCH  11  12
ENDBRANCH  10  11
ENDBRANCH   7  10
ENDBRANCH   6   7
ENDBRANCH   4   6
ENDBRANCH   2   4
TORSDOF 12
ENDMDL
MODEL       39
REMARK 921   NORMALIZED FREE ENERGY PREDICTED BY IDOCK:   -4.99 KCAL/MOL
REMARK 922        TOTAL FREE ENERGY PREDICTED BY IDOCK:   -9.52 KCAL/MOL
REMARK 923 INTER-LIGAND FREE ENERGY PREDICTED BY IDOCK:   -7.97 KCAL/MOL
REMARK 924 INTRA-LIGAND FREE ENERGY PREDICTED BY IDOCK:   -1.54 KCAL/MOL
REMARK 927      BINDING AFFINITY PREDICTED BY RF-SCORE:    0.00 PKD
ROOT
HETATM    1  C   UNL     1     -11.990  13.291  65.546  1.00  0.00    -0.445 C  
HETATM    2  C   UNL     1     -10.856  14.126  64.946  1.00  0.00    -0.411 C  
HETATM    3  C   UNL     1      -9.956  14.646  66.069  1.00  0.00    -0.337 C  
ENDROOT
BRANCH   2   4
HETATM    4  N   UNL     1     -10.116  13.289  64.000  1.00  0.00    -0.776 NA 
HETATM    5  H   UNL     1      -9.180  13.087  64.352  1.00  0.00     0.000 HD 
BRANCH   4   6
HETATM    6  C   UNL     1     -10.817  12.048  63.643  1.00  0.00    -0.446 C  
BRANCH   6   7
HETATM    7  C   UNL     1      -9.804  10.981  63.190  1.00  0.00    -0.363 C  
HETATM    8  O   UNL     1      -8.733  11.611  62.471  1.00  0.00    -0.603 OA 
HETATM    9  H   UNL     1      -8.108  10.952  62.191  1.00  0.00     0.000 HD 
BRANCH   7  10
HETATM   10  C   UNL     1      -9.236  10.196  64.378  1.00  0.00    -0.258 C  
BRANCH  10  11
HETATM   11  O   UNL     1      -8.906  11.111  65.435  1.00  0.00    -0.180 OA 
BRANCH  11  12
HETATM   12  C   UNL     1      -9.200  10.663  66.695  1.00  0.00    -0.164 A  
HETATM   13  C   UNL     1     -10.372   9.993  67.047  1.00  0.00    -0.305 A  
HETATM   14  C   UNL     1     -10.578   9.584  68.366  1.00  0.00    -0.261 A  
HETATM   15  C   UNL     1      -9.613   9.828  69.354  1.00  0.00    -0.218 A  
HETATM   16  C   UNL     1      -8.426  10.469  68.989  1.00  0.00    -0.159 A  
HETATM   17  C   UNL     1      -8.218  10.876  67.664  1.00  0.00    -0.116 A  
BRANCH  15  18
HETATM   18  C   UNL     1      -9.877   9.416  70.779  1.00  0.00    -0.279 C  
BRANCH  18  19
HETATM   19  O   UNL     1     -11.105   8.696  70.822  1.00  0.00    -0.244 OA 
BRANCH  19  20
HETATM   20  C   UNL     1     -12.006   9.230  71.790  1.00  0.00    -0.385 C  
BRANCH  20  21
HETATM   21  C   UNL     1     -12.846  10.310  71.116  1.00  0.00    -0.408 C  
BRANCH  21  22
HETATM   22  O   UNL     1     -13.194  11.320  72.061  1.00  0.00    -0.506 OA 
BRANCH  22  23
HETATM   23  C   UNL     1     -13.321  12.624  71.479  1.00  0.00    -0.119 C  
HETATM   24  C   UNL     1     -13.255  13.724  72.535  1.00  0.00    -0.599 C  
HETATM   25  C   UNL     1     -12.175  12.787  70.487  1.00  0.00    -0.389 C  
ENDBRANCH  22  23
ENDBRANCH  21  22
ENDBRANCH  20  21
ENDBRANCH  19  20
ENDBRANCH  18  19
ENDBRANCH  15  18
ENDBRANCH  11  12
ENDBRANCH  10  11
ENDBRANCH   7  10
ENDBRANCH   6   7
ENDBRANCH   4   6
ENDBRANCH   2   4
TORSDOF 12
ENDMDL
MODEL       40
REMARK 921   NORMALIZED FREE ENERGY PREDICTED BY IDOCK:   -4.98 KCAL/MOL
REMARK 922        TOTAL FREE ENERGY PREDICTED BY IDOCK:   -9.50 KCAL/MOL
REMARK 923 INTER-LIGAND FREE ENERGY PREDICTED BY IDOCK:   -8.08 KCAL/MOL
REMARK 924 INTRA-LIGAND FREE ENERGY PREDICTED BY IDOCK:   -1.42 KCAL/MOL
REMARK 927      BINDING AFFINITY PREDICTED BY RF-SCORE:    0.00 PKD
ROOT
HETATM    1  C   UNL     1     -12.248  14.040  64.403  1.00  0.00    -0.457 C  
HETATM    2  C   UNL     1     -12.508  13.480  65.804  1.00  0.00    -0.462 C  
HETATM    3  C   UNL     1     -11.677  12.210  66.008  1.00  0.00    -0.388 C  
ENDROOT
BRANCH   2   4
HETATM    4  N   UNL     1     -12.170  14.512  66.786  1.00  0.00    -0.474 NA 
HETATM    5  H   UNL     1     -12.434  14.217  67.726  1.00  0.00     0.000 HD 
BRANCH   4   6
HETATM    6  C   UNL     1     -10.759  14.920  66.745  1.00  0.00    -0.312 C  
BRANCH   6   7
HETATM    7  C   UNL     1     -10.381  15.646  68.048  1.00  0.00    -0.246 C  
HETATM    8  O   UNL     1     -11.291  16.735  68.272  1.00  0.00    -0.274 OA 
HETATM    9  H   UNL     1     -11.058  17.183  69.077  1.00  0.00     0.000 HD 
BRANCH   7  10
HETATM   10  C   UNL     1     -10.404  14.700  69.254  1.00  0.00    -0.173 C  
BRANCH  10  11
HETATM   11  O   UNL     1     -11.732  14.661  69.800  1.00  0.00    -0.278 OA 
BRANCH  11  12
HETATM   12  C   UNL     1     -12.111  13.445  70.303  1.00  0.00    -0.349 A  
HETATM   13  C   UNL     1     -11.753  12.213  69.756  1.00  0.00    -0.381 A  
HETATM   14  C   UNL     1     -12.201  11.027  70.343  1.00  0.00    -0.461 A  
HETATM   15  C   UNL     1     -13.003  11.052  71.492  1.00  0.00    -0.553 A  
HETATM   16  C   UNL     1     -13.331  12.289  72.056  1.00  0.00    -0.491 A  
HETATM   17  C   UNL     1     -12.878  13.478  71.468  1.00  0.00    -0.440 A  
BRANCH  15  18
HETATM   18  C   UNL     1     -13.509   9.762  72.083  1.00  0.00    -0.399 C  
BRANCH  18  19
HETATM   19  O   UNL     1     -13.353   8.729  71.115  1.00  0.00    -0.199 OA 
BRANCH  19  20
HETATM   20  C   UNL     1     -13.394   7.431  71.704  1.00  0.00    -0.364 C  
BRANCH  20  21
HETATM   21  C   UNL     1     -12.230   6.618  71.149  1.00  0.00    -0.301 C  
BRANCH  21  22
HETATM   22  O   UNL     1     -11.074   7.444  71.019  1.00  0.00    -0.248 OA 
BRANCH  22  23
HETATM   23  C   UNL     1     -10.268   7.119  69.879  1.00  0.00    -0.207 C  
HETATM   24  C   UNL     1     -11.048   6.316  68.843  1.00  0.00    -0.434 C  
HETATM   25  C   UNL     1      -9.801   8.438  69.270  1.00  0.00    -0.186 C  
ENDBRANCH  22  23
ENDBRANCH  21  22
ENDBRANCH  20  21
ENDBRANCH  19  20
ENDBRANCH  18  19
ENDBRANCH  15  18
ENDBRANCH  11  12
ENDBRANCH  10  11
ENDBRANCH   7  10
ENDBRANCH   6   7
ENDBRANCH   4   6
ENDBRANCH   2   4
TORSDOF 12
ENDMDL
MODEL       41
REMARK 921   NORMALIZED FREE ENERGY PREDICTED BY IDOCK:   -4.98 KCAL/MOL
REMARK 922        TOTAL FREE ENERGY PREDICTED BY IDOCK:   -9.50 KCAL/MOL
REMARK 923 INTER-LIGAND FREE ENERGY PREDICTED BY IDOCK:   -8.23 KCAL/MOL
REMARK 924 INTRA-LIGAND FREE ENERGY PREDICTED BY IDOCK:   -1.27 KCAL/MOL
REMARK 927      BINDING AFFINITY PREDICTED BY RF-SCORE:    0.00 PKD
ROOT
HETATM    1  C   UNL     1     -12.146  13.681  66.442  1.00  0.00    -0.478 C  
HETATM    2  C   UNL     1     -11.801  12.390  65.696  1.00  0.00    -0.409 C  
HETATM    3  C   UNL     1     -12.070  12.577  64.201  1.00  0.00    -0.530 C  
ENDROOT
BRANCH   2   4
HETATM    4  N   UNL     1     -10.398  12.064  65.958  1.00  0.00    -0.231 NA 
HETATM    5  H   UNL     1     -10.151  12.281  66.924  1.00  0.00     0.000 HD 
BRANCH   4   6
HETATM    6  C   UNL     1     -10.049  10.674  65.632  1.00  0.00    -0.272 C  
BRANCH   6   7
HETATM    7  C   UNL     1     -10.610   9.723  66.705  1.00  0.00    -0.108 C  
HETATM    8  O   UNL     1     -10.248   8.371  66.383  1.00  0.00    -0.406 OA 
HETATM    9  H   UNL     1     -10.594   7.783  67.045  1.00  0.00     0.000 HD 
BRANCH   7  10
HETATM   10  C   UNL     1     -10.094  10.075  68.104  1.00  0.00    -0.159 C  
BRANCH  10  11
HETATM   11  O   UNL     1     -10.922   9.437  69.089  1.00  0.00    -0.192 OA 
BRANCH  11  12
HETATM   12  C   UNL     1     -11.594  10.295  69.918  1.00  0.00    -0.256 A  
HETATM   13  C   UNL     1     -12.337   9.905  71.032  1.00  0.00    -0.451 A  
HETATM   14  C   UNL     1     -12.993  10.862  71.810  1.00  0.00    -0.557 A  
HETATM   15  C   UNL     1     -12.908  12.225  71.494  1.00  0.00    -0.384 A  
HETATM   16  C   UNL     1     -12.135  12.614  70.396  1.00  0.00    -0.381 A  
HETATM   17  C   UNL     1     -11.474  11.652  69.619  1.00  0.00    -0.359 A  
BRANCH  15  18
HETATM   18  C   UNL     1     -13.659  13.235  72.322  1.00  0.00    -0.605 C  
BRANCH  18  19
HETATM   19  O   UNL     1     -12.737  14.221  72.778  1.00  0.00    -0.364 OA 
BRANCH  19  20
HETATM   20  C   UNL     1     -13.034  15.514  72.256  1.00  0.00    -0.416 C  
BRANCH  20  21
HETATM   21  C   UNL     1     -11.753  16.098  71.670  1.00  0.00    -0.484 C  
BRANCH  21  22
HETATM   22  O   UNL     1     -11.793  16.035  70.246  1.00  0.00    -0.337 OA 
BRANCH  22  23
HETATM   23  C   UNL     1     -10.543  16.364  69.625  1.00  0.00    -0.307 C  
HETATM   24  C   UNL     1      -9.704  15.120  69.348  1.00  0.00    -0.206 C  
HETATM   25  C   UNL     1     -10.865  17.076  68.316  1.00  0.00    -0.341 C  
ENDBRANCH  22  23
ENDBRANCH  21  22
ENDBRANCH  20  21
ENDBRANCH  19  20
ENDBRANCH  18  19
ENDBRANCH  15  18
ENDBRANCH  11  12
ENDBRANCH  10  11
ENDBRANCH   7  10
ENDBRANCH   6   7
ENDBRANCH   4   6
ENDBRANCH   2   4
TORSDOF 12
ENDMDL
MODEL       42
REMARK 921   NORMALIZED FREE ENERGY PREDICTED BY IDOCK:   -4.97 KCAL/MOL
REMARK 922        TOTAL FREE ENERGY PREDICTED BY IDOCK:   -9.47 KCAL/MOL
REMARK 923 INTER-LIGAND FREE ENERGY PREDICTED BY IDOCK:   -8.78 KCAL/MOL
REMARK 924 INTRA-LIGAND FREE ENERGY PREDICTED BY IDOCK:   -0.68 KCAL/MOL
REMARK 927      BINDING AFFINITY PREDICTED BY RF-SCORE:    0.00 PKD
ROOT
HETATM    1  C   UNL     1      -9.037  16.815  66.212  1.00  0.00    -0.320 C  
HETATM    2  C   UNL     1     -10.476  17.270  65.957  1.00  0.00    -0.282 C  
HETATM    3  C   UNL     1     -10.533  18.799  65.942  1.00  0.00    -0.424 C  
ENDROOT
BRANCH   2   4
HETATM    4  N   UNL     1     -10.924  16.697  64.686  1.00  0.00    -0.899 NA 
HETATM    5  H   UNL     1     -10.408  17.103  63.906  1.00  0.00     0.000 HD 
BRANCH   4   6
HETATM    6  C   UNL     1     -10.855  15.230  64.649  1.00  0.00    -0.257 C  
BRANCH   6   7
HETATM    7  C   UNL     1     -12.261  14.641  64.428  1.00  0.00    -0.452 C  
HETATM    8  O   UNL     1     -12.339  14.068  63.113  1.00  0.00    -1.133 OA 
HETATM    9  H   UNL     1     -13.206  13.704  62.977  1.00  0.00     0.000 HD 
BRANCH   7  10
HETATM   10  C   UNL     1     -12.602  13.576  65.476  1.00  0.00    -0.481 C  
BRANCH  10  11
HETATM   11  O   UNL     1     -12.083  13.984  66.752  1.00  0.00    -0.428 OA 
BRANCH  11  12
HETATM   12  C   UNL     1     -11.764  12.955  67.598  1.00  0.00    -0.370 A  
HETATM   13  C   UNL     1     -11.926  12.986  68.983  1.00  0.00    -0.312 A  
HETATM   14  C   UNL     1     -11.561  11.883  69.757  1.00  0.00    -0.359 A  
HETATM   15  C   UNL     1     -11.038  10.727  69.161  1.00  0.00    -0.304 A  
HETATM   16  C   UNL     1     -10.910  10.688  67.770  1.00  0.00    -0.338 A  
HETATM   17  C   UNL     1     -11.280  11.795  66.993  1.00  0.00    -0.382 A  
BRANCH  15  18
HETATM   18  C   UNL     1     -10.612   9.566  70.021  1.00  0.00    -0.244 C  
BRANCH  18  19
HETATM   19  O   UNL     1     -11.754   9.074  70.716  1.00  0.00    -0.281 OA 
BRANCH  19  20
HETATM   20  C   UNL     1     -12.030   7.711  70.397  1.00  0.00     0.083 C  
BRANCH  20  21
HETATM   21  C   UNL     1     -12.079   6.917  71.697  1.00  0.00    -0.353 C  
BRANCH  21  22
HETATM   22  O   UNL     1     -11.152   5.834  71.645  1.00  0.00    -0.265 OA 
BRANCH  22  23
HETATM   23  C   UNL     1     -10.389   5.678  72.848  1.00  0.00    -0.195 C  
HETATM   24  C   UNL     1     -10.318   6.976  73.646  1.00  0.00    -0.412 C  
HETATM   25  C   UNL     1     -11.073   4.595  73.677  1.00  0.00    -0.379 C  
ENDBRANCH  22  23
ENDBRANCH  21  22
ENDBRANCH  20  21
ENDBRANCH  19  20
ENDBRANCH  18  19
ENDBRANCH  15  18
ENDBRANCH  11  12
ENDBRANCH  10  11
ENDBRANCH   7  10
ENDBRANCH   6   7
ENDBRANCH   4   6
ENDBRANCH   2   4
TORSDOF 12
ENDMDL
MODEL       43
REMARK 921   NORMALIZED FREE ENERGY PREDICTED BY IDOCK:   -4.96 KCAL/MOL
REMARK 922        TOTAL FREE ENERGY PREDICTED BY IDOCK:   -9.46 KCAL/MOL
REMARK 923 INTER-LIGAND FREE ENERGY PREDICTED BY IDOCK:   -8.54 KCAL/MOL
REMARK 924 INTRA-LIGAND FREE ENERGY PREDICTED BY IDOCK:   -0.93 KCAL/MOL
REMARK 927      BINDING AFFINITY PREDICTED BY RF-SCORE:    0.00 PKD
ROOT
HETATM    1  C   UNL     1     -13.222  13.964  71.994  1.00  0.00    -0.503 C  
HETATM    2  C   UNL     1     -12.695  13.645  70.593  1.00  0.00    -0.233 C  
HETATM    3  C   UNL     1     -11.907  14.844  70.059  1.00  0.00    -0.353 C  
ENDROOT
BRANCH   2   4
HETATM    4  N   UNL     1     -11.864  12.442  70.674  1.00  0.00    -0.472 NA 
HETATM    5  H   UNL     1     -11.047  12.606  71.262  1.00  0.00     0.000 HD 
BRANCH   4   6
HETATM    6  C   UNL     1     -12.599  11.252  71.125  1.00  0.00    -0.397 C  
BRANCH   6   7
HETATM    7  C   UNL     1     -11.721   9.997  70.965  1.00  0.00    -0.392 C  
HETATM    8  O   UNL     1     -12.541   8.888  70.564  1.00  0.00    -0.447 OA 
HETATM    9  H   UNL     1     -11.999   8.113  70.465  1.00  0.00     0.000 HD 
BRANCH   7  10
HETATM   10  C   UNL     1     -10.605  10.211  69.937  1.00  0.00    -0.285 C  
BRANCH  10  11
HETATM   11  O   UNL     1     -10.958   9.553  68.710  1.00  0.00    -0.181 OA 
BRANCH  11  12
HETATM   12  C   UNL     1     -10.864  10.337  67.591  1.00  0.00    -0.307 A  
HETATM   13  C   UNL     1      -9.953  10.134  66.554  1.00  0.00    -0.283 A  
HETATM   14  C   UNL     1      -9.934  10.999  65.457  1.00  0.00    -0.308 A  
HETATM   15  C   UNL     1     -10.831  12.073  65.373  1.00  0.00    -0.336 A  
HETATM   16  C   UNL     1     -11.764  12.252  66.399  1.00  0.00    -0.431 A  
HETATM   17  C   UNL     1     -11.785  11.381  67.497  1.00  0.00    -0.220 A  
BRANCH  15  18
HETATM   18  C   UNL     1     -10.763  13.018  64.201  1.00  0.00    -0.402 C  
BRANCH  18  19
HETATM   19  O   UNL     1     -10.049  14.184  64.601  1.00  0.00    -0.343 OA 
BRANCH  19  20
HETATM   20  C   UNL     1     -10.919  15.285  64.853  1.00  0.00    -0.430 C  
BRANCH  20  21
HETATM   21  C   UNL     1     -10.353  16.082  66.023  1.00  0.00    -0.351 C  
BRANCH  21  22
HETATM   22  O   UNL     1      -9.709  17.262  65.546  1.00  0.00    -0.521 OA 
BRANCH  22  23
HETATM   23  C   UNL     1      -9.809  18.371  66.450  1.00  0.00    -0.360 C  
HETATM   24  C   UNL     1     -10.617  19.519  65.851  1.00  0.00    -0.572 C  
HETATM   25  C   UNL     1     -10.492  17.859  67.714  1.00  0.00    -0.409 C  
ENDBRANCH  22  23
ENDBRANCH  21  22
ENDBRANCH  20  21
ENDBRANCH  19  20
ENDBRANCH  18  19
ENDBRANCH  15  18
ENDBRANCH  11  12
ENDBRANCH  10  11
ENDBRANCH   7  10
ENDBRANCH   6   7
ENDBRANCH   4   6
ENDBRANCH   2   4
TORSDOF 12
ENDMDL
MODEL       44
REMARK 921   NORMALIZED FREE ENERGY PREDICTED BY IDOCK:   -4.95 KCAL/MOL
REMARK 922        TOTAL FREE ENERGY PREDICTED BY IDOCK:   -9.45 KCAL/MOL
REMARK 923 INTER-LIGAND FREE ENERGY PREDICTED BY IDOCK:   -8.24 KCAL/MOL
REMARK 924 INTRA-LIGAND FREE ENERGY PREDICTED BY IDOCK:   -1.21 KCAL/MOL
REMARK 927      BINDING AFFINITY PREDICTED BY RF-SCORE:    0.00 PKD
ROOT
HETATM    1  C   UNL     1     -13.220  15.814  73.230  1.00  0.00    -0.687 C  
HETATM    2  C   UNL     1     -12.505  15.047  72.114  1.00  0.00    -0.344 C  
HETATM    3  C   UNL     1     -13.210  13.709  71.881  1.00  0.00    -0.497 C  
ENDROOT
BRANCH   2   4
HETATM    4  N   UNL     1     -12.504  15.878  70.909  1.00  0.00    -0.517 NA 
HETATM    5  H   UNL     1     -12.873  16.807  71.110  1.00  0.00     0.000 HD 
BRANCH   4   6
HETATM    6  C   UNL     1     -11.187  15.971  70.263  1.00  0.00    -0.389 C  
BRANCH   6   7
HETATM    7  C   UNL     1     -11.332  15.789  68.741  1.00  0.00    -0.362 C  
HETATM    8  O   UNL     1     -10.029  15.714  68.141  1.00  0.00    -0.215 OA 
HETATM    9  H   UNL     1     -10.118  15.602  67.202  1.00  0.00     0.000 HD 
BRANCH   7  10
HETATM   10  C   UNL     1     -12.133  14.531  68.392  1.00  0.00    -0.214 C  
BRANCH  10  11
HETATM   11  O   UNL     1     -11.466  13.823  67.335  1.00  0.00    -0.311 OA 
BRANCH  11  12
HETATM   12  C   UNL     1     -11.237  12.496  67.587  1.00  0.00    -0.282 A  
HETATM   13  C   UNL     1     -11.582  11.841  68.769  1.00  0.00    -0.367 A  
HETATM   14  C   UNL     1     -11.295  10.484  68.929  1.00  0.00    -0.313 A  
HETATM   15  C   UNL     1     -10.670   9.755  67.907  1.00  0.00    -0.312 A  
HETATM   16  C   UNL     1     -10.357  10.409  66.711  1.00  0.00    -0.294 A  
HETATM   17  C   UNL     1     -10.649  11.770  66.550  1.00  0.00    -0.289 A  
BRANCH  15  18
HETATM   18  C   UNL     1     -10.332   8.303  68.119  1.00  0.00    -0.202 C  
BRANCH  18  19
HETATM   19  O   UNL     1     -10.476   8.002  69.504  1.00  0.00    -0.222 OA 
BRANCH  19  20
HETATM   20  C   UNL     1     -11.023   6.703  69.717  1.00  0.00    -0.313 C  
BRANCH  20  21
HETATM   21  C   UNL     1     -11.910   6.756  70.956  1.00  0.00    -0.376 C  
BRANCH  21  22
HETATM   22  O   UNL     1     -11.809   8.037  71.576  1.00  0.00    -0.275 OA 
BRANCH  22  23
HETATM   23  C   UNL     1     -13.029   8.468  72.193  1.00  0.00    -0.363 C  
HETATM   24  C   UNL     1     -13.282   9.956  71.968  1.00  0.00    -0.555 C  
HETATM   25  C   UNL     1     -14.158   7.650  71.576  1.00  0.00    -0.535 C  
ENDBRANCH  22  23
ENDBRANCH  21  22
ENDBRANCH  20  21
ENDBRANCH  19  20
ENDBRANCH  18  19
ENDBRANCH  15  18
ENDBRANCH  11  12
ENDBRANCH  10  11
ENDBRANCH   7  10
ENDBRANCH   6   7
ENDBRANCH   4   6
ENDBRANCH   2   4
TORSDOF 12
ENDMDL
MODEL       45
REMARK 921   NORMALIZED FREE ENERGY PREDICTED BY IDOCK:   -4.95 KCAL/MOL
REMARK 922        TOTAL FREE ENERGY PREDICTED BY IDOCK:   -9.45 KCAL/MOL
REMARK 923 INTER-LIGAND FREE ENERGY PREDICTED BY IDOCK:   -7.59 KCAL/MOL
REMARK 924 INTRA-LIGAND FREE ENERGY PREDICTED BY IDOCK:   -1.86 KCAL/MOL
REMARK 927      BINDING AFFINITY PREDICTED BY RF-SCORE:    0.00 PKD
ROOT
HETATM    1  C   UNL     1     -10.548  15.655  67.177  1.00  0.00    -0.308 C  
HETATM    2  C   UNL     1      -9.399  15.026  66.385  1.00  0.00    -0.303 C  
HETATM    3  C   UNL     1      -8.618  14.070  67.290  1.00  0.00    -0.228 C  
ENDROOT
BRANCH   2   4
HETATM    4  N   UNL     1      -9.961  14.336  65.223  1.00  0.00    -0.550 NA 
HETATM    5  H   UNL     1     -10.216  13.378  65.460  1.00  0.00     0.000 HD 
BRANCH   4   6
HETATM    6  C   UNL     1     -11.097  15.042  64.616  1.00  0.00    -0.321 C  
BRANCH   6   7
HETATM    7  C   UNL     1     -12.261  14.063  64.378  1.00  0.00    -0.426 C  
HETATM    8  O   UNL     1     -12.442  13.867  62.966  1.00  0.00    -1.099 OA 
HETATM    9  H   UNL     1     -13.160  13.263  62.819  1.00  0.00     0.000 HD 
BRANCH   7  10
HETATM   10  C   UNL     1     -12.017  12.713  65.059  1.00  0.00    -0.419 C  
BRANCH  10  11
HETATM   11  O   UNL     1     -12.492  12.773  66.413  1.00  0.00    -0.443 OA 
BRANCH  11  12
HETATM   12  C   UNL     1     -11.746  12.061  67.316  1.00  0.00    -0.269 A  
HETATM   13  C   UNL     1     -11.858  12.172  68.701  1.00  0.00    -0.358 A  
HETATM   14  C   UNL     1     -11.042  11.405  69.535  1.00  0.00    -0.274 A  
HETATM   15  C   UNL     1     -10.108  10.507  68.999  1.00  0.00    -0.230 A  
HETATM   16  C   UNL     1     -10.023  10.376  67.610  1.00  0.00    -0.205 A  
HETATM   17  C   UNL     1     -10.845  11.144  66.774  1.00  0.00    -0.322 A  
BRANCH  15  18
HETATM   18  C   UNL     1      -9.209   9.722  69.918  1.00  0.00    -0.234 C  
BRANCH  18  19
HETATM   19  O   UNL     1      -8.405   8.850  69.128  1.00  0.00    -0.119 OA 
BRANCH  19  20
HETATM   20  C   UNL     1      -7.791   7.829  69.912  1.00  0.00    -0.105 C  
BRANCH  20  21
HETATM   21  C   UNL     1      -8.393   6.489  69.506  1.00  0.00    -0.130 C  
BRANCH  21  22
HETATM   22  O   UNL     1      -9.085   6.618  68.265  1.00  0.00    -0.125 OA 
BRANCH  22  23
HETATM   23  C   UNL     1     -10.356   5.954  68.250  1.00  0.00    -0.214 C  
HETATM   24  C   UNL     1     -11.207   6.331  69.459  1.00  0.00    -0.500 C  
HETATM   25  C   UNL     1     -11.065   6.372  66.965  1.00  0.00    -0.405 C  
ENDBRANCH  22  23
ENDBRANCH  21  22
ENDBRANCH  20  21
ENDBRANCH  19  20
ENDBRANCH  18  19
ENDBRANCH  15  18
ENDBRANCH  11  12
ENDBRANCH  10  11
ENDBRANCH   7  10
ENDBRANCH   6   7
ENDBRANCH   4   6
ENDBRANCH   2   4
TORSDOF 12
ENDMDL
MODEL       46
REMARK 921   NORMALIZED FREE ENERGY PREDICTED BY IDOCK:   -4.95 KCAL/MOL
REMARK 922        TOTAL FREE ENERGY PREDICTED BY IDOCK:   -9.45 KCAL/MOL
REMARK 923 INTER-LIGAND FREE ENERGY PREDICTED BY IDOCK:   -8.02 KCAL/MOL
REMARK 924 INTRA-LIGAND FREE ENERGY PREDICTED BY IDOCK:   -1.42 KCAL/MOL
REMARK 927      BINDING AFFINITY PREDICTED BY RF-SCORE:    0.00 PKD
ROOT
HETATM    1  C   UNL     1     -11.566  15.432  67.983  1.00  0.00    -0.303 C  
HETATM    2  C   UNL     1     -11.293  14.160  67.176  1.00  0.00    -0.332 C  
HETATM    3  C   UNL     1     -11.909  12.957  67.896  1.00  0.00    -0.388 C  
ENDROOT
BRANCH   2   4
HETATM    4  N   UNL     1     -11.852  14.334  65.834  1.00  0.00    -0.371 NA 
HETATM    5  H   UNL     1     -11.117  14.561  65.164  1.00  0.00     0.000 HD 
BRANCH   4   6
HETATM    6  C   UNL     1     -12.638  13.181  65.373  1.00  0.00    -0.454 C  
BRANCH   6   7
HETATM    7  C   UNL     1     -12.144  12.723  63.989  1.00  0.00    -0.457 C  
HETATM    8  O   UNL     1     -12.358  13.773  63.032  1.00  0.00    -1.089 OA 
HETATM    9  H   UNL     1     -12.053  13.491  62.178  1.00  0.00     0.000 HD 
BRANCH   7  10
HETATM   10  C   UNL     1     -10.660  12.343  64.012  1.00  0.00    -0.413 C  
BRANCH  10  11
HETATM   11  O   UNL     1     -10.535  10.944  64.316  1.00  0.00    -0.362 OA 
BRANCH  11  12
HETATM   12  C   UNL     1     -10.117  10.668  65.590  1.00  0.00    -0.272 A  
HETATM   13  C   UNL     1     -10.634   9.651  66.393  1.00  0.00    -0.097 A  
HETATM   14  C   UNL     1     -10.142   9.458  67.686  1.00  0.00    -0.262 A  
HETATM   15  C   UNL     1      -9.118  10.270  68.194  1.00  0.00    -0.136 A  
HETATM   16  C   UNL     1      -8.580  11.266  67.373  1.00  0.00    -0.136 A  
HETATM   17  C   UNL     1      -9.073  11.456  66.074  1.00  0.00    -0.218 A  
BRANCH  15  18
HETATM   18  C   UNL     1      -8.633  10.070  69.606  1.00  0.00    -0.184 C  
BRANCH  18  19
HETATM   19  O   UNL     1      -9.758   9.801  70.437  1.00  0.00    -0.255 OA 
BRANCH  19  20
HETATM   20  C   UNL     1      -9.454   8.856  71.461  1.00  0.00    -0.277 C  
BRANCH  20  21
HETATM   21  C   UNL     1     -10.757   8.209  71.916  1.00  0.00    -0.265 C  
BRANCH  21  22
HETATM   22  O   UNL     1     -11.851   8.728  71.161  1.00  0.00    -0.287 OA 
BRANCH  22  23
HETATM   23  C   UNL     1     -12.871   9.325  71.972  1.00  0.00    -0.415 C  
HETATM   24  C   UNL     1     -13.059  10.804  71.649  1.00  0.00    -0.551 C  
HETATM   25  C   UNL     1     -14.165   8.565  71.698  1.00  0.00    -0.496 C  
ENDBRANCH  22  23
ENDBRANCH  21  22
ENDBRANCH  20  21
ENDBRANCH  19  20
ENDBRANCH  18  19
ENDBRANCH  15  18
ENDBRANCH  11  12
ENDBRANCH  10  11
ENDBRANCH   7  10
ENDBRANCH   6   7
ENDBRANCH   4   6
ENDBRANCH   2   4
TORSDOF 12
ENDMDL
MODEL       47
REMARK 921   NORMALIZED FREE ENERGY PREDICTED BY IDOCK:   -4.95 KCAL/MOL
REMARK 922        TOTAL FREE ENERGY PREDICTED BY IDOCK:   -9.43 KCAL/MOL
REMARK 923 INTER-LIGAND FREE ENERGY PREDICTED BY IDOCK:   -8.59 KCAL/MOL
REMARK 924 INTRA-LIGAND FREE ENERGY PREDICTED BY IDOCK:   -0.84 KCAL/MOL
REMARK 927      BINDING AFFINITY PREDICTED BY RF-SCORE:    0.00 PKD
ROOT
HETATM    1  C   UNL     1     -14.373  14.285  72.004  1.00  0.00    -0.629 C  
HETATM    2  C   UNL     1     -12.943  14.629  71.580  1.00  0.00    -0.335 C  
HETATM    3  C   UNL     1     -12.212  15.298  72.747  1.00  0.00    -0.513 C  
ENDROOT
BRANCH   2   4
HETATM    4  N   UNL     1     -12.276  13.397  71.156  1.00  0.00    -0.405 NA 
HETATM    5  H   UNL     1     -11.317  13.367  71.503  1.00  0.00     0.000 HD 
BRANCH   4   6
HETATM    6  C   UNL     1     -13.004  12.177  71.534  1.00  0.00    -0.295 C  
BRANCH   6   7
HETATM    7  C   UNL     1     -12.369  10.951  70.853  1.00  0.00    -0.400 C  
HETATM    8  O   UNL     1     -13.405  10.097  70.342  1.00  0.00    -0.573 OA 
HETATM    9  H   UNL     1     -13.013   9.340  69.922  1.00  0.00     0.000 HD 
BRANCH   7  10
HETATM   10  C   UNL     1     -11.426  11.356  69.716  1.00  0.00    -0.300 C  
BRANCH  10  11
HETATM   11  O   UNL     1     -12.149  11.342  68.474  1.00  0.00    -0.550 OA 
BRANCH  11  12
HETATM   12  C   UNL     1     -11.906  12.413  67.655  1.00  0.00    -0.295 A  
HETATM   13  C   UNL     1     -11.936  13.747  68.062  1.00  0.00    -0.390 A  
HETATM   14  C   UNL     1     -11.681  14.767  67.143  1.00  0.00    -0.351 A  
HETATM   15  C   UNL     1     -11.381  14.471  65.806  1.00  0.00    -0.336 A  
HETATM   16  C   UNL     1     -11.319  13.132  65.411  1.00  0.00    -0.323 A  
HETATM   17  C   UNL     1     -11.572  12.108  66.335  1.00  0.00    -0.429 A  
BRANCH  15  18
HETATM   18  C   UNL     1     -11.152  15.590  64.823  1.00  0.00    -0.407 C  
BRANCH  18  19
HETATM   19  O   UNL     1     -10.165  16.466  65.358  1.00  0.00    -0.546 OA 
BRANCH  19  20
HETATM   20  C   UNL     1     -10.673  17.782  65.568  1.00  0.00    -0.009 C  
BRANCH  20  21
HETATM   21  C   UNL     1     -10.147  18.288  66.907  1.00  0.00    -0.366 C  
BRANCH  21  22
HETATM   22  O   UNL     1      -9.099  17.441  67.374  1.00  0.00    -0.232 OA 
BRANCH  22  23
HETATM   23  C   UNL     1      -7.862  18.132  67.591  1.00  0.00    -0.224 C  
HETATM   24  C   UNL     1      -7.267  18.654  66.286  1.00  0.00    -0.281 C  
HETATM   25  C   UNL     1      -8.158  19.298  68.529  1.00  0.00    -0.401 C  
ENDBRANCH  22  23
ENDBRANCH  21  22
ENDBRANCH  20  21
ENDBRANCH  19  20
ENDBRANCH  18  19
ENDBRANCH  15  18
ENDBRANCH  11  12
ENDBRANCH  10  11
ENDBRANCH   7  10
ENDBRANCH   6   7
ENDBRANCH   4   6
ENDBRANCH   2   4
TORSDOF 12
ENDMDL
MODEL       48
REMARK 921   NORMALIZED FREE ENERGY PREDICTED BY IDOCK:   -4.94 KCAL/MOL
REMARK 922        TOTAL FREE ENERGY PREDICTED BY IDOCK:   -9.43 KCAL/MOL
REMARK 923 INTER-LIGAND FREE ENERGY PREDICTED BY IDOCK:   -8.23 KCAL/MOL
REMARK 924 INTRA-LIGAND FREE ENERGY PREDICTED BY IDOCK:   -1.20 KCAL/MOL
REMARK 927      BINDING AFFINITY PREDICTED BY RF-SCORE:    0.00 PKD
ROOT
HETATM    1  C   UNL     1     -11.096   6.280  69.362  1.00  0.00    -0.477 C  
HETATM    2  C   UNL     1     -11.448   6.496  70.836  1.00  0.00    -0.351 C  
HETATM    3  C   UNL     1     -10.648   5.518  71.700  1.00  0.00    -0.294 C  
ENDROOT
BRANCH   2   4
HETATM    4  N   UNL     1     -11.158   7.889  71.182  1.00  0.00    -0.251 NA 
HETATM    5  H   UNL     1     -11.381   8.508  70.403  1.00  0.00     0.000 HD 
BRANCH   4   6
HETATM    6  C   UNL     1     -11.825   8.337  72.411  1.00  0.00    -0.396 C  
BRANCH   6   7
HETATM    7  C   UNL     1     -13.310   8.631  72.129  1.00  0.00    -0.396 C  
HETATM    8  O   UNL     1     -13.998   8.857  73.370  1.00  0.00    -1.236 OA 
HETATM    9  H   UNL     1     -14.914   9.039  73.196  1.00  0.00     0.000 HD 
BRANCH   7  10
HETATM   10  C   UNL     1     -13.486   9.847  71.214  1.00  0.00    -0.280 C  
BRANCH  10  11
HETATM   11  O   UNL     1     -12.384  10.748  71.407  1.00  0.00    -0.358 OA 
BRANCH  11  12
HETATM   12  C   UNL     1     -12.201  11.656  70.398  1.00  0.00    -0.347 A  
HETATM   13  C   UNL     1     -12.265  13.041  70.555  1.00  0.00    -0.392 A  
HETATM   14  C   UNL     1     -12.071  13.881  69.456  1.00  0.00    -0.393 A  
HETATM   15  C   UNL     1     -11.800  13.354  68.186  1.00  0.00    -0.396 A  
HETATM   16  C   UNL     1     -11.704  11.967  68.041  1.00  0.00    -0.382 A  
HETATM   17  C   UNL     1     -11.895  11.124  69.145  1.00  0.00    -0.419 A  
BRANCH  15  18
HETATM   18  C   UNL     1     -11.637  14.278  67.008  1.00  0.00    -0.386 C  
BRANCH  18  19
HETATM   19  O   UNL     1     -11.314  15.578  67.494  1.00  0.00    -0.314 OA 
BRANCH  19  20
HETATM   20  C   UNL     1     -10.001  15.982  67.112  1.00  0.00    -0.249 C  
BRANCH  20  21
HETATM   21  C   UNL     1      -9.337  14.821  66.380  1.00  0.00    -0.291 C  
BRANCH  21  22
HETATM   22  O   UNL     1      -8.075  14.524  66.974  1.00  0.00    -0.191 OA 
BRANCH  22  23
HETATM   23  C   UNL     1      -8.183  13.827  68.222  1.00  0.00    -0.156 C  
HETATM   24  C   UNL     1      -8.295  12.318  68.020  1.00  0.00    -0.165 C  
HETATM   25  C   UNL     1      -6.928  14.151  69.027  1.00  0.00    -0.112 C  
ENDBRANCH  22  23
ENDBRANCH  21  22
ENDBRANCH  20  21
ENDBRANCH  19  20
ENDBRANCH  18  19
ENDBRANCH  15  18
ENDBRANCH  11  12
ENDBRANCH  10  11
ENDBRANCH   7  10
ENDBRANCH   6   7
ENDBRANCH   4   6
ENDBRANCH   2   4
TORSDOF 12
ENDMDL
MODEL       49
REMARK 921   NORMALIZED FREE ENERGY PREDICTED BY IDOCK:   -4.94 KCAL/MOL
REMARK 922        TOTAL FREE ENERGY PREDICTED BY IDOCK:   -9.42 KCAL/MOL
REMARK 923 INTER-LIGAND FREE ENERGY PREDICTED BY IDOCK:   -7.93 KCAL/MOL
REMARK 924 INTRA-LIGAND FREE ENERGY PREDICTED BY IDOCK:   -1.49 KCAL/MOL
REMARK 927      BINDING AFFINITY PREDICTED BY RF-SCORE:    0.00 PKD
ROOT
HETATM    1  C   UNL     1     -11.800   8.038  72.106  1.00  0.00    -0.401 C  
HETATM    2  C   UNL     1     -12.626   6.903  71.497  1.00  0.00    -0.367 C  
HETATM    3  C   UNL     1     -14.115   7.243  71.600  1.00  0.00    -0.522 C  
ENDROOT
BRANCH   2   4
HETATM    4  N   UNL     1     -12.206   6.719  70.106  1.00  0.00    -0.605 NA 
HETATM    5  H   UNL     1     -12.822   7.229  69.473  1.00  0.00     0.000 HD 
BRANCH   4   6
HETATM    6  C   UNL     1     -10.801   7.077  69.867  1.00  0.00    -0.251 C  
BRANCH   6   7
HETATM    7  C   UNL     1     -10.526   7.154  68.355  1.00  0.00    -0.197 C  
HETATM    8  O   UNL     1     -11.526   6.405  67.647  1.00  0.00    -0.668 OA 
HETATM    9  H   UNL     1     -11.356   6.452  66.713  1.00  0.00     0.000 HD 
BRANCH   7  10
HETATM   10  C   UNL     1     -10.513   8.601  67.852  1.00  0.00    -0.209 C  
BRANCH  10  11
HETATM   11  O   UNL     1     -11.108   9.453  68.844  1.00  0.00    -0.112 OA 
BRANCH  11  12
HETATM   12  C   UNL     1     -10.856  10.789  68.680  1.00  0.00    -0.220 A  
HETATM   13  C   UNL     1     -11.780  11.806  68.917  1.00  0.00    -0.384 A  
HETATM   14  C   UNL     1     -11.424  13.141  68.710  1.00  0.00    -0.348 A  
HETATM   15  C   UNL     1     -10.136  13.482  68.273  1.00  0.00    -0.247 A  
HETATM   16  C   UNL     1      -9.204  12.461  68.069  1.00  0.00    -0.203 A  
HETATM   17  C   UNL     1      -9.561  11.121  68.281  1.00  0.00    -0.185 A  
BRANCH  15  18
HETATM   18  C   UNL     1      -9.788  14.925  68.016  1.00  0.00    -0.216 C  
BRANCH  18  19
HETATM   19  O   UNL     1      -9.207  15.025  66.720  1.00  0.00    -0.225 OA 
BRANCH  19  20
HETATM   20  C   UNL     1      -9.894  15.964  65.895  1.00  0.00    -0.351 C  
BRANCH  20  21
HETATM   21  C   UNL     1     -10.858  15.197  64.998  1.00  0.00    -0.440 C  
BRANCH  21  22
HETATM   22  O   UNL     1     -10.275  13.957  64.599  1.00  0.00    -0.417 OA 
BRANCH  22  23
HETATM   23  C   UNL     1     -11.119  12.825  64.843  1.00  0.00    -0.292 C  
HETATM   24  C   UNL     1     -12.530  13.246  65.245  1.00  0.00    -0.543 C  
HETATM   25  C   UNL     1     -11.167  12.015  63.551  1.00  0.00    -0.526 C  
ENDBRANCH  22  23
ENDBRANCH  21  22
ENDBRANCH  20  21
ENDBRANCH  19  20
ENDBRANCH  18  19
ENDBRANCH  15  18
ENDBRANCH  11  12
ENDBRANCH  10  11
ENDBRANCH   7  10
ENDBRANCH   6   7
ENDBRANCH   4   6
ENDBRANCH   2   4
TORSDOF 12
ENDMDL
MODEL       50
REMARK 921   NORMALIZED FREE ENERGY PREDICTED BY IDOCK:   -4.93 KCAL/MOL
REMARK 922        TOTAL FREE ENERGY PREDICTED BY IDOCK:   -9.41 KCAL/MOL
REMARK 923 INTER-LIGAND FREE ENERGY PREDICTED BY IDOCK:   -7.49 KCAL/MOL
REMARK 924 INTRA-LIGAND FREE ENERGY PREDICTED BY IDOCK:   -1.92 KCAL/MOL
REMARK 927      BINDING AFFINITY PREDICTED BY RF-SCORE:    0.00 PKD
ROOT
HETATM    1  C   UNL     1     -11.206   8.520  72.233  1.00  0.00    -0.432 C  
HETATM    2  C   UNL     1     -12.508   7.971  71.647  1.00  0.00    -0.320 C  
HETATM    3  C   UNL     1     -13.550   9.090  71.581  1.00  0.00    -0.446 C  
ENDROOT
BRANCH   2   4
HETATM    4  N   UNL     1     -12.223   7.415  70.323  1.00  0.00    -0.474 NA 
HETATM    5  H   UNL     1     -12.366   8.119  69.598  1.00  0.00     0.000 HD 
BRANCH   4   6
HETATM    6  C   UNL     1     -10.884   6.820  70.214  1.00  0.00    -0.270 C  
BRANCH   6   7
HETATM    7  C   UNL     1     -10.480   6.695  68.734  1.00  0.00    -0.213 C  
HETATM    8  O   UNL     1     -11.658   6.532  67.928  1.00  0.00    -0.623 OA 
HETATM    9  H   UNL     1     -11.409   6.455  67.015  1.00  0.00     0.000 HD 
BRANCH   7  10
HETATM   10  C   UNL     1      -9.691   7.917  68.253  1.00  0.00    -0.160 C  
BRANCH  10  11
HETATM   11  O   UNL     1     -10.061   9.059  69.043  1.00  0.00    -0.184 OA 
BRANCH  11  12
HETATM   12  C   UNL     1     -10.558  10.116  68.327  1.00  0.00    -0.226 A  
HETATM   13  C   UNL     1     -10.466  10.251  66.942  1.00  0.00    -0.291 A  
HETATM   14  C   UNL     1     -11.000  11.375  66.309  1.00  0.00    -0.303 A  
HETATM   15  C   UNL     1     -11.643  12.379  67.047  1.00  0.00    -0.434 A  
HETATM   16  C   UNL     1     -11.761  12.223  68.431  1.00  0.00    -0.390 A  
HETATM   17  C   UNL     1     -11.228  11.092  69.066  1.00  0.00    -0.320 A  
BRANCH  15  18
HETATM   18  C   UNL     1     -12.173  13.603  66.347  1.00  0.00    -0.423 C  
BRANCH  18  19
HETATM   19  O   UNL     1     -11.495  13.742  65.103  1.00  0.00    -0.308 OA 
BRANCH  19  20
HETATM   20  C   UNL     1     -11.322  15.109  64.736  1.00  0.00    -0.395 C  
BRANCH  20  21
HETATM   21  C   UNL     1     -10.462  15.783  65.798  1.00  0.00    -0.367 C  
BRANCH  21  22
HETATM   22  O   UNL     1      -9.169  15.182  65.837  1.00  0.00    -0.296 OA 
BRANCH  22  23
HETATM   23  C   UNL     1      -8.637  15.060  67.162  1.00  0.00    -0.223 C  
HETATM   24  C   UNL     1      -9.674  15.414  68.224  1.00  0.00    -0.209 C  
HETATM   25  C   UNL     1      -8.190  13.611  67.334  1.00  0.00    -0.187 C  
ENDBRANCH  22  23
ENDBRANCH  21  22
ENDBRANCH  20  21
ENDBRANCH  19  20
ENDBRANCH  18  19
ENDBRANCH  15  18
ENDBRANCH  11  12
ENDBRANCH  10  11
ENDBRANCH   7  10
ENDBRANCH   6   7
ENDBRANCH   4   6
ENDBRANCH   2   4
TORSDOF 12
ENDMDL
MODEL       51
REMARK 921   NORMALIZED FREE ENERGY PREDICTED BY IDOCK:   -4.89 KCAL/MOL
REMARK 922        TOTAL FREE ENERGY PREDICTED BY IDOCK:   -9.35 KCAL/MOL
REMARK 923 INTER-LIGAND FREE ENERGY PREDICTED BY IDOCK:   -7.99 KCAL/MOL
REMARK 924 INTRA-LIGAND FREE ENERGY PREDICTED BY IDOCK:   -1.36 KCAL/MOL
REMARK 927      BINDING AFFINITY PREDICTED BY RF-SCORE:    0.00 PKD
ROOT
HETATM    1  C   UNL     1     -12.804  12.129  63.702  1.00  0.00    -0.464 C  
HETATM    2  C   UNL     1     -11.330  12.426  63.417  1.00  0.00    -0.433 C  
HETATM    3  C   UNL     1     -10.766  13.318  64.526  1.00  0.00    -0.428 C  
ENDROOT
BRANCH   2   4
HETATM    4  N   UNL     1     -10.610  11.154  63.326  1.00  0.00    -0.727 NA 
HETATM    5  H   UNL     1     -10.226  11.023  62.390  1.00  0.00     0.000 HD 
BRANCH   4   6
HETATM    6  C   UNL     1      -9.563  10.999  64.345  1.00  0.00    -0.259 C  
BRANCH   6   7
HETATM    7  C   UNL     1      -9.830   9.739  65.189  1.00  0.00    -0.224 C  
HETATM    8  O   UNL     1      -9.092   8.633  64.644  1.00  0.00    -0.417 OA 
HETATM    9  H   UNL     1      -9.257   7.855  65.165  1.00  0.00     0.000 HD 
BRANCH   7  10
HETATM   10  C   UNL     1      -9.442   9.945  66.656  1.00  0.00    -0.173 C  
BRANCH  10  11
HETATM   11  O   UNL     1     -10.509   9.480  67.498  1.00  0.00    -0.241 OA 
BRANCH  11  12
HETATM   12  C   UNL     1     -11.055  10.436  68.313  1.00  0.00    -0.281 A  
HETATM   13  C   UNL     1     -11.493  11.689  67.886  1.00  0.00    -0.381 A  
HETATM   14  C   UNL     1     -12.028  12.596  68.803  1.00  0.00    -0.279 A  
HETATM   15  C   UNL     1     -12.146  12.263  70.160  1.00  0.00    -0.364 A  
HETATM   16  C   UNL     1     -11.737  10.993  70.577  1.00  0.00    -0.416 A  
HETATM   17  C   UNL     1     -11.203  10.081  69.655  1.00  0.00    -0.285 A  
BRANCH  15  18
HETATM   18  C   UNL     1     -12.687  13.273  71.137  1.00  0.00    -0.320 C  
BRANCH  18  19
HETATM   19  O   UNL     1     -12.786  14.532  70.478  1.00  0.00    -0.344 OA 
BRANCH  19  20
HETATM   20  C   UNL     1     -11.919  15.508  71.053  1.00  0.00    -0.381 C  
BRANCH  20  21
HETATM   21  C   UNL     1     -11.085  16.123  69.935  1.00  0.00    -0.357 C  
BRANCH  21  22
HETATM   22  O   UNL     1     -11.740  15.945  68.680  1.00  0.00    -0.387 OA 
BRANCH  22  23
HETATM   23  C   UNL     1     -10.845  15.973  67.561  1.00  0.00    -0.292 C  
HETATM   24  C   UNL     1     -10.373  17.390  67.249  1.00  0.00    -0.336 C  
HETATM   25  C   UNL     1      -9.651  15.094  67.919  1.00  0.00    -0.203 C  
ENDBRANCH  22  23
ENDBRANCH  21  22
ENDBRANCH  20  21
ENDBRANCH  19  20
ENDBRANCH  18  19
ENDBRANCH  15  18
ENDBRANCH  11  12
ENDBRANCH  10  11
ENDBRANCH   7  10
ENDBRANCH   6   7
ENDBRANCH   4   6
ENDBRANCH   2   4
TORSDOF 12
ENDMDL
MODEL       52
REMARK 921   NORMALIZED FREE ENERGY PREDICTED BY IDOCK:   -4.88 KCAL/MOL
REMARK 922        TOTAL FREE ENERGY PREDICTED BY IDOCK:   -9.32 KCAL/MOL
REMARK 923 INTER-LIGAND FREE ENERGY PREDICTED BY IDOCK:   -8.61 KCAL/MOL
REMARK 924 INTRA-LIGAND FREE ENERGY PREDICTED BY IDOCK:   -0.72 KCAL/MOL
REMARK 927      BINDING AFFINITY PREDICTED BY RF-SCORE:    0.00 PKD
ROOT
HETATM    1  C   UNL     1     -11.945  15.056  68.252  1.00  0.00    -0.214 C  
HETATM    2  C   UNL     1     -11.355  15.674  69.522  1.00  0.00    -0.327 C  
HETATM    3  C   UNL     1     -10.597  16.954  69.163  1.00  0.00    -0.330 C  
ENDROOT
BRANCH   2   4
HETATM    4  N   UNL     1     -12.448  15.935  70.461  1.00  0.00    -0.447 NA 
HETATM    5  H   UNL     1     -13.213  15.276  70.317  1.00  0.00     0.000 HD 
BRANCH   4   6
HETATM    6  C   UNL     1     -12.023  15.940  71.867  1.00  0.00    -0.504 C  
BRANCH   6   7
HETATM    7  C   UNL     1     -13.000  15.107  72.717  1.00  0.00    -0.427 C  
HETATM    8  O   UNL     1     -13.834  15.987  73.488  1.00  0.00    -0.796 OA 
HETATM    9  H   UNL     1     -14.437  15.473  74.013  1.00  0.00     0.000 HD 
BRANCH   7  10
HETATM   10  C   UNL     1     -13.876  14.197  71.849  1.00  0.00    -0.451 C  
BRANCH  10  11
HETATM   11  O   UNL     1     -13.799  12.852  72.347  1.00  0.00    -0.532 OA 
BRANCH  11  12
HETATM   12  C   UNL     1     -13.017  12.008  71.604  1.00  0.00    -0.334 A  
HETATM   13  C   UNL     1     -12.124  12.417  70.615  1.00  0.00    -0.317 A  
HETATM   14  C   UNL     1     -11.378  11.472  69.907  1.00  0.00    -0.267 A  
HETATM   15  C   UNL     1     -11.504  10.104  70.183  1.00  0.00    -0.368 A  
HETATM   16  C   UNL     1     -12.376   9.701  71.198  1.00  0.00    -0.427 A  
HETATM   17  C   UNL     1     -13.121  10.651  71.911  1.00  0.00    -0.563 A  
BRANCH  15  18
HETATM   18  C   UNL     1     -10.721   9.100  69.377  1.00  0.00    -0.198 C  
BRANCH  18  19
HETATM   19  O   UNL     1     -10.722   9.514  68.014  1.00  0.00    -0.239 OA 
BRANCH  19  20
HETATM   20  C   UNL     1     -10.409   8.442  67.128  1.00  0.00    -0.311 C  
BRANCH  20  21
HETATM   21  C   UNL     1      -9.607   9.006  65.960  1.00  0.00    -0.272 C  
BRANCH  21  22
HETATM   22  O   UNL     1     -10.374   9.991  65.269  1.00  0.00    -0.236 OA 
BRANCH  22  23
HETATM   23  C   UNL     1      -9.614  10.736  64.310  1.00  0.00    -0.283 C  
HETATM   24  C   UNL     1      -8.942   9.823  63.288  1.00  0.00    -0.274 C  
HETATM   25  C   UNL     1     -10.582  11.681  63.605  1.00  0.00    -0.493 C  
ENDBRANCH  22  23
ENDBRANCH  21  22
ENDBRANCH  20  21
ENDBRANCH  19  20
ENDBRANCH  18  19
ENDBRANCH  15  18
ENDBRANCH  11  12
ENDBRANCH  10  11
ENDBRANCH   7  10
ENDBRANCH   6   7
ENDBRANCH   4   6
ENDBRANCH   2   4
TORSDOF 12
ENDMDL
MODEL       53
REMARK 921   NORMALIZED FREE ENERGY PREDICTED BY IDOCK:   -4.85 KCAL/MOL
REMARK 922        TOTAL FREE ENERGY PREDICTED BY IDOCK:   -9.27 KCAL/MOL
REMARK 923 INTER-LIGAND FREE ENERGY PREDICTED BY IDOCK:   -7.76 KCAL/MOL
REMARK 924 INTRA-LIGAND FREE ENERGY PREDICTED BY IDOCK:   -1.52 KCAL/MOL
REMARK 927      BINDING AFFINITY PREDICTED BY RF-SCORE:    0.00 PKD
ROOT
HETATM    1  C   UNL     1     -12.904  12.756  64.524  1.00  0.00    -0.323 C  
HETATM    2  C   UNL     1     -11.640  12.927  63.678  1.00  0.00    -0.485 C  
HETATM    3  C   UNL     1     -10.534  13.553  64.532  1.00  0.00    -0.426 C  
ENDROOT
BRANCH   2   4
HETATM    4  N   UNL     1     -11.249  11.616  63.158  1.00  0.00    -0.795 NA 
HETATM    5  H   UNL     1     -11.591  11.488  62.206  1.00  0.00     0.000 HD 
BRANCH   4   6
HETATM    6  C   UNL     1      -9.803  11.365  63.230  1.00  0.00    -0.404 C  
BRANCH   6   7
HETATM    7  C   UNL     1      -9.535  10.005  63.900  1.00  0.00    -0.220 C  
HETATM    8  O   UNL     1      -9.056   9.073  62.917  1.00  0.00    -0.433 OA 
HETATM    9  H   UNL     1      -8.891   8.234  63.330  1.00  0.00     0.000 HD 
BRANCH   7  10
HETATM   10  C   UNL     1      -8.516  10.122  65.038  1.00  0.00    -0.163 C  
BRANCH  10  11
HETATM   11  O   UNL     1      -9.137   9.725  66.271  1.00  0.00    -0.148 OA 
BRANCH  11  12
HETATM   12  C   UNL     1      -9.653  10.756  67.012  1.00  0.00    -0.169 A  
HETATM   13  C   UNL     1      -8.906  11.813  67.531  1.00  0.00    -0.162 A  
HETATM   14  C   UNL     1      -9.530  12.811  68.282  1.00  0.00    -0.203 A  
HETATM   15  C   UNL     1     -10.911  12.776  68.518  1.00  0.00    -0.288 A  
HETATM   16  C   UNL     1     -11.661  11.732  67.968  1.00  0.00    -0.386 A  
HETATM   17  C   UNL     1     -11.034  10.732  67.211  1.00  0.00    -0.359 A  
BRANCH  15  18
HETATM   18  C   UNL     1     -11.555  13.841  69.367  1.00  0.00    -0.310 C  
BRANCH  18  19
HETATM   19  O   UNL     1     -10.746  15.012  69.315  1.00  0.00    -0.231 OA 
BRANCH  19  20
HETATM   20  C   UNL     1     -11.385  16.074  68.611  1.00  0.00    -0.383 C  
BRANCH  20  21
HETATM   21  C   UNL     1     -10.555  16.393  67.372  1.00  0.00    -0.306 C  
BRANCH  21  22
HETATM   22  O   UNL     1     -10.475  17.805  67.186  1.00  0.00    -0.350 OA 
BRANCH  22  23
HETATM   23  C   UNL     1      -9.877  18.492  68.293  1.00  0.00    -0.363 C  
HETATM   24  C   UNL     1      -8.362  18.307  68.322  1.00  0.00    -0.316 C  
HETATM   25  C   UNL     1     -10.217  19.971  68.139  1.00  0.00    -0.535 C  
ENDBRANCH  22  23
ENDBRANCH  21  22
ENDBRANCH  20  21
ENDBRANCH  19  20
ENDBRANCH  18  19
ENDBRANCH  15  18
ENDBRANCH  11  12
ENDBRANCH  10  11
ENDBRANCH   7  10
ENDBRANCH   6   7
ENDBRANCH   4   6
ENDBRANCH   2   4
TORSDOF 12
ENDMDL
MODEL       54
REMARK 921   NORMALIZED FREE ENERGY PREDICTED BY IDOCK:   -4.83 KCAL/MOL
REMARK 922        TOTAL FREE ENERGY PREDICTED BY IDOCK:   -9.24 KCAL/MOL
REMARK 923 INTER-LIGAND FREE ENERGY PREDICTED BY IDOCK:   -8.61 KCAL/MOL
REMARK 924 INTRA-LIGAND FREE ENERGY PREDICTED BY IDOCK:   -0.63 KCAL/MOL
REMARK 927      BINDING AFFINITY PREDICTED BY RF-SCORE:    0.00 PKD
ROOT
HETATM    1  C   UNL     1      -9.199   3.031  65.331  1.00  0.00    -0.141 C  
HETATM    2  C   UNL     1     -10.099   4.031  64.601  1.00  0.00    -0.206 C  
HETATM    3  C   UNL     1     -10.866   3.311  63.489  1.00  0.00    -0.206 C  
ENDROOT
BRANCH   2   4
HETATM    4  N   UNL     1     -11.003   4.639  65.579  1.00  0.00    -0.893 NA 
HETATM    5  H   UNL     1     -11.646   3.944  65.958  1.00  0.00     0.000 HD 
BRANCH   4   6
HETATM    6  C   UNL     1     -10.305   5.348  66.660  1.00  0.00    -0.275 C  
BRANCH   6   7
HETATM    7  C   UNL     1     -11.100   6.602  67.068  1.00  0.00    -0.325 C  
HETATM    8  O   UNL     1     -11.479   6.501  68.450  1.00  0.00    -0.564 OA 
HETATM    9  H   UNL     1     -11.969   7.275  68.701  1.00  0.00     0.000 HD 
BRANCH   7  10
HETATM   10  C   UNL     1     -10.290   7.885  66.849  1.00  0.00    -0.330 C  
BRANCH  10  11
HETATM   11  O   UNL     1     -10.404   8.721  68.011  1.00  0.00    -0.208 OA 
BRANCH  11  12
HETATM   12  C   UNL     1     -10.775  10.014  67.754  1.00  0.00    -0.280 A  
HETATM   13  C   UNL     1     -11.373  10.868  68.681  1.00  0.00    -0.360 A  
HETATM   14  C   UNL     1     -11.720  12.170  68.314  1.00  0.00    -0.401 A  
HETATM   15  C   UNL     1     -11.467  12.644  67.019  1.00  0.00    -0.406 A  
HETATM   16  C   UNL     1     -10.837  11.795  66.104  1.00  0.00    -0.336 A  
HETATM   17  C   UNL     1     -10.485  10.490  66.475  1.00  0.00    -0.276 A  
BRANCH  15  18
HETATM   18  C   UNL     1     -11.890  14.037  66.633  1.00  0.00    -0.419 C  
BRANCH  18  19
HETATM   19  O   UNL     1     -12.075  14.080  65.221  1.00  0.00    -0.369 OA 
BRANCH  19  20
HETATM   20  C   UNL     1     -11.351  15.150  64.617  1.00  0.00    -0.356 C  
BRANCH  20  21
HETATM   21  C   UNL     1     -10.626  15.917  65.718  1.00  0.00    -0.355 C  
BRANCH  21  22
HETATM   22  O   UNL     1     -10.299  17.230  65.265  1.00  0.00    -0.626 OA 
BRANCH  22  23
HETATM   23  C   UNL     1      -9.952  18.129  66.327  1.00  0.00    -0.342 C  
HETATM   24  C   UNL     1     -10.660  19.473  66.185  1.00  0.00    -0.585 C  
HETATM   25  C   UNL     1     -10.364  17.459  67.634  1.00  0.00    -0.355 C  
ENDBRANCH  22  23
ENDBRANCH  21  22
ENDBRANCH  20  21
ENDBRANCH  19  20
ENDBRANCH  18  19
ENDBRANCH  15  18
ENDBRANCH  11  12
ENDBRANCH  10  11
ENDBRANCH   7  10
ENDBRANCH   6   7
ENDBRANCH   4   6
ENDBRANCH   2   4
TORSDOF 12
ENDMDL
MODEL       55
REMARK 921   NORMALIZED FREE ENERGY PREDICTED BY IDOCK:   -4.83 KCAL/MOL
REMARK 922        TOTAL FREE ENERGY PREDICTED BY IDOCK:   -9.23 KCAL/MOL
REMARK 923 INTER-LIGAND FREE ENERGY PREDICTED BY IDOCK:   -7.55 KCAL/MOL
REMARK 924 INTRA-LIGAND FREE ENERGY PREDICTED BY IDOCK:   -1.68 KCAL/MOL
REMARK 927      BINDING AFFINITY PREDICTED BY RF-SCORE:    0.00 PKD
ROOT
HETATM    1  C   UNL     1      -8.239  10.720  66.873  1.00  0.00    -0.130 C  
HETATM    2  C   UNL     1      -7.977  11.735  67.988  1.00  0.00    -0.141 C  
HETATM    3  C   UNL     1      -8.015  13.151  67.408  1.00  0.00    -0.174 C  
ENDROOT
BRANCH   2   4
HETATM    4  N   UNL     1      -8.988  11.548  69.031  1.00  0.00    -0.385 NA 
HETATM    5  H   UNL     1      -9.858  12.018  68.779  1.00  0.00     0.000 HD 
BRANCH   4   6
HETATM    6  C   UNL     1      -9.234  10.138  69.362  1.00  0.00    -0.214 C  
BRANCH   6   7
HETATM    7  C   UNL     1     -10.685   9.954  69.844  1.00  0.00    -0.280 C  
HETATM    8  O   UNL     1     -10.687   9.619  71.240  1.00  0.00    -0.335 OA 
HETATM    9  H   UNL     1     -11.582   9.505  71.538  1.00  0.00     0.000 HD 
BRANCH   7  10
HETATM   10  C   UNL     1     -11.525  11.215  69.615  1.00  0.00    -0.310 C  
BRANCH  10  11
HETATM   11  O   UNL     1     -12.168  11.129  68.333  1.00  0.00    -0.610 OA 
BRANCH  11  12
HETATM   12  C   UNL     1     -11.865  12.147  67.469  1.00  0.00    -0.237 A  
HETATM   13  C   UNL     1     -11.520  11.974  66.128  1.00  0.00    -0.401 A  
HETATM   14  C   UNL     1     -11.220  13.082  65.332  1.00  0.00    -0.317 A  
HETATM   15  C   UNL     1     -11.270  14.380  65.859  1.00  0.00    -0.324 A  
HETATM   16  C   UNL     1     -11.649  14.550  67.193  1.00  0.00    -0.406 A  
HETATM   17  C   UNL     1     -11.954  13.438  67.991  1.00  0.00    -0.357 A  
BRANCH  15  18
HETATM   18  C   UNL     1     -10.901  15.556  64.993  1.00  0.00    -0.450 C  
BRANCH  18  19
HETATM   19  O   UNL     1     -10.440  16.610  65.833  1.00  0.00    -0.342 OA 
BRANCH  19  20
HETATM   20  C   UNL     1      -9.040  16.517  66.090  1.00  0.00    -0.306 C  
BRANCH  20  21
HETATM   21  C   UNL     1      -8.765  17.126  67.460  1.00  0.00    -0.207 C  
BRANCH  21  22
HETATM   22  O   UNL     1      -9.926  17.803  67.938  1.00  0.00    -0.294 OA 
BRANCH  22  23
HETATM   23  C   UNL     1      -9.708  19.197  68.192  1.00  0.00    -0.361 C  
HETATM   24  C   UNL     1      -8.236  19.502  68.452  1.00  0.00    -0.379 C  
HETATM   25  C   UNL     1     -10.187  19.958  66.960  1.00  0.00    -0.588 C  
ENDBRANCH  22  23
ENDBRANCH  21  22
ENDBRANCH  20  21
ENDBRANCH  19  20
ENDBRANCH  18  19
ENDBRANCH  15  18
ENDBRANCH  11  12
ENDBRANCH  10  11
ENDBRANCH   7  10
ENDBRANCH   6   7
ENDBRANCH   4   6
ENDBRANCH   2   4
TORSDOF 12
ENDMDL
MODEL       56
REMARK 921   NORMALIZED FREE ENERGY PREDICTED BY IDOCK:   -4.82 KCAL/MOL
REMARK 922        TOTAL FREE ENERGY PREDICTED BY IDOCK:   -9.23 KCAL/MOL
REMARK 923 INTER-LIGAND FREE ENERGY PREDICTED BY IDOCK:   -7.78 KCAL/MOL
REMARK 924 INTRA-LIGAND FREE ENERGY PREDICTED BY IDOCK:   -1.45 KCAL/MOL
REMARK 927      BINDING AFFINITY PREDICTED BY RF-SCORE:    0.00 PKD
ROOT
HETATM    1  C   UNL     1     -10.128   4.872  69.556  1.00  0.00    -0.286 C  
HETATM    2  C   UNL     1     -10.519   6.266  69.057  1.00  0.00    -0.237 C  
HETATM    3  C   UNL     1     -10.759   6.218  67.547  1.00  0.00    -0.398 C  
ENDROOT
BRANCH   2   4
HETATM    4  N   UNL     1     -11.713   6.700  69.784  1.00  0.00    -0.650 NA 
HETATM    5  H   UNL     1     -12.404   5.950  69.824  1.00  0.00     0.000 HD 
BRANCH   4   6
HETATM    6  C   UNL     1     -11.425   7.213  71.130  1.00  0.00    -0.290 C  
BRANCH   6   7
HETATM    7  C   UNL     1     -12.428   8.322  71.499  1.00  0.00    -0.312 C  
HETATM    8  O   UNL     1     -12.606   8.353  72.924  1.00  0.00    -0.636 OA 
HETATM    9  H   UNL     1     -13.225   9.037  73.151  1.00  0.00     0.000 HD 
BRANCH   7  10
HETATM   10  C   UNL     1     -11.964   9.696  71.007  1.00  0.00    -0.343 C  
BRANCH  10  11
HETATM   11  O   UNL     1     -10.622   9.590  70.503  1.00  0.00    -0.251 OA 
BRANCH  11  12
HETATM   12  C   UNL     1     -10.457  10.022  69.214  1.00  0.00    -0.225 A  
HETATM   13  C   UNL     1     -11.398  10.759  68.496  1.00  0.00    -0.360 A  
HETATM   14  C   UNL     1     -11.134  11.143  67.179  1.00  0.00    -0.352 A  
HETATM   15  C   UNL     1      -9.921  10.807  66.562  1.00  0.00    -0.260 A  
HETATM   16  C   UNL     1      -8.967  10.097  67.297  1.00  0.00    -0.144 A  
HETATM   17  C   UNL     1      -9.232   9.715  68.620  1.00  0.00    -0.136 A  
BRANCH  15  18
HETATM   18  C   UNL     1      -9.676  11.195  65.127  1.00  0.00    -0.250 C  
BRANCH  18  19
HETATM   19  O   UNL     1     -10.934  11.415  64.497  1.00  0.00    -0.326 OA 
BRANCH  19  20
HETATM   20  C   UNL     1     -10.928  12.585  63.681  1.00  0.00    -0.456 C  
BRANCH  20  21
HETATM   21  C   UNL     1     -12.097  13.468  64.104  1.00  0.00    -0.435 C  
BRANCH  21  22
HETATM   22  O   UNL     1     -11.631  14.777  64.424  1.00  0.00    -0.364 OA 
BRANCH  22  23
HETATM   23  C   UNL     1     -10.870  14.830  65.638  1.00  0.00    -0.339 C  
HETATM   24  C   UNL     1     -10.115  16.150  65.777  1.00  0.00    -0.390 C  
HETATM   25  C   UNL     1     -11.854  14.671  66.792  1.00  0.00    -0.334 C  
ENDBRANCH  22  23
ENDBRANCH  21  22
ENDBRANCH  20  21
ENDBRANCH  19  20
ENDBRANCH  18  19
ENDBRANCH  15  18
ENDBRANCH  11  12
ENDBRANCH  10  11
ENDBRANCH   7  10
ENDBRANCH   6   7
ENDBRANCH   4   6
ENDBRANCH   2   4
TORSDOF 12
ENDMDL
MODEL       57
REMARK 921   NORMALIZED FREE ENERGY PREDICTED BY IDOCK:   -4.82 KCAL/MOL
REMARK 922        TOTAL FREE ENERGY PREDICTED BY IDOCK:   -9.22 KCAL/MOL
REMARK 923 INTER-LIGAND FREE ENERGY PREDICTED BY IDOCK:   -7.83 KCAL/MOL
REMARK 924 INTRA-LIGAND FREE ENERGY PREDICTED BY IDOCK:   -1.39 KCAL/MOL
REMARK 927      BINDING AFFINITY PREDICTED BY RF-SCORE:    0.00 PKD
ROOT
HETATM    1  C   UNL     1     -12.754  12.056  64.038  1.00  0.00    -0.415 C  
HETATM    2  C   UNL     1     -11.331  12.322  63.539  1.00  0.00    -0.470 C  
HETATM    3  C   UNL     1     -10.563  13.127  64.590  1.00  0.00    -0.410 C  
ENDROOT
BRANCH   2   4
HETATM    4  N   UNL     1     -10.689  11.035  63.265  1.00  0.00    -0.752 NA 
HETATM    5  H   UNL     1     -10.602  10.881  62.261  1.00  0.00     0.000 HD 
BRANCH   4   6
HETATM    6  C   UNL     1      -9.388  10.877  63.930  1.00  0.00    -0.240 C  
BRANCH   6   7
HETATM    7  C   UNL     1      -9.368   9.574  64.750  1.00  0.00    -0.169 C  
HETATM    8  O   UNL     1      -8.708   8.544  63.997  1.00  0.00    -0.411 OA 
HETATM    9  H   UNL     1      -8.696   7.740  64.504  1.00  0.00     0.000 HD 
BRANCH   7  10
HETATM   10  C   UNL     1      -8.662   9.761  66.097  1.00  0.00    -0.136 C  
BRANCH  10  11
HETATM   11  O   UNL     1      -9.633   9.695  67.154  1.00  0.00    -0.156 OA 
BRANCH  11  12
HETATM   12  C   UNL     1     -10.136  10.906  67.548  1.00  0.00    -0.184 A  
HETATM   13  C   UNL     1     -11.493  11.197  67.685  1.00  0.00    -0.328 A  
HETATM   14  C   UNL     1     -11.902  12.470  68.087  1.00  0.00    -0.371 A  
HETATM   15  C   UNL     1     -10.962  13.472  68.368  1.00  0.00    -0.289 A  
HETATM   16  C   UNL     1      -9.602  13.166  68.261  1.00  0.00    -0.218 A  
HETATM   17  C   UNL     1      -9.193  11.886  67.862  1.00  0.00    -0.187 A  
BRANCH  15  18
HETATM   18  C   UNL     1     -11.428  14.850  68.758  1.00  0.00    -0.307 C  
BRANCH  18  19
HETATM   19  O   UNL     1     -10.690  15.271  69.901  1.00  0.00    -0.259 OA 
BRANCH  19  20
HETATM   20  C   UNL     1     -11.432  16.175  70.716  1.00  0.00    -0.378 C  
BRANCH  20  21
HETATM   21  C   UNL     1     -12.908  15.810  70.612  1.00  0.00    -0.220 C  
BRANCH  21  22
HETATM   22  O   UNL     1     -13.433  15.514  71.905  1.00  0.00    -0.434 OA 
BRANCH  22  23
HETATM   23  C   UNL     1     -12.674  14.528  72.616  1.00  0.00    -0.357 C  
HETATM   24  C   UNL     1     -12.436  14.934  74.068  1.00  0.00    -0.516 C  
HETATM   25  C   UNL     1     -13.469  13.227  72.564  1.00  0.00    -0.620 C  
ENDBRANCH  22  23
ENDBRANCH  21  22
ENDBRANCH  20  21
ENDBRANCH  19  20
ENDBRANCH  18  19
ENDBRANCH  15  18
ENDBRANCH  11  12
ENDBRANCH  10  11
ENDBRANCH   7  10
ENDBRANCH   6   7
ENDBRANCH   4   6
ENDBRANCH   2   4
TORSDOF 12
ENDMDL
MODEL       58
REMARK 921   NORMALIZED FREE ENERGY PREDICTED BY IDOCK:   -4.81 KCAL/MOL
REMARK 922        TOTAL FREE ENERGY PREDICTED BY IDOCK:   -9.21 KCAL/MOL
REMARK 923 INTER-LIGAND FREE ENERGY PREDICTED BY IDOCK:   -7.93 KCAL/MOL
REMARK 924 INTRA-LIGAND FREE ENERGY PREDICTED BY IDOCK:   -1.28 KCAL/MOL
REMARK 927      BINDING AFFINITY PREDICTED BY RF-SCORE:    0.00 PKD
ROOT
HETATM    1  C   UNL     1     -12.960  14.592  73.301  1.00  0.00    -0.569 C  
HETATM    2  C   UNL     1     -13.631  13.761  72.205  1.00  0.00    -0.559 C  
HETATM    3  C   UNL     1     -13.081  14.178  70.839  1.00  0.00    -0.338 C  
ENDROOT
BRANCH   2   4
HETATM    4  N   UNL     1     -13.384  12.345  72.481  1.00  0.00    -0.539 NA 
HETATM    5  H   UNL     1     -14.222  11.897  72.852  1.00  0.00     0.000 HD 
BRANCH   4   6
HETATM    6  C   UNL     1     -12.868  11.604  71.322  1.00  0.00    -0.328 C  
BRANCH   6   7
HETATM    7  C   UNL     1     -12.623  10.132  71.702  1.00  0.00    -0.434 C  
HETATM    8  O   UNL     1     -13.585   9.299  71.036  1.00  0.00    -0.569 OA 
HETATM    9  H   UNL     1     -13.434   8.390  71.271  1.00  0.00     0.000 HD 
BRANCH   7  10
HETATM   10  C   UNL     1     -11.206   9.678  71.336  1.00  0.00    -0.356 C  
BRANCH  10  11
HETATM   11  O   UNL     1     -11.277   8.718  70.269  1.00  0.00    -0.253 OA 
BRANCH  11  12
HETATM   12  C   UNL     1     -10.689   9.116  69.098  1.00  0.00    -0.172 A  
HETATM   13  C   UNL     1     -10.680   8.370  67.920  1.00  0.00    -0.141 A  
HETATM   14  C   UNL     1     -10.043   8.865  66.780  1.00  0.00    -0.350 A  
HETATM   15  C   UNL     1      -9.414  10.118  66.795  1.00  0.00    -0.205 A  
HETATM   16  C   UNL     1      -9.455  10.877  67.969  1.00  0.00    -0.167 A  
HETATM   17  C   UNL     1     -10.098  10.380  69.111  1.00  0.00    -0.236 A  
BRANCH  15  18
HETATM   18  C   UNL     1      -8.696  10.612  65.566  1.00  0.00    -0.188 C  
BRANCH  18  19
HETATM   19  O   UNL     1      -9.325  10.051  64.418  1.00  0.00    -0.256 OA 
BRANCH  19  20
HETATM   20  C   UNL     1      -9.466  11.002  63.365  1.00  0.00    -0.310 C  
BRANCH  20  21
HETATM   21  C   UNL     1     -10.682  11.870  63.664  1.00  0.00    -0.442 C  
BRANCH  21  22
HETATM   22  O   UNL     1     -10.269  13.191  64.008  1.00  0.00    -0.369 OA 
BRANCH  22  23
HETATM   23  C   UNL     1     -10.915  13.704  65.181  1.00  0.00    -0.330 C  
HETATM   24  C   UNL     1     -11.936  12.719  65.741  1.00  0.00    -0.502 C  
HETATM   25  C   UNL     1      -9.826  13.968  66.215  1.00  0.00    -0.318 C  
ENDBRANCH  22  23
ENDBRANCH  21  22
ENDBRANCH  20  21
ENDBRANCH  19  20
ENDBRANCH  18  19
ENDBRANCH  15  18
ENDBRANCH  11  12
ENDBRANCH  10  11
ENDBRANCH   7  10
ENDBRANCH   6   7
ENDBRANCH   4   6
ENDBRANCH   2   4
TORSDOF 12
ENDMDL
MODEL       59
REMARK 921   NORMALIZED FREE ENERGY PREDICTED BY IDOCK:   -4.80 KCAL/MOL
REMARK 922        TOTAL FREE ENERGY PREDICTED BY IDOCK:   -9.19 KCAL/MOL
REMARK 923 INTER-LIGAND FREE ENERGY PREDICTED BY IDOCK:   -8.62 KCAL/MOL
REMARK 924 INTRA-LIGAND FREE ENERGY PREDICTED BY IDOCK:   -0.57 KCAL/MOL
REMARK 927      BINDING AFFINITY PREDICTED BY RF-SCORE:    0.00 PKD
ROOT
HETATM    1  C   UNL     1     -11.681  13.718  65.545  1.00  0.00    -0.356 C  
HETATM    2  C   UNL     1     -11.435  12.544  64.594  1.00  0.00    -0.327 C  
HETATM    3  C   UNL     1     -12.390  12.644  63.402  1.00  0.00    -0.553 C  
ENDROOT
BRANCH   2   4
HETATM    4  N   UNL     1     -10.034  12.575  64.172  1.00  0.00    -0.584 NA 
HETATM    5  H   UNL     1      -9.413  12.580  64.981  1.00  0.00     0.000 HD 
BRANCH   4   6
HETATM    6  C   UNL     1      -9.676  11.489  63.249  1.00  0.00    -0.385 C  
BRANCH   6   7
HETATM    7  C   UNL     1      -9.786  10.130  63.964  1.00  0.00    -0.206 C  
HETATM    8  O   UNL     1      -9.109   9.126  63.192  1.00  0.00    -0.428 OA 
HETATM    9  H   UNL     1      -9.176   8.287  63.633  1.00  0.00     0.000 HD 
BRANCH   7  10
HETATM   10  C   UNL     1      -9.192  10.181  65.376  1.00  0.00    -0.202 C  
BRANCH  10  11
HETATM   11  O   UNL     1      -9.671   9.057  66.132  1.00  0.00    -0.254 OA 
BRANCH  11  12
HETATM   12  C   UNL     1     -10.210   9.372  67.351  1.00  0.00    -0.239 A  
HETATM   13  C   UNL     1     -10.018   8.633  68.518  1.00  0.00    -0.201 A  
HETATM   14  C   UNL     1     -10.622   9.037  69.711  1.00  0.00    -0.236 A  
HETATM   15  C   UNL     1     -11.417  10.191  69.761  1.00  0.00    -0.288 A  
HETATM   16  C   UNL     1     -11.579  10.946  68.595  1.00  0.00    -0.373 A  
HETATM   17  C   UNL     1     -10.969  10.541  67.399  1.00  0.00    -0.352 A  
BRANCH  15  18
HETATM   18  C   UNL     1     -12.092  10.583  71.049  1.00  0.00    -0.387 C  
BRANCH  18  19
HETATM   19  O   UNL     1     -12.476  11.952  70.960  1.00  0.00    -0.369 OA 
BRANCH  19  20
HETATM   20  C   UNL     1     -13.357  12.331  72.015  1.00  0.00    -0.386 C  
BRANCH  20  21
HETATM   21  C   UNL     1     -13.527  13.846  71.974  1.00  0.00    -0.455 C  
BRANCH  21  22
HETATM   22  O   UNL     1     -13.491  14.379  73.297  1.00  0.00    -0.574 OA 
BRANCH  22  23
HETATM   23  C   UNL     1     -12.253  15.027  73.617  1.00  0.00    -0.472 C  
HETATM   24  C   UNL     1     -11.443  15.351  72.365  1.00  0.00    -0.475 C  
HETATM   25  C   UNL     1     -12.599  16.313  74.360  1.00  0.00    -0.523 C  
ENDBRANCH  22  23
ENDBRANCH  21  22
ENDBRANCH  20  21
ENDBRANCH  19  20
ENDBRANCH  18  19
ENDBRANCH  15  18
ENDBRANCH  11  12
ENDBRANCH  10  11
ENDBRANCH   7  10
ENDBRANCH   6   7
ENDBRANCH   4   6
ENDBRANCH   2   4
TORSDOF 12
ENDMDL
MODEL       60
REMARK 921   NORMALIZED FREE ENERGY PREDICTED BY IDOCK:   -4.80 KCAL/MOL
REMARK 922        TOTAL FREE ENERGY PREDICTED BY IDOCK:   -9.19 KCAL/MOL
REMARK 923 INTER-LIGAND FREE ENERGY PREDICTED BY IDOCK:   -8.02 KCAL/MOL
REMARK 924 INTRA-LIGAND FREE ENERGY PREDICTED BY IDOCK:   -1.17 KCAL/MOL
REMARK 927      BINDING AFFINITY PREDICTED BY RF-SCORE:    0.00 PKD
ROOT
HETATM    1  C   UNL     1      -9.835   5.266  72.275  1.00  0.00    -0.209 C  
HETATM    2  C   UNL     1     -11.063   6.168  72.131  1.00  0.00    -0.275 C  
HETATM    3  C   UNL     1     -10.790   7.514  72.808  1.00  0.00    -0.397 C  
ENDROOT
BRANCH   2   4
HETATM    4  N   UNL     1     -11.357   6.327  70.706  1.00  0.00    -0.333 NA 
HETATM    5  H   UNL     1     -11.557   7.302  70.485  1.00  0.00     0.000 HD 
BRANCH   4   6
HETATM    6  C   UNL     1     -10.302   5.800  69.828  1.00  0.00    -0.263 C  
BRANCH   6   7
HETATM    7  C   UNL     1     -10.296   6.565  68.493  1.00  0.00    -0.192 C  
HETATM    8  O   UNL     1     -11.617   6.556  67.929  1.00  0.00    -0.623 OA 
HETATM    9  H   UNL     1     -11.613   7.028  67.104  1.00  0.00     0.000 HD 
BRANCH   7  10
HETATM   10  C   UNL     1      -9.819   8.011  68.667  1.00  0.00    -0.174 C  
BRANCH  10  11
HETATM   11  O   UNL     1     -10.734   8.710  69.526  1.00  0.00    -0.228 OA 
BRANCH  11  12
HETATM   12  C   UNL     1     -11.030   9.988  69.132  1.00  0.00    -0.220 A  
HETATM   13  C   UNL     1     -10.922  10.461  67.825  1.00  0.00    -0.369 A  
HETATM   14  C   UNL     1     -11.241  11.788  67.529  1.00  0.00    -0.354 A  
HETATM   15  C   UNL     1     -11.683  12.662  68.533  1.00  0.00    -0.372 A  
HETATM   16  C   UNL     1     -11.822  12.174  69.835  1.00  0.00    -0.392 A  
HETATM   17  C   UNL     1     -11.504  10.840  70.130  1.00  0.00    -0.415 A  
BRANCH  15  18
HETATM   18  C   UNL     1     -11.981  14.100  68.198  1.00  0.00    -0.332 C  
BRANCH  18  19
HETATM   19  O   UNL     1     -12.055  14.229  66.782  1.00  0.00    -0.430 OA 
BRANCH  19  20
HETATM   20  C   UNL     1     -11.081  15.138  66.274  1.00  0.00    -0.309 C  
BRANCH  20  21
HETATM   21  C   UNL     1     -10.747  14.730  64.843  1.00  0.00    -0.417 C  
BRANCH  21  22
HETATM   22  O   UNL     1     -10.389  13.350  64.798  1.00  0.00    -0.378 OA 
BRANCH  22  23
HETATM   23  C   UNL     1     -10.864  12.676  63.625  1.00  0.00    -0.395 C  
HETATM   24  C   UNL     1      -9.919  11.559  63.191  1.00  0.00    -0.404 C  
HETATM   25  C   UNL     1     -12.234  12.097  63.963  1.00  0.00    -0.544 C  
ENDBRANCH  22  23
ENDBRANCH  21  22
ENDBRANCH  20  21
ENDBRANCH  19  20
ENDBRANCH  18  19
ENDBRANCH  15  18
ENDBRANCH  11  12
ENDBRANCH  10  11
ENDBRANCH   7  10
ENDBRANCH   6   7
ENDBRANCH   4   6
ENDBRANCH   2   4
TORSDOF 12
ENDMDL
MODEL       61
REMARK 921   NORMALIZED FREE ENERGY PREDICTED BY IDOCK:   -4.79 KCAL/MOL
REMARK 922        TOTAL FREE ENERGY PREDICTED BY IDOCK:   -9.17 KCAL/MOL
REMARK 923 INTER-LIGAND FREE ENERGY PREDICTED BY IDOCK:   -8.41 KCAL/MOL
REMARK 924 INTRA-LIGAND FREE ENERGY PREDICTED BY IDOCK:   -0.76 KCAL/MOL
REMARK 927      BINDING AFFINITY PREDICTED BY RF-SCORE:    0.00 PKD
ROOT
HETATM    1  C   UNL     1      -6.822  20.582  67.846  1.00  0.00    -0.338 C  
HETATM    2  C   UNL     1      -7.480  19.315  67.294  1.00  0.00    -0.231 C  
HETATM    3  C   UNL     1      -6.421  18.225  67.115  1.00  0.00    -0.191 C  
ENDROOT
BRANCH   2   4
HETATM    4  N   UNL     1      -8.535  18.900  68.220  1.00  0.00    -0.318 NA 
HETATM    5  H   UNL     1      -8.266  19.095  69.184  1.00  0.00     0.000 HD 
BRANCH   4   6
HETATM    6  C   UNL     1      -9.846  19.491  67.916  1.00  0.00    -0.379 C  
BRANCH   6   7
HETATM    7  C   UNL     1     -10.741  18.456  67.209  1.00  0.00    -0.353 C  
HETATM    8  O   UNL     1     -10.403  18.405  65.814  1.00  0.00    -0.588 OA 
HETATM    9  H   UNL     1     -10.955  17.766  65.378  1.00  0.00     0.000 HD 
BRANCH   7  10
HETATM   10  C   UNL     1     -10.595  17.062  67.827  1.00  0.00    -0.350 C  
BRANCH  10  11
HETATM   11  O   UNL     1     -10.588  17.176  69.259  1.00  0.00    -0.326 OA 
BRANCH  11  12
HETATM   12  C   UNL     1     -11.235  16.165  69.919  1.00  0.00    -0.349 A  
HETATM   13  C   UNL     1     -11.573  16.188  71.272  1.00  0.00    -0.470 A  
HETATM   14  C   UNL     1     -12.227  15.098  71.851  1.00  0.00    -0.431 A  
HETATM   15  C   UNL     1     -12.562  13.972  71.087  1.00  0.00    -0.445 A  
HETATM   16  C   UNL     1     -12.251  13.967  69.724  1.00  0.00    -0.396 A  
HETATM   17  C   UNL     1     -11.598  15.064  69.143  1.00  0.00    -0.333 A  
BRANCH  15  18
HETATM   18  C   UNL     1     -13.228  12.791  71.743  1.00  0.00    -0.374 C  
BRANCH  18  19
HETATM   19  O   UNL     1     -12.705  11.598  71.165  1.00  0.00    -0.381 OA 
BRANCH  19  20
HETATM   20  C   UNL     1     -13.271  10.427  71.749  1.00  0.00    -0.424 C  
BRANCH  20  21
HETATM   21  C   UNL     1     -12.456   9.223  71.290  1.00  0.00    -0.316 C  
BRANCH  21  22
HETATM   22  O   UNL     1     -11.429   8.937  72.238  1.00  0.00    -0.348 OA 
BRANCH  22  23
HETATM   23  C   UNL     1     -10.954   7.586  72.172  1.00  0.00    -0.250 C  
HETATM   24  C   UNL     1     -10.417   7.108  73.518  1.00  0.00    -0.422 C  
HETATM   25  C   UNL     1     -12.131   6.716  71.744  1.00  0.00    -0.400 C  
ENDBRANCH  22  23
ENDBRANCH  21  22
ENDBRANCH  20  21
ENDBRANCH  19  20
ENDBRANCH  18  19
ENDBRANCH  15  18
ENDBRANCH  11  12
ENDBRANCH  10  11
ENDBRANCH   7  10
ENDBRANCH   6   7
ENDBRANCH   4   6
ENDBRANCH   2   4
TORSDOF 12
ENDMDL
MODEL       62
REMARK 921   NORMALIZED FREE ENERGY PREDICTED BY IDOCK:   -4.79 KCAL/MOL
REMARK 922        TOTAL FREE ENERGY PREDICTED BY IDOCK:   -9.17 KCAL/MOL
REMARK 923 INTER-LIGAND FREE ENERGY PREDICTED BY IDOCK:   -7.73 KCAL/MOL
REMARK 924 INTRA-LIGAND FREE ENERGY PREDICTED BY IDOCK:   -1.44 KCAL/MOL
REMARK 927      BINDING AFFINITY PREDICTED BY RF-SCORE:    0.00 PKD
ROOT
HETATM    1  C   UNL     1     -12.780  12.226  64.193  1.00  0.00    -0.431 C  
HETATM    2  C   UNL     1     -11.422  12.383  63.505  1.00  0.00    -0.483 C  
HETATM    3  C   UNL     1     -10.525  13.293  64.350  1.00  0.00    -0.424 C  
ENDROOT
BRANCH   2   4
HETATM    4  N   UNL     1     -10.835  11.054  63.329  1.00  0.00    -0.757 NA 
HETATM    5  H   UNL     1     -10.584  10.896  62.353  1.00  0.00     0.000 HD 
BRANCH   4   6
HETATM    6  C   UNL     1      -9.685  10.800  64.209  1.00  0.00    -0.302 C  
BRANCH   6   7
HETATM    7  C   UNL     1     -10.091   9.846  65.347  1.00  0.00    -0.200 C  
HETATM    8  O   UNL     1      -9.344   8.624  65.237  1.00  0.00    -0.432 OA 
HETATM    9  H   UNL     1      -9.595   8.035  65.939  1.00  0.00     0.000 HD 
BRANCH   7  10
HETATM   10  C   UNL     1      -9.856  10.472  66.725  1.00  0.00    -0.193 C  
BRANCH  10  11
HETATM   11  O   UNL     1     -11.046  11.158  67.143  1.00  0.00    -0.282 OA 
BRANCH  11  12
HETATM   12  C   UNL     1     -10.847  12.442  67.577  1.00  0.00    -0.236 A  
HETATM   13  C   UNL     1     -11.862  13.372  67.799  1.00  0.00    -0.395 A  
HETATM   14  C   UNL     1     -11.550  14.662  68.235  1.00  0.00    -0.353 A  
HETATM   15  C   UNL     1     -10.220  15.040  68.467  1.00  0.00    -0.227 A  
HETATM   16  C   UNL     1      -9.209  14.094  68.276  1.00  0.00    -0.198 A  
HETATM   17  C   UNL     1      -9.524  12.798  67.842  1.00  0.00    -0.208 A  
BRANCH  15  18
HETATM   18  C   UNL     1      -9.905  16.449  68.896  1.00  0.00    -0.260 C  
BRANCH  18  19
HETATM   19  O   UNL     1     -10.934  17.309  68.416  1.00  0.00    -0.312 OA 
BRANCH  19  20
HETATM   20  C   UNL     1     -10.410  18.435  67.715  1.00  0.00    -0.405 C  
BRANCH  20  21
HETATM   21  C   UNL     1     -10.206  18.037  66.258  1.00  0.00    -0.381 C  
BRANCH  21  22
HETATM   22  O   UNL     1      -9.094  18.742  65.708  1.00  0.00    -0.391 OA 
BRANCH  22  23
HETATM   23  C   UNL     1      -7.883  18.567  66.455  1.00  0.00    -0.271 C  
HETATM   24  C   UNL     1      -7.289  17.176  66.253  1.00  0.00    -0.326 C  
HETATM   25  C   UNL     1      -6.900  19.627  65.969  1.00  0.00    -0.266 C  
ENDBRANCH  22  23
ENDBRANCH  21  22
ENDBRANCH  20  21
ENDBRANCH  19  20
ENDBRANCH  18  19
ENDBRANCH  15  18
ENDBRANCH  11  12
ENDBRANCH  10  11
ENDBRANCH   7  10
ENDBRANCH   6   7
ENDBRANCH   4   6
ENDBRANCH   2   4
TORSDOF 12
ENDMDL
MODEL       63
REMARK 921   NORMALIZED FREE ENERGY PREDICTED BY IDOCK:   -4.77 KCAL/MOL
REMARK 922        TOTAL FREE ENERGY PREDICTED BY IDOCK:   -9.14 KCAL/MOL
REMARK 923 INTER-LIGAND FREE ENERGY PREDICTED BY IDOCK:   -8.13 KCAL/MOL
REMARK 924 INTRA-LIGAND FREE ENERGY PREDICTED BY IDOCK:   -1.01 KCAL/MOL
REMARK 927      BINDING AFFINITY PREDICTED BY RF-SCORE:    0.00 PKD
ROOT
HETATM    1  C   UNL     1     -11.058   6.772  67.122  1.00  0.00    -0.404 C  
HETATM    2  C   UNL     1     -10.563   6.134  68.422  1.00  0.00    -0.265 C  
HETATM    3  C   UNL     1      -9.213   6.743  68.808  1.00  0.00    -0.130 C  
ENDROOT
BRANCH   2   4
HETATM    4  N   UNL     1     -11.573   6.352  69.459  1.00  0.00    -0.616 NA 
HETATM    5  H   UNL     1     -12.433   5.850  69.237  1.00  0.00     0.000 HD 
BRANCH   4   6
HETATM    6  C   UNL     1     -11.107   6.015  70.811  1.00  0.00    -0.286 C  
BRANCH   6   7
HETATM    7  C   UNL     1     -12.141   6.472  71.856  1.00  0.00    -0.339 C  
HETATM    8  O   UNL     1     -11.470   6.801  73.082  1.00  0.00    -0.495 OA 
HETATM    9  H   UNL     1     -12.108   7.083  73.727  1.00  0.00     0.000 HD 
BRANCH   7  10
HETATM   10  C   UNL     1     -12.946   7.681  71.368  1.00  0.00    -0.311 C  
BRANCH  10  11
HETATM   11  O   UNL     1     -12.431   8.872  71.985  1.00  0.00    -0.342 OA 
BRANCH  11  12
HETATM   12  C   UNL     1     -12.134   9.887  71.114  1.00  0.00    -0.374 A  
HETATM   13  C   UNL     1     -11.326   9.754  69.985  1.00  0.00    -0.269 A  
HETATM   14  C   UNL     1     -11.078  10.857  69.165  1.00  0.00    -0.301 A  
HETATM   15  C   UNL     1     -11.641  12.108  69.453  1.00  0.00    -0.381 A  
HETATM   16  C   UNL     1     -12.478  12.228  70.567  1.00  0.00    -0.272 A  
HETATM   17  C   UNL     1     -12.729  11.119  71.387  1.00  0.00    -0.524 A  
BRANCH  15  18
HETATM   18  C   UNL     1     -11.325  13.293  68.578  1.00  0.00    -0.284 C  
BRANCH  18  19
HETATM   19  O   UNL     1     -11.800  13.023  67.263  1.00  0.00    -0.362 OA 
BRANCH  19  20
HETATM   20  C   UNL     1     -12.160  14.215  66.567  1.00  0.00    -0.454 C  
BRANCH  20  21
HETATM   21  C   UNL     1     -11.505  14.182  65.192  1.00  0.00    -0.336 C  
BRANCH  21  22
HETATM   22  O   UNL     1     -10.832  15.415  64.939  1.00  0.00    -0.421 OA 
BRANCH  22  23
HETATM   23  C   UNL     1     -10.288  16.019  66.120  1.00  0.00    -0.328 C  
HETATM   24  C   UNL     1      -8.804  15.705  66.284  1.00  0.00    -0.364 C  
HETATM   25  C   UNL     1     -10.489  17.525  65.987  1.00  0.00    -0.274 C  
ENDBRANCH  22  23
ENDBRANCH  21  22
ENDBRANCH  20  21
ENDBRANCH  19  20
ENDBRANCH  18  19
ENDBRANCH  15  18
ENDBRANCH  11  12
ENDBRANCH  10  11
ENDBRANCH   7  10
ENDBRANCH   6   7
ENDBRANCH   4   6
ENDBRANCH   2   4
TORSDOF 12
ENDMDL
MODEL       64
REMARK 921   NORMALIZED FREE ENERGY PREDICTED BY IDOCK:   -4.77 KCAL/MOL
REMARK 922        TOTAL FREE ENERGY PREDICTED BY IDOCK:   -9.14 KCAL/MOL
REMARK 923 INTER-LIGAND FREE ENERGY PREDICTED BY IDOCK:   -7.82 KCAL/MOL
REMARK 924 INTRA-LIGAND FREE ENERGY PREDICTED BY IDOCK:   -1.31 KCAL/MOL
REMARK 927      BINDING AFFINITY PREDICTED BY RF-SCORE:    0.00 PKD
ROOT
HETATM    1  C   UNL     1      -9.178   8.509  65.774  1.00  0.00    -0.210 C  
HETATM    2  C   UNL     1      -9.948   8.925  67.030  1.00  0.00    -0.233 C  
HETATM    3  C   UNL     1     -10.778  10.175  66.729  1.00  0.00    -0.191 C  
ENDROOT
BRANCH   2   4
HETATM    4  N   UNL     1     -10.789   7.804  67.451  1.00  0.00    -0.528 NA 
HETATM    5  H   UNL     1     -11.118   7.275  66.643  1.00  0.00     0.000 HD 
BRANCH   4   6
HETATM    6  C   UNL     1     -10.137   6.915  68.423  1.00  0.00    -0.168 C  
BRANCH   6   7
HETATM    7  C   UNL     1     -11.188   6.299  69.364  1.00  0.00    -0.420 C  
HETATM    8  O   UNL     1     -10.631   5.147  70.016  1.00  0.00    -0.285 OA 
HETATM    9  H   UNL     1     -11.280   4.767  70.597  1.00  0.00     0.000 HD 
BRANCH   7  10
HETATM   10  C   UNL     1     -11.670   7.304  70.416  1.00  0.00    -0.182 C  
BRANCH  10  11
HETATM   11  O   UNL     1     -10.955   8.539  70.252  1.00  0.00    -0.242 OA 
BRANCH  11  12
HETATM   12  C   UNL     1     -11.631   9.654  70.672  1.00  0.00    -0.299 A  
HETATM   13  C   UNL     1     -11.461  10.933  70.141  1.00  0.00    -0.405 A  
HETATM   14  C   UNL     1     -12.196  12.007  70.648  1.00  0.00    -0.409 A  
HETATM   15  C   UNL     1     -13.120  11.820  71.686  1.00  0.00    -0.443 A  
HETATM   16  C   UNL     1     -13.310  10.531  72.192  1.00  0.00    -0.347 A  
HETATM   17  C   UNL     1     -12.574   9.453  71.680  1.00  0.00    -0.460 A  
BRANCH  15  18
HETATM   18  C   UNL     1     -13.869  13.000  72.245  1.00  0.00    -0.434 C  
BRANCH  18  19
HETATM   19  O   UNL     1     -13.372  14.185  71.630  1.00  0.00    -0.329 OA 
BRANCH  19  20
HETATM   20  C   UNL     1     -12.899  15.129  72.589  1.00  0.00    -0.386 C  
BRANCH  20  21
HETATM   21  C   UNL     1     -11.945  16.087  71.885  1.00  0.00    -0.525 C  
BRANCH  21  22
HETATM   22  O   UNL     1     -10.984  15.353  71.127  1.00  0.00    -0.345 OA 
BRANCH  22  23
HETATM   23  C   UNL     1     -10.641  15.978  69.884  1.00  0.00    -0.314 C  
HETATM   24  C   UNL     1      -9.260  15.549  69.396  1.00  0.00    -0.280 C  
HETATM   25  C   UNL     1     -11.701  15.568  68.867  1.00  0.00    -0.385 C  
ENDBRANCH  22  23
ENDBRANCH  21  22
ENDBRANCH  20  21
ENDBRANCH  19  20
ENDBRANCH  18  19
ENDBRANCH  15  18
ENDBRANCH  11  12
ENDBRANCH  10  11
ENDBRANCH   7  10
ENDBRANCH   6   7
ENDBRANCH   4   6
ENDBRANCH   2   4
TORSDOF 12
ENDMDL
MODEL       65
REMARK 921   NORMALIZED FREE ENERGY PREDICTED BY IDOCK:   -4.76 KCAL/MOL
REMARK 922        TOTAL FREE ENERGY PREDICTED BY IDOCK:   -9.12 KCAL/MOL
REMARK 923 INTER-LIGAND FREE ENERGY PREDICTED BY IDOCK:   -8.19 KCAL/MOL
REMARK 924 INTRA-LIGAND FREE ENERGY PREDICTED BY IDOCK:   -0.93 KCAL/MOL
REMARK 927      BINDING AFFINITY PREDICTED BY RF-SCORE:    0.00 PKD
ROOT
HETATM    1  C   UNL     1     -12.497  13.539  65.473  1.00  0.00    -0.538 C  
HETATM    2  C   UNL     1     -11.805  12.285  64.934  1.00  0.00    -0.358 C  
HETATM    3  C   UNL     1     -12.258  12.032  63.494  1.00  0.00    -0.653 C  
ENDROOT
BRANCH   2   4
HETATM    4  N   UNL     1     -10.357  12.481  65.022  1.00  0.00    -0.294 NA 
HETATM    5  H   UNL     1     -10.096  12.837  65.941  1.00  0.00     0.000 HD 
BRANCH   4   6
HETATM    6  C   UNL     1      -9.583  11.277  64.691  1.00  0.00    -0.231 C  
BRANCH   6   7
HETATM    7  C   UNL     1     -10.007  10.109  65.599  1.00  0.00    -0.279 C  
HETATM    8  O   UNL     1      -9.757   8.864  64.928  1.00  0.00    -0.267 OA 
HETATM    9  H   UNL     1     -10.019   8.143  65.489  1.00  0.00     0.000 HD 
BRANCH   7  10
HETATM   10  C   UNL     1      -9.264  10.131  66.939  1.00  0.00    -0.146 C  
BRANCH  10  11
HETATM   11  O   UNL     1      -9.799   9.108  67.794  1.00  0.00    -0.159 OA 
BRANCH  11  12
HETATM   12  C   UNL     1     -10.565   9.569  68.831  1.00  0.00    -0.216 A  
HETATM   13  C   UNL     1     -10.578   9.021  70.114  1.00  0.00    -0.250 A  
HETATM   14  C   UNL     1     -11.405   9.563  71.101  1.00  0.00    -0.440 A  
HETATM   15  C   UNL     1     -12.224  10.667  70.826  1.00  0.00    -0.474 A  
HETATM   16  C   UNL     1     -12.183  11.233  69.548  1.00  0.00    -0.325 A  
HETATM   17  C   UNL     1     -11.350  10.690  68.559  1.00  0.00    -0.348 A  
BRANCH  15  18
HETATM   18  C   UNL     1     -13.139  11.207  71.893  1.00  0.00    -0.408 C  
BRANCH  18  19
HETATM   19  O   UNL     1     -12.914  12.608  72.016  1.00  0.00    -0.344 OA 
BRANCH  19  20
HETATM   20  C   UNL     1     -14.119  13.325  72.275  1.00  0.00    -0.354 C  
BRANCH  20  21
HETATM   21  C   UNL     1     -13.795  14.814  72.289  1.00  0.00    -0.485 C  
BRANCH  21  22
HETATM   22  O   UNL     1     -13.774  15.324  70.956  1.00  0.00    -0.448 OA 
BRANCH  22  23
HETATM   23  C   UNL     1     -12.478  15.771  70.538  1.00  0.00    -0.332 C  
HETATM   24  C   UNL     1     -11.487  15.799  71.697  1.00  0.00    -0.495 C  
HETATM   25  C   UNL     1     -11.995  14.803  69.463  1.00  0.00    -0.351 C  
ENDBRANCH  22  23
ENDBRANCH  21  22
ENDBRANCH  20  21
ENDBRANCH  19  20
ENDBRANCH  18  19
ENDBRANCH  15  18
ENDBRANCH  11  12
ENDBRANCH  10  11
ENDBRANCH   7  10
ENDBRANCH   6   7
ENDBRANCH   4   6
ENDBRANCH   2   4
TORSDOF 12
ENDMDL
MODEL       66
REMARK 921   NORMALIZED FREE ENERGY PREDICTED BY IDOCK:   -4.73 KCAL/MOL
REMARK 922        TOTAL FREE ENERGY PREDICTED BY IDOCK:   -9.07 KCAL/MOL
REMARK 923 INTER-LIGAND FREE ENERGY PREDICTED BY IDOCK:   -8.61 KCAL/MOL
REMARK 924 INTRA-LIGAND FREE ENERGY PREDICTED BY IDOCK:   -0.47 KCAL/MOL
REMARK 927      BINDING AFFINITY PREDICTED BY RF-SCORE:    0.00 PKD
ROOT
HETATM    1  C   UNL     1      -8.458   9.432  66.925  1.00  0.00    -0.128 C  
HETATM    2  C   UNL     1      -8.063  10.440  65.844  1.00  0.00    -0.149 C  
HETATM    3  C   UNL     1      -6.610  10.200  65.427  1.00  0.00    -0.120 C  
ENDROOT
BRANCH   2   4
HETATM    4  N   UNL     1      -8.983  10.292  64.714  1.00  0.00    -0.186 NA 
HETATM    5  H   UNL     1      -9.001   9.325  64.388  1.00  0.00     0.000 HD 
BRANCH   4   6
HETATM    6  C   UNL     1     -10.343  10.770  65.000  1.00  0.00    -0.287 C  
BRANCH   6   7
HETATM    7  C   UNL     1     -10.885  11.566  63.799  1.00  0.00    -0.416 C  
HETATM    8  O   UNL     1     -10.675  10.816  62.592  1.00  0.00    -0.703 OA 
HETATM    9  H   UNL     1     -11.010  11.307  61.851  1.00  0.00     0.000 HD 
BRANCH   7  10
HETATM   10  C   UNL     1     -12.376  11.884  63.954  1.00  0.00    -0.383 C  
BRANCH  10  11
HETATM   11  O   UNL     1     -12.587  13.287  63.726  1.00  0.00    -0.687 OA 
BRANCH  11  12
HETATM   12  C   UNL     1     -12.019  14.112  64.660  1.00  0.00    -0.445 A  
HETATM   13  C   UNL     1     -11.162  15.173  64.366  1.00  0.00    -0.181 A  
HETATM   14  C   UNL     1     -10.629  15.951  65.396  1.00  0.00    -0.439 A  
HETATM   15  C   UNL     1     -10.950  15.689  66.735  1.00  0.00    -0.230 A  
HETATM   16  C   UNL     1     -11.835  14.646  67.022  1.00  0.00    -0.358 A  
HETATM   17  C   UNL     1     -12.373  13.868  65.987  1.00  0.00    -0.511 A  
BRANCH  15  18
HETATM   18  C   UNL     1     -10.328  16.514  67.831  1.00  0.00    -0.294 C  
BRANCH  18  19
HETATM   19  O   UNL     1     -11.269  16.637  68.893  1.00  0.00    -0.295 OA 
BRANCH  19  20
HETATM   20  C   UNL     1     -10.908  15.846  70.024  1.00  0.00    -0.353 C  
BRANCH  20  21
HETATM   21  C   UNL     1     -12.075  15.853  71.004  1.00  0.00    -0.395 C  
BRANCH  21  22
HETATM   22  O   UNL     1     -12.281  14.544  71.531  1.00  0.00    -0.332 OA 
BRANCH  22  23
HETATM   23  C   UNL     1     -13.173  14.515  72.653  1.00  0.00    -0.481 C  
HETATM   24  C   UNL     1     -12.486  14.979  73.934  1.00  0.00    -0.660 C  
HETATM   25  C   UNL     1     -14.339  15.440  72.324  1.00  0.00    -0.576 C  
ENDBRANCH  22  23
ENDBRANCH  21  22
ENDBRANCH  20  21
ENDBRANCH  19  20
ENDBRANCH  18  19
ENDBRANCH  15  18
ENDBRANCH  11  12
ENDBRANCH  10  11
ENDBRANCH   7  10
ENDBRANCH   6   7
ENDBRANCH   4   6
ENDBRANCH   2   4
TORSDOF 12
ENDMDL
MODEL       67
REMARK 921   NORMALIZED FREE ENERGY PREDICTED BY IDOCK:   -4.73 KCAL/MOL
REMARK 922        TOTAL FREE ENERGY PREDICTED BY IDOCK:   -9.07 KCAL/MOL
REMARK 923 INTER-LIGAND FREE ENERGY PREDICTED BY IDOCK:   -7.81 KCAL/MOL
REMARK 924 INTRA-LIGAND FREE ENERGY PREDICTED BY IDOCK:   -1.26 KCAL/MOL
REMARK 927      BINDING AFFINITY PREDICTED BY RF-SCORE:    0.00 PKD
ROOT
HETATM    1  C   UNL     1     -14.163  14.878  71.865  1.00  0.00    -0.640 C  
HETATM    2  C   UNL     1     -12.739  15.354  71.569  1.00  0.00    -0.411 C  
HETATM    3  C   UNL     1     -12.216  16.167  72.756  1.00  0.00    -0.628 C  
ENDROOT
BRANCH   2   4
HETATM    4  N   UNL     1     -11.904  14.181  71.304  1.00  0.00    -0.461 NA 
HETATM    5  H   UNL     1     -11.433  13.873  72.155  1.00  0.00     0.000 HD 
BRANCH   4   6
HETATM    6  C   UNL     1     -12.636  13.069  70.683  1.00  0.00    -0.193 C  
BRANCH   6   7
HETATM    7  C   UNL     1     -11.668  12.183  69.878  1.00  0.00    -0.287 C  
HETATM    8  O   UNL     1     -12.392  11.086  69.299  1.00  0.00    -0.504 OA 
HETATM    9  H   UNL     1     -11.795  10.539  68.802  1.00  0.00     0.000 HD 
BRANCH   7  10
HETATM   10  C   UNL     1     -10.960  12.973  68.773  1.00  0.00    -0.258 C  
BRANCH  10  11
HETATM   11  O   UNL     1     -11.842  13.994  68.280  1.00  0.00    -0.341 OA 
BRANCH  11  12
HETATM   12  C   UNL     1     -11.215  15.077  67.724  1.00  0.00    -0.321 A  
HETATM   13  C   UNL     1     -10.619  15.090  66.464  1.00  0.00    -0.305 A  
HETATM   14  C   UNL     1      -9.996  16.248  65.993  1.00  0.00    -0.370 A  
HETATM   15  C   UNL     1      -9.967  17.415  66.770  1.00  0.00    -0.307 A  
HETATM   16  C   UNL     1     -10.595  17.407  68.019  1.00  0.00    -0.389 A  
HETATM   17  C   UNL     1     -11.223  16.245  68.488  1.00  0.00    -0.359 A  
BRANCH  15  18
HETATM   18  C   UNL     1      -9.252  18.639  66.259  1.00  0.00    -0.234 C  
BRANCH  18  19
HETATM   19  O   UNL     1      -8.031  18.229  65.652  1.00  0.00    -0.494 OA 
BRANCH  19  20
HETATM   20  C   UNL     1      -7.032  19.245  65.716  1.00  0.00    -0.280 C  
BRANCH  20  21
HETATM   21  C   UNL     1      -5.936  18.778  66.667  1.00  0.00    -0.158 C  
BRANCH  21  22
HETATM   22  O   UNL     1      -5.740  19.743  67.700  1.00  0.00    -0.181 OA 
BRANCH  22  23
HETATM   23  C   UNL     1      -6.043  19.246  69.010  1.00  0.00    -0.249 C  
HETATM   24  C   UNL     1      -7.535  19.331  69.317  1.00  0.00    -0.255 C  
HETATM   25  C   UNL     1      -5.585  17.791  69.054  1.00  0.00    -0.184 C  
ENDBRANCH  22  23
ENDBRANCH  21  22
ENDBRANCH  20  21
ENDBRANCH  19  20
ENDBRANCH  18  19
ENDBRANCH  15  18
ENDBRANCH  11  12
ENDBRANCH  10  11
ENDBRANCH   7  10
ENDBRANCH   6   7
ENDBRANCH   4   6
ENDBRANCH   2   4
TORSDOF 12
ENDMDL
MODEL       68
REMARK 921   NORMALIZED FREE ENERGY PREDICTED BY IDOCK:   -4.70 KCAL/MOL
REMARK 922        TOTAL FREE ENERGY PREDICTED BY IDOCK:   -9.02 KCAL/MOL
REMARK 923 INTER-LIGAND FREE ENERGY PREDICTED BY IDOCK:   -7.95 KCAL/MOL
REMARK 924 INTRA-LIGAND FREE ENERGY PREDICTED BY IDOCK:   -1.07 KCAL/MOL
REMARK 927      BINDING AFFINITY PREDICTED BY RF-SCORE:    0.00 PKD
ROOT
HETATM    1  C   UNL     1      -9.307  18.611  68.451  1.00  0.00    -0.369 C  
HETATM    2  C   UNL     1     -10.443  18.205  67.508  1.00  0.00    -0.410 C  
HETATM    3  C   UNL     1     -10.448  19.129  66.288  1.00  0.00    -0.551 C  
ENDROOT
BRANCH   2   4
HETATM    4  N   UNL     1     -10.251  16.805  67.128  1.00  0.00    -0.290 NA 
HETATM    5  H   UNL     1     -10.726  16.184  67.785  1.00  0.00     0.000 HD 
BRANCH   4   6
HETATM    6  C   UNL     1     -10.659  16.511  65.748  1.00  0.00    -0.296 C  
BRANCH   6   7
HETATM    7  C   UNL     1     -10.591  14.996  65.487  1.00  0.00    -0.363 C  
HETATM    8  O   UNL     1      -9.388  14.464  66.065  1.00  0.00    -0.475 OA 
HETATM    9  H   UNL     1      -9.346  13.528  65.904  1.00  0.00     0.000 HD 
BRANCH   7  10
HETATM   10  C   UNL     1     -11.807  14.264  66.065  1.00  0.00    -0.391 C  
BRANCH  10  11
HETATM   11  O   UNL     1     -11.993  14.661  67.433  1.00  0.00    -0.384 OA 
BRANCH  11  12
HETATM   12  C   UNL     1     -12.024  13.628  68.332  1.00  0.00    -0.356 A  
HETATM   13  C   UNL     1     -11.879  12.281  67.999  1.00  0.00    -0.368 A  
HETATM   14  C   UNL     1     -11.935  11.302  68.994  1.00  0.00    -0.393 A  
HETATM   15  C   UNL     1     -12.125  11.653  70.338  1.00  0.00    -0.462 A  
HETATM   16  C   UNL     1     -12.236  13.007  70.670  1.00  0.00    -0.390 A  
HETATM   17  C   UNL     1     -12.176  13.989  69.671  1.00  0.00    -0.383 A  
BRANCH  15  18
HETATM   18  C   UNL     1     -12.225  10.577  71.388  1.00  0.00    -0.327 C  
BRANCH  18  19
HETATM   19  O   UNL     1     -11.137   9.674  71.215  1.00  0.00    -0.346 OA 
BRANCH  19  20
HETATM   20  C   UNL     1     -11.525   8.319  71.433  1.00  0.00    -0.269 C  
BRANCH  20  21
HETATM   21  C   UNL     1     -11.049   7.489  70.246  1.00  0.00    -0.248 C  
BRANCH  21  22
HETATM   22  O   UNL     1     -10.248   8.289  69.378  1.00  0.00    -0.195 OA 
BRANCH  22  23
HETATM   23  C   UNL     1      -9.606   7.537  68.341  1.00  0.00    -0.150 C  
HETATM   24  C   UNL     1      -9.331   6.099  68.771  1.00  0.00    -0.123 C  
HETATM   25  C   UNL     1     -10.540   7.549  67.135  1.00  0.00    -0.415 C  
ENDBRANCH  22  23
ENDBRANCH  21  22
ENDBRANCH  20  21
ENDBRANCH  19  20
ENDBRANCH  18  19
ENDBRANCH  15  18
ENDBRANCH  11  12
ENDBRANCH  10  11
ENDBRANCH   7  10
ENDBRANCH   6   7
ENDBRANCH   4   6
ENDBRANCH   2   4
TORSDOF 12
ENDMDL
MODEL       69
REMARK 921   NORMALIZED FREE ENERGY PREDICTED BY IDOCK:   -4.70 KCAL/MOL
REMARK 922        TOTAL FREE ENERGY PREDICTED BY IDOCK:   -9.01 KCAL/MOL
REMARK 923 INTER-LIGAND FREE ENERGY PREDICTED BY IDOCK:   -7.51 KCAL/MOL
REMARK 924 INTRA-LIGAND FREE ENERGY PREDICTED BY IDOCK:   -1.50 KCAL/MOL
REMARK 927      BINDING AFFINITY PREDICTED BY RF-SCORE:    0.00 PKD
ROOT
HETATM    1  C   UNL     1      -9.572  11.625  66.319  1.00  0.00    -0.241 C  
HETATM    2  C   UNL     1      -9.901  10.217  65.816  1.00  0.00    -0.257 C  
HETATM    3  C   UNL     1      -9.764  10.175  64.292  1.00  0.00    -0.326 C  
ENDROOT
BRANCH   2   4
HETATM    4  N   UNL     1      -8.998   9.269  66.469  1.00  0.00    -0.144 NA 
HETATM    5  H   UNL     1      -8.814   9.549  67.433  1.00  0.00     0.000 HD 
BRANCH   4   6
HETATM    6  C   UNL     1      -9.469   7.878  66.413  1.00  0.00    -0.192 C  
BRANCH   6   7
HETATM    7  C   UNL     1     -10.650   7.681  67.381  1.00  0.00    -0.286 C  
HETATM    8  O   UNL     1     -11.421   6.541  66.969  1.00  0.00    -0.752 OA 
HETATM    9  H   UNL     1     -12.150   6.420  67.566  1.00  0.00     0.000 HD 
BRANCH   7  10
HETATM   10  C   UNL     1     -10.176   7.488  68.825  1.00  0.00    -0.197 C  
BRANCH  10  11
HETATM   11  O   UNL     1      -9.656   8.731  69.323  1.00  0.00    -0.160 OA 
BRANCH  11  12
HETATM   12  C   UNL     1     -10.585   9.548  69.911  1.00  0.00    -0.241 A  
HETATM   13  C   UNL     1     -10.912  10.829  69.466  1.00  0.00    -0.317 A  
HETATM   14  C   UNL     1     -11.870  11.584  70.145  1.00  0.00    -0.440 A  
HETATM   15  C   UNL     1     -12.526  11.069  71.272  1.00  0.00    -0.475 A  
HETATM   16  C   UNL     1     -12.219   9.773  71.694  1.00  0.00    -0.488 A  
HETATM   17  C   UNL     1     -11.259   9.013  71.010  1.00  0.00    -0.361 A  
BRANCH  15  18
HETATM   18  C   UNL     1     -13.525  11.919  72.013  1.00  0.00    -0.231 C  
BRANCH  18  19
HETATM   19  O   UNL     1     -12.940  13.195  72.259  1.00  0.00    -0.321 OA 
BRANCH  19  20
HETATM   20  C   UNL     1     -13.889  14.252  72.135  1.00  0.00    -0.494 C  
BRANCH  20  21
HETATM   21  C   UNL     1     -13.153  15.501  71.661  1.00  0.00    -0.481 C  
BRANCH  21  22
HETATM   22  O   UNL     1     -13.092  15.522  70.236  1.00  0.00    -0.257 OA 
BRANCH  22  23
HETATM   23  C   UNL     1     -11.779  15.791  69.726  1.00  0.00    -0.348 C  
HETATM   24  C   UNL     1     -10.711  15.648  70.807  1.00  0.00    -0.179 C  
HETATM   25  C   UNL     1     -11.520  14.791  68.604  1.00  0.00    -0.325 C  
ENDBRANCH  22  23
ENDBRANCH  21  22
ENDBRANCH  20  21
ENDBRANCH  19  20
ENDBRANCH  18  19
ENDBRANCH  15  18
ENDBRANCH  11  12
ENDBRANCH  10  11
ENDBRANCH   7  10
ENDBRANCH   6   7
ENDBRANCH   4   6
ENDBRANCH   2   4
TORSDOF 12
ENDMDL
MODEL       70
REMARK 921   NORMALIZED FREE ENERGY PREDICTED BY IDOCK:   -4.69 KCAL/MOL
REMARK 922        TOTAL FREE ENERGY PREDICTED BY IDOCK:   -9.00 KCAL/MOL
REMARK 923 INTER-LIGAND FREE ENERGY PREDICTED BY IDOCK:   -7.78 KCAL/MOL
REMARK 924 INTRA-LIGAND FREE ENERGY PREDICTED BY IDOCK:   -1.23 KCAL/MOL
REMARK 927      BINDING AFFINITY PREDICTED BY RF-SCORE:    0.00 PKD
ROOT
HETATM    1  C   UNL     1     -10.419  19.560  65.784  1.00  0.00    -0.518 C  
HETATM    2  C   UNL     1     -10.021  20.324  67.050  1.00  0.00    -0.460 C  
HETATM    3  C   UNL     1     -10.351  19.478  68.282  1.00  0.00    -0.524 C  
ENDROOT
BRANCH   2   4
HETATM    4  N   UNL     1      -8.592  20.635  66.972  1.00  0.00    -0.564 NA 
HETATM    5  H   UNL     1      -8.171  20.632  67.901  1.00  0.00     0.000 HD 
BRANCH   4   6
HETATM    6  C   UNL     1      -7.849  19.754  66.061  1.00  0.00    -0.336 C  
BRANCH   6   7
HETATM    7  C   UNL     1      -6.599  19.197  66.766  1.00  0.00    -0.189 C  
HETATM    8  O   UNL     1      -5.695  20.275  67.060  1.00  0.00    -0.166 OA 
HETATM    9  H   UNL     1      -4.924  19.932  67.495  1.00  0.00     0.000 HD 
BRANCH   7  10
HETATM   10  C   UNL     1      -6.957  18.458  68.060  1.00  0.00    -0.226 C  
BRANCH  10  11
HETATM   11  O   UNL     1      -6.881  17.042  67.832  1.00  0.00    -0.146 OA 
BRANCH  11  12
HETATM   12  C   UNL     1      -8.086  16.431  67.605  1.00  0.00    -0.156 A  
HETATM   13  C   UNL     1      -8.584  16.102  66.344  1.00  0.00    -0.365 A  
HETATM   14  C   UNL     1      -9.832  15.487  66.221  1.00  0.00    -0.317 A  
HETATM   15  C   UNL     1     -10.598  15.181  67.355  1.00  0.00    -0.271 A  
HETATM   16  C   UNL     1     -10.079  15.483  68.618  1.00  0.00    -0.210 A  
HETATM   17  C   UNL     1      -8.825  16.097  68.740  1.00  0.00    -0.233 A  
BRANCH  15  18
HETATM   18  C   UNL     1     -11.959  14.556  67.195  1.00  0.00    -0.345 C  
BRANCH  18  19
HETATM   19  O   UNL     1     -12.001  13.360  67.967  1.00  0.00    -0.350 OA 
BRANCH  19  20
HETATM   20  C   UNL     1     -11.646  12.213  67.197  1.00  0.00    -0.335 C  
BRANCH  20  21
HETATM   21  C   UNL     1     -11.381  11.058  68.156  1.00  0.00    -0.307 C  
BRANCH  21  22
HETATM   22  O   UNL     1     -12.359  11.048  69.194  1.00  0.00    -0.451 OA 
BRANCH  22  23
HETATM   23  C   UNL     1     -11.801  10.858  70.501  1.00  0.00    -0.360 C  
HETATM   24  C   UNL     1     -12.841  10.344  71.492  1.00  0.00    -0.569 C  
HETATM   25  C   UNL     1     -10.670   9.844  70.363  1.00  0.00    -0.379 C  
ENDBRANCH  22  23
ENDBRANCH  21  22
ENDBRANCH  20  21
ENDBRANCH  19  20
ENDBRANCH  18  19
ENDBRANCH  15  18
ENDBRANCH  11  12
ENDBRANCH  10  11
ENDBRANCH   7  10
ENDBRANCH   6   7
ENDBRANCH   4   6
ENDBRANCH   2   4
TORSDOF 12
ENDMDL
MODEL       71
REMARK 921   NORMALIZED FREE ENERGY PREDICTED BY IDOCK:   -4.69 KCAL/MOL
REMARK 922        TOTAL FREE ENERGY PREDICTED BY IDOCK:   -8.99 KCAL/MOL
REMARK 923 INTER-LIGAND FREE ENERGY PREDICTED BY IDOCK:   -7.67 KCAL/MOL
REMARK 924 INTRA-LIGAND FREE ENERGY PREDICTED BY IDOCK:   -1.32 KCAL/MOL
REMARK 927      BINDING AFFINITY PREDICTED BY RF-SCORE:    0.00 PKD
ROOT
HETATM    1  C   UNL     1     -10.996  19.490  67.304  1.00  0.00    -0.460 C  
HETATM    2  C   UNL     1     -10.175  19.113  66.069  1.00  0.00    -0.424 C  
HETATM    3  C   UNL     1      -8.709  19.494  66.295  1.00  0.00    -0.383 C  
ENDROOT
BRANCH   2   4
HETATM    4  N   UNL     1     -10.332  17.677  65.829  1.00  0.00    -0.598 NA 
HETATM    5  H   UNL     1     -10.553  17.496  64.850  1.00  0.00     0.000 HD 
BRANCH   4   6
HETATM    6  C   UNL     1      -9.172  16.882  66.256  1.00  0.00    -0.267 C  
BRANCH   6   7
HETATM    7  C   UNL     1      -9.530  16.050  67.501  1.00  0.00    -0.223 C  
HETATM    8  O   UNL     1      -9.151  16.771  68.684  1.00  0.00    -0.238 OA 
HETATM    9  H   UNL     1      -9.373  16.258  69.452  1.00  0.00     0.000 HD 
BRANCH   7  10
HETATM   10  C   UNL     1     -11.026  15.721  67.554  1.00  0.00    -0.293 C  
BRANCH  10  11
HETATM   11  O   UNL     1     -11.367  14.885  66.436  1.00  0.00    -0.342 OA 
BRANCH  11  12
HETATM   12  C   UNL     1     -11.145  13.548  66.631  1.00  0.00    -0.298 A  
HETATM   13  C   UNL     1     -10.356  12.746  65.806  1.00  0.00    -0.297 A  
HETATM   14  C   UNL     1     -10.201  11.387  66.089  1.00  0.00    -0.282 A  
HETATM   15  C   UNL     1     -10.821  10.809  67.205  1.00  0.00    -0.344 A  
HETATM   16  C   UNL     1     -11.583  11.625  68.048  1.00  0.00    -0.383 A  
HETATM   17  C   UNL     1     -11.735  12.989  67.765  1.00  0.00    -0.405 A  
BRANCH  15  18
HETATM   18  C   UNL     1     -10.674   9.333  67.466  1.00  0.00    -0.203 C  
BRANCH  18  19
HETATM   19  O   UNL     1      -9.701   9.149  68.490  1.00  0.00    -0.150 OA 
BRANCH  19  20
HETATM   20  C   UNL     1     -10.215   8.400  69.590  1.00  0.00    -0.209 C  
BRANCH  20  21
HETATM   21  C   UNL     1      -9.808   9.104  70.879  1.00  0.00    -0.291 C  
BRANCH  21  22
HETATM   22  O   UNL     1     -10.862   9.019  71.837  1.00  0.00    -0.350 OA 
BRANCH  22  23
HETATM   23  C   UNL     1     -12.170   9.082  71.253  1.00  0.00    -0.312 C  
HETATM   24  C   UNL     1     -13.084   7.985  71.791  1.00  0.00    -0.360 C  
HETATM   25  C   UNL     1     -12.747  10.453  71.591  1.00  0.00    -0.560 C  
ENDBRANCH  22  23
ENDBRANCH  21  22
ENDBRANCH  20  21
ENDBRANCH  19  20
ENDBRANCH  18  19
ENDBRANCH  15  18
ENDBRANCH  11  12
ENDBRANCH  10  11
ENDBRANCH   7  10
ENDBRANCH   6   7
ENDBRANCH   4   6
ENDBRANCH   2   4
TORSDOF 12
ENDMDL
MODEL       72
REMARK 921   NORMALIZED FREE ENERGY PREDICTED BY IDOCK:   -4.66 KCAL/MOL
REMARK 922        TOTAL FREE ENERGY PREDICTED BY IDOCK:   -8.95 KCAL/MOL
REMARK 923 INTER-LIGAND FREE ENERGY PREDICTED BY IDOCK:   -8.11 KCAL/MOL
REMARK 924 INTRA-LIGAND FREE ENERGY PREDICTED BY IDOCK:   -0.84 KCAL/MOL
REMARK 927      BINDING AFFINITY PREDICTED BY RF-SCORE:    0.00 PKD
ROOT
HETATM    1  C   UNL     1     -10.346  19.904  65.927  1.00  0.00    -0.567 C  
HETATM    2  C   UNL     1      -9.970  18.507  66.427  1.00  0.00    -0.379 C  
HETATM    3  C   UNL     1     -10.431  18.343  67.877  1.00  0.00    -0.416 C  
ENDROOT
BRANCH   2   4
HETATM    4  N   UNL     1     -10.590  17.517  65.544  1.00  0.00    -0.610 NA 
HETATM    5  H   UNL     1     -10.643  17.868  64.588  1.00  0.00     0.000 HD 
BRANCH   4   6
HETATM    6  C   UNL     1      -9.929  16.205  65.581  1.00  0.00    -0.297 C  
BRANCH   6   7
HETATM    7  C   UNL     1     -10.975  15.083  65.444  1.00  0.00    -0.373 C  
HETATM    8  O   UNL     1     -11.521  15.097  64.116  1.00  0.00    -0.660 OA 
HETATM    9  H   UNL     1     -12.166  14.405  64.031  1.00  0.00     0.000 HD 
BRANCH   7  10
HETATM   10  C   UNL     1     -10.373  13.706  65.740  1.00  0.00    -0.298 C  
BRANCH  10  11
HETATM   11  O   UNL     1     -11.168  13.046  66.738  1.00  0.00    -0.279 OA 
BRANCH  11  12
HETATM   12  C   UNL     1     -10.916  11.708  66.882  1.00  0.00    -0.292 A  
HETATM   13  C   UNL     1     -11.297  10.941  67.983  1.00  0.00    -0.382 A  
HETATM   14  C   UNL     1     -10.982   9.581  68.035  1.00  0.00    -0.155 A  
HETATM   15  C   UNL     1     -10.291   8.963  66.984  1.00  0.00    -0.340 A  
HETATM   16  C   UNL     1      -9.940   9.728  65.868  1.00  0.00    -0.345 A  
HETATM   17  C   UNL     1     -10.260  11.092  65.815  1.00  0.00    -0.310 A  
BRANCH  15  18
HETATM   18  C   UNL     1      -9.924   7.505  67.082  1.00  0.00    -0.220 C  
BRANCH  18  19
HETATM   19  O   UNL     1     -11.034   6.795  67.624  1.00  0.00    -0.273 OA 
BRANCH  19  20
HETATM   20  C   UNL     1     -10.675   6.043  68.782  1.00  0.00    -0.308 C  
BRANCH  20  21
HETATM   21  C   UNL     1     -11.532   6.523  69.948  1.00  0.00    -0.403 C  
BRANCH  21  22
HETATM   22  O   UNL     1     -10.730   6.666  71.119  1.00  0.00    -0.224 OA 
BRANCH  22  23
HETATM   23  C   UNL     1     -10.994   7.873  71.846  1.00  0.00    -0.256 C  
HETATM   24  C   UNL     1      -9.936   8.940  71.575  1.00  0.00    -0.391 C  
HETATM   25  C   UNL     1     -12.364   8.375  71.401  1.00  0.00    -0.328 C  
ENDBRANCH  22  23
ENDBRANCH  21  22
ENDBRANCH  20  21
ENDBRANCH  19  20
ENDBRANCH  18  19
ENDBRANCH  15  18
ENDBRANCH  11  12
ENDBRANCH  10  11
ENDBRANCH   7  10
ENDBRANCH   6   7
ENDBRANCH   4   6
ENDBRANCH   2   4
TORSDOF 12
ENDMDL
MODEL       73
REMARK 921   NORMALIZED FREE ENERGY PREDICTED BY IDOCK:   -4.66 KCAL/MOL
REMARK 922        TOTAL FREE ENERGY PREDICTED BY IDOCK:   -8.95 KCAL/MOL
REMARK 923 INTER-LIGAND FREE ENERGY PREDICTED BY IDOCK:   -7.98 KCAL/MOL
REMARK 924 INTRA-LIGAND FREE ENERGY PREDICTED BY IDOCK:   -0.97 KCAL/MOL
REMARK 927      BINDING AFFINITY PREDICTED BY RF-SCORE:    0.00 PKD
ROOT
HETATM    1  C   UNL     1     -13.210   9.744  71.815  1.00  0.00    -0.532 C  
HETATM    2  C   UNL     1     -11.787   9.325  71.439  1.00  0.00    -0.358 C  
HETATM    3  C   UNL     1     -11.255   8.337  72.480  1.00  0.00    -0.446 C  
ENDROOT
BRANCH   2   4
HETATM    4  N   UNL     1     -11.816   8.738  70.098  1.00  0.00    -0.439 NA 
HETATM    5  H   UNL     1     -12.437   9.267  69.486  1.00  0.00     0.000 HD 
BRANCH   4   6
HETATM    6  C   UNL     1     -10.484   8.597  69.493  1.00  0.00    -0.220 C  
BRANCH   6   7
HETATM    7  C   UNL     1     -10.052   9.928  68.850  1.00  0.00    -0.184 C  
HETATM    8  O   UNL     1      -8.658   9.865  68.509  1.00  0.00    -0.113 OA 
HETATM    9  H   UNL     1      -8.392  10.686  68.113  1.00  0.00     0.000 HD 
BRANCH   7  10
HETATM   10  C   UNL     1     -10.875  10.248  67.598  1.00  0.00    -0.307 C  
BRANCH  10  11
HETATM   11  O   UNL     1     -12.031  11.014  67.974  1.00  0.00    -0.623 OA 
BRANCH  11  12
HETATM   12  C   UNL     1     -11.769  12.307  68.343  1.00  0.00    -0.337 A  
HETATM   13  C   UNL     1     -11.986  12.829  69.618  1.00  0.00    -0.354 A  
HETATM   14  C   UNL     1     -11.693  14.167  69.888  1.00  0.00    -0.372 A  
HETATM   15  C   UNL     1     -11.167  15.003  68.893  1.00  0.00    -0.288 A  
HETATM   16  C   UNL     1     -10.920  14.466  67.626  1.00  0.00    -0.294 A  
HETATM   17  C   UNL     1     -11.212  13.121  67.357  1.00  0.00    -0.319 A  
BRANCH  15  18
HETATM   18  C   UNL     1     -10.898  16.454  69.196  1.00  0.00    -0.329 C  
BRANCH  18  19
HETATM   19  O   UNL     1     -10.792  17.161  67.964  1.00  0.00    -0.378 OA 
BRANCH  19  20
HETATM   20  C   UNL     1     -10.320  18.494  68.150  1.00  0.00    -0.356 C  
BRANCH  20  21
HETATM   21  C   UNL     1      -8.796  18.463  68.168  1.00  0.00    -0.302 C  
BRANCH  21  22
HETATM   22  O   UNL     1      -8.279  19.792  68.120  1.00  0.00    -0.310 OA 
BRANCH  22  23
HETATM   23  C   UNL     1      -6.846  19.846  68.135  1.00  0.00    -0.293 C  
HETATM   24  C   UNL     1      -6.320  21.109  67.460  1.00  0.00    -0.433 C  
HETATM   25  C   UNL     1      -6.412  19.819  69.597  1.00  0.00    -0.389 C  
ENDBRANCH  22  23
ENDBRANCH  21  22
ENDBRANCH  20  21
ENDBRANCH  19  20
ENDBRANCH  18  19
ENDBRANCH  15  18
ENDBRANCH  11  12
ENDBRANCH  10  11
ENDBRANCH   7  10
ENDBRANCH   6   7
ENDBRANCH   4   6
ENDBRANCH   2   4
TORSDOF 12
ENDMDL
MODEL       74
REMARK 921   NORMALIZED FREE ENERGY PREDICTED BY IDOCK:   -4.65 KCAL/MOL
REMARK 922        TOTAL FREE ENERGY PREDICTED BY IDOCK:   -8.93 KCAL/MOL
REMARK 923 INTER-LIGAND FREE ENERGY PREDICTED BY IDOCK:   -7.96 KCAL/MOL
REMARK 924 INTRA-LIGAND FREE ENERGY PREDICTED BY IDOCK:   -0.98 KCAL/MOL
REMARK 927      BINDING AFFINITY PREDICTED BY RF-SCORE:    0.00 PKD
ROOT
HETATM    1  C   UNL     1     -10.027  10.292  64.768  1.00  0.00    -0.392 C  
HETATM    2  C   UNL     1      -9.439  10.842  63.466  1.00  0.00    -0.294 C  
HETATM    3  C   UNL     1      -9.072   9.680  62.540  1.00  0.00    -0.283 C  
ENDROOT
BRANCH   2   4
HETATM    4  N   UNL     1     -10.425  11.734  62.853  1.00  0.00    -0.633 NA 
HETATM    5  H   UNL     1     -10.562  11.499  61.870  1.00  0.00     0.000 HD 
BRANCH   4   6
HETATM    6  C   UNL     1     -11.710  11.764  63.565  1.00  0.00    -0.383 C  
BRANCH   6   7
HETATM    7  C   UNL     1     -12.045  13.205  63.990  1.00  0.00    -0.446 C  
HETATM    8  O   UNL     1     -13.182  13.194  64.868  1.00  0.00    -0.705 OA 
HETATM    9  H   UNL     1     -13.389  14.083  65.130  1.00  0.00     0.000 HD 
BRANCH   7  10
HETATM   10  C   UNL     1     -10.861  13.882  64.688  1.00  0.00    -0.408 C  
BRANCH  10  11
HETATM   11  O   UNL     1     -11.355  14.775  65.700  1.00  0.00    -0.342 OA 
BRANCH  11  12
HETATM   12  C   UNL     1     -10.417  15.192  66.606  1.00  0.00    -0.287 A  
HETATM   13  C   UNL     1     -10.682  15.496  67.941  1.00  0.00    -0.294 A  
HETATM   14  C   UNL     1      -9.652  15.922  68.782  1.00  0.00    -0.219 A  
HETATM   15  C   UNL     1      -8.339  16.043  68.306  1.00  0.00    -0.164 A  
HETATM   16  C   UNL     1      -8.072  15.706  66.976  1.00  0.00    -0.276 A  
HETATM   17  C   UNL     1      -9.107  15.274  66.134  1.00  0.00    -0.314 A  
BRANCH  15  18
HETATM   18  C   UNL     1      -7.252  16.546  69.220  1.00  0.00    -0.213 C  
BRANCH  18  19
HETATM   19  O   UNL     1      -6.651  17.690  68.621  1.00  0.00    -0.192 OA 
BRANCH  19  20
HETATM   20  C   UNL     1      -7.114  18.906  69.203  1.00  0.00    -0.269 C  
BRANCH  20  21
HETATM   21  C   UNL     1      -7.485  19.864  68.077  1.00  0.00    -0.297 C  
BRANCH  21  22
HETATM   22  O   UNL     1      -8.002  19.135  66.964  1.00  0.00    -0.248 OA 
BRANCH  22  23
HETATM   23  C   UNL     1      -9.208  19.694  66.428  1.00  0.00    -0.381 C  
HETATM   24  C   UNL     1     -10.190  18.610  65.993  1.00  0.00    -0.386 C  
HETATM   25  C   UNL     1      -9.832  20.550  67.525  1.00  0.00    -0.534 C  
ENDBRANCH  22  23
ENDBRANCH  21  22
ENDBRANCH  20  21
ENDBRANCH  19  20
ENDBRANCH  18  19
ENDBRANCH  15  18
ENDBRANCH  11  12
ENDBRANCH  10  11
ENDBRANCH   7  10
ENDBRANCH   6   7
ENDBRANCH   4   6
ENDBRANCH   2   4
TORSDOF 12
ENDMDL
MODEL       75
REMARK 921   NORMALIZED FREE ENERGY PREDICTED BY IDOCK:   -4.65 KCAL/MOL
REMARK 922        TOTAL FREE ENERGY PREDICTED BY IDOCK:   -8.93 KCAL/MOL
REMARK 923 INTER-LIGAND FREE ENERGY PREDICTED BY IDOCK:   -7.66 KCAL/MOL
REMARK 924 INTRA-LIGAND FREE ENERGY PREDICTED BY IDOCK:   -1.26 KCAL/MOL
REMARK 927      BINDING AFFINITY PREDICTED BY RF-SCORE:    0.00 PKD
ROOT
HETATM    1  C   UNL     1      -9.489   6.112  69.083  1.00  0.00    -0.144 C  
HETATM    2  C   UNL     1      -8.495   6.178  70.245  1.00  0.00    -0.126 C  
HETATM    3  C   UNL     1      -7.823   7.553  70.264  1.00  0.00    -0.094 C  
ENDROOT
BRANCH   2   4
HETATM    4  N   UNL     1      -9.218   5.910  71.489  1.00  0.00    -0.146 NA 
HETATM    5  H   UNL     1      -9.089   6.673  72.154  1.00  0.00     0.000 HD 
BRANCH   4   6
HETATM    6  C   UNL     1     -10.647   5.632  71.287  1.00  0.00    -0.255 C  
BRANCH   6   7
HETATM    7  C   UNL     1     -11.459   6.134  72.496  1.00  0.00    -0.276 C  
HETATM    8  O   UNL     1     -11.119   5.358  73.656  1.00  0.00    -0.408 OA 
HETATM    9  H   UNL     1     -11.620   5.668  74.402  1.00  0.00     0.000 HD 
BRANCH   7  10
HETATM   10  C   UNL     1     -11.203   7.618  72.775  1.00  0.00    -0.377 C  
BRANCH  10  11
HETATM   11  O   UNL     1     -12.390   8.368  72.469  1.00  0.00    -0.376 OA 
BRANCH  11  12
HETATM   12  C   UNL     1     -12.196   9.435  71.632  1.00  0.00    -0.390 A  
HETATM   13  C   UNL     1     -12.771  10.694  71.802  1.00  0.00    -0.489 A  
HETATM   14  C   UNL     1     -12.514  11.713  70.883  1.00  0.00    -0.440 A  
HETATM   15  C   UNL     1     -11.670  11.496  69.785  1.00  0.00    -0.426 A  
HETATM   16  C   UNL     1     -11.069  10.242  69.638  1.00  0.00    -0.323 A  
HETATM   17  C   UNL     1     -11.325   9.220  70.563  1.00  0.00    -0.306 A  
BRANCH  15  18
HETATM   18  C   UNL     1     -11.441  12.598  68.784  1.00  0.00    -0.306 C  
BRANCH  18  19
HETATM   19  O   UNL     1     -12.251  13.713  69.145  1.00  0.00    -0.326 OA 
BRANCH  19  20
HETATM   20  C   UNL     1     -11.486  14.907  69.292  1.00  0.00    -0.303 C  
BRANCH  20  21
HETATM   21  C   UNL     1     -11.348  15.206  70.780  1.00  0.00    -0.304 C  
BRANCH  21  22
HETATM   22  O   UNL     1     -12.259  16.237  71.159  1.00  0.00    -0.286 OA 
BRANCH  22  23
HETATM   23  C   UNL     1     -13.014  15.925  72.337  1.00  0.00    -0.433 C  
HETATM   24  C   UNL     1     -14.339  15.250  71.998  1.00  0.00    -0.689 C  
HETATM   25  C   UNL     1     -12.156  14.991  73.185  1.00  0.00    -0.442 C  
ENDBRANCH  22  23
ENDBRANCH  21  22
ENDBRANCH  20  21
ENDBRANCH  19  20
ENDBRANCH  18  19
ENDBRANCH  15  18
ENDBRANCH  11  12
ENDBRANCH  10  11
ENDBRANCH   7  10
ENDBRANCH   6   7
ENDBRANCH   4   6
ENDBRANCH   2   4
TORSDOF 12
ENDMDL
MODEL       76
REMARK 921   NORMALIZED FREE ENERGY PREDICTED BY IDOCK:   -4.65 KCAL/MOL
REMARK 922        TOTAL FREE ENERGY PREDICTED BY IDOCK:   -8.93 KCAL/MOL
REMARK 923 INTER-LIGAND FREE ENERGY PREDICTED BY IDOCK:   -7.83 KCAL/MOL
REMARK 924 INTRA-LIGAND FREE ENERGY PREDICTED BY IDOCK:   -1.10 KCAL/MOL
REMARK 927      BINDING AFFINITY PREDICTED BY RF-SCORE:    0.00 PKD
ROOT
HETATM    1  C   UNL     1     -10.441  13.062  64.144  1.00  0.00    -0.395 C  
HETATM    2  C   UNL     1     -11.309  11.803  64.202  1.00  0.00    -0.352 C  
HETATM    3  C   UNL     1     -12.573  12.016  63.366  1.00  0.00    -0.592 C  
ENDROOT
BRANCH   2   4
HETATM    4  N   UNL     1     -10.519  10.672  63.713  1.00  0.00    -0.467 NA 
HETATM    5  H   UNL     1     -10.109  10.884  62.804  1.00  0.00     0.000 HD 
BRANCH   4   6
HETATM    6  C   UNL     1      -9.486  10.227  64.659  1.00  0.00    -0.293 C  
BRANCH   6   7
HETATM    7  C   UNL     1     -10.124   9.396  65.787  1.00  0.00    -0.096 C  
HETATM    8  O   UNL     1      -9.432   8.143  65.909  1.00  0.00    -0.399 OA 
HETATM    9  H   UNL     1      -9.826   7.630  66.605  1.00  0.00     0.000 HD 
BRANCH   7  10
HETATM   10  C   UNL     1     -10.090  10.137  67.128  1.00  0.00    -0.209 C  
BRANCH  10  11
HETATM   11  O   UNL     1     -11.434  10.313  67.605  1.00  0.00    -0.345 OA 
BRANCH  11  12
HETATM   12  C   UNL     1     -11.650  11.474  68.297  1.00  0.00    -0.308 A  
HETATM   13  C   UNL     1     -11.801  11.558  69.681  1.00  0.00    -0.421 A  
HETATM   14  C   UNL     1     -12.027  12.795  70.289  1.00  0.00    -0.358 A  
HETATM   15  C   UNL     1     -12.095  13.970  69.526  1.00  0.00    -0.397 A  
HETATM   16  C   UNL     1     -11.910  13.884  68.143  1.00  0.00    -0.407 A  
HETATM   17  C   UNL     1     -11.679  12.643  67.534  1.00  0.00    -0.429 A  
BRANCH  15  18
HETATM   18  C   UNL     1     -12.382  15.286  70.199  1.00  0.00    -0.353 C  
BRANCH  18  19
HETATM   19  O   UNL     1     -11.143  15.923  70.496  1.00  0.00    -0.329 OA 
BRANCH  19  20
HETATM   20  C   UNL     1     -10.731  16.807  69.456  1.00  0.00    -0.273 C  
BRANCH  20  21
HETATM   21  C   UNL     1      -9.305  16.444  69.057  1.00  0.00    -0.248 C  
BRANCH  21  22
HETATM   22  O   UNL     1      -9.229  16.231  67.649  1.00  0.00    -0.204 OA 
BRANCH  22  23
HETATM   23  C   UNL     1     -10.027  17.148  66.890  1.00  0.00    -0.288 C  
HETATM   24  C   UNL     1      -9.242  18.400  66.508  1.00  0.00    -0.300 C  
HETATM   25  C   UNL     1     -10.480  16.415  65.631  1.00  0.00    -0.364 C  
ENDBRANCH  22  23
ENDBRANCH  21  22
ENDBRANCH  20  21
ENDBRANCH  19  20
ENDBRANCH  18  19
ENDBRANCH  15  18
ENDBRANCH  11  12
ENDBRANCH  10  11
ENDBRANCH   7  10
ENDBRANCH   6   7
ENDBRANCH   4   6
ENDBRANCH   2   4
TORSDOF 12
ENDMDL
MODEL       77
REMARK 921   NORMALIZED FREE ENERGY PREDICTED BY IDOCK:   -4.63 KCAL/MOL
REMARK 922        TOTAL FREE ENERGY PREDICTED BY IDOCK:   -8.90 KCAL/MOL
REMARK 923 INTER-LIGAND FREE ENERGY PREDICTED BY IDOCK:   -7.40 KCAL/MOL
REMARK 924 INTRA-LIGAND FREE ENERGY PREDICTED BY IDOCK:   -1.51 KCAL/MOL
REMARK 927      BINDING AFFINITY PREDICTED BY RF-SCORE:    0.00 PKD
ROOT
HETATM    1  C   UNL     1     -10.491  19.659  65.760  1.00  0.00    -0.540 C  
HETATM    2  C   UNL     1     -10.172  20.310  67.109  1.00  0.00    -0.359 C  
HETATM    3  C   UNL     1     -10.347  19.280  68.227  1.00  0.00    -0.478 C  
ENDROOT
BRANCH   2   4
HETATM    4  N   UNL     1      -8.805  20.831  67.060  1.00  0.00    -0.587 NA 
HETATM    5  H   UNL     1      -8.336  20.700  67.956  1.00  0.00     0.000 HD 
BRANCH   4   6
HETATM    6  C   UNL     1      -8.003  20.269  65.964  1.00  0.00    -0.114 C  
BRANCH   6   7
HETATM    7  C   UNL     1      -6.558  20.029  66.437  1.00  0.00    -0.207 C  
HETATM    8  O   UNL     1      -5.946  21.287  66.765  1.00  0.00    -0.267 OA 
HETATM    9  H   UNL     1      -5.054  21.139  67.057  1.00  0.00     0.000 HD 
BRANCH   7  10
HETATM   10  C   UNL     1      -6.504  19.097  67.652  1.00  0.00    -0.212 C  
BRANCH  10  11
HETATM   11  O   UNL     1      -6.437  17.735  67.201  1.00  0.00    -0.156 OA 
BRANCH  11  12
HETATM   12  C   UNL     1      -7.590  17.016  67.372  1.00  0.00    -0.167 A  
HETATM   13  C   UNL     1      -8.452  16.641  66.342  1.00  0.00    -0.348 A  
HETATM   14  C   UNL     1      -9.610  15.913  66.625  1.00  0.00    -0.265 A  
HETATM   15  C   UNL     1      -9.921  15.540  67.940  1.00  0.00    -0.218 A  
HETATM   16  C   UNL     1      -9.036  15.889  68.965  1.00  0.00    -0.240 A  
HETATM   17  C   UNL     1      -7.872  16.616  68.679  1.00  0.00    -0.234 A  
BRANCH  15  18
HETATM   18  C   UNL     1     -11.197  14.792  68.226  1.00  0.00    -0.286 C  
BRANCH  18  19
HETATM   19  O   UNL     1     -10.864  13.527  68.789  1.00  0.00    -0.248 OA 
BRANCH  19  20
HETATM   20  C   UNL     1     -11.770  12.503  68.382  1.00  0.00    -0.328 C  
BRANCH  20  21
HETATM   21  C   UNL     1     -11.246  11.887  67.090  1.00  0.00    -0.319 C  
BRANCH  21  22
HETATM   22  O   UNL     1     -12.126  12.192  66.009  1.00  0.00    -0.612 OA 
BRANCH  22  23
HETATM   23  C   UNL     1     -11.496  12.118  64.723  1.00  0.00    -0.322 C  
HETATM   24  C   UNL     1     -12.403  12.651  63.617  1.00  0.00    -0.584 C  
HETATM   25  C   UNL     1     -10.223  12.954  64.799  1.00  0.00    -0.307 C  
ENDBRANCH  22  23
ENDBRANCH  21  22
ENDBRANCH  20  21
ENDBRANCH  19  20
ENDBRANCH  18  19
ENDBRANCH  15  18
ENDBRANCH  11  12
ENDBRANCH  10  11
ENDBRANCH   7  10
ENDBRANCH   6   7
ENDBRANCH   4   6
ENDBRANCH   2   4
TORSDOF 12
ENDMDL
MODEL       78
REMARK 921   NORMALIZED FREE ENERGY PREDICTED BY IDOCK:   -4.63 KCAL/MOL
REMARK 922        TOTAL FREE ENERGY PREDICTED BY IDOCK:   -8.90 KCAL/MOL
REMARK 923 INTER-LIGAND FREE ENERGY PREDICTED BY IDOCK:   -7.43 KCAL/MOL
REMARK 924 INTRA-LIGAND FREE ENERGY PREDICTED BY IDOCK:   -1.47 KCAL/MOL
REMARK 927      BINDING AFFINITY PREDICTED BY RF-SCORE:    0.00 PKD
ROOT
HETATM    1  C   UNL     1      -6.778  20.746  67.235  1.00  0.00    -0.391 C  
HETATM    2  C   UNL     1      -7.564  19.750  66.379  1.00  0.00    -0.295 C  
HETATM    3  C   UNL     1      -6.590  18.907  65.552  1.00  0.00    -0.311 C  
ENDROOT
BRANCH   2   4
HETATM    4  N   UNL     1      -8.382  18.921  67.266  1.00  0.00    -0.269 NA 
HETATM    5  H   UNL     1      -7.834  18.595  68.062  1.00  0.00     0.000 HD 
BRANCH   4   6
HETATM    6  C   UNL     1      -9.613  19.584  67.717  1.00  0.00    -0.346 C  
BRANCH   6   7
HETATM    7  C   UNL     1     -10.806  19.121  66.860  1.00  0.00    -0.348 C  
HETATM    8  O   UNL     1     -10.805  19.833  65.612  1.00  0.00    -0.462 OA 
HETATM    9  H   UNL     1     -11.541  19.547  65.084  1.00  0.00     0.000 HD 
BRANCH   7  10
HETATM   10  C   UNL     1     -10.765  17.613  66.594  1.00  0.00    -0.117 C  
BRANCH  10  11
HETATM   11  O   UNL     1     -10.754  16.911  67.847  1.00  0.00    -0.347 OA 
BRANCH  11  12
HETATM   12  C   UNL     1     -10.690  15.547  67.741  1.00  0.00    -0.297 A  
HETATM   13  C   UNL     1     -11.739  14.677  68.041  1.00  0.00    -0.371 A  
HETATM   14  C   UNL     1     -11.567  13.298  67.906  1.00  0.00    -0.370 A  
HETATM   15  C   UNL     1     -10.350  12.765  67.461  1.00  0.00    -0.219 A  
HETATM   16  C   UNL     1      -9.313  13.642  67.130  1.00  0.00    -0.240 A  
HETATM   17  C   UNL     1      -9.488  15.027  67.262  1.00  0.00    -0.212 A  
BRANCH  15  18
HETATM   18  C   UNL     1     -10.174  11.272  67.365  1.00  0.00    -0.188 C  
BRANCH  18  19
HETATM   19  O   UNL     1     -10.719  10.831  66.124  1.00  0.00    -0.210 OA 
BRANCH  19  20
HETATM   20  C   UNL     1      -9.712  10.654  65.130  1.00  0.00    -0.271 C  
BRANCH  20  21
HETATM   21  C   UNL     1     -10.256  11.169  63.802  1.00  0.00    -0.377 C  
BRANCH  21  22
HETATM   22  O   UNL     1     -10.408  12.587  63.852  1.00  0.00    -0.405 OA 
BRANCH  22  23
HETATM   23  C   UNL     1     -11.704  13.037  63.436  1.00  0.00    -0.415 C  
HETATM   24  C   UNL     1     -12.761  11.949  63.601  1.00  0.00    -0.509 C  
HETATM   25  C   UNL     1     -12.059  14.242  64.302  1.00  0.00    -0.467 C  
ENDBRANCH  22  23
ENDBRANCH  21  22
ENDBRANCH  20  21
ENDBRANCH  19  20
ENDBRANCH  18  19
ENDBRANCH  15  18
ENDBRANCH  11  12
ENDBRANCH  10  11
ENDBRANCH   7  10
ENDBRANCH   6   7
ENDBRANCH   4   6
ENDBRANCH   2   4
TORSDOF 12
ENDMDL
MODEL       79
REMARK 921   NORMALIZED FREE ENERGY PREDICTED BY IDOCK:   -4.63 KCAL/MOL
REMARK 922        TOTAL FREE ENERGY PREDICTED BY IDOCK:   -8.89 KCAL/MOL
REMARK 923 INTER-LIGAND FREE ENERGY PREDICTED BY IDOCK:   -8.09 KCAL/MOL
REMARK 924 INTRA-LIGAND FREE ENERGY PREDICTED BY IDOCK:   -0.80 KCAL/MOL
REMARK 927      BINDING AFFINITY PREDICTED BY RF-SCORE:    0.00 PKD
ROOT
HETATM    1  C   UNL     1     -11.732  15.223  68.627  1.00  0.00    -0.367 C  
HETATM    2  C   UNL     1     -11.176  15.887  69.889  1.00  0.00    -0.348 C  
HETATM    3  C   UNL     1     -10.527  17.223  69.519  1.00  0.00    -0.054 C  
ENDROOT
BRANCH   2   4
HETATM    4  N   UNL     1     -12.273  16.062  70.842  1.00  0.00    -0.528 NA 
HETATM    5  H   UNL     1     -13.084  15.509  70.565  1.00  0.00     0.000 HD 
BRANCH   4   6
HETATM    6  C   UNL     1     -11.894  15.768  72.231  1.00  0.00    -0.498 C  
BRANCH   6   7
HETATM    7  C   UNL     1     -13.067  15.097  72.968  1.00  0.00    -0.502 C  
HETATM    8  O   UNL     1     -13.919  16.106  73.533  1.00  0.00    -0.825 OA 
HETATM    9  H   UNL     1     -14.643  15.692  73.988  1.00  0.00     0.000 HD 
BRANCH   7  10
HETATM   10  C   UNL     1     -13.883  14.196  72.036  1.00  0.00    -0.485 C  
BRANCH  10  11
HETATM   11  O   UNL     1     -13.891  12.857  72.558  1.00  0.00    -0.579 OA 
BRANCH  11  12
HETATM   12  C   UNL     1     -13.198  11.944  71.807  1.00  0.00    -0.321 A  
HETATM   13  C   UNL     1     -13.239  10.564  72.000  1.00  0.00    -0.483 A  
HETATM   14  C   UNL     1     -12.486   9.718  71.182  1.00  0.00    -0.443 A  
HETATM   15  C   UNL     1     -11.689  10.237  70.152  1.00  0.00    -0.364 A  
HETATM   16  C   UNL     1     -11.678  11.619  69.942  1.00  0.00    -0.414 A  
HETATM   17  C   UNL     1     -12.437  12.466  70.761  1.00  0.00    -0.356 A  
BRANCH  15  18
HETATM   18  C   UNL     1     -10.852   9.309  69.311  1.00  0.00    -0.152 C  
BRANCH  18  19
HETATM   19  O   UNL     1     -10.958   9.713  67.949  1.00  0.00    -0.243 OA 
BRANCH  19  20
HETATM   20  C   UNL     1     -10.285   8.816  67.069  1.00  0.00    -0.281 C  
BRANCH  20  21
HETATM   21  C   UNL     1      -9.185   8.112  67.854  1.00  0.00    -0.131 C  
BRANCH  21  22
HETATM   22  O   UNL     1      -9.295   6.699  67.693  1.00  0.00    -0.121 OA 
BRANCH  22  23
HETATM   23  C   UNL     1      -9.598   6.300  66.350  1.00  0.00    -0.119 C  
HETATM   24  C   UNL     1      -8.349   5.853  65.597  1.00  0.00    -0.143 C  
HETATM   25  C   UNL     1     -10.593   5.147  66.438  1.00  0.00    -0.336 C  
ENDBRANCH  22  23
ENDBRANCH  21  22
ENDBRANCH  20  21
ENDBRANCH  19  20
ENDBRANCH  18  19
ENDBRANCH  15  18
ENDBRANCH  11  12
ENDBRANCH  10  11
ENDBRANCH   7  10
ENDBRANCH   6   7
ENDBRANCH   4   6
ENDBRANCH   2   4
TORSDOF 12
ENDMDL
MODEL       80
REMARK 921   NORMALIZED FREE ENERGY PREDICTED BY IDOCK:   -4.63 KCAL/MOL
REMARK 922        TOTAL FREE ENERGY PREDICTED BY IDOCK:   -8.89 KCAL/MOL
REMARK 923 INTER-LIGAND FREE ENERGY PREDICTED BY IDOCK:   -8.14 KCAL/MOL
REMARK 924 INTRA-LIGAND FREE ENERGY PREDICTED BY IDOCK:   -0.75 KCAL/MOL
REMARK 927      BINDING AFFINITY PREDICTED BY RF-SCORE:    0.00 PKD
ROOT
HETATM    1  C   UNL     1     -10.311  18.201  67.900  1.00  0.00    -0.410 C  
HETATM    2  C   UNL     1     -10.488  18.528  66.415  1.00  0.00    -0.406 C  
HETATM    3  C   UNL     1      -9.822  19.871  66.105  1.00  0.00    -0.562 C  
ENDROOT
BRANCH   2   4
HETATM    4  N   UNL     1      -9.906  17.439  65.628  1.00  0.00    -0.543 NA 
HETATM    5  H   UNL     1      -9.197  16.943  66.168  1.00  0.00     0.000 HD 
BRANCH   4   6
HETATM    6  C   UNL     1     -10.906  16.502  65.096  1.00  0.00    -0.233 C  
BRANCH   6   7
HETATM    7  C   UNL     1     -10.299  15.092  64.980  1.00  0.00    -0.344 C  
HETATM    8  O   UNL     1      -9.383  14.874  66.065  1.00  0.00    -0.386 OA 
HETATM    9  H   UNL     1      -9.009  14.004  65.994  1.00  0.00     0.000 HD 
BRANCH   7  10
HETATM   10  C   UNL     1     -11.379  14.006  64.992  1.00  0.00    -0.342 C  
BRANCH  10  11
HETATM   11  O   UNL     1     -10.812  12.770  64.529  1.00  0.00    -0.308 OA 
BRANCH  11  12
HETATM   12  C   UNL     1     -10.755  11.776  65.469  1.00  0.00    -0.279 A  
HETATM   13  C   UNL     1     -11.325  11.851  66.740  1.00  0.00    -0.393 A  
HETATM   14  C   UNL     1     -11.201  10.782  67.630  1.00  0.00    -0.370 A  
HETATM   15  C   UNL     1     -10.516   9.615  67.261  1.00  0.00    -0.323 A  
HETATM   16  C   UNL     1      -9.976   9.532  65.975  1.00  0.00    -0.348 A  
HETATM   17  C   UNL     1     -10.103  10.605  65.081  1.00  0.00    -0.374 A  
BRANCH  15  18
HETATM   18  C   UNL     1     -10.359   8.492  68.252  1.00  0.00    -0.201 C  
BRANCH  18  19
HETATM   19  O   UNL     1      -9.121   8.661  68.936  1.00  0.00    -0.144 OA 
BRANCH  19  20
HETATM   20  C   UNL     1      -9.293   9.264  70.217  1.00  0.00    -0.239 C  
BRANCH  20  21
HETATM   21  C   UNL     1     -10.608   8.766  70.806  1.00  0.00    -0.220 C  
BRANCH  21  22
HETATM   22  O   UNL     1     -11.179   9.769  71.645  1.00  0.00    -0.331 OA 
BRANCH  22  23
HETATM   23  C   UNL     1     -12.560  10.028  71.363  1.00  0.00    -0.415 C  
HETATM   24  C   UNL     1     -13.484   9.111  72.160  1.00  0.00    -0.530 C  
HETATM   25  C   UNL     1     -12.828  11.484  71.733  1.00  0.00    -0.441 C  
ENDBRANCH  22  23
ENDBRANCH  21  22
ENDBRANCH  20  21
ENDBRANCH  19  20
ENDBRANCH  18  19
ENDBRANCH  15  18
ENDBRANCH  11  12
ENDBRANCH  10  11
ENDBRANCH   7  10
ENDBRANCH   6   7
ENDBRANCH   4   6
ENDBRANCH   2   4
TORSDOF 12
ENDMDL
MODEL       81
REMARK 921   NORMALIZED FREE ENERGY PREDICTED BY IDOCK:   -4.62 KCAL/MOL
REMARK 922        TOTAL FREE ENERGY PREDICTED BY IDOCK:   -8.88 KCAL/MOL
REMARK 923 INTER-LIGAND FREE ENERGY PREDICTED BY IDOCK:   -7.61 KCAL/MOL
REMARK 924 INTRA-LIGAND FREE ENERGY PREDICTED BY IDOCK:   -1.27 KCAL/MOL
REMARK 927      BINDING AFFINITY PREDICTED BY RF-SCORE:    0.00 PKD
ROOT
HETATM    1  C   UNL     1     -12.641  11.671  70.873  1.00  0.00    -0.409 C  
HETATM    2  C   UNL     1     -11.603  10.885  70.069  1.00  0.00    -0.341 C  
HETATM    3  C   UNL     1     -11.367   9.526  70.731  1.00  0.00    -0.387 C  
ENDROOT
BRANCH   2   4
HETATM    4  N   UNL     1     -12.092  10.742  68.696  1.00  0.00    -0.816 NA 
HETATM    5  H   UNL     1     -12.557  11.596  68.388  1.00  0.00     0.000 HD 
BRANCH   4   6
HETATM    6  C   UNL     1     -11.049  10.344  67.741  1.00  0.00    -0.299 C  
BRANCH   6   7
HETATM    7  C   UNL     1     -10.827  11.460  66.704  1.00  0.00    -0.289 C  
HETATM    8  O   UNL     1     -12.076  12.117  66.433  1.00  0.00    -0.630 OA 
HETATM    9  H   UNL     1     -11.939  12.806  65.793  1.00  0.00     0.000 HD 
BRANCH   7  10
HETATM   10  C   UNL     1      -9.799  12.488  67.186  1.00  0.00    -0.210 C  
BRANCH  10  11
HETATM   11  O   UNL     1     -10.187  13.795  66.733  1.00  0.00    -0.260 OA 
BRANCH  11  12
HETATM   12  C   UNL     1      -9.183  14.726  66.735  1.00  0.00    -0.260 A  
HETATM   13  C   UNL     1      -9.192  15.907  65.993  1.00  0.00    -0.372 A  
HETATM   14  C   UNL     1      -8.110  16.787  66.060  1.00  0.00    -0.144 A  
HETATM   15  C   UNL     1      -7.006  16.508  66.877  1.00  0.00    -0.258 A  
HETATM   16  C   UNL     1      -7.016  15.340  67.645  1.00  0.00    -0.209 A  
HETATM   17  C   UNL     1      -8.104  14.459  67.580  1.00  0.00    -0.204 A  
BRANCH  15  18
HETATM   18  C   UNL     1      -5.832  17.452  66.901  1.00  0.00    -0.168 C  
BRANCH  18  19
HETATM   19  O   UNL     1      -6.058  18.431  67.910  1.00  0.00    -0.176 OA 
BRANCH  19  20
HETATM   20  C   UNL     1      -6.163  19.746  67.369  1.00  0.00    -0.185 C  
BRANCH  20  21
HETATM   21  C   UNL     1      -7.562  20.275  67.667  1.00  0.00    -0.304 C  
BRANCH  21  22
HETATM   22  O   UNL     1      -8.227  19.410  68.586  1.00  0.00    -0.355 OA 
BRANCH  22  23
HETATM   23  C   UNL     1      -9.656  19.472  68.495  1.00  0.00    -0.399 C  
HETATM   24  C   UNL     1     -10.115  19.962  67.124  1.00  0.00    -0.573 C  
HETATM   25  C   UNL     1     -10.183  18.063  68.746  1.00  0.00    -0.362 C  
ENDBRANCH  22  23
ENDBRANCH  21  22
ENDBRANCH  20  21
ENDBRANCH  19  20
ENDBRANCH  18  19
ENDBRANCH  15  18
ENDBRANCH  11  12
ENDBRANCH  10  11
ENDBRANCH   7  10
ENDBRANCH   6   7
ENDBRANCH   4   6
ENDBRANCH   2   4
TORSDOF 12
ENDMDL
MODEL       82
REMARK 921   NORMALIZED FREE ENERGY PREDICTED BY IDOCK:   -4.60 KCAL/MOL
REMARK 922        TOTAL FREE ENERGY PREDICTED BY IDOCK:   -8.85 KCAL/MOL
REMARK 923 INTER-LIGAND FREE ENERGY PREDICTED BY IDOCK:   -7.83 KCAL/MOL
REMARK 924 INTRA-LIGAND FREE ENERGY PREDICTED BY IDOCK:   -1.02 KCAL/MOL
REMARK 927      BINDING AFFINITY PREDICTED BY RF-SCORE:    0.00 PKD
ROOT
HETATM    1  C   UNL     1     -12.561   6.959  71.300  1.00  0.00    -0.394 C  
HETATM    2  C   UNL     1     -11.945   8.347  71.493  1.00  0.00    -0.299 C  
HETATM    3  C   UNL     1     -10.795   8.259  72.500  1.00  0.00    -0.421 C  
ENDROOT
BRANCH   2   4
HETATM    4  N   UNL     1     -11.491   8.837  70.191  1.00  0.00    -0.454 NA 
HETATM    5  H   UNL     1     -10.926   9.680  70.299  1.00  0.00     0.000 HD 
BRANCH   4   6
HETATM    6  C   UNL     1     -10.772   7.827  69.403  1.00  0.00    -0.171 C  
BRANCH   6   7
HETATM    7  C   UNL     1      -9.393   8.367  68.984  1.00  0.00    -0.147 C  
HETATM    8  O   UNL     1      -8.427   7.304  69.032  1.00  0.00    -0.128 OA 
HETATM    9  H   UNL     1      -7.576   7.637  68.774  1.00  0.00     0.000 HD 
BRANCH   7  10
HETATM   10  C   UNL     1      -9.422   8.973  67.577  1.00  0.00    -0.137 C  
BRANCH  10  11
HETATM   11  O   UNL     1     -10.663   9.671  67.388  1.00  0.00    -0.275 OA 
BRANCH  11  12
HETATM   12  C   UNL     1     -10.574  11.035  67.480  1.00  0.00    -0.227 A  
HETATM   13  C   UNL     1      -9.548  11.723  68.128  1.00  0.00    -0.193 A  
HETATM   14  C   UNL     1      -9.556  13.118  68.171  1.00  0.00    -0.227 A  
HETATM   15  C   UNL     1     -10.583  13.851  67.559  1.00  0.00    -0.256 A  
HETATM   16  C   UNL     1     -11.591  13.158  66.882  1.00  0.00    -0.417 A  
HETATM   17  C   UNL     1     -11.580  11.757  66.836  1.00  0.00    -0.310 A  
BRANCH  15  18
HETATM   18  C   UNL     1     -10.593  15.354  67.656  1.00  0.00    -0.280 C  
BRANCH  18  19
HETATM   19  O   UNL     1     -11.773  15.755  68.345  1.00  0.00    -0.366 OA 
BRANCH  19  20
HETATM   20  C   UNL     1     -11.555  15.894  69.747  1.00  0.00    -0.338 C  
BRANCH  20  21
HETATM   21  C   UNL     1     -12.470  14.915  70.473  1.00  0.00    -0.363 C  
BRANCH  21  22
HETATM   22  O   UNL     1     -13.621  15.596  70.970  1.00  0.00    -0.588 OA 
BRANCH  22  23
HETATM   23  C   UNL     1     -14.097  15.075  72.218  1.00  0.00    -0.513 C  
HETATM   24  C   UNL     1     -13.938  13.559  72.296  1.00  0.00    -0.638 C  
HETATM   25  C   UNL     1     -13.282  15.741  73.322  1.00  0.00    -0.687 C  
ENDBRANCH  22  23
ENDBRANCH  21  22
ENDBRANCH  20  21
ENDBRANCH  19  20
ENDBRANCH  18  19
ENDBRANCH  15  18
ENDBRANCH  11  12
ENDBRANCH  10  11
ENDBRANCH   7  10
ENDBRANCH   6   7
ENDBRANCH   4   6
ENDBRANCH   2   4
TORSDOF 12
ENDMDL
MODEL       83
REMARK 921   NORMALIZED FREE ENERGY PREDICTED BY IDOCK:   -4.58 KCAL/MOL
REMARK 922        TOTAL FREE ENERGY PREDICTED BY IDOCK:   -8.82 KCAL/MOL
REMARK 923 INTER-LIGAND FREE ENERGY PREDICTED BY IDOCK:   -7.96 KCAL/MOL
REMARK 924 INTRA-LIGAND FREE ENERGY PREDICTED BY IDOCK:   -0.86 KCAL/MOL
REMARK 927      BINDING AFFINITY PREDICTED BY RF-SCORE:    0.00 PKD
ROOT
HETATM    1  C   UNL     1     -12.132  14.153  63.724  1.00  0.00    -0.192 C  
HETATM    2  C   UNL     1     -12.137  12.666  64.087  1.00  0.00    -0.439 C  
HETATM    3  C   UNL     1     -10.784  12.049  63.729  1.00  0.00    -0.478 C  
ENDROOT
BRANCH   2   4
HETATM    4  N   UNL     1     -12.431  12.540  65.516  1.00  0.00    -0.635 NA 
HETATM    5  H   UNL     1     -12.964  11.690  65.701  1.00  0.00     0.000 HD 
BRANCH   4   6
HETATM    6  C   UNL     1     -11.234  12.598  66.367  1.00  0.00    -0.305 C  
BRANCH   6   7
HETATM    7  C   UNL     1     -11.178  13.947  67.107  1.00  0.00    -0.313 C  
HETATM    8  O   UNL     1     -12.488  14.536  67.131  1.00  0.00    -0.567 OA 
HETATM    9  H   UNL     1     -12.454  15.368  67.588  1.00  0.00     0.000 HD 
BRANCH   7  10
HETATM   10  C   UNL     1     -10.659  13.788  68.540  1.00  0.00    -0.253 C  
BRANCH  10  11
HETATM   11  O   UNL     1     -11.773  13.753  69.446  1.00  0.00    -0.283 OA 
BRANCH  11  12
HETATM   12  C   UNL     1     -11.976  12.546  70.060  1.00  0.00    -0.299 A  
HETATM   13  C   UNL     1     -11.365  11.350  69.683  1.00  0.00    -0.347 A  
HETATM   14  C   UNL     1     -11.648  10.169  70.373  1.00  0.00    -0.396 A  
HETATM   15  C   UNL     1     -12.537  10.164  71.457  1.00  0.00    -0.537 A  
HETATM   16  C   UNL     1     -13.121  11.371  71.852  1.00  0.00    -0.505 A  
HETATM   17  C   UNL     1     -12.833  12.557  71.161  1.00  0.00    -0.303 A  
BRANCH  15  18
HETATM   18  C   UNL     1     -12.859   8.871  72.158  1.00  0.00    -0.409 C  
BRANCH  18  19
HETATM   19  O   UNL     1     -12.728   7.804  71.223  1.00  0.00    -0.310 OA 
BRANCH  19  20
HETATM   20  C   UNL     1     -12.120   6.653  71.804  1.00  0.00    -0.353 C  
BRANCH  20  21
HETATM   21  C   UNL     1     -11.093   7.121  72.828  1.00  0.00    -0.300 C  
BRANCH  21  22
HETATM   22  O   UNL     1      -9.906   6.335  72.728  1.00  0.00    -0.166 OA 
BRANCH  22  23
HETATM   23  C   UNL     1      -8.702   7.107  72.822  1.00  0.00    -0.118 C  
HETATM   24  C   UNL     1      -8.656   8.216  71.774  1.00  0.00    -0.191 C  
HETATM   25  C   UNL     1      -8.666   7.713  74.221  1.00  0.00    -0.261 C  
ENDBRANCH  22  23
ENDBRANCH  21  22
ENDBRANCH  20  21
ENDBRANCH  19  20
ENDBRANCH  18  19
ENDBRANCH  15  18
ENDBRANCH  11  12
ENDBRANCH  10  11
ENDBRANCH   7  10
ENDBRANCH   6   7
ENDBRANCH   4   6
ENDBRANCH   2   4
TORSDOF 12
ENDMDL
MODEL       84
REMARK 921   NORMALIZED FREE ENERGY PREDICTED BY IDOCK:   -4.57 KCAL/MOL
REMARK 922        TOTAL FREE ENERGY PREDICTED BY IDOCK:   -8.80 KCAL/MOL
REMARK 923 INTER-LIGAND FREE ENERGY PREDICTED BY IDOCK:   -7.39 KCAL/MOL
REMARK 924 INTRA-LIGAND FREE ENERGY PREDICTED BY IDOCK:   -1.41 KCAL/MOL
REMARK 927      BINDING AFFINITY PREDICTED BY RF-SCORE:    0.00 PKD
ROOT
HETATM    1  C   UNL     1     -12.303  13.500  70.280  1.00  0.00    -0.370 C  
HETATM    2  C   UNL     1     -11.607  12.407  69.465  1.00  0.00    -0.286 C  
HETATM    3  C   UNL     1     -11.957  11.035  70.046  1.00  0.00    -0.430 C  
ENDROOT
BRANCH   2   4
HETATM    4  N   UNL     1     -12.031  12.529  68.069  1.00  0.00    -0.363 NA 
HETATM    5  H   UNL     1     -11.930  13.491  67.744  1.00  0.00     0.000 HD 
BRANCH   4   6
HETATM    6  C   UNL     1     -11.343  11.598  67.164  1.00  0.00    -0.306 C  
BRANCH   6   7
HETATM    7  C   UNL     1     -11.234  12.213  65.757  1.00  0.00    -0.339 C  
HETATM    8  O   UNL     1     -12.546  12.551  65.279  1.00  0.00    -0.645 OA 
HETATM    9  H   UNL     1     -12.478  12.930  64.410  1.00  0.00     0.000 HD 
BRANCH   7  10
HETATM   10  C   UNL     1     -10.345  13.460  65.748  1.00  0.00    -0.293 C  
BRANCH  10  11
HETATM   11  O   UNL     1     -11.160  14.621  65.521  1.00  0.00    -0.320 OA 
BRANCH  11  12
HETATM   12  C   UNL     1     -10.840  15.708  66.292  1.00  0.00    -0.262 A  
HETATM   13  C   UNL     1     -10.762  15.699  67.684  1.00  0.00    -0.302 A  
HETATM   14  C   UNL     1     -10.435  16.866  68.377  1.00  0.00    -0.355 A  
HETATM   15  C   UNL     1     -10.170  18.059  67.690  1.00  0.00    -0.376 A  
HETATM   16  C   UNL     1     -10.216  18.055  66.293  1.00  0.00    -0.381 A  
HETATM   17  C   UNL     1     -10.541  16.881  65.598  1.00  0.00    -0.231 A  
BRANCH  15  18
HETATM   18  C   UNL     1      -9.861  19.316  68.460  1.00  0.00    -0.424 C  
BRANCH  18  19
HETATM   19  O   UNL     1      -8.602  19.818  68.022  1.00  0.00    -0.306 OA 
BRANCH  19  20
HETATM   20  C   UNL     1      -7.602  19.716  69.034  1.00  0.00    -0.285 C  
BRANCH  20  21
HETATM   21  C   UNL     1      -6.359  19.087  68.415  1.00  0.00    -0.228 C  
BRANCH  21  22
HETATM   22  O   UNL     1      -6.250  19.464  67.044  1.00  0.00    -0.179 OA 
BRANCH  22  23
HETATM   23  C   UNL     1      -5.872  18.381  66.184  1.00  0.00    -0.174 C  
HETATM   24  C   UNL     1      -6.717  17.136  66.435  1.00  0.00    -0.271 C  
HETATM   25  C   UNL     1      -6.066  18.860  64.748  1.00  0.00    -0.264 C  
ENDBRANCH  22  23
ENDBRANCH  21  22
ENDBRANCH  20  21
ENDBRANCH  19  20
ENDBRANCH  18  19
ENDBRANCH  15  18
ENDBRANCH  11  12
ENDBRANCH  10  11
ENDBRANCH   7  10
ENDBRANCH   6   7
ENDBRANCH   4   6
ENDBRANCH   2   4
TORSDOF 12
ENDMDL
MODEL       85
REMARK 921   NORMALIZED FREE ENERGY PREDICTED BY IDOCK:   -4.56 KCAL/MOL
REMARK 922        TOTAL FREE ENERGY PREDICTED BY IDOCK:   -8.77 KCAL/MOL
REMARK 923 INTER-LIGAND FREE ENERGY PREDICTED BY IDOCK:   -7.73 KCAL/MOL
REMARK 924 INTRA-LIGAND FREE ENERGY PREDICTED BY IDOCK:   -1.04 KCAL/MOL
REMARK 927      BINDING AFFINITY PREDICTED BY RF-SCORE:    0.00 PKD
ROOT
HETATM    1  C   UNL     1     -12.015   6.992  70.914  1.00  0.00    -0.409 C  
HETATM    2  C   UNL     1     -10.598   6.426  71.042  1.00  0.00    -0.234 C  
HETATM    3  C   UNL     1     -10.596   5.283  72.061  1.00  0.00    -0.279 C  
ENDROOT
BRANCH   2   4
HETATM    4  N   UNL     1     -10.158   5.976  69.721  1.00  0.00    -0.179 NA 
HETATM    5  H   UNL     1      -9.802   5.021  69.764  1.00  0.00     0.000 HD 
BRANCH   4   6
HETATM    6  C   UNL     1     -11.193   6.099  68.685  1.00  0.00    -0.185 C  
BRANCH   6   7
HETATM    7  C   UNL     1     -10.545   6.421  67.326  1.00  0.00    -0.314 C  
HETATM    8  O   UNL     1     -11.258   5.739  66.282  1.00  0.00    -0.756 OA 
HETATM    9  H   UNL     1     -10.859   5.937  65.443  1.00  0.00     0.000 HD 
BRANCH   7  10
HETATM   10  C   UNL     1     -10.534   7.927  67.043  1.00  0.00    -0.349 C  
BRANCH  10  11
HETATM   11  O   UNL     1     -10.309   8.637  68.272  1.00  0.00    -0.206 OA 
BRANCH  11  12
HETATM   12  C   UNL     1     -10.739   9.937  68.271  1.00  0.00    -0.234 A  
HETATM   13  C   UNL     1     -10.727  10.777  67.157  1.00  0.00    -0.324 A  
HETATM   14  C   UNL     1     -11.182  12.093  67.265  1.00  0.00    -0.366 A  
HETATM   15  C   UNL     1     -11.666  12.589  68.484  1.00  0.00    -0.369 A  
HETATM   16  C   UNL     1     -11.707  11.733  69.589  1.00  0.00    -0.413 A  
HETATM   17  C   UNL     1     -11.254  10.411  69.478  1.00  0.00    -0.325 A  
BRANCH  15  18
HETATM   18  C   UNL     1     -12.112  14.024  68.587  1.00  0.00    -0.297 C  
BRANCH  18  19
HETATM   19  O   UNL     1     -11.625  14.562  69.813  1.00  0.00    -0.266 OA 
BRANCH  19  20
HETATM   20  C   UNL     1     -11.332  15.953  69.710  1.00  0.00    -0.347 C  
BRANCH  20  21
HETATM   21  C   UNL     1     -10.985  16.262  68.258  1.00  0.00    -0.348 C  
BRANCH  21  22
HETATM   22  O   UNL     1      -9.814  17.075  68.196  1.00  0.00    -0.254 OA 
BRANCH  22  23
HETATM   23  C   UNL     1     -10.074  18.466  68.422  1.00  0.00    -0.390 C  
HETATM   24  C   UNL     1      -8.786  19.255  68.640  1.00  0.00    -0.415 C  
HETATM   25  C   UNL     1     -10.803  18.992  67.189  1.00  0.00    -0.473 C  
ENDBRANCH  22  23
ENDBRANCH  21  22
ENDBRANCH  20  21
ENDBRANCH  19  20
ENDBRANCH  18  19
ENDBRANCH  15  18
ENDBRANCH  11  12
ENDBRANCH  10  11
ENDBRANCH   7  10
ENDBRANCH   6   7
ENDBRANCH   4   6
ENDBRANCH   2   4
TORSDOF 12
ENDMDL
MODEL       86
REMARK 921   NORMALIZED FREE ENERGY PREDICTED BY IDOCK:   -4.55 KCAL/MOL
REMARK 922        TOTAL FREE ENERGY PREDICTED BY IDOCK:   -8.76 KCAL/MOL
REMARK 923 INTER-LIGAND FREE ENERGY PREDICTED BY IDOCK:   -7.99 KCAL/MOL
REMARK 924 INTRA-LIGAND FREE ENERGY PREDICTED BY IDOCK:   -0.76 KCAL/MOL
REMARK 927      BINDING AFFINITY PREDICTED BY RF-SCORE:    0.00 PKD
ROOT
HETATM    1  C   UNL     1      -8.768  18.019  67.431  1.00  0.00    -0.248 C  
HETATM    2  C   UNL     1      -9.776  18.931  68.136  1.00  0.00    -0.347 C  
HETATM    3  C   UNL     1     -10.642  19.639  67.092  1.00  0.00    -0.611 C  
ENDROOT
BRANCH   2   4
HETATM    4  N   UNL     1     -10.581  18.115  69.047  1.00  0.00    -0.334 NA 
HETATM    5  H   UNL     1     -11.511  18.516  69.165  1.00  0.00     0.000 HD 
BRANCH   4   6
HETATM    6  C   UNL     1     -10.671  16.704  68.644  1.00  0.00    -0.349 C  
BRANCH   6   7
HETATM    7  C   UNL     1     -10.815  15.808  69.887  1.00  0.00    -0.327 C  
HETATM    8  O   UNL     1     -11.605  16.486  70.877  1.00  0.00    -0.585 OA 
HETATM    9  H   UNL     1     -11.695  15.933  71.645  1.00  0.00     0.000 HD 
BRANCH   7  10
HETATM   10  C   UNL     1     -11.461  14.461  69.546  1.00  0.00    -0.288 C  
BRANCH  10  11
HETATM   11  O   UNL     1     -12.431  14.132  70.554  1.00  0.00    -0.326 OA 
BRANCH  11  12
HETATM   12  C   UNL     1     -12.548  12.795  70.824  1.00  0.00    -0.225 A  
HETATM   13  C   UNL     1     -13.280  12.259  71.883  1.00  0.00    -0.481 A  
HETATM   14  C   UNL     1     -13.327  10.877  72.076  1.00  0.00    -0.394 A  
HETATM   15  C   UNL     1     -12.653  10.006  71.208  1.00  0.00    -0.495 A  
HETATM   16  C   UNL     1     -11.949  10.546  70.128  1.00  0.00    -0.398 A  
HETATM   17  C   UNL     1     -11.905  11.934  69.933  1.00  0.00    -0.418 A  
BRANCH  15  18
HETATM   18  C   UNL     1     -12.684   8.521  71.461  1.00  0.00    -0.313 C  
BRANCH  18  19
HETATM   19  O   UNL     1     -11.398   7.986  71.166  1.00  0.00    -0.257 OA 
BRANCH  19  20
HETATM   20  C   UNL     1     -11.479   6.790  70.393  1.00  0.00    -0.365 C  
BRANCH  20  21
HETATM   21  C   UNL     1     -10.063   6.368  70.017  1.00  0.00    -0.172 C  
BRANCH  21  22
HETATM   22  O   UNL     1      -9.636   7.068  68.850  1.00  0.00    -0.141 OA 
BRANCH  22  23
HETATM   23  C   UNL     1     -10.681   7.261  67.887  1.00  0.00    -0.172 C  
HETATM   24  C   UNL     1     -10.535   8.590  67.151  1.00  0.00    -0.370 C  
HETATM   25  C   UNL     1     -10.597   6.105  66.896  1.00  0.00    -0.380 C  
ENDBRANCH  22  23
ENDBRANCH  21  22
ENDBRANCH  20  21
ENDBRANCH  19  20
ENDBRANCH  18  19
ENDBRANCH  15  18
ENDBRANCH  11  12
ENDBRANCH  10  11
ENDBRANCH   7  10
ENDBRANCH   6   7
ENDBRANCH   4   6
ENDBRANCH   2   4
TORSDOF 12
ENDMDL
MODEL       87
REMARK 921   NORMALIZED FREE ENERGY PREDICTED BY IDOCK:   -4.54 KCAL/MOL
REMARK 922        TOTAL FREE ENERGY PREDICTED BY IDOCK:   -8.75 KCAL/MOL
REMARK 923 INTER-LIGAND FREE ENERGY PREDICTED BY IDOCK:   -8.03 KCAL/MOL
REMARK 924 INTRA-LIGAND FREE ENERGY PREDICTED BY IDOCK:   -0.71 KCAL/MOL
REMARK 927      BINDING AFFINITY PREDICTED BY RF-SCORE:    0.00 PKD
ROOT
HETATM    1  C   UNL     1      -8.639  19.482  68.409  1.00  0.00    -0.389 C  
HETATM    2  C   UNL     1     -10.080  18.969  68.352  1.00  0.00    -0.403 C  
HETATM    3  C   UNL     1     -10.602  19.074  66.917  1.00  0.00    -0.518 C  
ENDROOT
BRANCH   2   4
HETATM    4  N   UNL     1     -10.099  17.587  68.837  1.00  0.00    -0.352 NA 
HETATM    5  H   UNL     1     -11.058  17.259  68.953  1.00  0.00     0.000 HD 
BRANCH   4   6
HETATM    6  C   UNL     1      -9.330  16.661  67.995  1.00  0.00    -0.227 C  
BRANCH   6   7
HETATM    7  C   UNL     1      -9.517  15.216  68.493  1.00  0.00    -0.203 C  
HETATM    8  O   UNL     1      -9.086  15.120  69.860  1.00  0.00    -0.450 OA 
HETATM    9  H   UNL     1      -9.202  14.228  70.167  1.00  0.00     0.000 HD 
BRANCH   7  10
HETATM   10  C   UNL     1     -10.975  14.759  68.379  1.00  0.00    -0.252 C  
BRANCH  10  11
HETATM   11  O   UNL     1     -11.645  14.999  69.627  1.00  0.00    -0.267 OA 
BRANCH  11  12
HETATM   12  C   UNL     1     -12.068  13.870  70.277  1.00  0.00    -0.353 A  
HETATM   13  C   UNL     1     -12.697  13.860  71.522  1.00  0.00    -0.440 A  
HETATM   14  C   UNL     1     -13.082  12.650  72.104  1.00  0.00    -0.438 A  
HETATM   15  C   UNL     1     -12.855  11.432  71.448  1.00  0.00    -0.502 A  
HETATM   16  C   UNL     1     -12.255  11.451  70.186  1.00  0.00    -0.401 A  
HETATM   17  C   UNL     1     -11.872  12.666  69.601  1.00  0.00    -0.379 A  
BRANCH  15  18
HETATM   18  C   UNL     1     -13.240  10.137  72.114  1.00  0.00    -0.362 C  
BRANCH  18  19
HETATM   19  O   UNL     1     -12.143   9.234  72.016  1.00  0.00    -0.366 OA 
BRANCH  19  20
HETATM   20  C   UNL     1     -12.555   7.934  71.596  1.00  0.00    -0.321 C  
BRANCH  20  21
HETATM   21  C   UNL     1     -11.416   7.307  70.800  1.00  0.00    -0.299 C  
BRANCH  21  22
HETATM   22  O   UNL     1     -11.389   5.896  71.013  1.00  0.00    -0.263 OA 
BRANCH  22  23
HETATM   23  C   UNL     1     -10.559   5.503  72.113  1.00  0.00    -0.226 C  
HETATM   24  C   UNL     1     -11.368   4.837  73.223  1.00  0.00    -0.408 C  
HETATM   25  C   UNL     1      -9.523   4.525  71.567  1.00  0.00    -0.214 C  
ENDBRANCH  22  23
ENDBRANCH  21  22
ENDBRANCH  20  21
ENDBRANCH  19  20
ENDBRANCH  18  19
ENDBRANCH  15  18
ENDBRANCH  11  12
ENDBRANCH  10  11
ENDBRANCH   7  10
ENDBRANCH   6   7
ENDBRANCH   4   6
ENDBRANCH   2   4
TORSDOF 12
ENDMDL
MODEL       88
REMARK 921   NORMALIZED FREE ENERGY PREDICTED BY IDOCK:   -4.52 KCAL/MOL
REMARK 922        TOTAL FREE ENERGY PREDICTED BY IDOCK:   -8.71 KCAL/MOL
REMARK 923 INTER-LIGAND FREE ENERGY PREDICTED BY IDOCK:   -7.80 KCAL/MOL
REMARK 924 INTRA-LIGAND FREE ENERGY PREDICTED BY IDOCK:   -0.91 KCAL/MOL
REMARK 927      BINDING AFFINITY PREDICTED BY RF-SCORE:    0.00 PKD
ROOT
HETATM    1  C   UNL     1     -10.683  19.680  66.817  1.00  0.00    -0.562 C  
HETATM    2  C   UNL     1      -9.583  18.884  66.112  1.00  0.00    -0.242 C  
HETATM    3  C   UNL     1      -8.286  18.979  66.920  1.00  0.00    -0.289 C  
ENDROOT
BRANCH   2   4
HETATM    4  N   UNL     1     -10.033  17.498  65.968  1.00  0.00    -0.516 NA 
HETATM    5  H   UNL     1     -10.454  17.349  65.051  1.00  0.00     0.000 HD 
BRANCH   4   6
HETATM    6  C   UNL     1      -8.976  16.510  66.223  1.00  0.00    -0.324 C  
BRANCH   6   7
HETATM    7  C   UNL     1      -9.393  15.574  67.371  1.00  0.00    -0.207 C  
HETATM    8  O   UNL     1      -8.491  15.739  68.476  1.00  0.00    -0.166 OA 
HETATM    9  H   UNL     1      -8.749  15.161  69.185  1.00  0.00     0.000 HD 
BRANCH   7  10
HETATM   10  C   UNL     1     -10.829  15.845  67.833  1.00  0.00    -0.327 C  
BRANCH  10  11
HETATM   11  O   UNL     1     -11.708  14.875  67.242  1.00  0.00    -0.362 OA 
BRANCH  11  12
HETATM   12  C   UNL     1     -11.672  13.637  67.826  1.00  0.00    -0.362 A  
HETATM   13  C   UNL     1     -11.291  12.462  67.177  1.00  0.00    -0.390 A  
HETATM   14  C   UNL     1     -11.298  11.246  67.864  1.00  0.00    -0.367 A  
HETATM   15  C   UNL     1     -11.675  11.184  69.213  1.00  0.00    -0.401 A  
HETATM   16  C   UNL     1     -12.024  12.369  69.868  1.00  0.00    -0.369 A  
HETATM   17  C   UNL     1     -12.014  13.590  69.178  1.00  0.00    -0.378 A  
BRANCH  15  18
HETATM   18  C   UNL     1     -11.716   9.855  69.921  1.00  0.00    -0.071 C  
BRANCH  18  19
HETATM   19  O   UNL     1     -11.339  10.055  71.280  1.00  0.00    -0.357 OA 
BRANCH  19  20
HETATM   20  C   UNL     1     -11.296   8.831  72.010  1.00  0.00    -0.371 C  
BRANCH  20  21
HETATM   21  C   UNL     1     -12.660   8.160  71.897  1.00  0.00    -0.335 C  
BRANCH  21  22
HETATM   22  O   UNL     1     -12.500   6.769  71.621  1.00  0.00    -0.351 OA 
BRANCH  22  23
HETATM   23  C   UNL     1     -11.171   6.418  71.215  1.00  0.00    -0.292 C  
HETATM   24  C   UNL     1     -10.647   5.204  71.977  1.00  0.00    -0.266 C  
HETATM   25  C   UNL     1     -11.225   6.110  69.721  1.00  0.00    -0.494 C  
ENDBRANCH  22  23
ENDBRANCH  21  22
ENDBRANCH  20  21
ENDBRANCH  19  20
ENDBRANCH  18  19
ENDBRANCH  15  18
ENDBRANCH  11  12
ENDBRANCH  10  11
ENDBRANCH   7  10
ENDBRANCH   6   7
ENDBRANCH   4   6
ENDBRANCH   2   4
TORSDOF 12
ENDMDL
MODEL       89
REMARK 921   NORMALIZED FREE ENERGY PREDICTED BY IDOCK:   -4.51 KCAL/MOL
REMARK 922        TOTAL FREE ENERGY PREDICTED BY IDOCK:   -8.69 KCAL/MOL
REMARK 923 INTER-LIGAND FREE ENERGY PREDICTED BY IDOCK:   -7.51 KCAL/MOL
REMARK 924 INTRA-LIGAND FREE ENERGY PREDICTED BY IDOCK:   -1.17 KCAL/MOL
REMARK 927      BINDING AFFINITY PREDICTED BY RF-SCORE:    0.00 PKD
ROOT
HETATM    1  C   UNL     1      -8.501   7.808  66.260  1.00  0.00    -0.143 C  
HETATM    2  C   UNL     1      -9.798   8.616  66.173  1.00  0.00    -0.198 C  
HETATM    3  C   UNL     1     -10.477   8.642  67.544  1.00  0.00    -0.335 C  
ENDROOT
BRANCH   2   4
HETATM    4  N   UNL     1      -9.472   9.964  65.703  1.00  0.00    -0.215 NA 
HETATM    5  H   UNL     1      -8.503  10.198  65.919  1.00  0.00     0.000 HD 
BRANCH   4   6
HETATM    6  C   UNL     1      -9.752  10.170  64.275  1.00  0.00    -0.258 C  
BRANCH   6   7
HETATM    7  C   UNL     1      -9.601  11.660  63.917  1.00  0.00    -0.157 C  
HETATM    8  O   UNL     1      -8.842  11.786  62.704  1.00  0.00    -0.610 OA 
HETATM    9  H   UNL     1      -8.748  12.705  62.482  1.00  0.00     0.000 HD 
BRANCH   7  10
HETATM   10  C   UNL     1     -10.960  12.345  63.747  1.00  0.00    -0.447 C  
BRANCH  10  11
HETATM   11  O   UNL     1     -11.849  11.898  64.784  1.00  0.00    -0.286 OA 
BRANCH  11  12
HETATM   12  C   UNL     1     -11.849  12.671  65.914  1.00  0.00    -0.444 A  
HETATM   13  C   UNL     1     -12.011  14.056  65.928  1.00  0.00    -0.424 A  
HETATM   14  C   UNL     1     -11.987  14.754  67.138  1.00  0.00    -0.224 A  
HETATM   15  C   UNL     1     -11.811  14.079  68.354  1.00  0.00    -0.397 A  
HETATM   16  C   UNL     1     -11.682  12.687  68.337  1.00  0.00    -0.377 A  
HETATM   17  C   UNL     1     -11.710  11.987  67.122  1.00  0.00    -0.344 A  
BRANCH  15  18
HETATM   18  C   UNL     1     -11.746  14.857  69.642  1.00  0.00    -0.320 C  
BRANCH  18  19
HETATM   19  O   UNL     1     -10.945  16.015  69.431  1.00  0.00    -0.273 OA 
BRANCH  19  20
HETATM   20  C   UNL     1      -9.552  15.711  69.423  1.00  0.00    -0.287 C  
BRANCH  20  21
HETATM   21  C   UNL     1      -8.807  16.897  68.821  1.00  0.00    -0.255 C  
BRANCH  21  22
HETATM   22  O   UNL     1      -9.701  17.992  68.631  1.00  0.00    -0.326 OA 
BRANCH  22  23
HETATM   23  C   UNL     1      -9.597  18.594  67.334  1.00  0.00    -0.296 C  
HETATM   24  C   UNL     1      -9.829  17.580  66.218  1.00  0.00    -0.295 C  
HETATM   25  C   UNL     1     -10.651  19.694  67.264  1.00  0.00    -0.598 C  
ENDBRANCH  22  23
ENDBRANCH  21  22
ENDBRANCH  20  21
ENDBRANCH  19  20
ENDBRANCH  18  19
ENDBRANCH  15  18
ENDBRANCH  11  12
ENDBRANCH  10  11
ENDBRANCH   7  10
ENDBRANCH   6   7
ENDBRANCH   4   6
ENDBRANCH   2   4
TORSDOF 12
ENDMDL
MODEL       90
REMARK 921   NORMALIZED FREE ENERGY PREDICTED BY IDOCK:   -4.50 KCAL/MOL
REMARK 922        TOTAL FREE ENERGY PREDICTED BY IDOCK:   -8.67 KCAL/MOL
REMARK 923 INTER-LIGAND FREE ENERGY PREDICTED BY IDOCK:   -7.63 KCAL/MOL
REMARK 924 INTRA-LIGAND FREE ENERGY PREDICTED BY IDOCK:   -1.04 KCAL/MOL
REMARK 927      BINDING AFFINITY PREDICTED BY RF-SCORE:    0.00 PKD
ROOT
HETATM    1  C   UNL     1     -11.382  15.063  65.440  1.00  0.00    -0.328 C  
HETATM    2  C   UNL     1     -10.625  14.048  66.301  1.00  0.00    -0.281 C  
HETATM    3  C   UNL     1     -11.617  13.292  67.188  1.00  0.00    -0.402 C  
ENDROOT
BRANCH   2   4
HETATM    4  N   UNL     1      -9.892  13.144  65.413  1.00  0.00    -0.485 NA 
HETATM    5  H   UNL     1      -9.699  12.257  65.880  1.00  0.00     0.000 HD 
BRANCH   4   6
HETATM    6  C   UNL     1     -10.561  12.919  64.124  1.00  0.00    -0.416 C  
BRANCH   6   7
HETATM    7  C   UNL     1     -10.857  11.420  63.938  1.00  0.00    -0.393 C  
HETATM    8  O   UNL     1     -11.705  11.238  62.793  1.00  0.00    -0.688 OA 
HETATM    9  H   UNL     1     -11.888  10.312  62.677  1.00  0.00     0.000 HD 
BRANCH   7  10
HETATM   10  C   UNL     1      -9.572  10.603  63.762  1.00  0.00    -0.306 C  
BRANCH  10  11
HETATM   11  O   UNL     1      -8.908  10.487  65.031  1.00  0.00    -0.179 OA 
BRANCH  11  12
HETATM   12  C   UNL     1      -9.360   9.466  65.824  1.00  0.00    -0.239 A  
HETATM   13  C   UNL     1      -9.035   8.121  65.650  1.00  0.00    -0.128 A  
HETATM   14  C   UNL     1      -9.557   7.155  66.512  1.00  0.00    -0.203 A  
HETATM   15  C   UNL     1     -10.404   7.517  67.569  1.00  0.00    -0.321 A  
HETATM   16  C   UNL     1     -10.699   8.870  67.760  1.00  0.00    -0.204 A  
HETATM   17  C   UNL     1     -10.171   9.839  66.896  1.00  0.00    -0.310 A  
BRANCH  15  18
HETATM   18  C   UNL     1     -10.989   6.453  68.461  1.00  0.00    -0.319 C  
BRANCH  18  19
HETATM   19  O   UNL     1      -9.987   6.032  69.381  1.00  0.00    -0.158 OA 
BRANCH  19  20
HETATM   20  C   UNL     1     -10.461   6.032  70.726  1.00  0.00    -0.239 C  
BRANCH  20  21
HETATM   21  C   UNL     1     -11.803   6.753  70.760  1.00  0.00    -0.392 C  
BRANCH  21  22
HETATM   22  O   UNL     1     -11.689   7.967  71.501  1.00  0.00    -0.267 OA 
BRANCH  22  23
HETATM   23  C   UNL     1     -12.949   8.480  71.952  1.00  0.00    -0.362 C  
HETATM   24  C   UNL     1     -13.226   9.873  71.393  1.00  0.00    -0.487 C  
HETATM   25  C   UNL     1     -14.025   7.508  71.479  1.00  0.00    -0.522 C  
ENDBRANCH  22  23
ENDBRANCH  21  22
ENDBRANCH  20  21
ENDBRANCH  19  20
ENDBRANCH  18  19
ENDBRANCH  15  18
ENDBRANCH  11  12
ENDBRANCH  10  11
ENDBRANCH   7  10
ENDBRANCH   6   7
ENDBRANCH   4   6
ENDBRANCH   2   4
TORSDOF 12
ENDMDL
MODEL       91
REMARK 921   NORMALIZED FREE ENERGY PREDICTED BY IDOCK:   -4.49 KCAL/MOL
REMARK 922        TOTAL FREE ENERGY PREDICTED BY IDOCK:   -8.66 KCAL/MOL
REMARK 923 INTER-LIGAND FREE ENERGY PREDICTED BY IDOCK:   -7.48 KCAL/MOL
REMARK 924 INTRA-LIGAND FREE ENERGY PREDICTED BY IDOCK:   -1.18 KCAL/MOL
REMARK 927      BINDING AFFINITY PREDICTED BY RF-SCORE:    0.00 PKD
ROOT
HETATM    1  C   UNL     1     -11.249  10.223  70.192  1.00  0.00    -0.387 C  
HETATM    2  C   UNL     1     -12.396  11.214  70.405  1.00  0.00    -0.344 C  
HETATM    3  C   UNL     1     -13.034  10.969  71.775  1.00  0.00    -0.544 C  
ENDROOT
BRANCH   2   4
HETATM    4  N   UNL     1     -11.861  12.572  70.291  1.00  0.00    -0.538 NA 
HETATM    5  H   UNL     1     -11.760  12.840  69.312  1.00  0.00     0.000 HD 
BRANCH   4   6
HETATM    6  C   UNL     1     -12.646  13.574  71.025  1.00  0.00    -0.359 C  
BRANCH   6   7
HETATM    7  C   UNL     1     -12.641  14.912  70.263  1.00  0.00    -0.313 C  
HETATM    8  O   UNL     1     -12.761  15.996  71.197  1.00  0.00    -0.552 OA 
HETATM    9  H   UNL     1     -12.758  16.822  70.727  1.00  0.00     0.000 HD 
BRANCH   7  10
HETATM   10  C   UNL     1     -11.367  15.087  69.431  1.00  0.00    -0.297 C  
BRANCH  10  11
HETATM   11  O   UNL     1     -11.719  15.195  68.042  1.00  0.00    -0.345 OA 
BRANCH  11  12
HETATM   12  C   UNL     1     -11.388  14.107  67.279  1.00  0.00    -0.332 A  
HETATM   13  C   UNL     1     -12.257  13.455  66.405  1.00  0.00    -0.435 A  
HETATM   14  C   UNL     1     -11.821  12.346  65.677  1.00  0.00    -0.468 A  
HETATM   15  C   UNL     1     -10.506  11.876  65.803  1.00  0.00    -0.295 A  
HETATM   16  C   UNL     1      -9.629  12.554  66.655  1.00  0.00    -0.239 A  
HETATM   17  C   UNL     1     -10.067  13.669  67.382  1.00  0.00    -0.241 A  
BRANCH  15  18
HETATM   18  C   UNL     1     -10.070  10.652  65.040  1.00  0.00    -0.321 C  
BRANCH  18  19
HETATM   19  O   UNL     1      -9.399   9.774  65.939  1.00  0.00    -0.173 OA 
BRANCH  19  20
HETATM   20  C   UNL     1     -10.272   8.778  66.468  1.00  0.00    -0.244 C  
BRANCH  20  21
HETATM   21  C   UNL     1      -9.426   7.733  67.185  1.00  0.00    -0.155 C  
BRANCH  21  22
HETATM   22  O   UNL     1     -10.240   6.629  67.578  1.00  0.00    -0.147 OA 
BRANCH  22  23
HETATM   23  C   UNL     1     -10.062   6.251  68.949  1.00  0.00    -0.168 C  
HETATM   24  C   UNL     1      -8.969   7.071  69.627  1.00  0.00    -0.141 C  
HETATM   25  C   UNL     1     -11.396   6.479  69.654  1.00  0.00    -0.443 C  
ENDBRANCH  22  23
ENDBRANCH  21  22
ENDBRANCH  20  21
ENDBRANCH  19  20
ENDBRANCH  18  19
ENDBRANCH  15  18
ENDBRANCH  11  12
ENDBRANCH  10  11
ENDBRANCH   7  10
ENDBRANCH   6   7
ENDBRANCH   4   6
ENDBRANCH   2   4
TORSDOF 12
ENDMDL
MODEL       92
REMARK 921   NORMALIZED FREE ENERGY PREDICTED BY IDOCK:   -4.49 KCAL/MOL
REMARK 922        TOTAL FREE ENERGY PREDICTED BY IDOCK:   -8.65 KCAL/MOL
REMARK 923 INTER-LIGAND FREE ENERGY PREDICTED BY IDOCK:   -7.57 KCAL/MOL
REMARK 924 INTRA-LIGAND FREE ENERGY PREDICTED BY IDOCK:   -1.08 KCAL/MOL
REMARK 927      BINDING AFFINITY PREDICTED BY RF-SCORE:    0.00 PKD
ROOT
HETATM    1  C   UNL     1     -11.295  15.599  64.582  1.00  0.00    -0.355 C  
HETATM    2  C   UNL     1     -11.090  14.166  65.081  1.00  0.00    -0.348 C  
HETATM    3  C   UNL     1     -12.452  13.514  65.333  1.00  0.00    -0.540 C  
ENDROOT
BRANCH   2   4
HETATM    4  N   UNL     1     -10.314  13.433  64.079  1.00  0.00    -0.706 NA 
HETATM    5  H   UNL     1      -9.388  13.202  64.438  1.00  0.00     0.000 HD 
BRANCH   4   6
HETATM    6  C   UNL     1     -10.993  12.230  63.578  1.00  0.00    -0.459 C  
BRANCH   6   7
HETATM    7  C   UNL     1      -9.962  11.127  63.280  1.00  0.00    -0.379 C  
HETATM    8  O   UNL     1      -8.756  11.722  62.774  1.00  0.00    -0.651 OA 
HETATM    9  H   UNL     1      -8.119  11.041  62.590  1.00  0.00     0.000 HD 
BRANCH   7  10
HETATM   10  C   UNL     1      -9.642  10.295  64.526  1.00  0.00    -0.316 C  
BRANCH  10  11
HETATM   11  O   UNL     1     -10.138  10.976  65.690  1.00  0.00    -0.235 OA 
BRANCH  11  12
HETATM   12  C   UNL     1     -10.358  10.171  66.776  1.00  0.00    -0.222 A  
HETATM   13  C   UNL     1     -10.066   8.809  66.828  1.00  0.00    -0.359 A  
HETATM   14  C   UNL     1     -10.339   8.075  67.985  1.00  0.00    -0.262 A  
HETATM   15  C   UNL     1     -10.898   8.693  69.112  1.00  0.00    -0.060 A  
HETATM   16  C   UNL     1     -11.159  10.065  69.067  1.00  0.00    -0.221 A  
HETATM   17  C   UNL     1     -10.881  10.801  67.906  1.00  0.00    -0.313 A  
BRANCH  15  18
HETATM   18  C   UNL     1     -11.223   7.873  70.333  1.00  0.00    -0.234 C  
BRANCH  18  19
HETATM   19  O   UNL     1     -10.022   7.662  71.070  1.00  0.00    -0.182 OA 
BRANCH  19  20
HETATM   20  C   UNL     1      -9.906   8.557  72.174  1.00  0.00    -0.318 C  
BRANCH  20  21
HETATM   21  C   UNL     1      -9.427   7.764  73.384  1.00  0.00    -0.287 C  
BRANCH  21  22
HETATM   22  O   UNL     1     -10.531   7.116  74.013  1.00  0.00    -0.353 OA 
BRANCH  22  23
HETATM   23  C   UNL     1     -10.422   5.687  74.025  1.00  0.00    -0.273 C  
HETATM   24  C   UNL     1     -11.311   5.041  72.966  1.00  0.00    -0.374 C  
HETATM   25  C   UNL     1      -8.960   5.346  73.755  1.00  0.00    -0.124 C  
ENDBRANCH  22  23
ENDBRANCH  21  22
ENDBRANCH  20  21
ENDBRANCH  19  20
ENDBRANCH  18  19
ENDBRANCH  15  18
ENDBRANCH  11  12
ENDBRANCH  10  11
ENDBRANCH   7  10
ENDBRANCH   6   7
ENDBRANCH   4   6
ENDBRANCH   2   4
TORSDOF 12
ENDMDL
MODEL       93
REMARK 921   NORMALIZED FREE ENERGY PREDICTED BY IDOCK:   -4.45 KCAL/MOL
REMARK 922        TOTAL FREE ENERGY PREDICTED BY IDOCK:   -8.60 KCAL/MOL
REMARK 923 INTER-LIGAND FREE ENERGY PREDICTED BY IDOCK:   -7.87 KCAL/MOL
REMARK 924 INTRA-LIGAND FREE ENERGY PREDICTED BY IDOCK:   -0.73 KCAL/MOL
REMARK 927      BINDING AFFINITY PREDICTED BY RF-SCORE:    0.00 PKD
ROOT
HETATM    1  C   UNL     1     -10.059   7.216  73.501  1.00  0.00    -0.374 C  
HETATM    2  C   UNL     1      -9.676   8.067  72.287  1.00  0.00    -0.229 C  
HETATM    3  C   UNL     1      -8.879   7.214  71.297  1.00  0.00    -0.129 C  
ENDROOT
BRANCH   2   4
HETATM    4  N   UNL     1     -10.902   8.595  71.686  1.00  0.00    -0.278 NA 
HETATM    5  H   UNL     1     -11.058   8.185  70.766  1.00  0.00     0.000 HD 
BRANCH   4   6
HETATM    6  C   UNL     1     -12.088   8.432  72.537  1.00  0.00    -0.337 C  
BRANCH   6   7
HETATM    7  C   UNL     1     -13.250   9.282  71.992  1.00  0.00    -0.447 C  
HETATM    8  O   UNL     1     -14.307   9.330  72.964  1.00  0.00    -1.004 OA 
HETATM    9  H   UNL     1     -15.024   9.855  72.627  1.00  0.00     0.000 HD 
BRANCH   7  10
HETATM   10  C   UNL     1     -12.801  10.706  71.648  1.00  0.00    -0.465 C  
BRANCH  10  11
HETATM   11  O   UNL     1     -12.226  10.716  70.332  1.00  0.00    -0.294 OA 
BRANCH  11  12
HETATM   12  C   UNL     1     -11.923  11.961  69.847  1.00  0.00    -0.325 A  
HETATM   13  C   UNL     1     -12.240  13.161  70.484  1.00  0.00    -0.405 A  
HETATM   14  C   UNL     1     -11.892  14.380  69.898  1.00  0.00    -0.382 A  
HETATM   15  C   UNL     1     -11.212  14.421  68.673  1.00  0.00    -0.280 A  
HETATM   16  C   UNL     1     -10.866  13.216  68.056  1.00  0.00    -0.261 A  
HETATM   17  C   UNL     1     -11.213  11.992  68.646  1.00  0.00    -0.309 A  
BRANCH  15  18
HETATM   18  C   UNL     1     -10.885  15.748  68.040  1.00  0.00    -0.309 C  
BRANCH  18  19
HETATM   19  O   UNL     1     -10.667  16.702  69.076  1.00  0.00    -0.312 OA 
BRANCH  19  20
HETATM   20  C   UNL     1      -9.372  17.294  68.996  1.00  0.00    -0.120 C  
BRANCH  20  21
HETATM   21  C   UNL     1      -9.526  18.704  68.436  1.00  0.00    -0.343 C  
BRANCH  21  22
HETATM   22  O   UNL     1      -8.364  19.478  68.731  1.00  0.00    -0.362 OA 
BRANCH  22  23
HETATM   23  C   UNL     1      -7.552  19.747  67.581  1.00  0.00    -0.282 C  
HETATM   24  C   UNL     1      -8.389  19.855  66.309  1.00  0.00    -0.371 C  
HETATM   25  C   UNL     1      -6.830  21.066  67.840  1.00  0.00    -0.250 C  
ENDBRANCH  22  23
ENDBRANCH  21  22
ENDBRANCH  20  21
ENDBRANCH  19  20
ENDBRANCH  18  19
ENDBRANCH  15  18
ENDBRANCH  11  12
ENDBRANCH  10  11
ENDBRANCH   7  10
ENDBRANCH   6   7
ENDBRANCH   4   6
ENDBRANCH   2   4
TORSDOF 12
ENDMDL
MODEL       94
REMARK 921   NORMALIZED FREE ENERGY PREDICTED BY IDOCK:   -4.45 KCAL/MOL
REMARK 922        TOTAL FREE ENERGY PREDICTED BY IDOCK:   -8.58 KCAL/MOL
REMARK 923 INTER-LIGAND FREE ENERGY PREDICTED BY IDOCK:   -7.99 KCAL/MOL
REMARK 924 INTRA-LIGAND FREE ENERGY PREDICTED BY IDOCK:   -0.59 KCAL/MOL
REMARK 927      BINDING AFFINITY PREDICTED BY RF-SCORE:    0.00 PKD
ROOT
HETATM    1  C   UNL     1      -9.042  18.523  67.919  1.00  0.00    -0.306 C  
HETATM    2  C   UNL     1     -10.171  18.279  66.914  1.00  0.00    -0.375 C  
HETATM    3  C   UNL     1     -10.725  19.622  66.432  1.00  0.00    -0.530 C  
ENDROOT
BRANCH   2   4
HETATM    4  N   UNL     1      -9.640  17.481  65.807  1.00  0.00    -0.520 NA 
HETATM    5  H   UNL     1      -8.625  17.564  65.756  1.00  0.00     0.000 HD 
BRANCH   4   6
HETATM    6  C   UNL     1     -10.046  16.070  65.854  1.00  0.00    -0.353 C  
BRANCH   6   7
HETATM    7  C   UNL     1     -11.387  15.881  65.121  1.00  0.00    -0.118 C  
HETATM    8  O   UNL     1     -11.304  16.467  63.813  1.00  0.00    -1.553 OA 
HETATM    9  H   UNL     1     -12.132  16.351  63.360  1.00  0.00     0.000 HD 
BRANCH   7  10
HETATM   10  C   UNL     1     -11.765  14.401  65.000  1.00  0.00    -0.389 C  
BRANCH  10  11
HETATM   11  O   UNL     1     -10.777  13.724  64.207  1.00  0.00    -0.372 OA 
BRANCH  11  12
HETATM   12  C   UNL     1     -10.382  12.507  64.696  1.00  0.00    -0.317 A  
HETATM   13  C   UNL     1     -10.261  11.345  63.934  1.00  0.00    -0.415 A  
HETATM   14  C   UNL     1      -9.858  10.150  64.535  1.00  0.00    -0.334 A  
HETATM   15  C   UNL     1      -9.560  10.098  65.903  1.00  0.00    -0.274 A  
HETATM   16  C   UNL     1      -9.650  11.273  66.656  1.00  0.00    -0.218 A  
HETATM   17  C   UNL     1     -10.051  12.473  66.051  1.00  0.00    -0.268 A  
BRANCH  15  18
HETATM   18  C   UNL     1      -9.168   8.789  66.537  1.00  0.00    -0.179 C  
BRANCH  18  19
HETATM   19  O   UNL     1     -10.311   7.939  66.563  1.00  0.00    -0.247 OA 
BRANCH  19  20
HETATM   20  C   UNL     1     -10.757   7.680  67.892  1.00  0.00    -0.108 C  
BRANCH  20  21
HETATM   21  C   UNL     1     -10.059   6.422  68.394  1.00  0.00    -0.157 C  
BRANCH  21  22
HETATM   22  O   UNL     1     -10.800   5.845  69.468  1.00  0.00    -0.317 OA 
BRANCH  22  23
HETATM   23  C   UNL     1     -10.091   4.806  70.156  1.00  0.00    -0.240 C  
HETATM   24  C   UNL     1      -9.398   3.854  69.186  1.00  0.00    -0.240 C  
HETATM   25  C   UNL     1      -9.055   5.484  71.047  1.00  0.00    -0.163 C  
ENDBRANCH  22  23
ENDBRANCH  21  22
ENDBRANCH  20  21
ENDBRANCH  19  20
ENDBRANCH  18  19
ENDBRANCH  15  18
ENDBRANCH  11  12
ENDBRANCH  10  11
ENDBRANCH   7  10
ENDBRANCH   6   7
ENDBRANCH   4   6
ENDBRANCH   2   4
TORSDOF 12
ENDMDL
MODEL       95
REMARK 921   NORMALIZED FREE ENERGY PREDICTED BY IDOCK:   -4.44 KCAL/MOL
REMARK 922        TOTAL FREE ENERGY PREDICTED BY IDOCK:   -8.58 KCAL/MOL
REMARK 923 INTER-LIGAND FREE ENERGY PREDICTED BY IDOCK:   -8.04 KCAL/MOL
REMARK 924 INTRA-LIGAND FREE ENERGY PREDICTED BY IDOCK:   -0.54 KCAL/MOL
REMARK 927      BINDING AFFINITY PREDICTED BY RF-SCORE:    0.00 PKD
ROOT
HETATM    1  C   UNL     1      -9.215   3.018  65.587  1.00  0.00    -0.129 C  
HETATM    2  C   UNL     1     -10.029   3.963  64.699  1.00  0.00    -0.204 C  
HETATM    3  C   UNL     1     -10.775   3.151  63.638  1.00  0.00    -0.234 C  
ENDROOT
BRANCH   2   4
HETATM    4  N   UNL     1     -10.949   4.720  65.550  1.00  0.00    -0.867 NA 
HETATM    5  H   UNL     1     -11.696   4.119  65.898  1.00  0.00     0.000 HD 
BRANCH   4   6
HETATM    6  C   UNL     1     -10.282   5.417  66.658  1.00  0.00    -0.243 C  
BRANCH   6   7
HETATM    7  C   UNL     1     -11.157   6.584  67.152  1.00  0.00    -0.360 C  
HETATM    8  O   UNL     1     -11.498   6.377  68.532  1.00  0.00    -0.547 OA 
HETATM    9  H   UNL     1     -12.038   7.097  68.836  1.00  0.00     0.000 HD 
BRANCH   7  10
HETATM   10  C   UNL     1     -10.449   7.933  66.993  1.00  0.00    -0.349 C  
BRANCH  10  11
HETATM   11  O   UNL     1     -10.271   8.530  68.287  1.00  0.00    -0.193 OA 
BRANCH  11  12
HETATM   12  C   UNL     1     -10.687   9.832  68.381  1.00  0.00    -0.221 A  
HETATM   13  C   UNL     1     -11.515  10.331  69.387  1.00  0.00    -0.248 A  
HETATM   14  C   UNL     1     -11.888  11.676  69.386  1.00  0.00    -0.408 A  
HETATM   15  C   UNL     1     -11.432  12.548  68.388  1.00  0.00    -0.355 A  
HETATM   16  C   UNL     1     -10.576  12.051  67.401  1.00  0.00    -0.253 A  
HETATM   17  C   UNL     1     -10.199  10.701  67.405  1.00  0.00    -0.243 A  
BRANCH  15  18
HETATM   18  C   UNL     1     -11.882  13.986  68.384  1.00  0.00    -0.362 C  
BRANCH  18  19
HETATM   19  O   UNL     1     -10.729  14.821  68.432  1.00  0.00    -0.233 OA 
BRANCH  19  20
HETATM   20  C   UNL     1     -10.882  15.893  69.360  1.00  0.00    -0.288 C  
BRANCH  20  21
HETATM   21  C   UNL     1     -11.905  15.474  70.410  1.00  0.00    -0.351 C  
BRANCH  21  22
HETATM   22  O   UNL     1     -11.648  16.148  71.641  1.00  0.00    -0.453 OA 
BRANCH  22  23
HETATM   23  C   UNL     1     -12.143  15.446  72.788  1.00  0.00    -0.433 C  
HETATM   24  C   UNL     1     -12.037  16.287  74.057  1.00  0.00    -0.474 C  
HETATM   25  C   UNL     1     -13.604  15.106  72.511  1.00  0.00    -0.592 C  
ENDBRANCH  22  23
ENDBRANCH  21  22
ENDBRANCH  20  21
ENDBRANCH  19  20
ENDBRANCH  18  19
ENDBRANCH  15  18
ENDBRANCH  11  12
ENDBRANCH  10  11
ENDBRANCH   7  10
ENDBRANCH   6   7
ENDBRANCH   4   6
ENDBRANCH   2   4
TORSDOF 12
ENDMDL
MODEL       96
REMARK 921   NORMALIZED FREE ENERGY PREDICTED BY IDOCK:   -4.44 KCAL/MOL
REMARK 922        TOTAL FREE ENERGY PREDICTED BY IDOCK:   -8.57 KCAL/MOL
REMARK 923 INTER-LIGAND FREE ENERGY PREDICTED BY IDOCK:   -7.46 KCAL/MOL
REMARK 924 INTRA-LIGAND FREE ENERGY PREDICTED BY IDOCK:   -1.10 KCAL/MOL
REMARK 927      BINDING AFFINITY PREDICTED BY RF-SCORE:    0.00 PKD
ROOT
HETATM    1  C   UNL     1     -10.178  14.159  68.372  1.00  0.00    -0.247 C  
HETATM    2  C   UNL     1     -11.630  13.672  68.365  1.00  0.00    -0.342 C  
HETATM    3  C   UNL     1     -12.260  13.924  69.736  1.00  0.00    -0.388 C  
ENDROOT
BRANCH   2   4
HETATM    4  N   UNL     1     -12.348  14.373  67.299  1.00  0.00    -0.594 NA 
HETATM    5  H   UNL     1     -12.708  15.267  67.634  1.00  0.00     0.000 HD 
BRANCH   4   6
HETATM    6  C   UNL     1     -11.551  14.557  66.079  1.00  0.00    -0.356 C  
BRANCH   6   7
HETATM    7  C   UNL     1     -12.456  14.459  64.837  1.00  0.00    -0.357 C  
HETATM    8  O   UNL     1     -12.053  15.443  63.871  1.00  0.00    -0.968 OA 
HETATM    9  H   UNL     1     -12.611  15.383  63.105  1.00  0.00     0.000 HD 
BRANCH   7  10
HETATM   10  C   UNL     1     -12.405  13.065  64.204  1.00  0.00    -0.358 C  
BRANCH  10  11
HETATM   11  O   UNL     1     -11.088  12.831  63.680  1.00  0.00    -0.432 OA 
BRANCH  11  12
HETATM   12  C   UNL     1     -10.461  11.718  64.176  1.00  0.00    -0.346 A  
HETATM   13  C   UNL     1     -10.666  11.194  65.452  1.00  0.00    -0.259 A  
HETATM   14  C   UNL     1      -9.968  10.057  65.864  1.00  0.00    -0.339 A  
HETATM   15  C   UNL     1      -9.063   9.418  65.005  1.00  0.00    -0.271 A  
HETATM   16  C   UNL     1      -8.886   9.928  63.716  1.00  0.00    -0.254 A  
HETATM   17  C   UNL     1      -9.591  11.067  63.302  1.00  0.00    -0.370 A  
BRANCH  15  18
HETATM   18  C   UNL     1      -8.290   8.218  65.487  1.00  0.00    -0.155 C  
BRANCH  18  19
HETATM   19  O   UNL     1      -7.873   8.457  66.828  1.00  0.00    -0.093 OA 
BRANCH  19  20
HETATM   20  C   UNL     1      -8.164   7.355  67.684  1.00  0.00    -0.118 C  
BRANCH  20  21
HETATM   21  C   UNL     1      -9.319   7.752  68.597  1.00  0.00    -0.148 C  
BRANCH  21  22
HETATM   22  O   UNL     1      -8.836   8.004  69.916  1.00  0.00    -0.141 OA 
BRANCH  22  23
HETATM   23  C   UNL     1      -9.333   9.223  70.482  1.00  0.00    -0.264 C  
HETATM   24  C   UNL     1     -10.222   9.982  69.501  1.00  0.00    -0.255 C  
HETATM   25  C   UNL     1     -10.133   8.848  71.725  1.00  0.00    -0.407 C  
ENDBRANCH  22  23
ENDBRANCH  21  22
ENDBRANCH  20  21
ENDBRANCH  19  20
ENDBRANCH  18  19
ENDBRANCH  15  18
ENDBRANCH  11  12
ENDBRANCH  10  11
ENDBRANCH   7  10
ENDBRANCH   6   7
ENDBRANCH   4   6
ENDBRANCH   2   4
TORSDOF 12
ENDMDL
MODEL       97
REMARK 921   NORMALIZED FREE ENERGY PREDICTED BY IDOCK:   -4.43 KCAL/MOL
REMARK 922        TOTAL FREE ENERGY PREDICTED BY IDOCK:   -8.56 KCAL/MOL
REMARK 923 INTER-LIGAND FREE ENERGY PREDICTED BY IDOCK:   -7.27 KCAL/MOL
REMARK 924 INTRA-LIGAND FREE ENERGY PREDICTED BY IDOCK:   -1.29 KCAL/MOL
REMARK 927      BINDING AFFINITY PREDICTED BY RF-SCORE:    0.00 PKD
ROOT
HETATM    1  C   UNL     1     -12.340  12.098  63.656  1.00  0.00    -0.673 C  
HETATM    2  C   UNL     1     -11.819  12.871  64.869  1.00  0.00    -0.366 C  
HETATM    3  C   UNL     1     -12.474  14.253  64.914  1.00  0.00    -0.403 C  
ENDROOT
BRANCH   2   4
HETATM    4  N   UNL     1     -12.110  12.092  66.075  1.00  0.00    -0.586 NA 
HETATM    5  H   UNL     1     -11.703  11.159  66.009  1.00  0.00     0.000 HD 
BRANCH   4   6
HETATM    6  C   UNL     1     -11.691  12.757  67.316  1.00  0.00    -0.378 C  
BRANCH   6   7
HETATM    7  C   UNL     1     -10.162  12.668  67.473  1.00  0.00    -0.215 C  
HETATM    8  O   UNL     1      -9.695  13.776  68.259  1.00  0.00    -0.221 OA 
HETATM    9  H   UNL     1      -8.752  13.721  68.356  1.00  0.00     0.000 HD 
BRANCH   7  10
HETATM   10  C   UNL     1      -9.733  11.353  68.130  1.00  0.00    -0.192 C  
BRANCH  10  11
HETATM   11  O   UNL     1     -10.881  10.719  68.716  1.00  0.00    -0.190 OA 
BRANCH  11  12
HETATM   12  C   UNL     1     -10.626  10.011  69.860  1.00  0.00    -0.282 A  
HETATM   13  C   UNL     1     -11.593   9.626  70.789  1.00  0.00    -0.395 A  
HETATM   14  C   UNL     1     -11.225   8.911  71.930  1.00  0.00    -0.447 A  
HETATM   15  C   UNL     1      -9.887   8.559  72.158  1.00  0.00    -0.388 A  
HETATM   16  C   UNL     1      -8.927   8.917  71.208  1.00  0.00    -0.312 A  
HETATM   17  C   UNL     1      -9.298   9.632  70.060  1.00  0.00    -0.276 A  
BRANCH  15  18
HETATM   18  C   UNL     1      -9.508   7.824  73.417  1.00  0.00    -0.287 C  
BRANCH  18  19
HETATM   19  O   UNL     1     -10.656   7.133  73.901  1.00  0.00    -0.362 OA 
BRANCH  19  20
HETATM   20  C   UNL     1     -10.428   5.730  74.016  1.00  0.00    -0.266 C  
BRANCH  20  21
HETATM   21  C   UNL     1     -11.358   5.014  73.043  1.00  0.00    -0.298 C  
BRANCH  21  22
HETATM   22  O   UNL     1     -10.885   5.171  71.707  1.00  0.00    -0.183 OA 
BRANCH  22  23
HETATM   23  C   UNL     1      -9.591   4.594  71.488  1.00  0.00    -0.163 C  
HETATM   24  C   UNL     1      -9.664   3.076  71.352  1.00  0.00    -0.219 C  
HETATM   25  C   UNL     1      -9.039   5.205  70.204  1.00  0.00    -0.167 C  
ENDBRANCH  22  23
ENDBRANCH  21  22
ENDBRANCH  20  21
ENDBRANCH  19  20
ENDBRANCH  18  19
ENDBRANCH  15  18
ENDBRANCH  11  12
ENDBRANCH  10  11
ENDBRANCH   7  10
ENDBRANCH   6   7
ENDBRANCH   4   6
ENDBRANCH   2   4
TORSDOF 12
ENDMDL
MODEL       98
REMARK 921   NORMALIZED FREE ENERGY PREDICTED BY IDOCK:   -4.40 KCAL/MOL
REMARK 922        TOTAL FREE ENERGY PREDICTED BY IDOCK:   -8.50 KCAL/MOL
REMARK 923 INTER-LIGAND FREE ENERGY PREDICTED BY IDOCK:   -7.62 KCAL/MOL
REMARK 924 INTRA-LIGAND FREE ENERGY PREDICTED BY IDOCK:   -0.88 KCAL/MOL
REMARK 927      BINDING AFFINITY PREDICTED BY RF-SCORE:    0.00 PKD
ROOT
HETATM    1  C   UNL     1      -7.642   8.465  66.727  1.00  0.00    -0.090 C  
HETATM    2  C   UNL     1      -8.993   8.580  66.017  1.00  0.00    -0.184 C  
HETATM    3  C   UNL     1     -10.093   8.008  66.916  1.00  0.00    -0.362 C  
ENDROOT
BRANCH   2   4
HETATM    4  N   UNL     1      -9.230   9.989  65.699  1.00  0.00    -0.172 NA 
HETATM    5  H   UNL     1      -8.390  10.543  65.862  1.00  0.00     0.000 HD 
BRANCH   4   6
HETATM    6  C   UNL     1      -9.738  10.204  64.337  1.00  0.00    -0.277 C  
BRANCH   6   7
HETATM    7  C   UNL     1      -9.464  11.653  63.893  1.00  0.00    -0.078 C  
HETATM    8  O   UNL     1      -8.745  11.645  62.649  1.00  0.00    -0.632 OA 
HETATM    9  H   UNL     1      -8.576  12.539  62.376  1.00  0.00     0.000 HD 
BRANCH   7  10
HETATM   10  C   UNL     1     -10.760  12.454  63.735  1.00  0.00    -0.451 C  
BRANCH  10  11
HETATM   11  O   UNL     1     -11.725  11.988  64.691  1.00  0.00    -0.335 OA 
BRANCH  11  12
HETATM   12  C   UNL     1     -11.705  12.643  65.894  1.00  0.00    -0.420 A  
HETATM   13  C   UNL     1     -11.649  14.028  66.043  1.00  0.00    -0.362 A  
HETATM   14  C   UNL     1     -11.625  14.597  67.318  1.00  0.00    -0.404 A  
HETATM   15  C   UNL     1     -11.666  13.792  68.465  1.00  0.00    -0.391 A  
HETATM   16  C   UNL     1     -11.756  12.406  68.310  1.00  0.00    -0.398 A  
HETATM   17  C   UNL     1     -11.784  11.836  67.030  1.00  0.00    -0.247 A  
BRANCH  15  18
HETATM   18  C   UNL     1     -11.595  14.426  69.830  1.00  0.00    -0.284 C  
BRANCH  18  19
HETATM   19  O   UNL     1     -12.877  14.323  70.444  1.00  0.00    -0.336 OA 
BRANCH  19  20
HETATM   20  C   UNL     1     -12.791  13.860  71.790  1.00  0.00    -0.335 C  
BRANCH  20  21
HETATM   21  C   UNL     1     -13.217  12.397  71.819  1.00  0.00    -0.334 C  
BRANCH  21  22
HETATM   22  O   UNL     1     -12.171  11.572  71.311  1.00  0.00    -0.255 OA 
BRANCH  22  23
HETATM   23  C   UNL     1     -12.598  10.240  70.997  1.00  0.00    -0.390 C  
HETATM   24  C   UNL     1     -11.415   9.313  70.733  1.00  0.00    -0.351 C  
HETATM   25  C   UNL     1     -13.400   9.732  72.191  1.00  0.00    -0.527 C  
ENDBRANCH  22  23
ENDBRANCH  21  22
ENDBRANCH  20  21
ENDBRANCH  19  20
ENDBRANCH  18  19
ENDBRANCH  15  18
ENDBRANCH  11  12
ENDBRANCH  10  11
ENDBRANCH   7  10
ENDBRANCH   6   7
ENDBRANCH   4   6
ENDBRANCH   2   4
TORSDOF 12
ENDMDL
MODEL       99
REMARK 921   NORMALIZED FREE ENERGY PREDICTED BY IDOCK:   -4.39 KCAL/MOL
REMARK 922        TOTAL FREE ENERGY PREDICTED BY IDOCK:   -8.50 KCAL/MOL
REMARK 923 INTER-LIGAND FREE ENERGY PREDICTED BY IDOCK:   -6.73 KCAL/MOL
REMARK 924 INTRA-LIGAND FREE ENERGY PREDICTED BY IDOCK:   -1.77 KCAL/MOL
REMARK 927      BINDING AFFINITY PREDICTED BY RF-SCORE:    0.00 PKD
ROOT
HETATM    1  C   UNL     1     -11.497  14.783  65.305  1.00  0.00    -0.352 C  
HETATM    2  C   UNL     1     -12.241  13.465  65.077  1.00  0.00    -0.424 C  
HETATM    3  C   UNL     1     -11.599  12.712  63.909  1.00  0.00    -0.521 C  
ENDROOT
BRANCH   2   4
HETATM    4  N   UNL     1     -12.194  12.686  66.316  1.00  0.00    -0.566 NA 
HETATM    5  H   UNL     1     -13.135  12.440  66.623  1.00  0.00     0.000 HD 
BRANCH   4   6
HETATM    6  C   UNL     1     -11.347  11.489  66.224  1.00  0.00    -0.153 C  
BRANCH   6   7
HETATM    7  C   UNL     1     -10.808  11.115  67.616  1.00  0.00    -0.247 C  
HETATM    8  O   UNL     1      -9.845  10.057  67.489  1.00  0.00    -0.164 OA 
HETATM    9  H   UNL     1      -9.512   9.826  68.348  1.00  0.00     0.000 HD 
BRANCH   7  10
HETATM   10  C   UNL     1     -10.166  12.315  68.319  1.00  0.00    -0.220 C  
BRANCH  10  11
HETATM   11  O   UNL     1      -9.197  12.914  67.444  1.00  0.00    -0.182 OA 
BRANCH  11  12
HETATM   12  C   UNL     1      -8.802  14.175  67.801  1.00  0.00    -0.185 A  
HETATM   13  C   UNL     1      -9.553  15.051  68.585  1.00  0.00    -0.219 A  
HETATM   14  C   UNL     1      -9.061  16.323  68.886  1.00  0.00    -0.250 A  
HETATM   15  C   UNL     1      -7.807  16.738  68.417  1.00  0.00    -0.214 A  
HETATM   16  C   UNL     1      -7.043  15.844  67.660  1.00  0.00    -0.185 A  
HETATM   17  C   UNL     1      -7.537  14.566  67.362  1.00  0.00    -0.209 A  
BRANCH  15  18
HETATM   18  C   UNL     1      -7.316  18.129  68.718  1.00  0.00    -0.276 C  
BRANCH  18  19
HETATM   19  O   UNL     1      -6.356  18.494  67.731  1.00  0.00    -0.193 OA 
BRANCH  19  20
HETATM   20  C   UNL     1      -6.720  19.689  67.044  1.00  0.00    -0.194 C  
BRANCH  20  21
HETATM   21  C   UNL     1      -7.900  19.374  66.131  1.00  0.00    -0.307 C  
BRANCH  21  22
HETATM   22  O   UNL     1      -8.940  20.331  66.328  1.00  0.00    -0.260 OA 
BRANCH  22  23
HETATM   23  C   UNL     1     -10.227  19.737  66.545  1.00  0.00    -0.492 C  
HETATM   24  C   UNL     1     -10.299  18.320  65.984  1.00  0.00    -0.377 C  
HETATM   25  C   UNL     1     -10.461  19.712  68.052  1.00  0.00    -0.537 C  
ENDBRANCH  22  23
ENDBRANCH  21  22
ENDBRANCH  20  21
ENDBRANCH  19  20
ENDBRANCH  18  19
ENDBRANCH  15  18
ENDBRANCH  11  12
ENDBRANCH  10  11
ENDBRANCH   7  10
ENDBRANCH   6   7
ENDBRANCH   4   6
ENDBRANCH   2   4
TORSDOF 12
ENDMDL
MODEL      100
REMARK 921   NORMALIZED FREE ENERGY PREDICTED BY IDOCK:   -4.39 KCAL/MOL
REMARK 922        TOTAL FREE ENERGY PREDICTED BY IDOCK:   -8.49 KCAL/MOL
REMARK 923 INTER-LIGAND FREE ENERGY PREDICTED BY IDOCK:   -7.08 KCAL/MOL
REMARK 924 INTRA-LIGAND FREE ENERGY PREDICTED BY IDOCK:   -1.40 KCAL/MOL
REMARK 927      BINDING AFFINITY PREDICTED BY RF-SCORE:    0.00 PKD
ROOT
HETATM    1  C   UNL     1      -8.145  11.466  68.482  1.00  0.00    -0.149 C  
HETATM    2  C   UNL     1      -7.846  11.579  66.985  1.00  0.00    -0.161 C  
HETATM    3  C   UNL     1      -8.258  10.283  66.283  1.00  0.00    -0.131 C  
ENDROOT
BRANCH   2   4
HETATM    4  N   UNL     1      -8.567  12.737  66.455  1.00  0.00    -0.416 NA 
HETATM    5  H   UNL     1      -9.575  12.593  66.513  1.00  0.00     0.000 HD 
BRANCH   4   6
HETATM    6  C   UNL     1      -8.185  14.006  67.090  1.00  0.00    -0.125 C  
BRANCH   6   7
HETATM    7  C   UNL     1      -9.334  15.023  66.971  1.00  0.00    -0.224 C  
HETATM    8  O   UNL     1      -8.981  16.037  66.017  1.00  0.00    -0.337 OA 
HETATM    9  H   UNL     1      -9.690  16.665  65.943  1.00  0.00     0.000 HD 
BRANCH   7  10
HETATM   10  C   UNL     1     -10.646  14.353  66.548  1.00  0.00    -0.296 C  
BRANCH  10  11
HETATM   11  O   UNL     1     -11.671  14.674  67.502  1.00  0.00    -0.365 OA 
BRANCH  11  12
HETATM   12  C   UNL     1     -11.866  13.729  68.475  1.00  0.00    -0.370 A  
HETATM   13  C   UNL     1     -11.668  12.359  68.303  1.00  0.00    -0.398 A  
HETATM   14  C   UNL     1     -11.905  11.478  69.360  1.00  0.00    -0.417 A  
HETATM   15  C   UNL     1     -12.332  11.950  70.608  1.00  0.00    -0.405 A  
HETATM   16  C   UNL     1     -12.497  13.327  70.785  1.00  0.00    -0.403 A  
HETATM   17  C   UNL     1     -12.256  14.212  69.725  1.00  0.00    -0.397 A  
BRANCH  15  18
HETATM   18  C   UNL     1     -12.622  10.977  71.721  1.00  0.00    -0.206 C  
BRANCH  18  19
HETATM   19  O   UNL     1     -13.488   9.962  71.220  1.00  0.00    -0.367 OA 
BRANCH  19  20
HETATM   20  C   UNL     1     -13.394   8.756  71.975  1.00  0.00    -0.413 C  
BRANCH  20  21
HETATM   21  C   UNL     1     -12.063   8.089  71.647  1.00  0.00    -0.303 C  
BRANCH  21  22
HETATM   22  O   UNL     1     -11.324   7.855  72.844  1.00  0.00    -0.406 OA 
BRANCH  22  23
HETATM   23  C   UNL     1      -9.932   8.181  72.728  1.00  0.00    -0.291 C  
HETATM   24  C   UNL     1      -9.046   6.952  72.910  1.00  0.00    -0.149 C  
HETATM   25  C   UNL     1      -9.725   8.770  71.337  1.00  0.00    -0.351 C  
ENDBRANCH  22  23
ENDBRANCH  21  22
ENDBRANCH  20  21
ENDBRANCH  19  20
ENDBRANCH  18  19
ENDBRANCH  15  18
ENDBRANCH  11  12
ENDBRANCH  10  11
ENDBRANCH   7  10
ENDBRANCH   6   7
ENDBRANCH   4   6
ENDBRANCH   2   4
TORSDOF 12
ENDMDL
MODEL      101
REMARK 921   NORMALIZED FREE ENERGY PREDICTED BY IDOCK:   -4.39 KCAL/MOL
REMARK 922        TOTAL FREE ENERGY PREDICTED BY IDOCK:   -8.48 KCAL/MOL
REMARK 923 INTER-LIGAND FREE ENERGY PREDICTED BY IDOCK:   -6.93 KCAL/MOL
REMARK 924 INTRA-LIGAND FREE ENERGY PREDICTED BY IDOCK:   -1.56 KCAL/MOL
REMARK 927      BINDING AFFINITY PREDICTED BY RF-SCORE:    0.00 PKD
ROOT
HETATM    1  C   UNL     1      -9.628  19.962  68.716  1.00  0.00    -0.310 C  
HETATM    2  C   UNL     1     -10.626  19.490  67.655  1.00  0.00    -0.440 C  
HETATM    3  C   UNL     1     -10.120  19.888  66.266  1.00  0.00    -0.613 C  
ENDROOT
BRANCH   2   4
HETATM    4  N   UNL     1     -10.785  18.040  67.780  1.00  0.00    -0.391 NA 
HETATM    5  H   UNL     1     -10.765  17.594  66.863  1.00  0.00     0.000 HD 
BRANCH   4   6
HETATM    6  C   UNL     1      -9.805  17.420  68.682  1.00  0.00    -0.322 C  
BRANCH   6   7
HETATM    7  C   UNL     1     -10.013  15.895  68.720  1.00  0.00    -0.220 C  
HETATM    8  O   UNL     1      -9.466  15.367  69.939  1.00  0.00    -0.410 OA 
HETATM    9  H   UNL     1      -9.594  14.426  69.963  1.00  0.00     0.000 HD 
BRANCH   7  10
HETATM   10  C   UNL     1     -11.496  15.521  68.617  1.00  0.00    -0.359 C  
BRANCH  10  11
HETATM   11  O   UNL     1     -11.889  15.522  67.235  1.00  0.00    -0.036 OA 
BRANCH  11  12
HETATM   12  C   UNL     1     -11.589  14.373  66.552  1.00  0.00    -0.378 A  
HETATM   13  C   UNL     1     -11.942  13.088  66.965  1.00  0.00    -0.409 A  
HETATM   14  C   UNL     1     -11.579  11.980  66.197  1.00  0.00    -0.371 A  
HETATM   15  C   UNL     1     -10.867  12.136  64.999  1.00  0.00    -0.344 A  
HETATM   16  C   UNL     1     -10.545  13.428  64.573  1.00  0.00    -0.441 A  
HETATM   17  C   UNL     1     -10.913  14.541  65.343  1.00  0.00    -0.346 A  
BRANCH  15  18
HETATM   18  C   UNL     1     -10.449  10.923  64.210  1.00  0.00    -0.335 C  
BRANCH  18  19
HETATM   19  O   UNL     1     -10.116   9.882  65.123  1.00  0.00    -0.309 OA 
BRANCH  19  20
HETATM   20  C   UNL     1      -8.748   9.494  65.016  1.00  0.00    -0.177 C  
BRANCH  20  21
HETATM   21  C   UNL     1      -8.040   9.878  66.310  1.00  0.00    -0.114 C  
BRANCH  21  22
HETATM   22  O   UNL     1      -7.488  11.189  66.196  1.00  0.00    -0.117 OA 
BRANCH  22  23
HETATM   23  C   UNL     1      -7.943  12.090  67.214  1.00  0.00    -0.174 C  
HETATM   24  C   UNL     1      -8.552  11.345  68.398  1.00  0.00    -0.156 C  
HETATM   25  C   UNL     1      -6.732  12.895  67.674  1.00  0.00    -0.153 C  
ENDBRANCH  22  23
ENDBRANCH  21  22
ENDBRANCH  20  21
ENDBRANCH  19  20
ENDBRANCH  18  19
ENDBRANCH  15  18
ENDBRANCH  11  12
ENDBRANCH  10  11
ENDBRANCH   7  10
ENDBRANCH   6   7
ENDBRANCH   4   6
ENDBRANCH   2   4
TORSDOF 12
ENDMDL
MODEL      102
REMARK 921   NORMALIZED FREE ENERGY PREDICTED BY IDOCK:   -4.37 KCAL/MOL
REMARK 922        TOTAL FREE ENERGY PREDICTED BY IDOCK:   -8.46 KCAL/MOL
REMARK 923 INTER-LIGAND FREE ENERGY PREDICTED BY IDOCK:   -7.07 KCAL/MOL
REMARK 924 INTRA-LIGAND FREE ENERGY PREDICTED BY IDOCK:   -1.40 KCAL/MOL
REMARK 927      BINDING AFFINITY PREDICTED BY RF-SCORE:    0.00 PKD
ROOT
HETATM    1  C   UNL     1      -7.292  14.157  67.936  1.00  0.00    -0.163 C  
HETATM    2  C   UNL     1      -8.742  14.385  67.502  1.00  0.00    -0.197 C  
HETATM    3  C   UNL     1      -9.459  15.243  68.548  1.00  0.00    -0.200 C  
ENDROOT
BRANCH   2   4
HETATM    4  N   UNL     1      -8.736  15.026  66.186  1.00  0.00    -0.436 NA 
HETATM    5  H   UNL     1      -8.583  14.337  65.449  1.00  0.00     0.000 HD 
BRANCH   4   6
HETATM    6  C   UNL     1      -9.944  15.818  65.915  1.00  0.00    -0.352 C  
BRANCH   6   7
HETATM    7  C   UNL     1     -10.881  15.045  64.969  1.00  0.00    -0.422 C  
HETATM    8  O   UNL     1     -10.107  14.156  64.149  1.00  0.00    -0.543 OA 
HETATM    9  H   UNL     1     -10.685  13.679  63.565  1.00  0.00     0.000 HD 
BRANCH   7  10
HETATM   10  C   UNL     1     -11.936  14.246  65.742  1.00  0.00    -0.393 C  
BRANCH  10  11
HETATM   11  O   UNL     1     -11.780  12.848  65.449  1.00  0.00    -0.337 OA 
BRANCH  11  12
HETATM   12  C   UNL     1     -11.456  12.069  66.528  1.00  0.00    -0.349 A  
HETATM   13  C   UNL     1     -10.728  10.881  66.459  1.00  0.00    -0.270 A  
HETATM   14  C   UNL     1     -10.459  10.155  67.622  1.00  0.00    -0.293 A  
HETATM   15  C   UNL     1     -10.902  10.608  68.872  1.00  0.00    -0.272 A  
HETATM   16  C   UNL     1     -11.602  11.816  68.939  1.00  0.00    -0.370 A  
HETATM   17  C   UNL     1     -11.869  12.546  67.772  1.00  0.00    -0.375 A  
BRANCH  15  18
HETATM   18  C   UNL     1     -10.636   9.786  70.106  1.00  0.00    -0.285 C  
BRANCH  18  19
HETATM   19  O   UNL     1      -9.402   9.097  69.933  1.00  0.00    -0.165 OA 
BRANCH  19  20
HETATM   20  C   UNL     1      -9.492   7.728  70.324  1.00  0.00    -0.160 C  
BRANCH  20  21
HETATM   21  C   UNL     1     -10.956   7.308  70.256  1.00  0.00    -0.260 C  
BRANCH  21  22
HETATM   22  O   UNL     1     -11.089   6.122  69.475  1.00  0.00    -0.359 OA 
BRANCH  22  23
HETATM   23  C   UNL     1     -10.195   6.073  68.355  1.00  0.00    -0.181 C  
HETATM   24  C   UNL     1      -9.619   4.675  68.150  1.00  0.00    -0.204 C  
HETATM   25  C   UNL     1     -10.994   6.492  67.125  1.00  0.00    -0.480 C  
ENDBRANCH  22  23
ENDBRANCH  21  22
ENDBRANCH  20  21
ENDBRANCH  19  20
ENDBRANCH  18  19
ENDBRANCH  15  18
ENDBRANCH  11  12
ENDBRANCH  10  11
ENDBRANCH   7  10
ENDBRANCH   6   7
ENDBRANCH   4   6
ENDBRANCH   2   4
TORSDOF 12
ENDMDL
MODEL      103
REMARK 921   NORMALIZED FREE ENERGY PREDICTED BY IDOCK:   -4.37 KCAL/MOL
REMARK 922        TOTAL FREE ENERGY PREDICTED BY IDOCK:   -8.45 KCAL/MOL
REMARK 923 INTER-LIGAND FREE ENERGY PREDICTED BY IDOCK:   -7.26 KCAL/MOL
REMARK 924 INTRA-LIGAND FREE ENERGY PREDICTED BY IDOCK:   -1.20 KCAL/MOL
REMARK 927      BINDING AFFINITY PREDICTED BY RF-SCORE:    0.00 PKD
ROOT
HETATM    1  C   UNL     1     -10.429  10.672  64.825  1.00  0.00    -0.280 C  
HETATM    2  C   UNL     1      -9.490  11.434  63.887  1.00  0.00    -0.153 C  
HETATM    3  C   UNL     1      -9.258  10.611  62.618  1.00  0.00    -0.331 C  
ENDROOT
BRANCH   2   4
HETATM    4  N   UNL     1     -10.090  12.736  63.588  1.00  0.00    -0.699 NA 
HETATM    5  H   UNL     1      -9.748  13.095  62.697  1.00  0.00     0.000 HD 
BRANCH   4   6
HETATM    6  C   UNL     1     -11.559  12.724  63.615  1.00  0.00    -0.506 C  
BRANCH   6   7
HETATM    7  C   UNL     1     -12.087  14.046  64.200  1.00  0.00    -0.422 C  
HETATM    8  O   UNL     1     -13.266  13.788  64.980  1.00  0.00    -0.733 OA 
HETATM    9  H   UNL     1     -13.592  14.604  65.341  1.00  0.00     0.000 HD 
BRANCH   7  10
HETATM   10  C   UNL     1     -11.036  14.744  65.070  1.00  0.00    -0.405 C  
BRANCH  10  11
HETATM   11  O   UNL     1     -11.421  14.643  66.450  1.00  0.00    -0.349 OA 
BRANCH  11  12
HETATM   12  C   UNL     1     -10.870  13.586  67.124  1.00  0.00    -0.284 A  
HETATM   13  C   UNL     1      -9.503  13.331  67.220  1.00  0.00    -0.233 A  
HETATM   14  C   UNL     1      -9.044  12.217  67.927  1.00  0.00    -0.190 A  
HETATM   15  C   UNL     1      -9.942  11.346  68.559  1.00  0.00    -0.203 A  
HETATM   16  C   UNL     1     -11.310  11.625  68.488  1.00  0.00    -0.332 A  
HETATM   17  C   UNL     1     -11.770  12.746  67.782  1.00  0.00    -0.412 A  
BRANCH  15  18
HETATM   18  C   UNL     1      -9.426  10.128  69.279  1.00  0.00    -0.218 C  
BRANCH  18  19
HETATM   19  O   UNL     1      -9.416   9.034  68.368  1.00  0.00    -0.145 OA 
BRANCH  19  20
HETATM   20  C   UNL     1      -9.988   7.857  68.935  1.00  0.00    -0.190 C  
BRANCH  20  21
HETATM   21  C   UNL     1      -8.949   7.212  69.845  1.00  0.00    -0.142 C  
BRANCH  21  22
HETATM   22  O   UNL     1      -9.346   7.340  71.209  1.00  0.00    -0.155 OA 
BRANCH  22  23
HETATM   23  C   UNL     1     -10.590   6.691  71.504  1.00  0.00    -0.222 C  
HETATM   24  C   UNL     1     -10.388   5.229  71.893  1.00  0.00    -0.275 C  
HETATM   25  C   UNL     1     -11.231   7.452  72.660  1.00  0.00    -0.379 C  
ENDBRANCH  22  23
ENDBRANCH  21  22
ENDBRANCH  20  21
ENDBRANCH  19  20
ENDBRANCH  18  19
ENDBRANCH  15  18
ENDBRANCH  11  12
ENDBRANCH  10  11
ENDBRANCH   7  10
ENDBRANCH   6   7
ENDBRANCH   4   6
ENDBRANCH   2   4
TORSDOF 12
ENDMDL
MODEL      104
REMARK 921   NORMALIZED FREE ENERGY PREDICTED BY IDOCK:   -4.35 KCAL/MOL
REMARK 922        TOTAL FREE ENERGY PREDICTED BY IDOCK:   -8.42 KCAL/MOL
REMARK 923 INTER-LIGAND FREE ENERGY PREDICTED BY IDOCK:   -7.38 KCAL/MOL
REMARK 924 INTRA-LIGAND FREE ENERGY PREDICTED BY IDOCK:   -1.04 KCAL/MOL
REMARK 927      BINDING AFFINITY PREDICTED BY RF-SCORE:    0.00 PKD
ROOT
HETATM    1  C   UNL     1     -12.298  16.208  72.810  1.00  0.00    -0.585 C  
HETATM    2  C   UNL     1     -12.747  15.220  71.731  1.00  0.00    -0.371 C  
HETATM    3  C   UNL     1     -14.157  14.719  72.053  1.00  0.00    -0.604 C  
ENDROOT
BRANCH   2   4
HETATM    4  N   UNL     1     -12.695  15.897  70.434  1.00  0.00    -0.617 NA 
HETATM    5  H   UNL     1     -13.160  16.803  70.480  1.00  0.00     0.000 HD 
BRANCH   4   6
HETATM    6  C   UNL     1     -11.333  16.038  69.901  1.00  0.00    -0.340 C  
BRANCH   6   7
HETATM    7  C   UNL     1     -11.329  15.779  68.384  1.00  0.00    -0.372 C  
HETATM    8  O   UNL     1     -10.381  16.653  67.751  1.00  0.00    -0.286 OA 
HETATM    9  H   UNL     1     -10.379  16.493  66.814  1.00  0.00     0.000 HD 
BRANCH   7  10
HETATM   10  C   UNL     1     -10.985  14.322  68.057  1.00  0.00    -0.249 C  
BRANCH  10  11
HETATM   11  O   UNL     1     -12.034  13.468  68.539  1.00  0.00    -0.351 OA 
BRANCH  11  12
HETATM   12  C   UNL     1     -11.605  12.324  69.159  1.00  0.00    -0.318 A  
HETATM   13  C   UNL     1     -12.204  11.758  70.284  1.00  0.00    -0.381 A  
HETATM   14  C   UNL     1     -11.681  10.590  70.845  1.00  0.00    -0.431 A  
HETATM   15  C   UNL     1     -10.559   9.964  70.285  1.00  0.00    -0.359 A  
HETATM   16  C   UNL     1      -9.983  10.517  69.138  1.00  0.00    -0.236 A  
HETATM   17  C   UNL     1     -10.511  11.687  68.573  1.00  0.00    -0.236 A  
BRANCH  15  18
HETATM   18  C   UNL     1      -9.987   8.730  70.933  1.00  0.00    -0.222 C  
BRANCH  18  19
HETATM   19  O   UNL     1      -9.934   7.691  69.960  1.00  0.00    -0.187 OA 
BRANCH  19  20
HETATM   20  C   UNL     1     -11.112   6.887  69.969  1.00  0.00    -0.299 C  
BRANCH  20  21
HETATM   21  C   UNL     1     -10.726   5.478  70.403  1.00  0.00    -0.251 C  
BRANCH  21  22
HETATM   22  O   UNL     1      -9.317   5.401  70.617  1.00  0.00    -0.153 OA 
BRANCH  22  23
HETATM   23  C   UNL     1      -8.907   4.196  71.278  1.00  0.00    -0.107 C  
HETATM   24  C   UNL     1      -9.676   3.972  72.576  1.00  0.00    -0.206 C  
HETATM   25  C   UNL     1      -9.169   3.044  70.313  1.00  0.00    -0.213 C  
ENDBRANCH  22  23
ENDBRANCH  21  22
ENDBRANCH  20  21
ENDBRANCH  19  20
ENDBRANCH  18  19
ENDBRANCH  15  18
ENDBRANCH  11  12
ENDBRANCH  10  11
ENDBRANCH   7  10
ENDBRANCH   6   7
ENDBRANCH   4   6
ENDBRANCH   2   4
TORSDOF 12
ENDMDL
MODEL      105
REMARK 921   NORMALIZED FREE ENERGY PREDICTED BY IDOCK:   -4.34 KCAL/MOL
REMARK 922        TOTAL FREE ENERGY PREDICTED BY IDOCK:   -8.41 KCAL/MOL
REMARK 923 INTER-LIGAND FREE ENERGY PREDICTED BY IDOCK:   -7.22 KCAL/MOL
REMARK 924 INTRA-LIGAND FREE ENERGY PREDICTED BY IDOCK:   -1.19 KCAL/MOL
REMARK 927      BINDING AFFINITY PREDICTED BY RF-SCORE:    0.00 PKD
ROOT
HETATM    1  C   UNL     1      -7.280  13.466  68.470  1.00  0.00    -0.110 C  
HETATM    2  C   UNL     1      -8.636  13.881  67.896  1.00  0.00    -0.180 C  
HETATM    3  C   UNL     1      -9.263  14.952  68.792  1.00  0.00    -0.193 C  
ENDROOT
BRANCH   2   4
HETATM    4  N   UNL     1      -8.433  14.366  66.530  1.00  0.00    -0.396 NA 
HETATM    5  H   UNL     1      -8.381  13.587  65.874  1.00  0.00     0.000 HD 
BRANCH   4   6
HETATM    6  C   UNL     1      -9.441  15.344  66.100  1.00  0.00    -0.336 C  
BRANCH   6   7
HETATM    7  C   UNL     1     -10.439  14.683  65.131  1.00  0.00    -0.416 C  
HETATM    8  O   UNL     1      -9.798  13.586  64.459  1.00  0.00    -0.621 OA 
HETATM    9  H   UNL     1     -10.414  13.178  63.861  1.00  0.00     0.000 HD 
BRANCH   7  10
HETATM   10  C   UNL     1     -11.690  14.181  65.859  1.00  0.00    -0.365 C  
BRANCH  10  11
HETATM   11  O   UNL     1     -11.800  12.759  65.686  1.00  0.00    -0.378 OA 
BRANCH  11  12
HETATM   12  C   UNL     1     -11.487  12.020  66.796  1.00  0.00    -0.345 A  
HETATM   13  C   UNL     1     -10.799  10.807  66.775  1.00  0.00    -0.256 A  
HETATM   14  C   UNL     1     -10.538  10.127  67.967  1.00  0.00    -0.273 A  
HETATM   15  C   UNL     1     -10.950  10.652  69.199  1.00  0.00    -0.296 A  
HETATM   16  C   UNL     1     -11.611  11.884  69.218  1.00  0.00    -0.376 A  
HETATM   17  C   UNL     1     -11.869  12.567  68.021  1.00  0.00    -0.382 A  
BRANCH  15  18
HETATM   18  C   UNL     1     -10.695   9.879  70.467  1.00  0.00    -0.317 C  
BRANCH  18  19
HETATM   19  O   UNL     1     -11.929   9.329  70.918  1.00  0.00    -0.283 OA 
BRANCH  19  20
HETATM   20  C   UNL     1     -11.811   7.947  71.249  1.00  0.00    -0.296 C  
BRANCH  20  21
HETATM   21  C   UNL     1     -10.345   7.549  71.122  1.00  0.00    -0.200 C  
BRANCH  21  22
HETATM   22  O   UNL     1     -10.102   6.339  71.838  1.00  0.00    -0.180 OA 
BRANCH  22  23
HETATM   23  C   UNL     1     -10.875   6.222  73.039  1.00  0.00    -0.259 C  
HETATM   24  C   UNL     1     -11.409   4.806  73.234  1.00  0.00    -0.408 C  
HETATM   25  C   UNL     1      -9.959   6.597  74.200  1.00  0.00    -0.361 C  
ENDBRANCH  22  23
ENDBRANCH  21  22
ENDBRANCH  20  21
ENDBRANCH  19  20
ENDBRANCH  18  19
ENDBRANCH  15  18
ENDBRANCH  11  12
ENDBRANCH  10  11
ENDBRANCH   7  10
ENDBRANCH   6   7
ENDBRANCH   4   6
ENDBRANCH   2   4
TORSDOF 12
ENDMDL
MODEL      106
REMARK 921   NORMALIZED FREE ENERGY PREDICTED BY IDOCK:   -4.34 KCAL/MOL
REMARK 922        TOTAL FREE ENERGY PREDICTED BY IDOCK:   -8.41 KCAL/MOL
REMARK 923 INTER-LIGAND FREE ENERGY PREDICTED BY IDOCK:   -7.26 KCAL/MOL
REMARK 924 INTRA-LIGAND FREE ENERGY PREDICTED BY IDOCK:   -1.15 KCAL/MOL
REMARK 927      BINDING AFFINITY PREDICTED BY RF-SCORE:    0.00 PKD
ROOT
HETATM    1  C   UNL     1     -10.699   5.997  68.971  1.00  0.00    -0.393 C  
HETATM    2  C   UNL     1      -9.290   6.047  69.566  1.00  0.00    -0.136 C  
HETATM    3  C   UNL     1      -8.560   7.288  69.047  1.00  0.00    -0.129 C  
ENDROOT
BRANCH   2   4
HETATM    4  N   UNL     1      -9.403   6.055  71.026  1.00  0.00    -0.160 NA 
HETATM    5  H   UNL     1      -9.679   6.978  71.362  1.00  0.00     0.000 HD 
BRANCH   4   6
HETATM    6  C   UNL     1     -10.306   5.020  71.549  1.00  0.00    -0.182 C  
BRANCH   6   7
HETATM    7  C   UNL     1     -10.703   5.348  72.999  1.00  0.00    -0.257 C  
HETATM    8  O   UNL     1      -9.574   5.143  73.863  1.00  0.00    -0.131 OA 
HETATM    9  H   UNL     1      -9.818   5.346  74.759  1.00  0.00     0.000 HD 
BRANCH   7  10
HETATM   10  C   UNL     1     -11.204   6.790  73.139  1.00  0.00    -0.101 C  
BRANCH  10  11
HETATM   11  O   UNL     1     -12.131   7.073  72.080  1.00  0.00    -0.302 OA 
BRANCH  11  12
HETATM   12  C   UNL     1     -12.279   8.403  71.786  1.00  0.00    -0.330 A  
HETATM   13  C   UNL     1     -13.337   9.201  72.222  1.00  0.00    -0.540 A  
HETATM   14  C   UNL     1     -13.397  10.547  71.857  1.00  0.00    -0.461 A  
HETATM   15  C   UNL     1     -12.397  11.122  71.061  1.00  0.00    -0.487 A  
HETATM   16  C   UNL     1     -11.322  10.327  70.654  1.00  0.00    -0.431 A  
HETATM   17  C   UNL     1     -11.260   8.976  71.024  1.00  0.00    -0.361 A  
BRANCH  15  18
HETATM   18  C   UNL     1     -12.506  12.566  70.645  1.00  0.00    -0.238 C  
BRANCH  18  19
HETATM   19  O   UNL     1     -11.618  12.791  69.554  1.00  0.00    -0.284 OA 
BRANCH  19  20
HETATM   20  C   UNL     1     -12.017  13.904  68.758  1.00  0.00    -0.358 C  
BRANCH  20  21
HETATM   21  C   UNL     1     -11.439  13.724  67.359  1.00  0.00    -0.345 C  
BRANCH  21  22
HETATM   22  O   UNL     1     -12.364  14.197  66.381  1.00  0.00    -0.460 OA 
BRANCH  22  23
HETATM   23  C   UNL     1     -11.738  14.617  65.161  1.00  0.00    -0.364 C  
HETATM   24  C   UNL     1     -10.770  15.773  65.390  1.00  0.00    -0.420 C  
HETATM   25  C   UNL     1     -10.987  13.412  64.605  1.00  0.00    -0.388 C  
ENDBRANCH  22  23
ENDBRANCH  21  22
ENDBRANCH  20  21
ENDBRANCH  19  20
ENDBRANCH  18  19
ENDBRANCH  15  18
ENDBRANCH  11  12
ENDBRANCH  10  11
ENDBRANCH   7  10
ENDBRANCH   6   7
ENDBRANCH   4   6
ENDBRANCH   2   4
TORSDOF 12
ENDMDL
MODEL      107
REMARK 921   NORMALIZED FREE ENERGY PREDICTED BY IDOCK:   -4.34 KCAL/MOL
REMARK 922        TOTAL FREE ENERGY PREDICTED BY IDOCK:   -8.40 KCAL/MOL
REMARK 923 INTER-LIGAND FREE ENERGY PREDICTED BY IDOCK:   -6.89 KCAL/MOL
REMARK 924 INTRA-LIGAND FREE ENERGY PREDICTED BY IDOCK:   -1.51 KCAL/MOL
REMARK 927      BINDING AFFINITY PREDICTED BY RF-SCORE:    0.00 PKD
ROOT
HETATM    1  C   UNL     1     -12.443  12.400  63.587  1.00  0.00    -0.610 C  
HETATM    2  C   UNL     1     -11.830  12.905  64.895  1.00  0.00    -0.366 C  
HETATM    3  C   UNL     1     -12.764  13.938  65.531  1.00  0.00    -0.536 C  
ENDROOT
BRANCH   2   4
HETATM    4  N   UNL     1     -11.610  11.758  65.777  1.00  0.00    -0.332 NA 
HETATM    5  H   UNL     1     -11.646  10.885  65.250  1.00  0.00     0.000 HD 
BRANCH   4   6
HETATM    6  C   UNL     1     -10.365  11.846  66.553  1.00  0.00    -0.216 C  
BRANCH   6   7
HETATM    7  C   UNL     1      -9.204  11.218  65.762  1.00  0.00    -0.219 C  
HETATM    8  O   UNL     1      -7.959  11.771  66.218  1.00  0.00    -0.376 OA 
HETATM    9  H   UNL     1      -7.242  11.383  65.730  1.00  0.00     0.000 HD 
BRANCH   7  10
HETATM   10  C   UNL     1      -9.175   9.693  65.909  1.00  0.00    -0.194 C  
BRANCH  10  11
HETATM   11  O   UNL     1     -10.380   9.257  66.557  1.00  0.00    -0.258 OA 
BRANCH  11  12
HETATM   12  C   UNL     1     -10.209   8.253  67.473  1.00  0.00    -0.243 A  
HETATM   13  C   UNL     1     -10.944   7.068  67.499  1.00  0.00    -0.299 A  
HETATM   14  C   UNL     1     -10.696   6.110  68.485  1.00  0.00    -0.365 A  
HETATM   15  C   UNL     1      -9.703   6.314  69.452  1.00  0.00    -0.162 A  
HETATM   16  C   UNL     1      -8.946   7.488  69.401  1.00  0.00    -0.139 A  
HETATM   17  C   UNL     1      -9.194   8.448  68.409  1.00  0.00    -0.135 A  
BRANCH  15  18
HETATM   18  C   UNL     1      -9.482   5.285  70.530  1.00  0.00    -0.167 C  
BRANCH  18  19
HETATM   19  O   UNL     1      -9.526   5.939  71.795  1.00  0.00    -0.152 OA 
BRANCH  19  20
HETATM   20  C   UNL     1     -10.862   6.150  72.244  1.00  0.00    -0.244 C  
BRANCH  20  21
HETATM   21  C   UNL     1     -10.881   7.399  73.118  1.00  0.00    -0.386 C  
BRANCH  21  22
HETATM   22  O   UNL     1     -10.792   8.567  72.305  1.00  0.00    -0.330 OA 
BRANCH  22  23
HETATM   23  C   UNL     1     -11.886   8.710  71.390  1.00  0.00    -0.297 C  
HETATM   24  C   UNL     1     -13.211   8.916  72.119  1.00  0.00    -0.478 C  
HETATM   25  C   UNL     1     -11.583   9.920  70.512  1.00  0.00    -0.386 C  
ENDBRANCH  22  23
ENDBRANCH  21  22
ENDBRANCH  20  21
ENDBRANCH  19  20
ENDBRANCH  18  19
ENDBRANCH  15  18
ENDBRANCH  11  12
ENDBRANCH  10  11
ENDBRANCH   7  10
ENDBRANCH   6   7
ENDBRANCH   4   6
ENDBRANCH   2   4
TORSDOF 12
ENDMDL
MODEL      108
REMARK 921   NORMALIZED FREE ENERGY PREDICTED BY IDOCK:   -4.31 KCAL/MOL
REMARK 922        TOTAL FREE ENERGY PREDICTED BY IDOCK:   -8.35 KCAL/MOL
REMARK 923 INTER-LIGAND FREE ENERGY PREDICTED BY IDOCK:   -7.48 KCAL/MOL
REMARK 924 INTRA-LIGAND FREE ENERGY PREDICTED BY IDOCK:   -0.88 KCAL/MOL
REMARK 927      BINDING AFFINITY PREDICTED BY RF-SCORE:    0.00 PKD
ROOT
HETATM    1  C   UNL     1     -10.210  19.986  68.542  1.00  0.00    -0.484 C  
HETATM    2  C   UNL     1     -10.059  18.951  67.424  1.00  0.00    -0.361 C  
HETATM    3  C   UNL     1     -10.389  19.601  66.079  1.00  0.00    -0.620 C  
ENDROOT
BRANCH   2   4
HETATM    4  N   UNL     1      -8.690  18.432  67.455  1.00  0.00    -0.256 NA 
HETATM    5  H   UNL     1      -8.525  17.899  68.309  1.00  0.00     0.000 HD 
BRANCH   4   6
HETATM    6  C   UNL     1      -8.338  17.639  66.270  1.00  0.00    -0.216 C  
BRANCH   6   7
HETATM    7  C   UNL     1      -7.923  16.218  66.690  1.00  0.00    -0.289 C  
HETATM    8  O   UNL     1      -7.252  16.269  67.959  1.00  0.00    -0.126 OA 
HETATM    9  H   UNL     1      -6.996  15.392  68.218  1.00  0.00     0.000 HD 
BRANCH   7  10
HETATM   10  C   UNL     1      -9.128  15.277  66.782  1.00  0.00    -0.256 C  
BRANCH  10  11
HETATM   11  O   UNL     1      -9.827  15.521  68.013  1.00  0.00    -0.211 OA 
BRANCH  11  12
HETATM   12  C   UNL     1     -10.490  14.437  68.522  1.00  0.00    -0.254 A  
HETATM   13  C   UNL     1     -11.422  14.490  69.559  1.00  0.00    -0.330 A  
HETATM   14  C   UNL     1     -12.037  13.321  70.012  1.00  0.00    -0.385 A  
HETATM   15  C   UNL     1     -11.740  12.081  69.429  1.00  0.00    -0.402 A  
HETATM   16  C   UNL     1     -10.831  12.037  68.368  1.00  0.00    -0.266 A  
HETATM   17  C   UNL     1     -10.217  13.212  67.912  1.00  0.00    -0.233 A  
BRANCH  15  18
HETATM   18  C   UNL     1     -12.384  10.828  69.963  1.00  0.00    -0.298 C  
BRANCH  18  19
HETATM   19  O   UNL     1     -12.910  11.105  71.257  1.00  0.00    -0.394 OA 
BRANCH  19  20
HETATM   20  C   UNL     1     -13.157   9.914  72.002  1.00  0.00    -0.448 C  
BRANCH  20  21
HETATM   21  C   UNL     1     -12.075   8.899  71.652  1.00  0.00    -0.346 C  
BRANCH  21  22
HETATM   22  O   UNL     1     -11.693   8.169  72.817  1.00  0.00    -0.403 OA 
BRANCH  22  23
HETATM   23  C   UNL     1     -10.453   7.466  72.668  1.00  0.00    -0.255 C  
HETATM   24  C   UNL     1      -9.981   6.863  73.988  1.00  0.00    -0.371 C  
HETATM   25  C   UNL     1     -10.684   6.360  71.644  1.00  0.00    -0.274 C  
ENDBRANCH  22  23
ENDBRANCH  21  22
ENDBRANCH  20  21
ENDBRANCH  19  20
ENDBRANCH  18  19
ENDBRANCH  15  18
ENDBRANCH  11  12
ENDBRANCH  10  11
ENDBRANCH   7  10
ENDBRANCH   6   7
ENDBRANCH   4   6
ENDBRANCH   2   4
TORSDOF 12
ENDMDL
MODEL      109
REMARK 921   NORMALIZED FREE ENERGY PREDICTED BY IDOCK:   -4.30 KCAL/MOL
REMARK 922        TOTAL FREE ENERGY PREDICTED BY IDOCK:   -8.34 KCAL/MOL
REMARK 923 INTER-LIGAND FREE ENERGY PREDICTED BY IDOCK:   -6.81 KCAL/MOL
REMARK 924 INTRA-LIGAND FREE ENERGY PREDICTED BY IDOCK:   -1.53 KCAL/MOL
REMARK 927      BINDING AFFINITY PREDICTED BY RF-SCORE:    0.00 PKD
ROOT
HETATM    1  C   UNL     1     -11.192  15.759  69.256  1.00  0.00    -0.324 C  
HETATM    2  C   UNL     1     -10.936  14.579  68.315  1.00  0.00    -0.247 C  
HETATM    3  C   UNL     1     -11.849  13.412  68.699  1.00  0.00    -0.397 C  
ENDROOT
BRANCH   2   4
HETATM    4  N   UNL     1     -11.172  15.024  66.940  1.00  0.00    -0.336 NA 
HETATM    5  H   UNL     1     -10.293  15.268  66.484  1.00  0.00     0.000 HD 
BRANCH   4   6
HETATM    6  C   UNL     1     -11.926  14.055  66.133  1.00  0.00    -0.420 C  
BRANCH   6   7
HETATM    7  C   UNL     1     -11.103  13.642  64.899  1.00  0.00    -0.351 C  
HETATM    8  O   UNL     1      -9.802  14.248  64.965  1.00  0.00    -0.555 OA 
HETATM    9  H   UNL     1      -9.295  13.993  64.204  1.00  0.00     0.000 HD 
BRANCH   7  10
HETATM   10  C   UNL     1     -10.958  12.120  64.795  1.00  0.00    -0.310 C  
BRANCH  10  11
HETATM   11  O   UNL     1      -9.705  11.723  65.374  1.00  0.00    -0.231 OA 
BRANCH  11  12
HETATM   12  C   UNL     1      -9.804  11.125  66.602  1.00  0.00    -0.199 A  
HETATM   13  C   UNL     1     -10.849  10.291  66.998  1.00  0.00    -0.248 A  
HETATM   14  C   UNL     1     -10.859   9.737  68.280  1.00  0.00    -0.256 A  
HETATM   15  C   UNL     1      -9.820   9.998  69.184  1.00  0.00    -0.213 A  
HETATM   16  C   UNL     1      -8.758  10.809  68.771  1.00  0.00    -0.163 A  
HETATM   17  C   UNL     1      -8.747  11.361  67.483  1.00  0.00    -0.140 A  
BRANCH  15  18
HETATM   18  C   UNL     1      -9.873   9.424  70.576  1.00  0.00    -0.270 C  
BRANCH  18  19
HETATM   19  O   UNL     1     -11.102   9.816  71.180  1.00  0.00    -0.343 OA 
BRANCH  19  20
HETATM   20  C   UNL     1     -11.849   8.696  71.651  1.00  0.00    -0.323 C  
BRANCH  20  21
HETATM   21  C   UNL     1     -10.975   7.453  71.528  1.00  0.00    -0.230 C  
BRANCH  21  22
HETATM   22  O   UNL     1     -11.636   6.466  70.738  1.00  0.00    -0.344 OA 
BRANCH  22  23
HETATM   23  C   UNL     1     -10.752   5.747  69.869  1.00  0.00    -0.342 C  
HETATM   24  C   UNL     1     -10.912   6.178  68.414  1.00  0.00    -0.391 C  
HETATM   25  C   UNL     1      -9.329   6.030  70.341  1.00  0.00    -0.177 C  
ENDBRANCH  22  23
ENDBRANCH  21  22
ENDBRANCH  20  21
ENDBRANCH  19  20
ENDBRANCH  18  19
ENDBRANCH  15  18
ENDBRANCH  11  12
ENDBRANCH  10  11
ENDBRANCH   7  10
ENDBRANCH   6   7
ENDBRANCH   4   6
ENDBRANCH   2   4
TORSDOF 12
ENDMDL
MODEL      110
REMARK 921   NORMALIZED FREE ENERGY PREDICTED BY IDOCK:   -4.30 KCAL/MOL
REMARK 922        TOTAL FREE ENERGY PREDICTED BY IDOCK:   -8.34 KCAL/MOL
REMARK 923 INTER-LIGAND FREE ENERGY PREDICTED BY IDOCK:   -7.41 KCAL/MOL
REMARK 924 INTRA-LIGAND FREE ENERGY PREDICTED BY IDOCK:   -0.92 KCAL/MOL
REMARK 927      BINDING AFFINITY PREDICTED BY RF-SCORE:    0.00 PKD
ROOT
HETATM    1  C   UNL     1     -12.772  11.894  63.296  1.00  0.00    -0.407 C  
HETATM    2  C   UNL     1     -12.113  11.992  64.675  1.00  0.00    -0.232 C  
HETATM    3  C   UNL     1     -10.617  11.693  64.548  1.00  0.00    -0.373 C  
ENDROOT
BRANCH   2   4
HETATM    4  N   UNL     1     -12.355  13.333  65.209  1.00  0.00    -0.450 NA 
HETATM    5  H   UNL     1     -11.795  13.495  66.047  1.00  0.00     0.000 HD 
BRANCH   4   6
HETATM    6  C   UNL     1     -12.141  14.403  64.225  1.00  0.00    -0.436 C  
BRANCH   6   7
HETATM    7  C   UNL     1     -11.086  15.396  64.745  1.00  0.00    -0.403 C  
HETATM    8  O   UNL     1     -11.291  16.678  64.132  1.00  0.00    -1.419 OA 
HETATM    9  H   UNL     1     -10.639  17.291  64.453  1.00  0.00     0.000 HD 
BRANCH   7  10
HETATM   10  C   UNL     1     -11.141  15.538  66.270  1.00  0.00    -0.177 C  
BRANCH  10  11
HETATM   11  O   UNL     1      -9.926  15.024  66.838  1.00  0.00    -0.238 OA 
BRANCH  11  12
HETATM   12  C   UNL     1     -10.060  13.829  67.495  1.00  0.00    -0.241 A  
HETATM   13  C   UNL     1     -11.169  13.462  68.258  1.00  0.00    -0.310 A  
HETATM   14  C   UNL     1     -11.202  12.220  68.896  1.00  0.00    -0.323 A  
HETATM   15  C   UNL     1     -10.133  11.320  68.774  1.00  0.00    -0.204 A  
HETATM   16  C   UNL     1      -9.040  11.680  67.981  1.00  0.00    -0.177 A  
HETATM   17  C   UNL     1      -9.009  12.925  67.338  1.00  0.00    -0.199 A  
BRANCH  15  18
HETATM   18  C   UNL     1     -10.173  10.004  69.506  1.00  0.00    -0.234 C  
BRANCH  18  19
HETATM   19  O   UNL     1      -8.949   9.846  70.217  1.00  0.00    -0.199 OA 
BRANCH  19  20
HETATM   20  C   UNL     1      -8.600   8.473  70.385  1.00  0.00    -0.143 C  
BRANCH  20  21
HETATM   21  C   UNL     1      -8.979   8.054  71.801  1.00  0.00    -0.147 C  
BRANCH  21  22
HETATM   22  O   UNL     1      -9.743   6.850  71.768  1.00  0.00    -0.161 OA 
BRANCH  22  23
HETATM   23  C   UNL     1     -10.934   6.909  72.563  1.00  0.00    -0.260 C  
HETATM   24  C   UNL     1     -12.012   7.768  71.907  1.00  0.00    -0.340 C  
HETATM   25  C   UNL     1     -11.437   5.479  72.726  1.00  0.00    -0.339 C  
ENDBRANCH  22  23
ENDBRANCH  21  22
ENDBRANCH  20  21
ENDBRANCH  19  20
ENDBRANCH  18  19
ENDBRANCH  15  18
ENDBRANCH  11  12
ENDBRANCH  10  11
ENDBRANCH   7  10
ENDBRANCH   6   7
ENDBRANCH   4   6
ENDBRANCH   2   4
TORSDOF 12
ENDMDL
MODEL      111
REMARK 921   NORMALIZED FREE ENERGY PREDICTED BY IDOCK:   -4.29 KCAL/MOL
REMARK 922        TOTAL FREE ENERGY PREDICTED BY IDOCK:   -8.33 KCAL/MOL
REMARK 923 INTER-LIGAND FREE ENERGY PREDICTED BY IDOCK:   -7.12 KCAL/MOL
REMARK 924 INTRA-LIGAND FREE ENERGY PREDICTED BY IDOCK:   -1.20 KCAL/MOL
REMARK 927      BINDING AFFINITY PREDICTED BY RF-SCORE:    0.00 PKD
ROOT
HETATM    1  C   UNL     1     -11.188  16.267  64.703  1.00  0.00    -0.264 C  
HETATM    2  C   UNL     1     -10.119  15.609  65.579  1.00  0.00    -0.362 C  
HETATM    3  C   UNL     1     -10.500  15.765  67.053  1.00  0.00    -0.309 C  
ENDROOT
BRANCH   2   4
HETATM    4  N   UNL     1     -10.007  14.201  65.193  1.00  0.00    -0.577 NA 
HETATM    5  H   UNL     1      -9.834  13.615  66.010  1.00  0.00     0.000 HD 
BRANCH   4   6
HETATM    6  C   UNL     1     -11.164  13.707  64.434  1.00  0.00    -0.367 C  
BRANCH   6   7
HETATM    7  C   UNL     1     -12.114  12.931  65.364  1.00  0.00    -0.454 C  
HETATM    8  O   UNL     1     -13.179  12.357  64.590  1.00  0.00    -0.822 OA 
HETATM    9  H   UNL     1     -13.765  11.878  65.164  1.00  0.00     0.000 HD 
BRANCH   7  10
HETATM   10  C   UNL     1     -11.381  11.825  66.131  1.00  0.00    -0.280 C  
BRANCH  10  11
HETATM   11  O   UNL     1     -10.849  12.367  67.350  1.00  0.00    -0.227 OA 
BRANCH  11  12
HETATM   12  C   UNL     1     -10.951  11.542  68.439  1.00  0.00    -0.221 A  
HETATM   13  C   UNL     1     -11.974  11.598  69.385  1.00  0.00    -0.381 A  
HETATM   14  C   UNL     1     -11.981  10.713  70.465  1.00  0.00    -0.446 A  
HETATM   15  C   UNL     1     -10.971   9.752  70.613  1.00  0.00    -0.398 A  
HETATM   16  C   UNL     1      -9.966   9.678  69.645  1.00  0.00    -0.239 A  
HETATM   17  C   UNL     1      -9.963  10.564  68.558  1.00  0.00    -0.181 A  
BRANCH  15  18
HETATM   18  C   UNL     1     -10.976   8.837  71.810  1.00  0.00    -0.345 C  
BRANCH  18  19
HETATM   19  O   UNL     1     -11.921   7.797  71.581  1.00  0.00    -0.277 OA 
BRANCH  19  20
HETATM   20  C   UNL     1     -11.705   6.677  72.437  1.00  0.00    -0.225 C  
BRANCH  20  21
HETATM   21  C   UNL     1     -10.778   5.701  71.721  1.00  0.00    -0.244 C  
BRANCH  21  22
HETATM   22  O   UNL     1      -9.550   5.579  72.436  1.00  0.00    -0.150 OA 
BRANCH  22  23
HETATM   23  C   UNL     1      -8.396   5.882  71.641  1.00  0.00    -0.127 C  
HETATM   24  C   UNL     1      -8.767   6.165  70.188  1.00  0.00    -0.141 C  
HETATM   25  C   UNL     1      -7.736   7.111  72.258  1.00  0.00    -0.089 C  
ENDBRANCH  22  23
ENDBRANCH  21  22
ENDBRANCH  20  21
ENDBRANCH  19  20
ENDBRANCH  18  19
ENDBRANCH  15  18
ENDBRANCH  11  12
ENDBRANCH  10  11
ENDBRANCH   7  10
ENDBRANCH   6   7
ENDBRANCH   4   6
ENDBRANCH   2   4
TORSDOF 12
ENDMDL
MODEL      112
REMARK 921   NORMALIZED FREE ENERGY PREDICTED BY IDOCK:   -4.27 KCAL/MOL
REMARK 922        TOTAL FREE ENERGY PREDICTED BY IDOCK:   -8.29 KCAL/MOL
REMARK 923 INTER-LIGAND FREE ENERGY PREDICTED BY IDOCK:   -8.28 KCAL/MOL
REMARK 924 INTRA-LIGAND FREE ENERGY PREDICTED BY IDOCK:   -0.02 KCAL/MOL
REMARK 927      BINDING AFFINITY PREDICTED BY RF-SCORE:    0.00 PKD
ROOT
HETATM    1  C   UNL     1      -6.394  21.080  67.126  1.00  0.00    -0.398 C  
HETATM    2  C   UNL     1      -7.394  20.197  66.377  1.00  0.00    -0.281 C  
HETATM    3  C   UNL     1      -6.682  18.945  65.858  1.00  0.00    -0.290 C  
ENDROOT
BRANCH   2   4
HETATM    4  N   UNL     1      -8.488  19.860  67.289  1.00  0.00    -0.312 NA 
HETATM    5  H   UNL     1      -8.371  20.334  68.185  1.00  0.00     0.000 HD 
BRANCH   4   6
HETATM    6  C   UNL     1      -9.821  20.126  66.730  1.00  0.00    -0.456 C  
BRANCH   6   7
HETATM    7  C   UNL     1     -10.657  18.834  66.718  1.00  0.00    -0.395 C  
HETATM    8  O   UNL     1     -10.715  18.314  65.380  1.00  0.00    -0.610 OA 
HETATM    9  H   UNL     1     -11.231  17.516  65.372  1.00  0.00     0.000 HD 
BRANCH   7  10
HETATM   10  C   UNL     1     -10.077  17.772  67.659  1.00  0.00    -0.342 C  
BRANCH  10  11
HETATM   11  O   UNL     1     -11.144  17.176  68.414  1.00  0.00    -0.291 OA 
BRANCH  11  12
HETATM   12  C   UNL     1     -11.207  15.810  68.339  1.00  0.00    -0.362 A  
HETATM   13  C   UNL     1     -10.806  15.055  67.237  1.00  0.00    -0.310 A  
HETATM   14  C   UNL     1     -10.920  13.664  67.260  1.00  0.00    -0.299 A  
HETATM   15  C   UNL     1     -11.427  13.002  68.387  1.00  0.00    -0.345 A  
HETATM   16  C   UNL     1     -11.796  13.761  69.502  1.00  0.00    -0.394 A  
HETATM   17  C   UNL     1     -11.678  15.158  69.479  1.00  0.00    -0.351 A  
BRANCH  15  18
HETATM   18  C   UNL     1     -11.581  11.504  68.373  1.00  0.00    -0.308 C  
BRANCH  18  19
HETATM   19  O   UNL     1     -12.604  11.145  69.296  1.00  0.00    -0.336 OA 
BRANCH  19  20
HETATM   20  C   UNL     1     -12.128  11.117  70.640  1.00  0.00    -0.379 C  
BRANCH  20  21
HETATM   21  C   UNL     1     -11.435   9.780  70.874  1.00  0.00    -0.369 C  
BRANCH  21  22
HETATM   22  O   UNL     1     -12.196   8.986  71.783  1.00  0.00    -0.318 OA 
BRANCH  22  23
HETATM   23  C   UNL     1     -11.401   8.056  72.530  1.00  0.00    -0.406 C  
HETATM   24  C   UNL     1     -11.700   6.612  72.138  1.00  0.00    -0.342 C  
HETATM   25  C   UNL     1      -9.939   8.382  72.241  1.00  0.00    -0.383 C  
ENDBRANCH  22  23
ENDBRANCH  21  22
ENDBRANCH  20  21
ENDBRANCH  19  20
ENDBRANCH  18  19
ENDBRANCH  15  18
ENDBRANCH  11  12
ENDBRANCH  10  11
ENDBRANCH   7  10
ENDBRANCH   6   7
ENDBRANCH   4   6
ENDBRANCH   2   4
TORSDOF 12
ENDMDL
MODEL      113
REMARK 921   NORMALIZED FREE ENERGY PREDICTED BY IDOCK:   -4.27 KCAL/MOL
REMARK 922        TOTAL FREE ENERGY PREDICTED BY IDOCK:   -8.29 KCAL/MOL
REMARK 923 INTER-LIGAND FREE ENERGY PREDICTED BY IDOCK:   -7.09 KCAL/MOL
REMARK 924 INTRA-LIGAND FREE ENERGY PREDICTED BY IDOCK:   -1.20 KCAL/MOL
REMARK 927      BINDING AFFINITY PREDICTED BY RF-SCORE:    0.00 PKD
ROOT
HETATM    1  C   UNL     1     -12.358  16.009  72.061  1.00  0.00    -0.540 C  
HETATM    2  C   UNL     1     -12.569  14.528  71.737  1.00  0.00    -0.346 C  
HETATM    3  C   UNL     1     -13.899  14.060  72.333  1.00  0.00    -0.653 C  
ENDROOT
BRANCH   2   4
HETATM    4  N   UNL     1     -12.538  14.364  70.282  1.00  0.00    -0.418 NA 
HETATM    5  H   UNL     1     -13.476  14.450  69.889  1.00  0.00     0.000 HD 
BRANCH   4   6
HETATM    6  C   UNL     1     -11.605  15.277  69.610  1.00  0.00    -0.321 C  
BRANCH   6   7
HETATM    7  C   UNL     1     -11.830  15.236  68.087  1.00  0.00    -0.195 C  
HETATM    8  O   UNL     1     -10.904  16.124  67.441  1.00  0.00    -0.322 OA 
HETATM    9  H   UNL     1     -11.043  16.098  66.502  1.00  0.00     0.000 HD 
BRANCH   7  10
HETATM   10  C   UNL     1     -11.664  13.820  67.526  1.00  0.00    -0.375 C  
BRANCH  10  11
HETATM   11  O   UNL     1     -10.266  13.492  67.476  1.00  0.00    -0.230 OA 
BRANCH  11  12
HETATM   12  C   UNL     1      -9.917  12.362  68.166  1.00  0.00    -0.215 A  
HETATM   13  C   UNL     1     -10.816  11.520  68.820  1.00  0.00    -0.258 A  
HETATM   14  C   UNL     1     -10.354  10.394  69.505  1.00  0.00    -0.264 A  
HETATM   15  C   UNL     1      -8.987  10.084  69.538  1.00  0.00    -0.220 A  
HETATM   16  C   UNL     1      -8.093  10.912  68.853  1.00  0.00    -0.144 A  
HETATM   17  C   UNL     1      -8.559  12.040  68.163  1.00  0.00    -0.173 A  
BRANCH  15  18
HETATM   18  C   UNL     1      -8.507   8.888  70.319  1.00  0.00    -0.160 C  
BRANCH  18  19
HETATM   19  O   UNL     1      -8.803   9.099  71.696  1.00  0.00    -0.339 OA 
BRANCH  19  20
HETATM   20  C   UNL     1      -8.904   7.872  72.417  1.00  0.00    -0.154 C  
BRANCH  20  21
HETATM   21  C   UNL     1     -10.287   7.805  73.054  1.00  0.00    -0.347 C  
BRANCH  21  22
HETATM   22  O   UNL     1     -10.974   6.636  72.611  1.00  0.00    -0.236 OA 
BRANCH  22  23
HETATM   23  C   UNL     1     -12.070   6.918  71.731  1.00  0.00    -0.346 C  
HETATM   24  C   UNL     1     -12.503   8.379  71.816  1.00  0.00    -0.375 C  
HETATM   25  C   UNL     1     -11.604   6.596  70.315  1.00  0.00    -0.454 C  
ENDBRANCH  22  23
ENDBRANCH  21  22
ENDBRANCH  20  21
ENDBRANCH  19  20
ENDBRANCH  18  19
ENDBRANCH  15  18
ENDBRANCH  11  12
ENDBRANCH  10  11
ENDBRANCH   7  10
ENDBRANCH   6   7
ENDBRANCH   4   6
ENDBRANCH   2   4
TORSDOF 12
ENDMDL
MODEL      114
REMARK 921   NORMALIZED FREE ENERGY PREDICTED BY IDOCK:   -4.27 KCAL/MOL
REMARK 922        TOTAL FREE ENERGY PREDICTED BY IDOCK:   -8.29 KCAL/MOL
REMARK 923 INTER-LIGAND FREE ENERGY PREDICTED BY IDOCK:   -7.49 KCAL/MOL
REMARK 924 INTRA-LIGAND FREE ENERGY PREDICTED BY IDOCK:   -0.79 KCAL/MOL
REMARK 927      BINDING AFFINITY PREDICTED BY RF-SCORE:    0.00 PKD
ROOT
HETATM    1  C   UNL     1      -9.907   4.948  69.402  1.00  0.00    -0.281 C  
HETATM    2  C   UNL     1      -9.620   5.357  70.849  1.00  0.00    -0.173 C  
HETATM    3  C   UNL     1      -8.485   6.384  70.873  1.00  0.00    -0.131 C  
ENDROOT
BRANCH   2   4
HETATM    4  N   UNL     1     -10.851   5.893  71.432  1.00  0.00    -0.266 NA 
HETATM    5  H   UNL     1     -10.639   6.562  72.172  1.00  0.00     0.000 HD 
BRANCH   4   6
HETATM    6  C   UNL     1     -11.758   6.486  70.439  1.00  0.00    -0.375 C  
BRANCH   6   7
HETATM    7  C   UNL     1     -12.834   7.330  71.146  1.00  0.00    -0.286 C  
HETATM    8  O   UNL     1     -13.542   6.512  72.091  1.00  0.00    -0.483 OA 
HETATM    9  H   UNL     1     -14.206   7.034  72.527  1.00  0.00     0.000 HD 
BRANCH   7  10
HETATM   10  C   UNL     1     -12.227   8.540  71.864  1.00  0.00    -0.352 C  
BRANCH  10  11
HETATM   11  O   UNL     1     -11.019   8.932  71.193  1.00  0.00    -0.245 OA 
BRANCH  11  12
HETATM   12  C   UNL     1     -11.182   9.892  70.229  1.00  0.00    -0.301 A  
HETATM   13  C   UNL     1     -10.790   9.755  68.898  1.00  0.00    -0.220 A  
HETATM   14  C   UNL     1     -10.995  10.801  67.995  1.00  0.00    -0.336 A  
HETATM   15  C   UNL     1     -11.604  11.995  68.404  1.00  0.00    -0.368 A  
HETATM   16  C   UNL     1     -12.026  12.114  69.732  1.00  0.00    -0.372 A  
HETATM   17  C   UNL     1     -11.823  11.062  70.637  1.00  0.00    -0.434 A  
BRANCH  15  18
HETATM   18  C   UNL     1     -11.776  13.125  67.423  1.00  0.00    -0.370 C  
BRANCH  18  19
HETATM   19  O   UNL     1     -11.022  14.243  67.883  1.00  0.00    -0.257 OA 
BRANCH  19  20
HETATM   20  C   UNL     1     -10.989  15.299  66.925  1.00  0.00    -0.315 C  
BRANCH  20  21
HETATM   21  C   UNL     1      -9.898  16.281  67.335  1.00  0.00    -0.242 C  
BRANCH  21  22
HETATM   22  O   UNL     1     -10.465  17.567  67.585  1.00  0.00    -0.349 OA 
BRANCH  22  23
HETATM   23  C   UNL     1      -9.584  18.650  67.261  1.00  0.00    -0.297 C  
HETATM   24  C   UNL     1     -10.300  19.752  66.486  1.00  0.00    -0.621 C  
HETATM   25  C   UNL     1      -9.051  19.204  68.579  1.00  0.00    -0.416 C  
ENDBRANCH  22  23
ENDBRANCH  21  22
ENDBRANCH  20  21
ENDBRANCH  19  20
ENDBRANCH  18  19
ENDBRANCH  15  18
ENDBRANCH  11  12
ENDBRANCH  10  11
ENDBRANCH   7  10
ENDBRANCH   6   7
ENDBRANCH   4   6
ENDBRANCH   2   4
TORSDOF 12
ENDMDL
MODEL      115
REMARK 921   NORMALIZED FREE ENERGY PREDICTED BY IDOCK:   -4.26 KCAL/MOL
REMARK 922        TOTAL FREE ENERGY PREDICTED BY IDOCK:   -8.27 KCAL/MOL
REMARK 923 INTER-LIGAND FREE ENERGY PREDICTED BY IDOCK:   -7.46 KCAL/MOL
REMARK 924 INTRA-LIGAND FREE ENERGY PREDICTED BY IDOCK:   -0.81 KCAL/MOL
REMARK 927      BINDING AFFINITY PREDICTED BY RF-SCORE:    0.00 PKD
ROOT
HETATM    1  C   UNL     1      -9.460   7.834  73.266  1.00  0.00    -0.344 C  
HETATM    2  C   UNL     1     -10.333   7.653  72.021  1.00  0.00    -0.207 C  
HETATM    3  C   UNL     1     -11.214   6.414  72.191  1.00  0.00    -0.319 C  
ENDROOT
BRANCH   2   4
HETATM    4  N   UNL     1     -11.132   8.866  71.836  1.00  0.00    -0.358 NA 
HETATM    5  H   UNL     1     -11.187   9.399  72.704  1.00  0.00     0.000 HD 
BRANCH   4   6
HETATM    6  C   UNL     1     -10.660   9.715  70.733  1.00  0.00    -0.322 C  
BRANCH   6   7
HETATM    7  C   UNL     1     -11.691   9.717  69.590  1.00  0.00     0.104 C  
HETATM    8  O   UNL     1     -12.819  10.524  69.963  1.00  0.00    -0.517 OA 
HETATM    9  H   UNL     1     -13.456  10.525  69.257  1.00  0.00     0.000 HD 
BRANCH   7  10
HETATM   10  C   UNL     1     -11.090  10.245  68.283  1.00  0.00    -0.254 C  
BRANCH  10  11
HETATM   11  O   UNL     1     -11.959  11.247  67.732  1.00  0.00    -0.637 OA 
BRANCH  11  12
HETATM   12  C   UNL     1     -11.333  12.401  67.343  1.00  0.00    -0.321 A  
HETATM   13  C   UNL     1     -10.021  12.743  67.673  1.00  0.00    -0.217 A  
HETATM   14  C   UNL     1      -9.478  13.951  67.230  1.00  0.00    -0.239 A  
HETATM   15  C   UNL     1     -10.232  14.832  66.442  1.00  0.00    -0.299 A  
HETATM   16  C   UNL     1     -11.534  14.469  66.086  1.00  0.00    -0.357 A  
HETATM   17  C   UNL     1     -12.077  13.254  66.528  1.00  0.00    -0.435 A  
BRANCH  15  18
HETATM   18  C   UNL     1      -9.639  16.149  66.012  1.00  0.00    -0.346 C  
BRANCH  18  19
HETATM   19  O   UNL     1      -8.572  16.476  66.898  1.00  0.00    -0.178 OA 
BRANCH  19  20
HETATM   20  C   UNL     1      -7.523  17.179  66.236  1.00  0.00    -0.309 C  
BRANCH  20  21
HETATM   21  C   UNL     1      -7.869  18.663  66.235  1.00  0.00    -0.262 C  
BRANCH  21  22
HETATM   22  O   UNL     1      -8.028  19.130  67.574  1.00  0.00    -0.253 OA 
BRANCH  22  23
HETATM   23  C   UNL     1      -9.288  19.772  67.807  1.00  0.00    -0.344 C  
HETATM   24  C   UNL     1     -10.146  19.812  66.546  1.00  0.00    -0.589 C  
HETATM   25  C   UNL     1     -10.002  18.978  68.897  1.00  0.00    -0.460 C  
ENDBRANCH  22  23
ENDBRANCH  21  22
ENDBRANCH  20  21
ENDBRANCH  19  20
ENDBRANCH  18  19
ENDBRANCH  15  18
ENDBRANCH  11  12
ENDBRANCH  10  11
ENDBRANCH   7  10
ENDBRANCH   6   7
ENDBRANCH   4   6
ENDBRANCH   2   4
TORSDOF 12
ENDMDL
MODEL      116
REMARK 921   NORMALIZED FREE ENERGY PREDICTED BY IDOCK:   -4.26 KCAL/MOL
REMARK 922        TOTAL FREE ENERGY PREDICTED BY IDOCK:   -8.27 KCAL/MOL
REMARK 923 INTER-LIGAND FREE ENERGY PREDICTED BY IDOCK:   -7.36 KCAL/MOL
REMARK 924 INTRA-LIGAND FREE ENERGY PREDICTED BY IDOCK:   -0.90 KCAL/MOL
REMARK 927      BINDING AFFINITY PREDICTED BY RF-SCORE:    0.00 PKD
ROOT
HETATM    1  C   UNL     1     -10.078  19.868  68.624  1.00  0.00    -0.518 C  
HETATM    2  C   UNL     1     -10.883  19.325  67.440  1.00  0.00    -0.446 C  
HETATM    3  C   UNL     1     -10.258  19.815  66.131  1.00  0.00    -0.618 C  
ENDROOT
BRANCH   2   4
HETATM    4  N   UNL     1     -10.897  17.864  67.520  1.00  0.00    -0.313 NA 
HETATM    5  H   UNL     1     -10.761  17.449  66.598  1.00  0.00     0.000 HD 
BRANCH   4   6
HETATM    6  C   UNL     1      -9.928  17.321  68.482  1.00  0.00    -0.320 C  
BRANCH   6   7
HETATM    7  C   UNL     1     -10.101  15.796  68.603  1.00  0.00    -0.211 C  
HETATM    8  O   UNL     1      -9.667  15.366  69.904  1.00  0.00    -0.394 OA 
HETATM    9  H   UNL     1      -9.774  14.425  69.978  1.00  0.00     0.000 HD 
BRANCH   7  10
HETATM   10  C   UNL     1     -11.555  15.369  68.377  1.00  0.00    -0.354 C  
BRANCH  10  11
HETATM   11  O   UNL     1     -11.707  14.904  67.027  1.00  0.00    -0.348 OA 
BRANCH  11  12
HETATM   12  C   UNL     1     -11.352  13.596  66.826  1.00  0.00    -0.328 A  
HETATM   13  C   UNL     1     -11.803  12.523  67.594  1.00  0.00    -0.381 A  
HETATM   14  C   UNL     1     -11.372  11.226  67.310  1.00  0.00    -0.329 A  
HETATM   15  C   UNL     1     -10.492  10.977  66.248  1.00  0.00    -0.310 A  
HETATM   16  C   UNL     1     -10.069  12.051  65.459  1.00  0.00    -0.281 A  
HETATM   17  C   UNL     1     -10.506  13.353  65.743  1.00  0.00    -0.291 A  
BRANCH  15  18
HETATM   18  C   UNL     1     -10.007   9.575  65.987  1.00  0.00    -0.278 C  
BRANCH  18  19
HETATM   19  O   UNL     1     -10.096   8.832  67.199  1.00  0.00    -0.205 OA 
BRANCH  19  20
HETATM   20  C   UNL     1     -10.133   7.426  66.966  1.00  0.00    -0.258 C  
BRANCH  20  21
HETATM   21  C   UNL     1     -10.291   6.723  68.309  1.00  0.00    -0.187 C  
BRANCH  21  22
HETATM   22  O   UNL     1      -9.806   7.558  69.359  1.00  0.00    -0.163 OA 
BRANCH  22  23
HETATM   23  C   UNL     1     -10.656   7.574  70.514  1.00  0.00    -0.225 C  
HETATM   24  C   UNL     1     -11.748   6.512  70.428  1.00  0.00    -0.439 C  
HETATM   25  C   UNL     1      -9.770   7.311  71.727  1.00  0.00    -0.167 C  
ENDBRANCH  22  23
ENDBRANCH  21  22
ENDBRANCH  20  21
ENDBRANCH  19  20
ENDBRANCH  18  19
ENDBRANCH  15  18
ENDBRANCH  11  12
ENDBRANCH  10  11
ENDBRANCH   7  10
ENDBRANCH   6   7
ENDBRANCH   4   6
ENDBRANCH   2   4
TORSDOF 12
ENDMDL
MODEL      117
REMARK 921   NORMALIZED FREE ENERGY PREDICTED BY IDOCK:   -4.25 KCAL/MOL
REMARK 922        TOTAL FREE ENERGY PREDICTED BY IDOCK:   -8.25 KCAL/MOL
REMARK 923 INTER-LIGAND FREE ENERGY PREDICTED BY IDOCK:   -7.19 KCAL/MOL
REMARK 924 INTRA-LIGAND FREE ENERGY PREDICTED BY IDOCK:   -1.06 KCAL/MOL
REMARK 927      BINDING AFFINITY PREDICTED BY RF-SCORE:    0.00 PKD
ROOT
HETATM    1  C   UNL     1     -11.397  15.647  67.613  1.00  0.00    -0.228 C  
HETATM    2  C   UNL     1     -11.415  14.278  66.928  1.00  0.00    -0.363 C  
HETATM    3  C   UNL     1     -11.823  13.206  67.940  1.00  0.00    -0.390 C  
ENDROOT
BRANCH   2   4
HETATM    4  N   UNL     1     -12.342  14.339  65.796  1.00  0.00    -0.424 NA 
HETATM    5  H   UNL     1     -11.991  14.968  65.074  1.00  0.00     0.000 HD 
BRANCH   4   6
HETATM    6  C   UNL     1     -12.660  13.021  65.229  1.00  0.00    -0.457 C  
BRANCH   6   7
HETATM    7  C   UNL     1     -12.123  12.922  63.790  1.00  0.00    -0.508 C  
HETATM    8  O   UNL     1     -12.346  14.167  63.108  1.00  0.00    -1.125 OA 
HETATM    9  H   UNL     1     -12.015  14.106  62.220  1.00  0.00     0.000 HD 
BRANCH   7  10
HETATM   10  C   UNL     1     -10.630  12.581  63.762  1.00  0.00    -0.436 C  
BRANCH  10  11
HETATM   11  O   UNL     1     -10.464  11.216  63.344  1.00  0.00    -0.364 OA 
BRANCH  11  12
HETATM   12  C   UNL     1      -9.899  10.393  64.282  1.00  0.00    -0.322 A  
HETATM   13  C   UNL     1     -10.235  10.382  65.635  1.00  0.00    -0.308 A  
HETATM   14  C   UNL     1      -9.591   9.506  66.512  1.00  0.00    -0.259 A  
HETATM   15  C   UNL     1      -8.608   8.619  66.049  1.00  0.00    -0.173 A  
HETATM   16  C   UNL     1      -8.299   8.611  64.686  1.00  0.00    -0.165 A  
HETATM   17  C   UNL     1      -8.949   9.488  63.806  1.00  0.00    -0.211 A  
BRANCH  15  18
HETATM   18  C   UNL     1      -7.897   7.714  67.020  1.00  0.00    -0.112 C  
BRANCH  18  19
HETATM   19  O   UNL     1      -7.703   8.422  68.241  1.00  0.00    -0.102 OA 
BRANCH  19  20
HETATM   20  C   UNL     1      -7.340   7.555  69.313  1.00  0.00    -0.089 C  
BRANCH  20  21
HETATM   21  C   UNL     1      -8.498   7.508  70.303  1.00  0.00    -0.138 C  
BRANCH  21  22
HETATM   22  O   UNL     1      -9.267   8.706  70.215  1.00  0.00    -0.155 OA 
BRANCH  22  23
HETATM   23  C   UNL     1     -10.677   8.489  70.348  1.00  0.00    -0.228 C  
HETATM   24  C   UNL     1     -11.105   7.156  69.742  1.00  0.00    -0.239 C  
HETATM   25  C   UNL     1     -10.995   8.508  71.840  1.00  0.00    -0.394 C  
ENDBRANCH  22  23
ENDBRANCH  21  22
ENDBRANCH  20  21
ENDBRANCH  19  20
ENDBRANCH  18  19
ENDBRANCH  15  18
ENDBRANCH  11  12
ENDBRANCH  10  11
ENDBRANCH   7  10
ENDBRANCH   6   7
ENDBRANCH   4   6
ENDBRANCH   2   4
TORSDOF 12
ENDMDL
MODEL      118
REMARK 921   NORMALIZED FREE ENERGY PREDICTED BY IDOCK:   -4.25 KCAL/MOL
REMARK 922        TOTAL FREE ENERGY PREDICTED BY IDOCK:   -8.25 KCAL/MOL
REMARK 923 INTER-LIGAND FREE ENERGY PREDICTED BY IDOCK:   -7.54 KCAL/MOL
REMARK 924 INTRA-LIGAND FREE ENERGY PREDICTED BY IDOCK:   -0.70 KCAL/MOL
REMARK 927      BINDING AFFINITY PREDICTED BY RF-SCORE:    0.00 PKD
ROOT
HETATM    1  C   UNL     1     -10.753   6.910  67.445  1.00  0.00    -0.396 C  
HETATM    2  C   UNL     1     -10.875   6.155  68.771  1.00  0.00    -0.336 C  
HETATM    3  C   UNL     1      -9.500   6.070  69.438  1.00  0.00    -0.155 C  
ENDROOT
BRANCH   2   4
HETATM    4  N   UNL     1     -11.845   6.855  69.615  1.00  0.00    -0.610 NA 
HETATM    5  H   UNL     1     -12.788   6.756  69.240  1.00  0.00     0.000 HD 
BRANCH   4   6
HETATM    6  C   UNL     1     -11.800   6.441  71.025  1.00  0.00    -0.258 C  
BRANCH   6   7
HETATM    7  C   UNL     1     -12.682   7.373  71.877  1.00  0.00    -0.278 C  
HETATM    8  O   UNL     1     -12.001   7.690  73.101  1.00  0.00    -0.596 OA 
HETATM    9  H   UNL     1     -12.545   8.265  73.626  1.00  0.00     0.000 HD 
BRANCH   7  10
HETATM   10  C   UNL     1     -13.031   8.665  71.131  1.00  0.00    -0.068 C  
BRANCH  10  11
HETATM   11  O   UNL     1     -12.911   9.778  72.031  1.00  0.00    -0.395 OA 
BRANCH  11  12
HETATM   12  C   UNL     1     -12.637  10.977  71.428  1.00  0.00    -0.393 A  
HETATM   13  C   UNL     1     -11.938  11.122  70.230  1.00  0.00    -0.460 A  
HETATM   14  C   UNL     1     -11.705  12.395  69.703  1.00  0.00    -0.377 A  
HETATM   15  C   UNL     1     -12.174  13.542  70.359  1.00  0.00    -0.426 A  
HETATM   16  C   UNL     1     -12.902  13.388  71.542  1.00  0.00    -0.427 A  
HETATM   17  C   UNL     1     -13.140  12.110  72.068  1.00  0.00    -0.462 A  
BRANCH  15  18
HETATM   18  C   UNL     1     -11.873  14.905  69.794  1.00  0.00    -0.315 C  
BRANCH  18  19
HETATM   19  O   UNL     1     -11.534  14.761  68.418  1.00  0.00    -0.285 OA 
BRANCH  19  20
HETATM   20  C   UNL     1     -11.175  16.004  67.821  1.00  0.00    -0.231 C  
BRANCH  20  21
HETATM   21  C   UNL     1     -10.127  15.733  66.747  1.00  0.00    -0.271 C  
BRANCH  21  22
HETATM   22  O   UNL     1      -8.997  16.583  66.939  1.00  0.00    -0.200 OA 
BRANCH  22  23
HETATM   23  C   UNL     1      -8.480  16.550  68.276  1.00  0.00    -0.199 C  
HETATM   24  C   UNL     1      -7.586  15.335  68.508  1.00  0.00    -0.119 C  
HETATM   25  C   UNL     1      -7.677  17.832  68.478  1.00  0.00    -0.289 C  
ENDBRANCH  22  23
ENDBRANCH  21  22
ENDBRANCH  20  21
ENDBRANCH  19  20
ENDBRANCH  18  19
ENDBRANCH  15  18
ENDBRANCH  11  12
ENDBRANCH  10  11
ENDBRANCH   7  10
ENDBRANCH   6   7
ENDBRANCH   4   6
ENDBRANCH   2   4
TORSDOF 12
ENDMDL
MODEL      119
REMARK 921   NORMALIZED FREE ENERGY PREDICTED BY IDOCK:   -4.24 KCAL/MOL
REMARK 922        TOTAL FREE ENERGY PREDICTED BY IDOCK:   -8.24 KCAL/MOL
REMARK 923 INTER-LIGAND FREE ENERGY PREDICTED BY IDOCK:   -7.48 KCAL/MOL
REMARK 924 INTRA-LIGAND FREE ENERGY PREDICTED BY IDOCK:   -0.76 KCAL/MOL
REMARK 927      BINDING AFFINITY PREDICTED BY RF-SCORE:    0.00 PKD
ROOT
HETATM    1  C   UNL     1     -12.138  16.064  72.082  1.00  0.00    -0.611 C  
HETATM    2  C   UNL     1     -12.929  15.023  71.286  1.00  0.00    -0.377 C  
HETATM    3  C   UNL     1     -14.408  15.102  71.672  1.00  0.00    -0.685 C  
ENDROOT
BRANCH   2   4
HETATM    4  N   UNL     1     -12.725  15.278  69.859  1.00  0.00    -0.625 NA 
HETATM    5  H   UNL     1     -12.726  16.280  69.667  1.00  0.00     0.000 HD 
BRANCH   4   6
HETATM    6  C   UNL     1     -11.515  14.644  69.318  1.00  0.00    -0.291 C  
BRANCH   6   7
HETATM    7  C   UNL     1     -11.888  13.367  68.544  1.00  0.00    -0.366 C  
HETATM    8  O   UNL     1     -11.267  13.393  67.249  1.00  0.00    -0.278 OA 
HETATM    9  H   UNL     1     -11.497  12.604  66.771  1.00  0.00     0.000 HD 
BRANCH   7  10
HETATM   10  C   UNL     1     -11.461  12.102  69.295  1.00  0.00    -0.302 C  
BRANCH  10  11
HETATM   11  O   UNL     1     -12.510  11.709  70.195  1.00  0.00    -0.221 OA 
BRANCH  11  12
HETATM   12  C   UNL     1     -12.268  10.553  70.889  1.00  0.00    -0.388 A  
HETATM   13  C   UNL     1     -13.223   9.858  71.632  1.00  0.00    -0.519 A  
HETATM   14  C   UNL     1     -12.870   8.690  72.311  1.00  0.00    -0.438 A  
HETATM   15  C   UNL     1     -11.561   8.191  72.251  1.00  0.00    -0.436 A  
HETATM   16  C   UNL     1     -10.617   8.872  71.477  1.00  0.00    -0.399 A  
HETATM   17  C   UNL     1     -10.973  10.042  70.793  1.00  0.00    -0.375 A  
BRANCH  15  18
HETATM   18  C   UNL     1     -11.194   6.953  73.027  1.00  0.00    -0.184 C  
BRANCH  18  19
HETATM   19  O   UNL     1     -11.549   5.811  72.252  1.00  0.00    -0.293 OA 
BRANCH  19  20
HETATM   20  C   UNL     1     -10.411   5.197  71.650  1.00  0.00    -0.185 C  
BRANCH  20  21
HETATM   21  C   UNL     1     -10.157   3.869  72.355  1.00  0.00    -0.167 C  
BRANCH  21  22
HETATM   22  O   UNL     1      -9.259   4.059  73.447  1.00  0.00    -0.102 OA 
BRANCH  22  23
HETATM   23  C   UNL     1      -8.090   4.813  73.100  1.00  0.00    -0.101 C  
HETATM   24  C   UNL     1      -7.471   5.492  74.318  1.00  0.00    -0.089 C  
HETATM   25  C   UNL     1      -7.092   3.836  72.486  1.00  0.00    -0.048 C  
ENDBRANCH  22  23
ENDBRANCH  21  22
ENDBRANCH  20  21
ENDBRANCH  19  20
ENDBRANCH  18  19
ENDBRANCH  15  18
ENDBRANCH  11  12
ENDBRANCH  10  11
ENDBRANCH   7  10
ENDBRANCH   6   7
ENDBRANCH   4   6
ENDBRANCH   2   4
TORSDOF 12
ENDMDL
MODEL      120
REMARK 921   NORMALIZED FREE ENERGY PREDICTED BY IDOCK:   -4.24 KCAL/MOL
REMARK 922        TOTAL FREE ENERGY PREDICTED BY IDOCK:   -8.23 KCAL/MOL
REMARK 923 INTER-LIGAND FREE ENERGY PREDICTED BY IDOCK:   -6.63 KCAL/MOL
REMARK 924 INTRA-LIGAND FREE ENERGY PREDICTED BY IDOCK:   -1.60 KCAL/MOL
REMARK 927      BINDING AFFINITY PREDICTED BY RF-SCORE:    0.00 PKD
ROOT
HETATM    1  C   UNL     1     -10.894  16.379  69.495  1.00  0.00    -0.338 C  
HETATM    2  C   UNL     1     -11.323  15.301  70.494  1.00  0.00    -0.309 C  
HETATM    3  C   UNL     1     -12.816  15.450  70.794  1.00  0.00    -0.524 C  
ENDROOT
BRANCH   2   4
HETATM    4  N   UNL     1     -11.012  13.990  69.922  1.00  0.00    -0.459 NA 
HETATM    5  H   UNL     1     -10.884  13.296  70.658  1.00  0.00     0.000 HD 
BRANCH   4   6
HETATM    6  C   UNL     1     -12.004  13.529  68.940  1.00  0.00    -0.341 C  
BRANCH   6   7
HETATM    7  C   UNL     1     -11.293  12.941  67.708  1.00  0.00    -0.299 C  
HETATM    8  O   UNL     1     -11.332  13.893  66.633  1.00  0.00    -0.312 OA 
HETATM    9  H   UNL     1     -10.893  13.530  65.872  1.00  0.00     0.000 HD 
BRANCH   7  10
HETATM   10  C   UNL     1      -9.839  12.568  68.014  1.00  0.00    -0.214 C  
BRANCH  10  11
HETATM   11  O   UNL     1      -9.358  11.669  67.001  1.00  0.00    -0.175 OA 
BRANCH  11  12
HETATM   12  C   UNL     1      -9.504  10.340  67.296  1.00  0.00    -0.150 A  
HETATM   13  C   UNL     1     -10.484   9.509  66.755  1.00  0.00    -0.263 A  
HETATM   14  C   UNL     1     -10.552   8.165  67.130  1.00  0.00    -0.355 A  
HETATM   15  C   UNL     1      -9.635   7.627  68.043  1.00  0.00    -0.159 A  
HETATM   16  C   UNL     1      -8.633   8.456  68.558  1.00  0.00    -0.136 A  
HETATM   17  C   UNL     1      -8.564   9.804  68.177  1.00  0.00    -0.118 A  
BRANCH  15  18
HETATM   18  C   UNL     1      -9.754   6.186  68.465  1.00  0.00    -0.127 C  
BRANCH  18  19
HETATM   19  O   UNL     1     -10.960   6.029  69.207  1.00  0.00    -0.324 OA 
BRANCH  19  20
HETATM   20  C   UNL     1     -10.712   5.663  70.563  1.00  0.00    -0.274 C  
BRANCH  20  21
HETATM   21  C   UNL     1     -11.500   6.607  71.464  1.00  0.00    -0.297 C  
BRANCH  21  22
HETATM   22  O   UNL     1     -11.727   7.847  70.796  1.00  0.00    -0.284 OA 
BRANCH  22  23
HETATM   23  C   UNL     1     -11.226   8.981  71.515  1.00  0.00    -0.348 C  
HETATM   24  C   UNL     1      -9.759   8.808  71.896  1.00  0.00    -0.386 C  
HETATM   25  C   UNL     1     -11.388  10.196  70.606  1.00  0.00    -0.433 C  
ENDBRANCH  22  23
ENDBRANCH  21  22
ENDBRANCH  20  21
ENDBRANCH  19  20
ENDBRANCH  18  19
ENDBRANCH  15  18
ENDBRANCH  11  12
ENDBRANCH  10  11
ENDBRANCH   7  10
ENDBRANCH   6   7
ENDBRANCH   4   6
ENDBRANCH   2   4
TORSDOF 12
ENDMDL
MODEL      121
REMARK 921   NORMALIZED FREE ENERGY PREDICTED BY IDOCK:   -4.23 KCAL/MOL
REMARK 922        TOTAL FREE ENERGY PREDICTED BY IDOCK:   -8.21 KCAL/MOL
REMARK 923 INTER-LIGAND FREE ENERGY PREDICTED BY IDOCK:   -7.63 KCAL/MOL
REMARK 924 INTRA-LIGAND FREE ENERGY PREDICTED BY IDOCK:   -0.58 KCAL/MOL
REMARK 927      BINDING AFFINITY PREDICTED BY RF-SCORE:    0.00 PKD
ROOT
HETATM    1  C   UNL     1     -10.148  14.417  68.416  1.00  0.00    -0.244 C  
HETATM    2  C   UNL     1     -11.581  13.884  68.486  1.00  0.00    -0.332 C  
HETATM    3  C   UNL     1     -12.189  14.231  69.848  1.00  0.00    -0.407 C  
ENDROOT
BRANCH   2   4
HETATM    4  N   UNL     1     -12.348  14.470  67.385  1.00  0.00    -0.575 NA 
HETATM    5  H   UNL     1     -12.805  15.332  67.681  1.00  0.00     0.000 HD 
BRANCH   4   6
HETATM    6  C   UNL     1     -11.550  14.695  66.171  1.00  0.00    -0.332 C  
BRANCH   6   7
HETATM    7  C   UNL     1     -12.384  14.359  64.922  1.00  0.00    -0.405 C  
HETATM    8  O   UNL     1     -12.044  15.266  63.861  1.00  0.00    -0.947 OA 
HETATM    9  H   UNL     1     -12.559  15.059  63.089  1.00  0.00     0.000 HD 
BRANCH   7  10
HETATM   10  C   UNL     1     -12.160  12.916  64.458  1.00  0.00    -0.413 C  
BRANCH  10  11
HETATM   11  O   UNL     1     -10.779  12.567  64.649  1.00  0.00    -0.282 OA 
BRANCH  11  12
HETATM   12  C   UNL     1     -10.571  11.424  65.374  1.00  0.00    -0.275 A  
HETATM   13  C   UNL     1     -11.069  11.194  66.656  1.00  0.00    -0.255 A  
HETATM   14  C   UNL     1     -10.790   9.994  67.313  1.00  0.00    -0.284 A  
HETATM   15  C   UNL     1     -10.019   8.999  66.697  1.00  0.00    -0.349 A  
HETATM   16  C   UNL     1      -9.550   9.220  65.399  1.00  0.00    -0.237 A  
HETATM   17  C   UNL     1      -9.834  10.424  64.738  1.00  0.00    -0.406 A  
BRANCH  15  18
HETATM   18  C   UNL     1      -9.696   7.730  67.442  1.00  0.00    -0.163 C  
BRANCH  18  19
HETATM   19  O   UNL     1     -10.524   7.661  68.599  1.00  0.00    -0.201 OA 
BRANCH  19  20
HETATM   20  C   UNL     1      -9.763   7.679  69.805  1.00  0.00    -0.171 C  
BRANCH  20  21
HETATM   21  C   UNL     1     -10.732   7.720  70.981  1.00  0.00    -0.228 C  
BRANCH  21  22
HETATM   22  O   UNL     1     -11.234   6.412  71.248  1.00  0.00    -0.268 OA 
BRANCH  22  23
HETATM   23  C   UNL     1     -10.934   5.945  72.569  1.00  0.00    -0.264 C  
HETATM   24  C   UNL     1      -9.905   4.818  72.552  1.00  0.00    -0.204 C  
HETATM   25  C   UNL     1     -10.388   7.135  73.352  1.00  0.00    -0.391 C  
ENDBRANCH  22  23
ENDBRANCH  21  22
ENDBRANCH  20  21
ENDBRANCH  19  20
ENDBRANCH  18  19
ENDBRANCH  15  18
ENDBRANCH  11  12
ENDBRANCH  10  11
ENDBRANCH   7  10
ENDBRANCH   6   7
ENDBRANCH   4   6
ENDBRANCH   2   4
TORSDOF 12
ENDMDL
MODEL      122
REMARK 921   NORMALIZED FREE ENERGY PREDICTED BY IDOCK:   -4.22 KCAL/MOL
REMARK 922        TOTAL FREE ENERGY PREDICTED BY IDOCK:   -8.20 KCAL/MOL
REMARK 923 INTER-LIGAND FREE ENERGY PREDICTED BY IDOCK:   -7.17 KCAL/MOL
REMARK 924 INTRA-LIGAND FREE ENERGY PREDICTED BY IDOCK:   -1.03 KCAL/MOL
REMARK 927      BINDING AFFINITY PREDICTED BY RF-SCORE:    0.00 PKD
ROOT
HETATM    1  C   UNL     1      -9.315   3.019  65.419  1.00  0.00    -0.114 C  
HETATM    2  C   UNL     1     -10.138   4.047  64.638  1.00  0.00    -0.206 C  
HETATM    3  C   UNL     1     -10.894   3.343  63.509  1.00  0.00    -0.210 C  
ENDROOT
BRANCH   2   4
HETATM    4  N   UNL     1     -11.050   4.714  65.569  1.00  0.00    -0.942 NA 
HETATM    5  H   UNL     1     -11.782   4.075  65.878  1.00  0.00     0.000 HD 
BRANCH   4   6
HETATM    6  C   UNL     1     -10.369   5.321  66.721  1.00  0.00    -0.273 C  
BRANCH   6   7
HETATM    7  C   UNL     1     -11.082   6.623  67.130  1.00  0.00    -0.357 C  
HETATM    8  O   UNL     1     -11.463   6.548  68.513  1.00  0.00    -0.575 OA 
HETATM    9  H   UNL     1     -11.902   7.351  68.765  1.00  0.00     0.000 HD 
BRANCH   7  10
HETATM   10  C   UNL     1     -10.194   7.852  66.906  1.00  0.00    -0.310 C  
BRANCH  10  11
HETATM   11  O   UNL     1     -10.308   8.730  68.037  1.00  0.00    -0.208 OA 
BRANCH  11  12
HETATM   12  C   UNL     1     -10.774   9.985  67.746  1.00  0.00    -0.280 A  
HETATM   13  C   UNL     1     -11.423  10.821  68.653  1.00  0.00    -0.365 A  
HETATM   14  C   UNL     1     -11.869  12.082  68.251  1.00  0.00    -0.351 A  
HETATM   15  C   UNL     1     -11.664  12.533  66.940  1.00  0.00    -0.447 A  
HETATM   16  C   UNL     1     -10.984  11.704  66.043  1.00  0.00    -0.338 A  
HETATM   17  C   UNL     1     -10.533  10.440  66.449  1.00  0.00    -0.246 A  
BRANCH  15  18
HETATM   18  C   UNL     1     -12.192  13.879  66.517  1.00  0.00    -0.442 C  
BRANCH  18  19
HETATM   19  O   UNL     1     -11.177  14.551  65.777  1.00  0.00    -0.322 OA 
BRANCH  19  20
HETATM   20  C   UNL     1     -10.450  15.477  66.581  1.00  0.00    -0.299 C  
BRANCH  20  21
HETATM   21  C   UNL     1      -8.961  15.248  66.347  1.00  0.00    -0.304 C  
BRANCH  21  22
HETATM   22  O   UNL     1      -8.260  15.274  67.589  1.00  0.00    -0.143 OA 
BRANCH  22  23
HETATM   23  C   UNL     1      -7.266  14.247  67.704  1.00  0.00    -0.183 C  
HETATM   24  C   UNL     1      -6.380  14.451  68.930  1.00  0.00    -0.091 C  
HETATM   25  C   UNL     1      -8.005  12.917  67.813  1.00  0.00    -0.162 C  
ENDBRANCH  22  23
ENDBRANCH  21  22
ENDBRANCH  20  21
ENDBRANCH  19  20
ENDBRANCH  18  19
ENDBRANCH  15  18
ENDBRANCH  11  12
ENDBRANCH  10  11
ENDBRANCH   7  10
ENDBRANCH   6   7
ENDBRANCH   4   6
ENDBRANCH   2   4
TORSDOF 12
ENDMDL
MODEL      123
REMARK 921   NORMALIZED FREE ENERGY PREDICTED BY IDOCK:   -4.21 KCAL/MOL
REMARK 922        TOTAL FREE ENERGY PREDICTED BY IDOCK:   -8.19 KCAL/MOL
REMARK 923 INTER-LIGAND FREE ENERGY PREDICTED BY IDOCK:   -7.56 KCAL/MOL
REMARK 924 INTRA-LIGAND FREE ENERGY PREDICTED BY IDOCK:   -0.63 KCAL/MOL
REMARK 927      BINDING AFFINITY PREDICTED BY RF-SCORE:    0.00 PKD
ROOT
HETATM    1  C   UNL     1      -9.414  18.329  67.884  1.00  0.00    -0.288 C  
HETATM    2  C   UNL     1     -10.161  18.076  66.572  1.00  0.00    -0.379 C  
HETATM    3  C   UNL     1     -10.452  19.412  65.885  1.00  0.00    -0.561 C  
ENDROOT
BRANCH   2   4
HETATM    4  N   UNL     1      -9.340  17.202  65.732  1.00  0.00    -0.524 NA 
HETATM    5  H   UNL     1      -8.377  17.177  66.069  1.00  0.00     0.000 HD 
BRANCH   4   6
HETATM    6  C   UNL     1      -9.880  15.841  65.600  1.00  0.00    -0.322 C  
BRANCH   6   7
HETATM    7  C   UNL     1     -11.335  15.897  65.100  1.00  0.00    -0.118 C  
HETATM    8  O   UNL     1     -11.350  16.252  63.708  1.00  0.00    -1.368 OA 
HETATM    9  H   UNL     1     -12.248  16.286  63.400  1.00  0.00     0.000 HD 
BRANCH   7  10
HETATM   10  C   UNL     1     -12.056  14.559  65.299  1.00  0.00    -0.337 C  
BRANCH  10  11
HETATM   11  O   UNL     1     -11.446  13.564  64.460  1.00  0.00    -0.353 OA 
BRANCH  11  12
HETATM   12  C   UNL     1     -11.034  12.435  65.116  1.00  0.00    -0.302 A  
HETATM   13  C   UNL     1     -11.527  12.008  66.349  1.00  0.00    -0.417 A  
HETATM   14  C   UNL     1     -11.031  10.842  66.938  1.00  0.00    -0.286 A  
HETATM   15  C   UNL     1     -10.043  10.078  66.300  1.00  0.00    -0.310 A  
HETATM   16  C   UNL     1      -9.577  10.493  65.049  1.00  0.00    -0.331 A  
HETATM   17  C   UNL     1     -10.078  11.661  64.457  1.00  0.00    -0.321 A  
BRANCH  15  18
HETATM   18  C   UNL     1      -9.493   8.849  66.974  1.00  0.00    -0.166 C  
BRANCH  18  19
HETATM   19  O   UNL     1      -9.733   8.954  68.374  1.00  0.00    -0.155 OA 
BRANCH  19  20
HETATM   20  C   UNL     1      -8.627   9.529  69.066  1.00  0.00    -0.133 C  
BRANCH  20  21
HETATM   21  C   UNL     1      -8.093   8.497  70.053  1.00  0.00    -0.111 C  
BRANCH  21  22
HETATM   22  O   UNL     1      -9.126   7.580  70.410  1.00  0.00    -0.152 OA 
BRANCH  22  23
HETATM   23  C   UNL     1      -9.822   7.943  71.609  1.00  0.00    -0.167 C  
HETATM   24  C   UNL     1     -11.311   8.160  71.357  1.00  0.00    -0.299 C  
HETATM   25  C   UNL     1      -9.624   6.805  72.605  1.00  0.00    -0.160 C  
ENDBRANCH  22  23
ENDBRANCH  21  22
ENDBRANCH  20  21
ENDBRANCH  19  20
ENDBRANCH  18  19
ENDBRANCH  15  18
ENDBRANCH  11  12
ENDBRANCH  10  11
ENDBRANCH   7  10
ENDBRANCH   6   7
ENDBRANCH   4   6
ENDBRANCH   2   4
TORSDOF 12
ENDMDL
MODEL      124
REMARK 921   NORMALIZED FREE ENERGY PREDICTED BY IDOCK:   -4.17 KCAL/MOL
REMARK 922        TOTAL FREE ENERGY PREDICTED BY IDOCK:   -8.11 KCAL/MOL
REMARK 923 INTER-LIGAND FREE ENERGY PREDICTED BY IDOCK:   -7.20 KCAL/MOL
REMARK 924 INTRA-LIGAND FREE ENERGY PREDICTED BY IDOCK:   -0.91 KCAL/MOL
REMARK 927      BINDING AFFINITY PREDICTED BY RF-SCORE:    0.00 PKD
ROOT
HETATM    1  C   UNL     1      -9.626  19.923  68.701  1.00  0.00    -0.348 C  
HETATM    2  C   UNL     1     -10.605  19.442  67.626  1.00  0.00    -0.458 C  
HETATM    3  C   UNL     1     -10.106  19.881  66.248  1.00  0.00    -0.613 C  
ENDROOT
BRANCH   2   4
HETATM    4  N   UNL     1     -10.721  17.986  67.723  1.00  0.00    -0.391 NA 
HETATM    5  H   UNL     1     -10.696  17.559  66.797  1.00  0.00     0.000 HD 
BRANCH   4   6
HETATM    6  C   UNL     1      -9.715  17.376  68.604  1.00  0.00    -0.308 C  
BRANCH   6   7
HETATM    7  C   UNL     1      -9.881  15.845  68.615  1.00  0.00    -0.212 C  
HETATM    8  O   UNL     1      -9.293  15.308  69.811  1.00  0.00    -0.416 OA 
HETATM    9  H   UNL     1      -9.396  14.363  69.817  1.00  0.00     0.000 HD 
BRANCH   7  10
HETATM   10  C   UNL     1     -11.354  15.432  68.534  1.00  0.00    -0.335 C  
BRANCH  10  11
HETATM   11  O   UNL     1     -11.778  15.459  67.161  1.00  0.00    -0.157 OA 
BRANCH  11  12
HETATM   12  C   UNL     1     -11.480  14.330  66.446  1.00  0.00    -0.355 A  
HETATM   13  C   UNL     1     -11.814  13.032  66.833  1.00  0.00    -0.442 A  
HETATM   14  C   UNL     1     -11.455  11.946  66.032  1.00  0.00    -0.344 A  
HETATM   15  C   UNL     1     -10.766  12.138  64.827  1.00  0.00    -0.342 A  
HETATM   16  C   UNL     1     -10.463  13.443  64.426  1.00  0.00    -0.403 A  
HETATM   17  C   UNL     1     -10.828  14.533  65.229  1.00  0.00    -0.377 A  
BRANCH  15  18
HETATM   18  C   UNL     1     -10.351  10.948  64.001  1.00  0.00    -0.349 C  
BRANCH  18  19
HETATM   19  O   UNL     1     -10.027   9.877  64.882  1.00  0.00    -0.306 OA 
BRANCH  19  20
HETATM   20  C   UNL     1      -8.661   9.485  64.771  1.00  0.00    -0.176 C  
BRANCH  20  21
HETATM   21  C   UNL     1      -8.399   8.372  65.778  1.00  0.00    -0.146 C  
BRANCH  21  22
HETATM   22  O   UNL     1      -9.224   8.548  66.929  1.00  0.00    -0.144 OA 
BRANCH  22  23
HETATM   23  C   UNL     1     -10.048   7.412  67.219  1.00  0.00    -0.228 C  
HETATM   24  C   UNL     1      -9.548   6.154  66.514  1.00  0.00    -0.183 C  
HETATM   25  C   UNL     1     -10.015   7.208  68.731  1.00  0.00    -0.163 C  
ENDBRANCH  22  23
ENDBRANCH  21  22
ENDBRANCH  20  21
ENDBRANCH  19  20
ENDBRANCH  18  19
ENDBRANCH  15  18
ENDBRANCH  11  12
ENDBRANCH  10  11
ENDBRANCH   7  10
ENDBRANCH   6   7
ENDBRANCH   4   6
ENDBRANCH   2   4
TORSDOF 12
ENDMDL
MODEL      125
REMARK 921   NORMALIZED FREE ENERGY PREDICTED BY IDOCK:   -4.16 KCAL/MOL
REMARK 922        TOTAL FREE ENERGY PREDICTED BY IDOCK:   -8.09 KCAL/MOL
REMARK 923 INTER-LIGAND FREE ENERGY PREDICTED BY IDOCK:   -6.97 KCAL/MOL
REMARK 924 INTRA-LIGAND FREE ENERGY PREDICTED BY IDOCK:   -1.12 KCAL/MOL
REMARK 927      BINDING AFFINITY PREDICTED BY RF-SCORE:    0.00 PKD
ROOT
HETATM    1  C   UNL     1      -7.105   4.777  71.143  1.00  0.00    -0.051 C  
HETATM    2  C   UNL     1      -8.088   5.857  70.685  1.00  0.00    -0.118 C  
HETATM    3  C   UNL     1      -8.813   5.385  69.422  1.00  0.00    -0.117 C  
ENDROOT
BRANCH   2   4
HETATM    4  N   UNL     1      -9.023   6.126  71.779  1.00  0.00    -0.141 NA 
HETATM    5  H   UNL     1      -9.185   7.128  71.877  1.00  0.00     0.000 HD 
BRANCH   4   6
HETATM    6  C   UNL     1     -10.296   5.403  71.653  1.00  0.00    -0.218 C  
BRANCH   6   7
HETATM    7  C   UNL     1     -11.457   6.289  72.137  1.00  0.00    -0.307 C  
HETATM    8  O   UNL     1     -11.138   6.836  73.426  1.00  0.00    -0.491 OA 
HETATM    9  H   UNL     1     -11.855   7.383  73.725  1.00  0.00     0.000 HD 
BRANCH   7  10
HETATM   10  C   UNL     1     -11.753   7.426  71.154  1.00  0.00    -0.294 C  
BRANCH  10  11
HETATM   11  O   UNL     1     -10.882   8.534  71.434  1.00  0.00    -0.232 OA 
BRANCH  11  12
HETATM   12  C   UNL     1     -11.062   9.625  70.627  1.00  0.00    -0.319 A  
HETATM   13  C   UNL     1     -10.376   9.853  69.434  1.00  0.00    -0.238 A  
HETATM   14  C   UNL     1     -10.629  11.006  68.688  1.00  0.00    -0.225 A  
HETATM   15  C   UNL     1     -11.578  11.945  69.115  1.00  0.00    -0.373 A  
HETATM   16  C   UNL     1     -12.286  11.696  70.295  1.00  0.00    -0.401 A  
HETATM   17  C   UNL     1     -12.034  10.537  71.041  1.00  0.00    -0.466 A  
BRANCH  15  18
HETATM   18  C   UNL     1     -11.803  13.202  68.316  1.00  0.00    -0.349 C  
BRANCH  18  19
HETATM   19  O   UNL     1     -10.640  14.018  68.419  1.00  0.00    -0.240 OA 
BRANCH  19  20
HETATM   20  C   UNL     1     -10.238  14.543  67.156  1.00  0.00    -0.260 C  
BRANCH  20  21
HETATM   21  C   UNL     1     -11.167  13.978  66.087  1.00  0.00    -0.318 C  
BRANCH  21  22
HETATM   22  O   UNL     1     -10.536  14.035  64.809  1.00  0.00    -0.413 OA 
BRANCH  22  23
HETATM   23  C   UNL     1     -10.684  12.830  64.046  1.00  0.00    -0.426 C  
HETATM   24  C   UNL     1     -10.597  11.587  64.927  1.00  0.00    -0.360 C  
HETATM   25  C   UNL     1     -12.050  12.893  63.370  1.00  0.00    -0.610 C  
ENDBRANCH  22  23
ENDBRANCH  21  22
ENDBRANCH  20  21
ENDBRANCH  19  20
ENDBRANCH  18  19
ENDBRANCH  15  18
ENDBRANCH  11  12
ENDBRANCH  10  11
ENDBRANCH   7  10
ENDBRANCH   6   7
ENDBRANCH   4   6
ENDBRANCH   2   4
TORSDOF 12
ENDMDL
MODEL      126
REMARK 921   NORMALIZED FREE ENERGY PREDICTED BY IDOCK:   -4.12 KCAL/MOL
REMARK 922        TOTAL FREE ENERGY PREDICTED BY IDOCK:   -8.04 KCAL/MOL
REMARK 923 INTER-LIGAND FREE ENERGY PREDICTED BY IDOCK:   -7.11 KCAL/MOL
REMARK 924 INTRA-LIGAND FREE ENERGY PREDICTED BY IDOCK:   -0.93 KCAL/MOL
REMARK 927      BINDING AFFINITY PREDICTED BY RF-SCORE:    0.00 PKD
ROOT
HETATM    1  C   UNL     1      -9.482   2.831  71.965  1.00  0.00    -0.197 C  
HETATM    2  C   UNL     1      -8.957   4.064  71.227  1.00  0.00    -0.107 C  
HETATM    3  C   UNL     1      -9.429   4.027  69.771  1.00  0.00    -0.265 C  
ENDROOT
BRANCH   2   4
HETATM    4  N   UNL     1      -9.435   5.260  71.923  1.00  0.00    -0.145 NA 
HETATM    5  H   UNL     1      -8.652   5.844  72.218  1.00  0.00     0.000 HD 
BRANCH   4   6
HETATM    6  C   UNL     1     -10.403   6.043  71.143  1.00  0.00    -0.214 C  
BRANCH   6   7
HETATM    7  C   UNL     1     -11.782   6.013  71.828  1.00  0.00    -0.186 C  
HETATM    8  O   UNL     1     -11.612   5.790  73.237  1.00  0.00    -0.486 OA 
HETATM    9  H   UNL     1     -12.462   5.771  73.660  1.00  0.00     0.000 HD 
BRANCH   7  10
HETATM   10  C   UNL     1     -12.558   7.314  71.602  1.00  0.00    -0.368 C  
BRANCH  10  11
HETATM   11  O   UNL     1     -11.795   8.417  72.116  1.00  0.00    -0.325 OA 
BRANCH  11  12
HETATM   12  C   UNL     1     -11.814   9.542  71.336  1.00  0.00    -0.389 A  
HETATM   13  C   UNL     1     -12.546  10.694  71.621  1.00  0.00    -0.482 A  
HETATM   14  C   UNL     1     -12.503  11.787  70.752  1.00  0.00    -0.405 A  
HETATM   15  C   UNL     1     -11.719  11.751  69.590  1.00  0.00    -0.413 A  
HETATM   16  C   UNL     1     -10.961  10.607  69.326  1.00  0.00    -0.294 A  
HETATM   17  C   UNL     1     -11.002   9.512  70.201  1.00  0.00    -0.302 A  
BRANCH  15  18
HETATM   18  C   UNL     1     -11.722  12.925  68.647  1.00  0.00    -0.324 C  
BRANCH  18  19
HETATM   19  O   UNL     1     -12.091  12.463  67.351  1.00  0.00    -0.505 OA 
BRANCH  19  20
HETATM   20  C   UNL     1     -11.485  13.233  66.314  1.00  0.00    -0.325 C  
BRANCH  20  21
HETATM   21  C   UNL     1     -10.312  12.439  65.753  1.00  0.00    -0.263 C  
BRANCH  21  22
HETATM   22  O   UNL     1     -10.487  11.049  66.022  1.00  0.00    -0.253 OA 
BRANCH  22  23
HETATM   23  C   UNL     1      -9.422  10.232  65.518  1.00  0.00    -0.223 C  
HETATM   24  C   UNL     1      -9.450   8.830  66.119  1.00  0.00    -0.315 C  
HETATM   25  C   UNL     1      -9.595  10.153  64.005  1.00  0.00    -0.320 C  
ENDBRANCH  22  23
ENDBRANCH  21  22
ENDBRANCH  20  21
ENDBRANCH  19  20
ENDBRANCH  18  19
ENDBRANCH  15  18
ENDBRANCH  11  12
ENDBRANCH  10  11
ENDBRANCH   7  10
ENDBRANCH   6   7
ENDBRANCH   4   6
ENDBRANCH   2   4
TORSDOF 12
ENDMDL
MODEL      127
REMARK 921   NORMALIZED FREE ENERGY PREDICTED BY IDOCK:   -4.11 KCAL/MOL
REMARK 922        TOTAL FREE ENERGY PREDICTED BY IDOCK:   -8.01 KCAL/MOL
REMARK 923 INTER-LIGAND FREE ENERGY PREDICTED BY IDOCK:   -7.19 KCAL/MOL
REMARK 924 INTRA-LIGAND FREE ENERGY PREDICTED BY IDOCK:   -0.82 KCAL/MOL
REMARK 927      BINDING AFFINITY PREDICTED BY RF-SCORE:    0.00 PKD
ROOT
HETATM    1  C   UNL     1     -10.207   7.094  73.623  1.00  0.00    -0.402 C  
HETATM    2  C   UNL     1      -9.658   7.267  72.204  1.00  0.00    -0.138 C  
HETATM    3  C   UNL     1      -9.189   5.911  71.671  1.00  0.00    -0.156 C  
ENDROOT
BRANCH   2   4
HETATM    4  N   UNL     1     -10.711   7.845  71.368  1.00  0.00    -0.222 NA 
HETATM    5  H   UNL     1     -10.817   7.315  70.502  1.00  0.00     0.000 HD 
BRANCH   4   6
HETATM    6  C   UNL     1     -12.001   7.977  72.058  1.00  0.00    -0.327 C  
BRANCH   6   7
HETATM    7  C   UNL     1     -12.795   9.159  71.473  1.00  0.00    -0.347 C  
HETATM    8  O   UNL     1     -13.711   9.657  72.461  1.00  0.00    -0.673 OA 
HETATM    9  H   UNL     1     -14.201  10.387  72.101  1.00  0.00     0.000 HD 
BRANCH   7  10
HETATM   10  C   UNL     1     -11.871  10.291  71.010  1.00  0.00    -0.377 C  
BRANCH  10  11
HETATM   11  O   UNL     1     -11.384   9.994  69.691  1.00  0.00    -0.242 OA 
BRANCH  11  12
HETATM   12  C   UNL     1     -11.466  11.033  68.802  1.00  0.00    -0.305 A  
HETATM   13  C   UNL     1     -11.746  12.355  69.148  1.00  0.00    -0.376 A  
HETATM   14  C   UNL     1     -11.815  13.339  68.160  1.00  0.00    -0.388 A  
HETATM   15  C   UNL     1     -11.596  13.022  66.812  1.00  0.00    -0.420 A  
HETATM   16  C   UNL     1     -11.283  11.702  66.475  1.00  0.00    -0.356 A  
HETATM   17  C   UNL     1     -11.210  10.715  67.468  1.00  0.00    -0.326 A  
BRANCH  15  18
HETATM   18  C   UNL     1     -11.718  14.093  65.759  1.00  0.00    -0.359 C  
BRANCH  18  19
HETATM   19  O   UNL     1     -11.193  15.308  66.286  1.00  0.00    -0.316 OA 
BRANCH  19  20
HETATM   20  C   UNL     1     -10.023  15.733  65.590  1.00  0.00    -0.345 C  
BRANCH  20  21
HETATM   21  C   UNL     1      -9.283  16.735  66.469  1.00  0.00    -0.268 C  
BRANCH  21  22
HETATM   22  O   UNL     1      -7.903  16.386  66.555  1.00  0.00    -0.259 OA 
BRANCH  22  23
HETATM   23  C   UNL     1      -7.269  16.858  67.750  1.00  0.00    -0.145 C  
HETATM   24  C   UNL     1      -8.030  18.025  68.373  1.00  0.00    -0.306 C  
HETATM   25  C   UNL     1      -7.224  15.687  68.727  1.00  0.00    -0.133 C  
ENDBRANCH  22  23
ENDBRANCH  21  22
ENDBRANCH  20  21
ENDBRANCH  19  20
ENDBRANCH  18  19
ENDBRANCH  15  18
ENDBRANCH  11  12
ENDBRANCH  10  11
ENDBRANCH   7  10
ENDBRANCH   6   7
ENDBRANCH   4   6
ENDBRANCH   2   4
TORSDOF 12
ENDMDL
MODEL      128
REMARK 921   NORMALIZED FREE ENERGY PREDICTED BY IDOCK:   -4.11 KCAL/MOL
REMARK 922        TOTAL FREE ENERGY PREDICTED BY IDOCK:   -8.00 KCAL/MOL
REMARK 923 INTER-LIGAND FREE ENERGY PREDICTED BY IDOCK:   -6.32 KCAL/MOL
REMARK 924 INTRA-LIGAND FREE ENERGY PREDICTED BY IDOCK:   -1.69 KCAL/MOL
REMARK 927      BINDING AFFINITY PREDICTED BY RF-SCORE:    0.00 PKD
ROOT
HETATM    1  C   UNL     1      -9.622   9.025  65.496  1.00  0.00    -0.166 C  
HETATM    2  C   UNL     1      -9.463  10.121  64.439  1.00  0.00    -0.308 C  
HETATM    3  C   UNL     1     -10.633  11.102  64.540  1.00  0.00    -0.397 C  
ENDROOT
BRANCH   2   4
HETATM    4  N   UNL     1      -8.176  10.786  64.652  1.00  0.00    -0.364 NA 
HETATM    5  H   UNL     1      -8.247  11.479  65.396  1.00  0.00     0.000 HD 
BRANCH   4   6
HETATM    6  C   UNL     1      -7.071   9.853  64.912  1.00  0.00    -0.132 C  
BRANCH   6   7
HETATM    7  C   UNL     1      -6.047  10.500  65.863  1.00  0.00    -0.128 C  
HETATM    8  O   UNL     1      -5.250  11.448  65.135  1.00  0.00    -0.494 OA 
HETATM    9  H   UNL     1      -4.618  11.847  65.722  1.00  0.00     0.000 HD 
BRANCH   7  10
HETATM   10  C   UNL     1      -6.729  11.199  67.043  1.00  0.00    -0.115 C  
BRANCH  10  11
HETATM   11  O   UNL     1      -7.301  10.209  67.913  1.00  0.00    -0.086 OA 
BRANCH  11  12
HETATM   12  C   UNL     1      -8.522  10.541  68.438  1.00  0.00    -0.128 A  
HETATM   13  C   UNL     1      -9.279  11.646  68.049  1.00  0.00    -0.178 A  
HETATM   14  C   UNL     1     -10.512  11.901  68.655  1.00  0.00    -0.231 A  
HETATM   15  C   UNL     1     -11.013  11.051  69.650  1.00  0.00    -0.286 A  
HETATM   16  C   UNL     1     -10.265   9.926  70.013  1.00  0.00    -0.319 A  
HETATM   17  C   UNL     1      -9.030   9.669  69.401  1.00  0.00    -0.186 A  
BRANCH  15  18
HETATM   18  C   UNL     1     -12.324  11.369  70.319  1.00  0.00    -0.297 C  
BRANCH  18  19
HETATM   19  O   UNL     1     -13.005  10.147  70.585  1.00  0.00    -0.320 OA 
BRANCH  19  20
HETATM   20  C   UNL     1     -13.242   9.957  71.979  1.00  0.00    -0.456 C  
BRANCH  20  21
HETATM   21  C   UNL     1     -12.899   8.514  72.330  1.00  0.00    -0.355 C  
BRANCH  21  22
HETATM   22  O   UNL     1     -12.790   7.733  71.141  1.00  0.00    -0.262 OA 
BRANCH  22  23
HETATM   23  C   UNL     1     -11.902   6.615  71.272  1.00  0.00    -0.350 C  
HETATM   24  C   UNL     1     -11.247   6.253  69.943  1.00  0.00    -0.498 C  
HETATM   25  C   UNL     1     -10.834   7.008  72.288  1.00  0.00    -0.262 C  
ENDBRANCH  22  23
ENDBRANCH  21  22
ENDBRANCH  20  21
ENDBRANCH  19  20
ENDBRANCH  18  19
ENDBRANCH  15  18
ENDBRANCH  11  12
ENDBRANCH  10  11
ENDBRANCH   7  10
ENDBRANCH   6   7
ENDBRANCH   4   6
ENDBRANCH   2   4
TORSDOF 12
ENDMDL
MODEL      129
REMARK 921   NORMALIZED FREE ENERGY PREDICTED BY IDOCK:   -4.10 KCAL/MOL
REMARK 922        TOTAL FREE ENERGY PREDICTED BY IDOCK:   -8.00 KCAL/MOL
REMARK 923 INTER-LIGAND FREE ENERGY PREDICTED BY IDOCK:   -6.94 KCAL/MOL
REMARK 924 INTRA-LIGAND FREE ENERGY PREDICTED BY IDOCK:   -1.06 KCAL/MOL
REMARK 927      BINDING AFFINITY PREDICTED BY RF-SCORE:    0.00 PKD
ROOT
HETATM    1  C   UNL     1      -8.628   6.001  72.481  1.00  0.00    -0.119 C  
HETATM    2  C   UNL     1      -9.726   5.325  73.306  1.00  0.00    -0.142 C  
HETATM    3  C   UNL     1     -10.127   6.238  74.467  1.00  0.00    -0.353 C  
ENDROOT
BRANCH   2   4
HETATM    4  N   UNL     1     -10.859   5.040  72.423  1.00  0.00    -0.198 NA 
HETATM    5  H   UNL     1     -11.726   4.976  72.957  1.00  0.00     0.000 HD 
BRANCH   4   6
HETATM    6  C   UNL     1     -10.998   5.999  71.319  1.00  0.00    -0.278 C  
BRANCH   6   7
HETATM    7  C   UNL     1     -12.267   6.848  71.513  1.00  0.00    -0.371 C  
HETATM    8  O   UNL     1     -13.148   6.189  72.437  1.00  0.00    -0.473 OA 
HETATM    9  H   UNL     1     -13.931   6.713  72.557  1.00  0.00     0.000 HD 
BRANCH   7  10
HETATM   10  C   UNL     1     -11.939   8.253  72.028  1.00  0.00    -0.348 C  
BRANCH  10  11
HETATM   11  O   UNL     1     -10.665   8.663  71.505  1.00  0.00    -0.237 OA 
BRANCH  11  12
HETATM   12  C   UNL     1     -10.715   9.710  70.624  1.00  0.00    -0.322 A  
HETATM   13  C   UNL     1     -11.745  10.648  70.563  1.00  0.00    -0.451 A  
HETATM   14  C   UNL     1     -11.704  11.676  69.618  1.00  0.00    -0.418 A  
HETATM   15  C   UNL     1     -10.628  11.791  68.727  1.00  0.00    -0.234 A  
HETATM   16  C   UNL     1      -9.581  10.868  68.815  1.00  0.00    -0.195 A  
HETATM   17  C   UNL     1      -9.622   9.839  69.766  1.00  0.00    -0.256 A  
BRANCH  15  18
HETATM   18  C   UNL     1     -10.625  12.882  67.689  1.00  0.00    -0.223 C  
BRANCH  18  19
HETATM   19  O   UNL     1     -11.975  13.233  67.398  1.00  0.00    -0.363 OA 
BRANCH  19  20
HETATM   20  C   UNL     1     -12.061  14.286  66.441  1.00  0.00    -0.419 C  
BRANCH  20  21
HETATM   21  C   UNL     1     -10.872  15.218  66.647  1.00  0.00    -0.310 C  
BRANCH  21  22
HETATM   22  O   UNL     1     -11.281  16.384  67.361  1.00  0.00    -0.135 OA 
BRANCH  22  23
HETATM   23  C   UNL     1     -10.387  16.745  68.422  1.00  0.00    -0.319 C  
HETATM   24  C   UNL     1     -10.130  18.249  68.458  1.00  0.00    -0.419 C  
HETATM   25  C   UNL     1     -11.035  16.297  69.728  1.00  0.00    -0.354 C  
ENDBRANCH  22  23
ENDBRANCH  21  22
ENDBRANCH  20  21
ENDBRANCH  19  20
ENDBRANCH  18  19
ENDBRANCH  15  18
ENDBRANCH  11  12
ENDBRANCH  10  11
ENDBRANCH   7  10
ENDBRANCH   6   7
ENDBRANCH   4   6
ENDBRANCH   2   4
TORSDOF 12
ENDMDL
MODEL      130
REMARK 921   NORMALIZED FREE ENERGY PREDICTED BY IDOCK:   -4.10 KCAL/MOL
REMARK 922        TOTAL FREE ENERGY PREDICTED BY IDOCK:   -8.00 KCAL/MOL
REMARK 923 INTER-LIGAND FREE ENERGY PREDICTED BY IDOCK:   -7.34 KCAL/MOL
REMARK 924 INTRA-LIGAND FREE ENERGY PREDICTED BY IDOCK:   -0.66 KCAL/MOL
REMARK 927      BINDING AFFINITY PREDICTED BY RF-SCORE:    0.00 PKD
ROOT
HETATM    1  C   UNL     1      -6.704  20.291  68.009  1.00  0.00    -0.330 C  
HETATM    2  C   UNL     1      -7.389  19.005  67.541  1.00  0.00    -0.226 C  
HETATM    3  C   UNL     1      -6.331  17.929  67.282  1.00  0.00    -0.182 C  
ENDROOT
BRANCH   2   4
HETATM    4  N   UNL     1      -8.346  18.589  68.567  1.00  0.00    -0.332 NA 
HETATM    5  H   UNL     1      -8.534  19.353  69.217  1.00  0.00     0.000 HD 
BRANCH   4   6
HETATM    6  C   UNL     1      -9.599  18.054  68.017  1.00  0.00    -0.295 C  
BRANCH   6   7
HETATM    7  C   UNL     1      -9.802  16.601  68.483  1.00  0.00    -0.252 C  
HETATM    8  O   UNL     1      -8.644  16.165  69.212  1.00  0.00    -0.250 OA 
HETATM    9  H   UNL     1      -8.769  15.268  69.500  1.00  0.00     0.000 HD 
BRANCH   7  10
HETATM   10  C   UNL     1     -11.049  16.453  69.360  1.00  0.00    -0.300 C  
BRANCH  10  11
HETATM   11  O   UNL     1     -11.995  15.598  68.698  1.00  0.00    -0.336 OA 
BRANCH  11  12
HETATM   12  C   UNL     1     -12.014  14.305  69.149  1.00  0.00    -0.335 A  
HETATM   13  C   UNL     1     -11.614  13.198  68.401  1.00  0.00    -0.372 A  
HETATM   14  C   UNL     1     -11.680  11.917  68.953  1.00  0.00    -0.381 A  
HETATM   15  C   UNL     1     -12.138  11.721  70.264  1.00  0.00    -0.426 A  
HETATM   16  C   UNL     1     -12.507  12.838  71.020  1.00  0.00    -0.369 A  
HETATM   17  C   UNL     1     -12.436  14.124  70.466  1.00  0.00    -0.431 A  
BRANCH  15  18
HETATM   18  C   UNL     1     -12.242  10.326  70.823  1.00  0.00    -0.350 C  
BRANCH  18  19
HETATM   19  O   UNL     1     -13.342  10.281  71.726  1.00  0.00    -0.401 OA 
BRANCH  19  20
HETATM   20  C   UNL     1     -13.732   8.944  72.030  1.00  0.00    -0.459 C  
BRANCH  20  21
HETATM   21  C   UNL     1     -12.536   8.226  72.644  1.00  0.00    -0.160 C  
BRANCH  21  22
HETATM   22  O   UNL     1     -12.184   7.094  71.850  1.00  0.00    -0.310 OA 
BRANCH  22  23
HETATM   23  C   UNL     1     -10.784   6.789  71.881  1.00  0.00    -0.223 C  
HETATM   24  C   UNL     1     -10.043   7.631  72.916  1.00  0.00    -0.343 C  
HETATM   25  C   UNL     1     -10.654   5.309  72.226  1.00  0.00    -0.280 C  
ENDBRANCH  22  23
ENDBRANCH  21  22
ENDBRANCH  20  21
ENDBRANCH  19  20
ENDBRANCH  18  19
ENDBRANCH  15  18
ENDBRANCH  11  12
ENDBRANCH  10  11
ENDBRANCH   7  10
ENDBRANCH   6   7
ENDBRANCH   4   6
ENDBRANCH   2   4
TORSDOF 12
ENDMDL
MODEL      131
REMARK 921   NORMALIZED FREE ENERGY PREDICTED BY IDOCK:   -4.09 KCAL/MOL
REMARK 922        TOTAL FREE ENERGY PREDICTED BY IDOCK:   -7.98 KCAL/MOL
REMARK 923 INTER-LIGAND FREE ENERGY PREDICTED BY IDOCK:   -7.37 KCAL/MOL
REMARK 924 INTRA-LIGAND FREE ENERGY PREDICTED BY IDOCK:   -0.62 KCAL/MOL
REMARK 927      BINDING AFFINITY PREDICTED BY RF-SCORE:    0.00 PKD
ROOT
HETATM    1  C   UNL     1      -7.948   9.534  66.891  1.00  0.00    -0.109 C  
HETATM    2  C   UNL     1      -7.521  10.578  65.856  1.00  0.00    -0.147 C  
HETATM    3  C   UNL     1      -6.050  10.362  65.491  1.00  0.00    -0.123 C  
ENDROOT
BRANCH   2   4
HETATM    4  N   UNL     1      -8.395  10.456  64.688  1.00  0.00    -0.197 NA 
HETATM    5  H   UNL     1      -8.301   9.534  64.261  1.00  0.00     0.000 HD 
BRANCH   4   6
HETATM    6  C   UNL     1      -9.804  10.755  64.977  1.00  0.00    -0.288 C  
BRANCH   6   7
HETATM    7  C   UNL     1     -10.417  11.573  63.825  1.00  0.00    -0.405 C  
HETATM    8  O   UNL     1     -10.391  10.795  62.618  1.00  0.00    -0.761 OA 
HETATM    9  H   UNL     1     -10.769  11.300  61.908  1.00  0.00     0.000 HD 
BRANCH   7  10
HETATM   10  C   UNL     1     -11.856  11.998  64.133  1.00  0.00    -0.373 C  
BRANCH  10  11
HETATM   11  O   UNL     1     -12.002  13.403  63.869  1.00  0.00    -0.444 OA 
BRANCH  11  12
HETATM   12  C   UNL     1     -11.605  14.224  64.890  1.00  0.00    -0.384 A  
HETATM   13  C   UNL     1     -10.807  15.358  64.734  1.00  0.00    -0.385 A  
HETATM   14  C   UNL     1     -10.451  16.124  65.846  1.00  0.00    -0.366 A  
HETATM   15  C   UNL     1     -10.895  15.778  67.130  1.00  0.00    -0.289 A  
HETATM   16  C   UNL     1     -11.722  14.660  67.277  1.00  0.00    -0.406 A  
HETATM   17  C   UNL     1     -12.082  13.894  66.159  1.00  0.00    -0.478 A  
BRANCH  15  18
HETATM   18  C   UNL     1     -10.463  16.595  68.320  1.00  0.00    -0.321 C  
BRANCH  18  19
HETATM   19  O   UNL     1      -9.054  16.789  68.248  1.00  0.00    -0.215 OA 
BRANCH  19  20
HETATM   20  C   UNL     1      -8.679  18.127  68.567  1.00  0.00    -0.296 C  
BRANCH  20  21
HETATM   21  C   UNL     1      -7.210  18.311  68.205  1.00  0.00    -0.259 C  
BRANCH  21  22
HETATM   22  O   UNL     1      -6.391  18.083  69.351  1.00  0.00    -0.244 OA 
BRANCH  22  23
HETATM   23  C   UNL     1      -5.447  19.134  69.595  1.00  0.00    -0.204 C  
HETATM   24  C   UNL     1      -5.946  20.477  69.070  1.00  0.00    -0.383 C  
HETATM   25  C   UNL     1      -5.241  19.210  71.104  1.00  0.00    -0.288 C  
ENDBRANCH  22  23
ENDBRANCH  21  22
ENDBRANCH  20  21
ENDBRANCH  19  20
ENDBRANCH  18  19
ENDBRANCH  15  18
ENDBRANCH  11  12
ENDBRANCH  10  11
ENDBRANCH   7  10
ENDBRANCH   6   7
ENDBRANCH   4   6
ENDBRANCH   2   4
TORSDOF 12
ENDMDL
MODEL      132
REMARK 921   NORMALIZED FREE ENERGY PREDICTED BY IDOCK:   -4.09 KCAL/MOL
REMARK 922        TOTAL FREE ENERGY PREDICTED BY IDOCK:   -7.98 KCAL/MOL
REMARK 923 INTER-LIGAND FREE ENERGY PREDICTED BY IDOCK:   -7.35 KCAL/MOL
REMARK 924 INTRA-LIGAND FREE ENERGY PREDICTED BY IDOCK:   -0.63 KCAL/MOL
REMARK 927      BINDING AFFINITY PREDICTED BY RF-SCORE:    0.00 PKD
ROOT
HETATM    1  C   UNL     1     -10.295   9.083  68.490  1.00  0.00    -0.233 C  
HETATM    2  C   UNL     1     -10.420   8.585  69.932  1.00  0.00    -0.219 C  
HETATM    3  C   UNL     1      -9.210   9.058  70.741  1.00  0.00    -0.299 C  
ENDROOT
BRANCH   2   4
HETATM    4  N   UNL     1     -11.676   9.089  70.489  1.00  0.00    -0.435 NA 
HETATM    5  H   UNL     1     -12.007   8.483  71.240  1.00  0.00     0.000 HD 
BRANCH   4   6
HETATM    6  C   UNL     1     -11.598  10.485  70.941  1.00  0.00    -0.292 C  
BRANCH   6   7
HETATM    7  C   UNL     1     -12.958  10.934  71.504  1.00  0.00    -0.451 C  
HETATM    8  O   UNL     1     -13.459   9.933  72.404  1.00  0.00    -0.609 OA 
HETATM    9  H   UNL     1     -14.299  10.211  72.752  1.00  0.00     0.000 HD 
BRANCH   7  10
HETATM   10  C   UNL     1     -12.856  12.278  72.233  1.00  0.00     0.133 C  
BRANCH  10  11
HETATM   11  O   UNL     1     -13.526  13.288  71.462  1.00  0.00    -0.300 OA 
BRANCH  11  12
HETATM   12  C   UNL     1     -12.697  14.103  70.739  1.00  0.00    -0.344 A  
HETATM   13  C   UNL     1     -12.288  13.860  69.428  1.00  0.00    -0.240 A  
HETATM   14  C   UNL     1     -11.431  14.754  68.782  1.00  0.00    -0.324 A  
HETATM   15  C   UNL     1     -10.976  15.910  69.431  1.00  0.00    -0.309 A  
HETATM   16  C   UNL     1     -11.415  16.166  70.733  1.00  0.00    -0.408 A  
HETATM   17  C   UNL     1     -12.279  15.271  71.379  1.00  0.00    -0.414 A  
BRANCH  15  18
HETATM   18  C   UNL     1     -10.018  16.837  68.729  1.00  0.00    -0.269 C  
BRANCH  18  19
HETATM   19  O   UNL     1     -10.712  17.484  67.666  1.00  0.00    -0.362 OA 
BRANCH  19  20
HETATM   20  C   UNL     1     -10.733  18.902  67.825  1.00  0.00    -0.352 C  
BRANCH  20  21
HETATM   21  C   UNL     1      -9.304  19.417  67.702  1.00  0.00    -0.309 C  
BRANCH  21  22
HETATM   22  O   UNL     1      -8.879  19.365  66.342  1.00  0.00    -0.335 OA 
BRANCH  22  23
HETATM   23  C   UNL     1      -7.608  19.990  66.117  1.00  0.00    -0.306 C  
HETATM   24  C   UNL     1      -7.240  20.947  67.247  1.00  0.00    -0.408 C  
HETATM   25  C   UNL     1      -6.571  18.875  66.022  1.00  0.00    -0.264 C  
ENDBRANCH  22  23
ENDBRANCH  21  22
ENDBRANCH  20  21
ENDBRANCH  19  20
ENDBRANCH  18  19
ENDBRANCH  15  18
ENDBRANCH  11  12
ENDBRANCH  10  11
ENDBRANCH   7  10
ENDBRANCH   6   7
ENDBRANCH   4   6
ENDBRANCH   2   4
TORSDOF 12
ENDMDL
MODEL      133
REMARK 921   NORMALIZED FREE ENERGY PREDICTED BY IDOCK:   -4.09 KCAL/MOL
REMARK 922        TOTAL FREE ENERGY PREDICTED BY IDOCK:   -7.97 KCAL/MOL
REMARK 923 INTER-LIGAND FREE ENERGY PREDICTED BY IDOCK:   -6.64 KCAL/MOL
REMARK 924 INTRA-LIGAND FREE ENERGY PREDICTED BY IDOCK:   -1.33 KCAL/MOL
REMARK 927      BINDING AFFINITY PREDICTED BY RF-SCORE:    0.00 PKD
ROOT
HETATM    1  C   UNL     1      -8.517   9.892  65.412  1.00  0.00    -0.155 C  
HETATM    2  C   UNL     1      -8.649   8.376  65.253  1.00  0.00    -0.150 C  
HETATM    3  C   UNL     1      -7.625   7.879  64.229  1.00  0.00    -0.118 C  
ENDROOT
BRANCH   2   4
HETATM    4  N   UNL     1      -8.452   7.753  66.563  1.00  0.00    -0.126 NA 
HETATM    5  H   UNL     1      -8.766   8.375  67.309  1.00  0.00     0.000 HD 
BRANCH   4   6
HETATM    6  C   UNL     1      -9.086   6.433  66.685  1.00  0.00    -0.146 C  
BRANCH   6   7
HETATM    7  C   UNL     1     -10.604   6.592  66.884  1.00  0.00    -0.306 C  
HETATM    8  O   UNL     1     -11.294   5.575  66.142  1.00  0.00    -0.751 OA 
HETATM    9  H   UNL     1     -12.231   5.673  66.264  1.00  0.00     0.000 HD 
BRANCH   7  10
HETATM   10  C   UNL     1     -10.996   6.507  68.363  1.00  0.00    -0.281 C  
BRANCH  10  11
HETATM   11  O   UNL     1     -10.148   7.377  69.129  1.00  0.00    -0.179 OA 
BRANCH  11  12
HETATM   12  C   UNL     1     -10.708   8.584  69.455  1.00  0.00    -0.156 A  
HETATM   13  C   UNL     1     -10.853   9.656  68.574  1.00  0.00    -0.202 A  
HETATM   14  C   UNL     1     -11.431  10.850  69.011  1.00  0.00    -0.371 A  
HETATM   15  C   UNL     1     -11.883  10.989  70.330  1.00  0.00    -0.460 A  
HETATM   16  C   UNL     1     -11.766   9.901  71.200  1.00  0.00    -0.478 A  
HETATM   17  C   UNL     1     -11.189   8.701  70.759  1.00  0.00    -0.298 A  
BRANCH  15  18
HETATM   18  C   UNL     1     -12.465  12.301  70.790  1.00  0.00    -0.265 C  
BRANCH  18  19
HETATM   19  O   UNL     1     -11.661  13.358  70.274  1.00  0.00    -0.263 OA 
BRANCH  19  20
HETATM   20  C   UNL     1     -12.410  14.555  70.080  1.00  0.00    -0.323 C  
BRANCH  20  21
HETATM   21  C   UNL     1     -11.762  15.346  68.949  1.00  0.00    -0.359 C  
BRANCH  21  22
HETATM   22  O   UNL     1     -12.023  14.715  67.697  1.00  0.00    -0.362 OA 
BRANCH  22  23
HETATM   23  C   UNL     1     -10.901  14.732  66.805  1.00  0.00    -0.316 C  
HETATM   24  C   UNL     1      -9.798  13.783  67.265  1.00  0.00    -0.241 C  
HETATM   25  C   UNL     1     -11.412  14.308  65.432  1.00  0.00    -0.332 C  
ENDBRANCH  22  23
ENDBRANCH  21  22
ENDBRANCH  20  21
ENDBRANCH  19  20
ENDBRANCH  18  19
ENDBRANCH  15  18
ENDBRANCH  11  12
ENDBRANCH  10  11
ENDBRANCH   7  10
ENDBRANCH   6   7
ENDBRANCH   4   6
ENDBRANCH   2   4
TORSDOF 12
ENDMDL
MODEL      134
REMARK 921   NORMALIZED FREE ENERGY PREDICTED BY IDOCK:   -4.08 KCAL/MOL
REMARK 922        TOTAL FREE ENERGY PREDICTED BY IDOCK:   -7.96 KCAL/MOL
REMARK 923 INTER-LIGAND FREE ENERGY PREDICTED BY IDOCK:   -6.24 KCAL/MOL
REMARK 924 INTRA-LIGAND FREE ENERGY PREDICTED BY IDOCK:   -1.72 KCAL/MOL
REMARK 927      BINDING AFFINITY PREDICTED BY RF-SCORE:    0.00 PKD
ROOT
HETATM    1  C   UNL     1      -9.525   9.782  64.927  1.00  0.00    -0.331 C  
HETATM    2  C   UNL     1      -8.958  10.593  63.759  1.00  0.00    -0.197 C  
HETATM    3  C   UNL     1      -8.959   9.733  62.493  1.00  0.00    -0.280 C  
ENDROOT
BRANCH   2   4
HETATM    4  N   UNL     1      -9.770  11.800  63.596  1.00  0.00    -0.502 NA 
HETATM    5  H   UNL     1      -9.412  12.376  62.834  1.00  0.00     0.000 HD 
BRANCH   4   6
HETATM    6  C   UNL     1     -11.201  11.522  63.409  1.00  0.00    -0.249 C  
BRANCH   6   7
HETATM    7  C   UNL     1     -12.024  12.800  63.655  1.00  0.00    -0.539 C  
HETATM    8  O   UNL     1     -13.254  12.458  64.314  1.00  0.00    -0.769 OA 
HETATM    9  H   UNL     1     -13.762  13.247  64.466  1.00  0.00     0.000 HD 
BRANCH   7  10
HETATM   10  C   UNL     1     -11.253  13.819  64.500  1.00  0.00    -0.373 C  
BRANCH  10  11
HETATM   11  O   UNL     1     -11.659  13.700  65.873  1.00  0.00    -0.312 OA 
BRANCH  11  12
HETATM   12  C   UNL     1     -10.789  13.006  66.672  1.00  0.00    -0.275 A  
HETATM   13  C   UNL     1      -9.429  13.289  66.798  1.00  0.00    -0.257 A  
HETATM   14  C   UNL     1      -8.625  12.513  67.635  1.00  0.00    -0.178 A  
HETATM   15  C   UNL     1      -9.168  11.448  68.369  1.00  0.00    -0.183 A  
HETATM   16  C   UNL     1     -10.538  11.190  68.265  1.00  0.00    -0.221 A  
HETATM   17  C   UNL     1     -11.344  11.973  67.426  1.00  0.00    -0.393 A  
BRANCH  15  18
HETATM   18  C   UNL     1      -8.273  10.598  69.233  1.00  0.00    -0.115 C  
BRANCH  18  19
HETATM   19  O   UNL     1      -7.109  10.260  68.484  1.00  0.00    -0.071 OA 
BRANCH  19  20
HETATM   20  C   UNL     1      -7.250   9.013  67.808  1.00  0.00    -0.083 C  
BRANCH  20  21
HETATM   21  C   UNL     1      -7.785   7.988  68.802  1.00  0.00    -0.108 C  
BRANCH  21  22
HETATM   22  O   UNL     1      -8.254   6.833  68.109  1.00  0.00    -0.113 OA 
BRANCH  22  23
HETATM   23  C   UNL     1      -9.624   6.518  68.390  1.00  0.00    -0.122 C  
HETATM   24  C   UNL     1     -10.061   7.053  69.751  1.00  0.00    -0.197 C  
HETATM   25  C   UNL     1     -10.465   7.154  67.287  1.00  0.00    -0.372 C  
ENDBRANCH  22  23
ENDBRANCH  21  22
ENDBRANCH  20  21
ENDBRANCH  19  20
ENDBRANCH  18  19
ENDBRANCH  15  18
ENDBRANCH  11  12
ENDBRANCH  10  11
ENDBRANCH   7  10
ENDBRANCH   6   7
ENDBRANCH   4   6
ENDBRANCH   2   4
TORSDOF 12
ENDMDL
MODEL      135
REMARK 921   NORMALIZED FREE ENERGY PREDICTED BY IDOCK:   -4.07 KCAL/MOL
REMARK 922        TOTAL FREE ENERGY PREDICTED BY IDOCK:   -7.95 KCAL/MOL
REMARK 923 INTER-LIGAND FREE ENERGY PREDICTED BY IDOCK:   -6.35 KCAL/MOL
REMARK 924 INTRA-LIGAND FREE ENERGY PREDICTED BY IDOCK:   -1.61 KCAL/MOL
REMARK 927      BINDING AFFINITY PREDICTED BY RF-SCORE:    0.00 PKD
ROOT
HETATM    1  C   UNL     1      -7.008   8.440  64.378  1.00  0.00    -0.073 C  
HETATM    2  C   UNL     1      -7.998   7.371  64.846  1.00  0.00    -0.128 C  
HETATM    3  C   UNL     1      -7.808   6.100  64.014  1.00  0.00    -0.117 C  
ENDROOT
BRANCH   2   4
HETATM    4  N   UNL     1      -7.773   7.124  66.272  1.00  0.00    -0.098 NA 
HETATM    5  H   UNL     1      -7.495   7.983  66.747  1.00  0.00     0.000 HD 
BRANCH   4   6
HETATM    6  C   UNL     1      -8.922   6.505  66.947  1.00  0.00    -0.126 C  
BRANCH   6   7
HETATM    7  C   UNL     1     -10.216   7.257  66.586  1.00  0.00    -0.162 C  
HETATM    8  O   UNL     1     -11.336   6.366  66.704  1.00  0.00    -0.726 OA 
HETATM    9  H   UNL     1     -12.135   6.830  66.481  1.00  0.00     0.000 HD 
BRANCH   7  10
HETATM   10  C   UNL     1     -10.432   8.480  67.483  1.00  0.00    -0.258 C  
BRANCH  10  11
HETATM   11  O   UNL     1      -9.549   9.534  67.067  1.00  0.00    -0.151 OA 
BRANCH  11  12
HETATM   12  C   UNL     1     -10.145  10.531  66.342  1.00  0.00    -0.228 A  
HETATM   13  C   UNL     1      -9.861  10.823  65.009  1.00  0.00    -0.346 A  
HETATM   14  C   UNL     1     -10.521  11.870  64.362  1.00  0.00    -0.356 A  
HETATM   15  C   UNL     1     -11.484  12.635  65.034  1.00  0.00    -0.366 A  
HETATM   16  C   UNL     1     -11.790  12.318  66.360  1.00  0.00    -0.382 A  
HETATM   17  C   UNL     1     -11.129  11.264  67.007  1.00  0.00    -0.356 A  
BRANCH  15  18
HETATM   18  C   UNL     1     -12.153  13.787  64.329  1.00  0.00    -0.440 C  
BRANCH  18  19
HETATM   19  O   UNL     1     -12.140  14.917  65.196  1.00  0.00    -0.279 OA 
BRANCH  19  20
HETATM   20  C   UNL     1     -11.145  15.868  64.823  1.00  0.00    -0.384 C  
BRANCH  20  21
HETATM   21  C   UNL     1     -10.314  16.199  66.057  1.00  0.00    -0.358 C  
BRANCH  21  22
HETATM   22  O   UNL     1     -11.035  15.856  67.240  1.00  0.00    -0.310 OA 
BRANCH  22  23
HETATM   23  C   UNL     1     -10.289  15.026  68.140  1.00  0.00    -0.239 C  
HETATM   24  C   UNL     1      -8.917  14.669  67.578  1.00  0.00    -0.193 C  
HETATM   25  C   UNL     1     -10.131  15.806  69.442  1.00  0.00    -0.268 C  
ENDBRANCH  22  23
ENDBRANCH  21  22
ENDBRANCH  20  21
ENDBRANCH  19  20
ENDBRANCH  18  19
ENDBRANCH  15  18
ENDBRANCH  11  12
ENDBRANCH  10  11
ENDBRANCH   7  10
ENDBRANCH   6   7
ENDBRANCH   4   6
ENDBRANCH   2   4
TORSDOF 12
ENDMDL
MODEL      136
REMARK 921   NORMALIZED FREE ENERGY PREDICTED BY IDOCK:   -4.07 KCAL/MOL
REMARK 922        TOTAL FREE ENERGY PREDICTED BY IDOCK:   -7.95 KCAL/MOL
REMARK 923 INTER-LIGAND FREE ENERGY PREDICTED BY IDOCK:   -6.96 KCAL/MOL
REMARK 924 INTRA-LIGAND FREE ENERGY PREDICTED BY IDOCK:   -0.99 KCAL/MOL
REMARK 927      BINDING AFFINITY PREDICTED BY RF-SCORE:    0.00 PKD
ROOT
HETATM    1  C   UNL     1     -10.775   5.757  67.398  1.00  0.00    -0.332 C  
HETATM    2  C   UNL     1     -10.868   6.788  68.526  1.00  0.00    -0.222 C  
HETATM    3  C   UNL     1     -10.016   6.326  69.710  1.00  0.00    -0.204 C  
ENDROOT
BRANCH   2   4
HETATM    4  N   UNL     1     -10.422   8.082  68.008  1.00  0.00    -0.325 NA 
HETATM    5  H   UNL     1     -10.309   8.755  68.767  1.00  0.00     0.000 HD 
BRANCH   4   6
HETATM    6  C   UNL     1      -9.199   7.999  67.198  1.00  0.00    -0.142 C  
BRANCH   6   7
HETATM    7  C   UNL     1      -9.121   9.197  66.235  1.00  0.00    -0.178 C  
HETATM    8  O   UNL     1      -8.867   8.725  64.902  1.00  0.00    -0.331 OA 
HETATM    9  H   UNL     1      -8.819   9.464  64.307  1.00  0.00     0.000 HD 
BRANCH   7  10
HETATM   10  C   UNL     1     -10.410  10.025  66.251  1.00  0.00    -0.165 C  
BRANCH  10  11
HETATM   11  O   UNL     1     -10.632  10.582  64.945  1.00  0.00    -0.247 OA 
BRANCH  11  12
HETATM   12  C   UNL     1     -10.770  11.944  64.917  1.00  0.00    -0.301 A  
HETATM   13  C   UNL     1      -9.961  12.839  65.617  1.00  0.00    -0.249 A  
HETATM   14  C   UNL     1     -10.192  14.213  65.526  1.00  0.00    -0.371 A  
HETATM   15  C   UNL     1     -11.227  14.717  64.726  1.00  0.00    -0.395 A  
HETATM   16  C   UNL     1     -12.013  13.818  64.000  1.00  0.00    -0.451 A  
HETATM   17  C   UNL     1     -11.778  12.438  64.089  1.00  0.00    -0.476 A  
BRANCH  15  18
HETATM   18  C   UNL     1     -11.484  16.200  64.677  1.00  0.00    -0.224 C  
BRANCH  18  19
HETATM   19  O   UNL     1     -10.294  16.879  65.067  1.00  0.00    -0.596 OA 
BRANCH  19  20
HETATM   20  C   UNL     1     -10.536  17.838  66.095  1.00  0.00    -0.301 C  
BRANCH  20  21
HETATM   21  C   UNL     1      -9.843  17.360  67.366  1.00  0.00    -0.281 C  
BRANCH  21  22
HETATM   22  O   UNL     1     -10.811  17.086  68.377  1.00  0.00    -0.367 OA 
BRANCH  22  23
HETATM   23  C   UNL     1     -10.364  16.131  69.349  1.00  0.00    -0.277 C  
HETATM   24  C   UNL     1     -11.143  14.822  69.257  1.00  0.00    -0.283 C  
HETATM   25  C   UNL     1      -8.885  15.874  69.078  1.00  0.00    -0.243 C  
ENDBRANCH  22  23
ENDBRANCH  21  22
ENDBRANCH  20  21
ENDBRANCH  19  20
ENDBRANCH  18  19
ENDBRANCH  15  18
ENDBRANCH  11  12
ENDBRANCH  10  11
ENDBRANCH   7  10
ENDBRANCH   6   7
ENDBRANCH   4   6
ENDBRANCH   2   4
TORSDOF 12
ENDMDL
MODEL      137
REMARK 921   NORMALIZED FREE ENERGY PREDICTED BY IDOCK:   -4.06 KCAL/MOL
REMARK 922        TOTAL FREE ENERGY PREDICTED BY IDOCK:   -7.93 KCAL/MOL
REMARK 923 INTER-LIGAND FREE ENERGY PREDICTED BY IDOCK:   -7.08 KCAL/MOL
REMARK 924 INTRA-LIGAND FREE ENERGY PREDICTED BY IDOCK:   -0.84 KCAL/MOL
REMARK 927      BINDING AFFINITY PREDICTED BY RF-SCORE:    0.00 PKD
ROOT
HETATM    1  C   UNL     1      -7.332   5.311  71.009  1.00  0.00    -0.078 C  
HETATM    2  C   UNL     1      -7.750   6.419  70.039  1.00  0.00    -0.102 C  
HETATM    3  C   UNL     1      -7.042   6.216  68.697  1.00  0.00    -0.082 C  
ENDROOT
BRANCH   2   4
HETATM    4  N   UNL     1      -9.207   6.383  69.895  1.00  0.00    -0.151 NA 
HETATM    5  H   UNL     1      -9.606   7.312  70.033  1.00  0.00     0.000 HD 
BRANCH   4   6
HETATM    6  C   UNL     1      -9.655   5.807  68.620  1.00  0.00    -0.127 C  
BRANCH   6   7
HETATM    7  C   UNL     1     -10.937   6.514  68.143  1.00  0.00    -0.281 C  
HETATM    8  O   UNL     1     -11.645   7.039  69.278  1.00  0.00    -0.534 OA 
HETATM    9  H   UNL     1     -12.436   7.475  68.984  1.00  0.00     0.000 HD 
BRANCH   7  10
HETATM   10  C   UNL     1     -10.630   7.646  67.158  1.00  0.00    -0.340 C  
BRANCH  10  11
HETATM   11  O   UNL     1     -10.137   8.784  67.883  1.00  0.00    -0.185 OA 
BRANCH  11  12
HETATM   12  C   UNL     1     -10.552   9.997  67.401  1.00  0.00    -0.271 A  
HETATM   13  C   UNL     1     -10.294  10.471  66.115  1.00  0.00    -0.276 A  
HETATM   14  C   UNL     1     -10.757  11.730  65.725  1.00  0.00    -0.328 A  
HETATM   15  C   UNL     1     -11.494  12.530  66.609  1.00  0.00    -0.417 A  
HETATM   16  C   UNL     1     -11.779  12.036  67.885  1.00  0.00    -0.393 A  
HETATM   17  C   UNL     1     -11.317  10.771  68.275  1.00  0.00    -0.376 A  
BRANCH  15  18
HETATM   18  C   UNL     1     -11.947  13.902  66.181  1.00  0.00    -0.423 C  
BRANCH  18  19
HETATM   19  O   UNL     1     -11.092  14.354  65.135  1.00  0.00    -0.325 OA 
BRANCH  19  20
HETATM   20  C   UNL     1     -10.994  15.776  65.099  1.00  0.00    -0.382 C  
BRANCH  20  21
HETATM   21  C   UNL     1      -9.863  16.201  66.029  1.00  0.00    -0.347 C  
BRANCH  21  22
HETATM   22  O   UNL     1     -10.379  16.989  67.100  1.00  0.00    -0.301 OA 
BRANCH  22  23
HETATM   23  C   UNL     1      -9.831  18.313  67.149  1.00  0.00    -0.324 C  
HETATM   24  C   UNL     1     -10.444  19.220  66.087  1.00  0.00    -0.577 C  
HETATM   25  C   UNL     1     -10.124  18.869  68.539  1.00  0.00    -0.460 C  
ENDBRANCH  22  23
ENDBRANCH  21  22
ENDBRANCH  20  21
ENDBRANCH  19  20
ENDBRANCH  18  19
ENDBRANCH  15  18
ENDBRANCH  11  12
ENDBRANCH  10  11
ENDBRANCH   7  10
ENDBRANCH   6   7
ENDBRANCH   4   6
ENDBRANCH   2   4
TORSDOF 12
ENDMDL
MODEL      138
REMARK 921   NORMALIZED FREE ENERGY PREDICTED BY IDOCK:   -4.05 KCAL/MOL
REMARK 922        TOTAL FREE ENERGY PREDICTED BY IDOCK:   -7.90 KCAL/MOL
REMARK 923 INTER-LIGAND FREE ENERGY PREDICTED BY IDOCK:   -6.73 KCAL/MOL
REMARK 924 INTRA-LIGAND FREE ENERGY PREDICTED BY IDOCK:   -1.17 KCAL/MOL
REMARK 927      BINDING AFFINITY PREDICTED BY RF-SCORE:    0.00 PKD
ROOT
HETATM    1  C   UNL     1      -9.211   7.153  66.580  1.00  0.00    -0.193 C  
HETATM    2  C   UNL     1      -9.855   8.125  67.572  1.00  0.00    -0.177 C  
HETATM    3  C   UNL     1     -10.524   9.268  66.805  1.00  0.00    -0.263 C  
ENDROOT
BRANCH   2   4
HETATM    4  N   UNL     1     -10.817   7.382  68.389  1.00  0.00    -0.416 NA 
HETATM    5  H   UNL     1     -11.230   6.617  67.855  1.00  0.00     0.000 HD 
BRANCH   4   6
HETATM    6  C   UNL     1     -10.255   6.889  69.653  1.00  0.00    -0.193 C  
BRANCH   6   7
HETATM    7  C   UNL     1     -11.375   6.323  70.545  1.00  0.00    -0.361 C  
HETATM    8  O   UNL     1     -10.817   5.883  71.793  1.00  0.00    -0.243 OA 
HETATM    9  H   UNL     1     -11.509   5.533  72.343  1.00  0.00     0.000 HD 
BRANCH   7  10
HETATM   10  C   UNL     1     -12.472   7.360  70.807  1.00  0.00    -0.093 C  
BRANCH  10  11
HETATM   11  O   UNL     1     -12.018   8.287  71.806  1.00  0.00    -0.283 OA 
BRANCH  11  12
HETATM   12  C   UNL     1     -12.145   9.607  71.464  1.00  0.00    -0.401 A  
HETATM   13  C   UNL     1     -11.435  10.235  70.440  1.00  0.00    -0.415 A  
HETATM   14  C   UNL     1     -11.634  11.592  70.178  1.00  0.00    -0.303 A  
HETATM   15  C   UNL     1     -12.551  12.343  70.927  1.00  0.00    -0.337 A  
HETATM   16  C   UNL     1     -13.284  11.701  71.930  1.00  0.00    -0.475 A  
HETATM   17  C   UNL     1     -13.087  10.338  72.190  1.00  0.00    -0.444 A  
BRANCH  15  18
HETATM   18  C   UNL     1     -12.717  13.815  70.654  1.00  0.00    -0.260 C  
BRANCH  18  19
HETATM   19  O   UNL     1     -12.554  14.037  69.257  1.00  0.00    -0.151 OA 
BRANCH  19  20
HETATM   20  C   UNL     1     -11.773  15.199  68.986  1.00  0.00    -0.335 C  
BRANCH  20  21
HETATM   21  C   UNL     1     -11.583  15.306  67.477  1.00  0.00    -0.214 C  
BRANCH  21  22
HETATM   22  O   UNL     1     -11.332  14.015  66.923  1.00  0.00    -0.306 OA 
BRANCH  22  23
HETATM   23  C   UNL     1     -10.042  13.899  66.309  1.00  0.00    -0.300 C  
HETATM   24  C   UNL     1      -9.288  15.226  66.319  1.00  0.00    -0.345 C  
HETATM   25  C   UNL     1      -9.262  12.853  67.099  1.00  0.00    -0.225 C  
ENDBRANCH  22  23
ENDBRANCH  21  22
ENDBRANCH  20  21
ENDBRANCH  19  20
ENDBRANCH  18  19
ENDBRANCH  15  18
ENDBRANCH  11  12
ENDBRANCH  10  11
ENDBRANCH   7  10
ENDBRANCH   6   7
ENDBRANCH   4   6
ENDBRANCH   2   4
TORSDOF 12
ENDMDL
MODEL      139
REMARK 921   NORMALIZED FREE ENERGY PREDICTED BY IDOCK:   -4.04 KCAL/MOL
REMARK 922        TOTAL FREE ENERGY PREDICTED BY IDOCK:   -7.89 KCAL/MOL
REMARK 923 INTER-LIGAND FREE ENERGY PREDICTED BY IDOCK:   -7.08 KCAL/MOL
REMARK 924 INTRA-LIGAND FREE ENERGY PREDICTED BY IDOCK:   -0.81 KCAL/MOL
REMARK 927      BINDING AFFINITY PREDICTED BY RF-SCORE:    0.00 PKD
ROOT
HETATM    1  C   UNL     1      -9.631   8.504  68.398  1.00  0.00    -0.157 C  
HETATM    2  C   UNL     1     -10.077   7.873  69.720  1.00  0.00    -0.199 C  
HETATM    3  C   UNL     1      -9.078   8.237  70.821  1.00  0.00    -0.168 C  
ENDROOT
BRANCH   2   4
HETATM    4  N   UNL     1     -11.426   8.352  70.030  1.00  0.00    -0.456 NA 
HETATM    5  H   UNL     1     -12.013   7.587  70.361  1.00  0.00     0.000 HD 
BRANCH   4   6
HETATM    6  C   UNL     1     -11.445   9.472  70.980  1.00  0.00    -0.349 C  
BRANCH   6   7
HETATM    7  C   UNL     1     -12.739  10.288  70.808  1.00  0.00    -0.346 C  
HETATM    8  O   UNL     1     -13.871   9.466  71.137  1.00  0.00    -0.487 OA 
HETATM    9  H   UNL     1     -14.670   9.969  71.031  1.00  0.00     0.000 HD 
BRANCH   7  10
HETATM   10  C   UNL     1     -12.742  11.543  71.688  1.00  0.00    -0.290 C  
BRANCH  10  11
HETATM   11  O   UNL     1     -13.391  12.613  70.983  1.00  0.00     0.055 OA 
BRANCH  11  12
HETATM   12  C   UNL     1     -12.543  13.550  70.454  1.00  0.00    -0.197 A  
HETATM   13  C   UNL     1     -11.693  13.331  69.371  1.00  0.00    -0.383 A  
HETATM   14  C   UNL     1     -10.860  14.355  68.914  1.00  0.00    -0.266 A  
HETATM   15  C   UNL     1     -10.870  15.616  69.524  1.00  0.00    -0.271 A  
HETATM   16  C   UNL     1     -11.748  15.841  70.589  1.00  0.00    -0.412 A  
HETATM   17  C   UNL     1     -12.587  14.814  71.044  1.00  0.00    -0.401 A  
BRANCH  15  18
HETATM   18  C   UNL     1      -9.931  16.692  69.042  1.00  0.00    -0.280 C  
BRANCH  18  19
HETATM   19  O   UNL     1     -10.496  17.298  67.883  1.00  0.00    -0.351 OA 
BRANCH  19  20
HETATM   20  C   UNL     1      -9.530  17.485  66.851  1.00  0.00    -0.274 C  
BRANCH  20  21
HETATM   21  C   UNL     1      -9.400  16.178  66.077  1.00  0.00    -0.333 C  
BRANCH  21  22
HETATM   22  O   UNL     1     -10.495  16.031  65.175  1.00  0.00    -0.516 OA 
BRANCH  22  23
HETATM   23  C   UNL     1     -11.183  14.781  65.313  1.00  0.00    -0.366 C  
HETATM   24  C   UNL     1     -12.470  14.749  64.494  1.00  0.00    -0.272 C  
HETATM   25  C   UNL     1     -10.233  13.690  64.832  1.00  0.00    -0.363 C  
ENDBRANCH  22  23
ENDBRANCH  21  22
ENDBRANCH  20  21
ENDBRANCH  19  20
ENDBRANCH  18  19
ENDBRANCH  15  18
ENDBRANCH  11  12
ENDBRANCH  10  11
ENDBRANCH   7  10
ENDBRANCH   6   7
ENDBRANCH   4   6
ENDBRANCH   2   4
TORSDOF 12
ENDMDL
MODEL      140
REMARK 921   NORMALIZED FREE ENERGY PREDICTED BY IDOCK:   -4.04 KCAL/MOL
REMARK 922        TOTAL FREE ENERGY PREDICTED BY IDOCK:   -7.89 KCAL/MOL
REMARK 923 INTER-LIGAND FREE ENERGY PREDICTED BY IDOCK:   -7.02 KCAL/MOL
REMARK 924 INTRA-LIGAND FREE ENERGY PREDICTED BY IDOCK:   -0.87 KCAL/MOL
REMARK 927      BINDING AFFINITY PREDICTED BY RF-SCORE:    0.00 PKD
ROOT
HETATM    1  C   UNL     1      -7.579  20.593  67.101  1.00  0.00    -0.364 C  
HETATM    2  C   UNL     1      -8.329  19.267  66.953  1.00  0.00    -0.283 C  
HETATM    3  C   UNL     1      -7.409  18.229  66.306  1.00  0.00    -0.295 C  
ENDROOT
BRANCH   2   4
HETATM    4  N   UNL     1      -8.781  18.840  68.279  1.00  0.00    -0.322 NA 
HETATM    5  H   UNL     1      -8.731  19.612  68.943  1.00  0.00     0.000 HD 
BRANCH   4   6
HETATM    6  C   UNL     1     -10.124  18.243  68.275  1.00  0.00    -0.386 C  
BRANCH   6   7
HETATM    7  C   UNL     1     -10.034  16.739  68.593  1.00  0.00    -0.276 C  
HETATM    8  O   UNL     1      -8.714  16.428  69.069  1.00  0.00    -0.248 OA 
HETATM    9  H   UNL     1      -8.659  15.500  69.265  1.00  0.00     0.000 HD 
BRANCH   7  10
HETATM   10  C   UNL     1     -11.071  16.315  69.637  1.00  0.00    -0.333 C  
BRANCH  10  11
HETATM   11  O   UNL     1     -12.159  15.646  68.979  1.00  0.00    -0.337 OA 
BRANCH  11  12
HETATM   12  C   UNL     1     -11.878  14.377  68.548  1.00  0.00    -0.334 A  
HETATM   13  C   UNL     1     -11.901  13.967  67.215  1.00  0.00    -0.445 A  
HETATM   14  C   UNL     1     -11.605  12.643  66.883  1.00  0.00    -0.438 A  
HETATM   15  C   UNL     1     -11.270  11.711  67.874  1.00  0.00    -0.334 A  
HETATM   16  C   UNL     1     -11.215  12.135  69.205  1.00  0.00    -0.303 A  
HETATM   17  C   UNL     1     -11.509  13.465  69.537  1.00  0.00    -0.308 A  
BRANCH  15  18
HETATM   18  C   UNL     1     -10.996  10.279  67.495  1.00  0.00    -0.280 C  
BRANCH  18  19
HETATM   19  O   UNL     1      -9.641   9.978  67.814  1.00  0.00    -0.146 OA 
BRANCH  19  20
HETATM   20  C   UNL     1      -9.517   8.746  68.521  1.00  0.00    -0.145 C  
BRANCH  20  21
HETATM   21  C   UNL     1      -9.503   9.051  70.015  1.00  0.00    -0.187 C  
BRANCH  21  22
HETATM   22  O   UNL     1      -9.604   7.842  70.764  1.00  0.00    -0.165 OA 
BRANCH  22  23
HETATM   23  C   UNL     1     -10.778   7.776  71.584  1.00  0.00    -0.220 C  
HETATM   24  C   UNL     1     -11.434   9.144  71.745  1.00  0.00    -0.452 C  
HETATM   25  C   UNL     1     -11.746   6.811  70.907  1.00  0.00    -0.424 C  
ENDBRANCH  22  23
ENDBRANCH  21  22
ENDBRANCH  20  21
ENDBRANCH  19  20
ENDBRANCH  18  19
ENDBRANCH  15  18
ENDBRANCH  11  12
ENDBRANCH  10  11
ENDBRANCH   7  10
ENDBRANCH   6   7
ENDBRANCH   4   6
ENDBRANCH   2   4
TORSDOF 12
ENDMDL
MODEL      141
REMARK 921   NORMALIZED FREE ENERGY PREDICTED BY IDOCK:   -4.03 KCAL/MOL
REMARK 922        TOTAL FREE ENERGY PREDICTED BY IDOCK:   -7.88 KCAL/MOL
REMARK 923 INTER-LIGAND FREE ENERGY PREDICTED BY IDOCK:   -7.21 KCAL/MOL
REMARK 924 INTRA-LIGAND FREE ENERGY PREDICTED BY IDOCK:   -0.67 KCAL/MOL
REMARK 927      BINDING AFFINITY PREDICTED BY RF-SCORE:    0.00 PKD
ROOT
HETATM    1  C   UNL     1     -13.317  14.248  72.802  1.00  0.00    -0.621 C  
HETATM    2  C   UNL     1     -13.419  13.153  71.737  1.00  0.00    -0.335 C  
HETATM    3  C   UNL     1     -12.308  13.344  70.701  1.00  0.00    -0.423 C  
ENDROOT
BRANCH   2   4
HETATM    4  N   UNL     1     -13.324  11.852  72.400  1.00  0.00    -0.518 NA 
HETATM    5  H   UNL     1     -14.170  11.658  72.937  1.00  0.00     0.000 HD 
BRANCH   4   6
HETATM    6  C   UNL     1     -13.026  10.746  71.480  1.00  0.00    -0.456 C  
BRANCH   6   7
HETATM    7  C   UNL     1     -13.383   9.401  72.138  1.00  0.00    -0.468 C  
HETATM    8  O   UNL     1     -14.232   8.647  71.258  1.00  0.00    -0.581 OA 
HETATM    9  H   UNL     1     -14.453   7.817  71.664  1.00  0.00     0.000 HD 
BRANCH   7  10
HETATM   10  C   UNL     1     -12.132   8.582  72.473  1.00  0.00    -0.326 C  
BRANCH  10  11
HETATM   11  O   UNL     1     -11.732   7.833  71.315  1.00  0.00    -0.278 OA 
BRANCH  11  12
HETATM   12  C   UNL     1     -10.797   8.449  70.527  1.00  0.00    -0.232 A  
HETATM   13  C   UNL     1      -9.600   8.994  70.992  1.00  0.00    -0.348 A  
HETATM   14  C   UNL     1      -8.717   9.610  70.103  1.00  0.00    -0.263 A  
HETATM   15  C   UNL     1      -9.008   9.684  68.734  1.00  0.00    -0.134 A  
HETATM   16  C   UNL     1     -10.193   9.107  68.268  1.00  0.00    -0.242 A  
HETATM   17  C   UNL     1     -11.078   8.485  69.160  1.00  0.00     0.174 A  
BRANCH  15  18
HETATM   18  C   UNL     1      -8.060  10.391  67.801  1.00  0.00    -0.103 C  
BRANCH  18  19
HETATM   19  O   UNL     1      -8.637  10.410  66.499  1.00  0.00    -0.127 OA 
BRANCH  19  20
HETATM   20  C   UNL     1      -8.778  11.736  65.994  1.00  0.00     0.002 C  
BRANCH  20  21
HETATM   21  C   UNL     1     -10.120  11.836  65.279  1.00  0.00    -0.262 C  
BRANCH  21  22
HETATM   22  O   UNL     1     -10.416  13.199  64.978  1.00  0.00    -0.313 OA 
BRANCH  22  23
HETATM   23  C   UNL     1     -11.803  13.434  64.706  1.00  0.00    -0.380 C  
HETATM   24  C   UNL     1     -12.040  14.828  64.132  1.00  0.00    -0.323 C  
HETATM   25  C   UNL     1     -12.250  12.376  63.702  1.00  0.00    -0.653 C  
ENDBRANCH  22  23
ENDBRANCH  21  22
ENDBRANCH  20  21
ENDBRANCH  19  20
ENDBRANCH  18  19
ENDBRANCH  15  18
ENDBRANCH  11  12
ENDBRANCH  10  11
ENDBRANCH   7  10
ENDBRANCH   6   7
ENDBRANCH   4   6
ENDBRANCH   2   4
TORSDOF 12
ENDMDL
MODEL      142
REMARK 921   NORMALIZED FREE ENERGY PREDICTED BY IDOCK:   -4.02 KCAL/MOL
REMARK 922        TOTAL FREE ENERGY PREDICTED BY IDOCK:   -7.86 KCAL/MOL
REMARK 923 INTER-LIGAND FREE ENERGY PREDICTED BY IDOCK:   -6.92 KCAL/MOL
REMARK 924 INTRA-LIGAND FREE ENERGY PREDICTED BY IDOCK:   -0.93 KCAL/MOL
REMARK 927      BINDING AFFINITY PREDICTED BY RF-SCORE:    0.00 PKD
ROOT
HETATM    1  C   UNL     1     -14.308   7.224  71.660  1.00  0.00    -0.583 C  
HETATM    2  C   UNL     1     -13.142   8.215  71.712  1.00  0.00    -0.345 C  
HETATM    3  C   UNL     1     -11.928   7.610  71.002  1.00  0.00    -0.296 C  
ENDROOT
BRANCH   2   4
HETATM    4  N   UNL     1     -13.570   9.466  71.084  1.00  0.00    -0.545 NA 
HETATM    5  H   UNL     1     -14.576   9.599  71.192  1.00  0.00     0.000 HD 
BRANCH   4   6
HETATM    6  C   UNL     1     -12.835  10.644  71.565  1.00  0.00    -0.462 C  
BRANCH   6   7
HETATM    7  C   UNL     1     -12.623  11.642  70.413  1.00  0.00    -0.132 C  
HETATM    8  O   UNL     1     -12.091  12.870  70.934  1.00  0.00    -0.462 OA 
HETATM    9  H   UNL     1     -11.960  13.486  70.222  1.00  0.00     0.000 HD 
BRANCH   7  10
HETATM   10  C   UNL     1     -11.678  11.083  69.343  1.00  0.00    -0.323 C  
BRANCH  10  11
HETATM   11  O   UNL     1     -11.998  11.674  68.074  1.00  0.00    -0.577 OA 
BRANCH  11  12
HETATM   12  C   UNL     1     -11.285  11.180  67.014  1.00  0.00    -0.219 A  
HETATM   13  C   UNL     1     -11.201  11.786  65.761  1.00  0.00    -0.337 A  
HETATM   14  C   UNL     1     -10.451  11.193  64.743  1.00  0.00    -0.388 A  
HETATM   15  C   UNL     1      -9.765   9.991  64.962  1.00  0.00    -0.386 A  
HETATM   16  C   UNL     1      -9.826   9.404  66.229  1.00  0.00    -0.351 A  
HETATM   17  C   UNL     1     -10.575  10.002  67.252  1.00  0.00    -0.319 A  
BRANCH  15  18
HETATM   18  C   UNL     1      -8.998   9.348  63.836  1.00  0.00    -0.126 C  
BRANCH  18  19
HETATM   19  O   UNL     1      -8.123   8.368  64.386  1.00  0.00    -0.151 OA 
BRANCH  19  20
HETATM   20  C   UNL     1      -8.102   7.171  63.612  1.00  0.00     0.002 C  
BRANCH  20  21
HETATM   21  C   UNL     1      -7.812   6.003  64.547  1.00  0.00    -0.113 C  
BRANCH  21  22
HETATM   22  O   UNL     1      -9.017   5.296  64.837  1.00  0.00    -0.134 OA 
BRANCH  22  23
HETATM   23  C   UNL     1      -9.224   5.077  66.239  1.00  0.00    -0.144 C  
HETATM   24  C   UNL     1     -10.497   5.755  66.736  1.00  0.00    -0.350 C  
HETATM   25  C   UNL     1      -9.324   3.569  66.447  1.00  0.00    -0.184 C  
ENDBRANCH  22  23
ENDBRANCH  21  22
ENDBRANCH  20  21
ENDBRANCH  19  20
ENDBRANCH  18  19
ENDBRANCH  15  18
ENDBRANCH  11  12
ENDBRANCH  10  11
ENDBRANCH   7  10
ENDBRANCH   6   7
ENDBRANCH   4   6
ENDBRANCH   2   4
TORSDOF 12
ENDMDL
MODEL      143
REMARK 921   NORMALIZED FREE ENERGY PREDICTED BY IDOCK:   -4.01 KCAL/MOL
REMARK 922        TOTAL FREE ENERGY PREDICTED BY IDOCK:   -7.84 KCAL/MOL
REMARK 923 INTER-LIGAND FREE ENERGY PREDICTED BY IDOCK:   -6.90 KCAL/MOL
REMARK 924 INTRA-LIGAND FREE ENERGY PREDICTED BY IDOCK:   -0.94 KCAL/MOL
REMARK 927      BINDING AFFINITY PREDICTED BY RF-SCORE:    0.00 PKD
ROOT
HETATM    1  C   UNL     1     -12.024  15.806  72.214  1.00  0.00    -0.592 C  
HETATM    2  C   UNL     1     -13.033  14.976  71.416  1.00  0.00    -0.371 C  
HETATM    3  C   UNL     1     -14.402  15.043  72.097  1.00  0.00    -0.622 C  
ENDROOT
BRANCH   2   4
HETATM    4  N   UNL     1     -13.081  15.496  70.048  1.00  0.00    -0.619 NA 
HETATM    5  H   UNL     1     -13.674  16.324  69.997  1.00  0.00     0.000 HD 
BRANCH   4   6
HETATM    6  C   UNL     1     -11.754  15.770  69.479  1.00  0.00    -0.360 C  
BRANCH   6   7
HETATM    7  C   UNL     1     -11.681  15.247  68.033  1.00  0.00    -0.251 C  
HETATM    8  O   UNL     1     -10.414  15.604  67.457  1.00  0.00    -0.272 OA 
HETATM    9  H   UNL     1     -10.370  15.281  66.565  1.00  0.00     0.000 HD 
BRANCH   7  10
HETATM   10  C   UNL     1     -11.867  13.727  67.967  1.00  0.00    -0.373 C  
BRANCH  10  11
HETATM   11  O   UNL     1     -12.200  13.349  66.621  1.00  0.00    -0.388 OA 
BRANCH  11  12
HETATM   12  C   UNL     1     -11.383  12.395  66.074  1.00  0.00    -0.353 A  
HETATM   13  C   UNL     1     -11.493  11.907  64.773  1.00  0.00    -0.323 A  
HETATM   14  C   UNL     1     -10.612  10.925  64.314  1.00  0.00    -0.336 A  
HETATM   15  C   UNL     1      -9.600  10.422  65.145  1.00  0.00    -0.329 A  
HETATM   16  C   UNL     1      -9.474  10.939  66.437  1.00  0.00    -0.214 A  
HETATM   17  C   UNL     1     -10.356  11.927  66.895  1.00  0.00    -0.238 A  
BRANCH  15  18
HETATM   18  C   UNL     1      -8.689   9.333  64.643  1.00  0.00    -0.192 C  
BRANCH  18  19
HETATM   19  O   UNL     1      -7.728   9.046  65.653  1.00  0.00    -0.089 OA 
BRANCH  19  20
HETATM   20  C   UNL     1      -7.359   7.668  65.667  1.00  0.00    -0.073 C  
BRANCH  20  21
HETATM   21  C   UNL     1      -8.630   6.832  65.584  1.00  0.00    -0.117 C  
BRANCH  21  22
HETATM   22  O   UNL     1      -8.664   5.884  66.649  1.00  0.00    -0.117 OA 
BRANCH  22  23
HETATM   23  C   UNL     1      -9.787   6.050  67.525  1.00  0.00    -0.125 C  
HETATM   24  C   UNL     1      -9.351   6.373  68.951  1.00  0.00    -0.130 C  
HETATM   25  C   UNL     1     -10.626   7.195  66.966  1.00  0.00    -0.413 C  
ENDBRANCH  22  23
ENDBRANCH  21  22
ENDBRANCH  20  21
ENDBRANCH  19  20
ENDBRANCH  18  19
ENDBRANCH  15  18
ENDBRANCH  11  12
ENDBRANCH  10  11
ENDBRANCH   7  10
ENDBRANCH   6   7
ENDBRANCH   4   6
ENDBRANCH   2   4
TORSDOF 12
ENDMDL
MODEL      144
REMARK 921   NORMALIZED FREE ENERGY PREDICTED BY IDOCK:   -4.00 KCAL/MOL
REMARK 922        TOTAL FREE ENERGY PREDICTED BY IDOCK:   -7.83 KCAL/MOL
REMARK 923 INTER-LIGAND FREE ENERGY PREDICTED BY IDOCK:   -6.88 KCAL/MOL
REMARK 924 INTRA-LIGAND FREE ENERGY PREDICTED BY IDOCK:   -0.94 KCAL/MOL
REMARK 927      BINDING AFFINITY PREDICTED BY RF-SCORE:    0.00 PKD
ROOT
HETATM    1  C   UNL     1      -7.725   6.184  71.974  1.00  0.00    -0.097 C  
HETATM    2  C   UNL     1      -9.049   6.183  72.742  1.00  0.00    -0.128 C  
HETATM    3  C   UNL     1      -8.792   5.794  74.200  1.00  0.00    -0.122 C  
ENDROOT
BRANCH   2   4
HETATM    4  N   UNL     1      -9.649   7.513  72.632  1.00  0.00    -0.158 NA 
HETATM    5  H   UNL     1      -9.626   7.842  71.667  1.00  0.00     0.000 HD 
BRANCH   4   6
HETATM    6  C   UNL     1     -11.013   7.587  73.174  1.00  0.00    -0.367 C  
BRANCH   6   7
HETATM    7  C   UNL     1     -11.984   8.098  72.094  1.00  0.00    -0.359 C  
HETATM    8  O   UNL     1     -13.162   8.629  72.721  1.00  0.00    -0.651 OA 
HETATM    9  H   UNL     1     -13.761   8.945  72.055  1.00  0.00     0.000 HD 
BRANCH   7  10
HETATM   10  C   UNL     1     -11.339   9.175  71.214  1.00  0.00    -0.336 C  
BRANCH  10  11
HETATM   11  O   UNL     1     -10.515   8.544  70.222  1.00  0.00    -0.210 OA 
BRANCH  11  12
HETATM   12  C   UNL     1     -10.549   9.134  68.986  1.00  0.00    -0.199 A  
HETATM   13  C   UNL     1     -10.069   8.551  67.814  1.00  0.00    -0.266 A  
HETATM   14  C   UNL     1     -10.145   9.244  66.603  1.00  0.00    -0.341 A  
HETATM   15  C   UNL     1     -10.712  10.524  66.542  1.00  0.00    -0.191 A  
HETATM   16  C   UNL     1     -11.222  11.090  67.714  1.00  0.00    -0.374 A  
HETATM   17  C   UNL     1     -11.149  10.393  68.928  1.00  0.00    -0.296 A  
BRANCH  15  18
HETATM   18  C   UNL     1     -10.744  11.269  65.233  1.00  0.00    -0.237 C  
BRANCH  18  19
HETATM   19  O   UNL     1     -11.858  12.156  65.244  1.00  0.00    -0.364 OA 
BRANCH  19  20
HETATM   20  C   UNL     1     -11.685  13.246  64.341  1.00  0.00    -0.388 C  
BRANCH  20  21
HETATM   21  C   UNL     1     -12.054  14.533  65.069  1.00  0.00    -0.389 C  
BRANCH  21  22
HETATM   22  O   UNL     1     -12.341  14.257  66.439  1.00  0.00    -0.448 OA 
BRANCH  22  23
HETATM   23  C   UNL     1     -11.273  14.611  67.328  1.00  0.00    -0.337 C  
HETATM   24  C   UNL     1     -10.762  16.024  67.064  1.00  0.00    -0.277 C  
HETATM   25  C   UNL     1     -11.820  14.513  68.748  1.00  0.00    -0.350 C  
ENDBRANCH  22  23
ENDBRANCH  21  22
ENDBRANCH  20  21
ENDBRANCH  19  20
ENDBRANCH  18  19
ENDBRANCH  15  18
ENDBRANCH  11  12
ENDBRANCH  10  11
ENDBRANCH   7  10
ENDBRANCH   6   7
ENDBRANCH   4   6
ENDBRANCH   2   4
TORSDOF 12
ENDMDL
MODEL      145
REMARK 921   NORMALIZED FREE ENERGY PREDICTED BY IDOCK:   -4.00 KCAL/MOL
REMARK 922        TOTAL FREE ENERGY PREDICTED BY IDOCK:   -7.82 KCAL/MOL
REMARK 923 INTER-LIGAND FREE ENERGY PREDICTED BY IDOCK:   -6.89 KCAL/MOL
REMARK 924 INTRA-LIGAND FREE ENERGY PREDICTED BY IDOCK:   -0.93 KCAL/MOL
REMARK 927      BINDING AFFINITY PREDICTED BY RF-SCORE:    0.00 PKD
ROOT
HETATM    1  C   UNL     1      -9.619   8.464  71.978  1.00  0.00    -0.344 C  
HETATM    2  C   UNL     1     -10.887   7.977  71.273  1.00  0.00    -0.232 C  
HETATM    3  C   UNL     1     -12.086   8.136  72.211  1.00  0.00    -0.419 C  
ENDROOT
BRANCH   2   4
HETATM    4  N   UNL     1     -11.056   8.748  70.040  1.00  0.00    -0.373 NA 
HETATM    5  H   UNL     1     -10.789   9.722  70.183  1.00  0.00     0.000 HD 
BRANCH   4   6
HETATM    6  C   UNL     1     -10.344   8.176  68.889  1.00  0.00    -0.211 C  
BRANCH   6   7
HETATM    7  C   UNL     1      -9.624   9.290  68.107  1.00  0.00    -0.143 C  
HETATM    8  O   UNL     1      -8.491   8.737  67.419  1.00  0.00    -0.115 OA 
HETATM    9  H   UNL     1      -8.047   9.424  66.936  1.00  0.00     0.000 HD 
BRANCH   7  10
HETATM   10  C   UNL     1     -10.556   9.971  67.099  1.00  0.00    -0.232 C  
BRANCH  10  11
HETATM   11  O   UNL     1     -11.727  10.445  67.783  1.00  0.00    -0.353 OA 
BRANCH  11  12
HETATM   12  C   UNL     1     -11.737  11.791  68.040  1.00  0.00    -0.293 A  
HETATM   13  C   UNL     1     -11.584  12.785  67.074  1.00  0.00    -0.422 A  
HETATM   14  C   UNL     1     -11.601  14.132  67.443  1.00  0.00    -0.399 A  
HETATM   15  C   UNL     1     -11.782  14.508  68.781  1.00  0.00    -0.362 A  
HETATM   16  C   UNL     1     -11.969  13.509  69.741  1.00  0.00    -0.405 A  
HETATM   17  C   UNL     1     -11.955  12.157  69.368  1.00  0.00    -0.329 A  
BRANCH  15  18
HETATM   18  C   UNL     1     -11.754  15.965  69.162  1.00  0.00    -0.363 C  
BRANCH  18  19
HETATM   19  O   UNL     1     -10.409  16.331  69.455  1.00  0.00    -0.245 OA 
BRANCH  19  20
HETATM   20  C   UNL     1     -10.135  17.687  69.113  1.00  0.00    -0.232 C  
BRANCH  20  21
HETATM   21  C   UNL     1      -8.759  17.747  68.460  1.00  0.00    -0.283 C  
BRANCH  21  22
HETATM   22  O   UNL     1      -8.739  18.753  67.449  1.00  0.00    -0.270 OA 
BRANCH  22  23
HETATM   23  C   UNL     1      -8.144  18.315  66.220  1.00  0.00    -0.223 C  
HETATM   24  C   UNL     1      -6.716  18.832  66.067  1.00  0.00    -0.278 C  
HETATM   25  C   UNL     1      -8.144  16.790  66.240  1.00  0.00    -0.365 C  
ENDBRANCH  22  23
ENDBRANCH  21  22
ENDBRANCH  20  21
ENDBRANCH  19  20
ENDBRANCH  18  19
ENDBRANCH  15  18
ENDBRANCH  11  12
ENDBRANCH  10  11
ENDBRANCH   7  10
ENDBRANCH   6   7
ENDBRANCH   4   6
ENDBRANCH   2   4
TORSDOF 12
ENDMDL
MODEL      146
REMARK 921   NORMALIZED FREE ENERGY PREDICTED BY IDOCK:   -3.99 KCAL/MOL
REMARK 922        TOTAL FREE ENERGY PREDICTED BY IDOCK:   -7.82 KCAL/MOL
REMARK 923 INTER-LIGAND FREE ENERGY PREDICTED BY IDOCK:   -7.30 KCAL/MOL
REMARK 924 INTRA-LIGAND FREE ENERGY PREDICTED BY IDOCK:   -0.51 KCAL/MOL
REMARK 927      BINDING AFFINITY PREDICTED BY RF-SCORE:    0.00 PKD
ROOT
HETATM    1  C   UNL     1      -9.360   6.406  73.320  1.00  0.00    -0.140 C  
HETATM    2  C   UNL     1     -10.555   5.479  73.083  1.00  0.00    -0.247 C  
HETATM    3  C   UNL     1     -10.743   4.569  74.299  1.00  0.00    -0.280 C  
ENDROOT
BRANCH   2   4
HETATM    4  N   UNL     1     -11.739   6.303  72.833  1.00  0.00    -0.492 NA 
HETATM    5  H   UNL     1     -12.507   6.027  73.445  1.00  0.00     0.000 HD 
BRANCH   4   6
HETATM    6  C   UNL     1     -11.481   7.745  72.938  1.00  0.00    -0.303 C  
BRANCH   6   7
HETATM    7  C   UNL     1     -11.680   8.419  71.569  1.00  0.00    -0.290 C  
HETATM    8  O   UNL     1     -12.557   7.617  70.762  1.00  0.00    -0.531 OA 
HETATM    9  H   UNL     1     -12.680   8.032  69.917  1.00  0.00     0.000 HD 
BRANCH   7  10
HETATM   10  C   UNL     1     -12.257   9.832  71.708  1.00  0.00    -0.367 C  
BRANCH  10  11
HETATM   11  O   UNL     1     -12.753  10.268  70.433  1.00  0.00    -0.273 OA 
BRANCH  11  12
HETATM   12  C   UNL     1     -12.459  11.568  70.116  1.00  0.00    -0.164 A  
HETATM   13  C   UNL     1     -12.656  12.657  70.964  1.00  0.00    -0.354 A  
HETATM   14  C   UNL     1     -12.329  13.947  70.540  1.00  0.00    -0.439 A  
HETATM   15  C   UNL     1     -11.790  14.169  69.265  1.00  0.00    -0.381 A  
HETATM   16  C   UNL     1     -11.563  13.070  68.430  1.00  0.00    -0.370 A  
HETATM   17  C   UNL     1     -11.888  11.775  68.859  1.00  0.00    -0.381 A  
BRANCH  15  18
HETATM   18  C   UNL     1     -11.485  15.573  68.813  1.00  0.00    -0.355 C  
BRANCH  18  19
HETATM   19  O   UNL     1     -11.220  15.550  67.413  1.00  0.00    -0.315 OA 
BRANCH  19  20
HETATM   20  C   UNL     1     -10.305  16.572  67.024  1.00  0.00    -0.301 C  
BRANCH  20  21
HETATM   21  C   UNL     1      -9.408  16.889  68.215  1.00  0.00    -0.248 C  
BRANCH  21  22
HETATM   22  O   UNL     1      -8.105  17.255  67.763  1.00  0.00    -0.193 OA 
BRANCH  22  23
HETATM   23  C   UNL     1      -7.469  18.235  68.594  1.00  0.00    -0.295 C  
HETATM   24  C   UNL     1      -6.180  18.759  67.967  1.00  0.00    -0.209 C  
HETATM   25  C   UNL     1      -8.460  19.380  68.776  1.00  0.00    -0.377 C  
ENDBRANCH  22  23
ENDBRANCH  21  22
ENDBRANCH  20  21
ENDBRANCH  19  20
ENDBRANCH  18  19
ENDBRANCH  15  18
ENDBRANCH  11  12
ENDBRANCH  10  11
ENDBRANCH   7  10
ENDBRANCH   6   7
ENDBRANCH   4   6
ENDBRANCH   2   4
TORSDOF 12
ENDMDL
MODEL      147
REMARK 921   NORMALIZED FREE ENERGY PREDICTED BY IDOCK:   -3.99 KCAL/MOL
REMARK 922        TOTAL FREE ENERGY PREDICTED BY IDOCK:   -7.81 KCAL/MOL
REMARK 923 INTER-LIGAND FREE ENERGY PREDICTED BY IDOCK:   -6.66 KCAL/MOL
REMARK 924 INTRA-LIGAND FREE ENERGY PREDICTED BY IDOCK:   -1.15 KCAL/MOL
REMARK 927      BINDING AFFINITY PREDICTED BY RF-SCORE:    0.00 PKD
ROOT
HETATM    1  C   UNL     1      -9.878   7.938  69.677  1.00  0.00    -0.179 C  
HETATM    2  C   UNL     1      -9.575   6.939  68.558  1.00  0.00    -0.131 C  
HETATM    3  C   UNL     1     -10.887   6.455  67.936  1.00  0.00    -0.404 C  
ENDROOT
BRANCH   2   4
HETATM    4  N   UNL     1      -8.715   7.594  67.571  1.00  0.00    -0.125 NA 
HETATM    5  H   UNL     1      -7.749   7.280  67.667  1.00  0.00     0.000 HD 
BRANCH   4   6
HETATM    6  C   UNL     1      -9.181   7.430  66.187  1.00  0.00    -0.099 C  
BRANCH   6   7
HETATM    7  C   UNL     1      -8.632   8.567  65.306  1.00  0.00    -0.165 C  
HETATM    8  O   UNL     1      -8.171   8.026  64.058  1.00  0.00    -0.287 OA 
HETATM    9  H   UNL     1      -7.833   8.728  63.514  1.00  0.00     0.000 HD 
BRANCH   7  10
HETATM   10  C   UNL     1      -9.691   9.643  65.042  1.00  0.00    -0.164 C  
BRANCH  10  11
HETATM   11  O   UNL     1     -10.526   9.780  66.203  1.00  0.00    -0.179 OA 
BRANCH  11  12
HETATM   12  C   UNL     1     -10.422  10.984  66.847  1.00  0.00    -0.246 A  
HETATM   13  C   UNL     1      -9.688  12.074  66.380  1.00  0.00    -0.239 A  
HETATM   14  C   UNL     1      -9.640  13.257  67.120  1.00  0.00    -0.240 A  
HETATM   15  C   UNL     1     -10.333  13.375  68.333  1.00  0.00    -0.253 A  
HETATM   16  C   UNL     1     -11.095  12.292  68.780  1.00  0.00    -0.295 A  
HETATM   17  C   UNL     1     -11.145  11.105  68.034  1.00  0.00    -0.334 A  
BRANCH  15  18
HETATM   18  C   UNL     1     -10.232  14.647  69.134  1.00  0.00    -0.193 C  
BRANCH  18  19
HETATM   19  O   UNL     1     -11.111  15.612  68.564  1.00  0.00    -0.286 OA 
BRANCH  19  20
HETATM   20  C   UNL     1     -12.408  15.574  69.156  1.00  0.00    -0.033 C  
BRANCH  20  21
HETATM   21  C   UNL     1     -12.241  15.585  70.672  1.00  0.00    -0.402 C  
BRANCH  21  22
HETATM   22  O   UNL     1     -13.499  15.826  71.301  1.00  0.00    -0.555 OA 
BRANCH  22  23
HETATM   23  C   UNL     1     -13.637  15.170  72.567  1.00  0.00    -0.488 C  
HETATM   24  C   UNL     1     -13.496  13.656  72.439  1.00  0.00    -0.685 C  
HETATM   25  C   UNL     1     -12.544  15.718  73.479  1.00  0.00    -0.680 C  
ENDBRANCH  22  23
ENDBRANCH  21  22
ENDBRANCH  20  21
ENDBRANCH  19  20
ENDBRANCH  18  19
ENDBRANCH  15  18
ENDBRANCH  11  12
ENDBRANCH  10  11
ENDBRANCH   7  10
ENDBRANCH   6   7
ENDBRANCH   4   6
ENDBRANCH   2   4
TORSDOF 12
ENDMDL
MODEL      148
REMARK 921   NORMALIZED FREE ENERGY PREDICTED BY IDOCK:   -3.98 KCAL/MOL
REMARK 922        TOTAL FREE ENERGY PREDICTED BY IDOCK:   -7.79 KCAL/MOL
REMARK 923 INTER-LIGAND FREE ENERGY PREDICTED BY IDOCK:   -6.99 KCAL/MOL
REMARK 924 INTRA-LIGAND FREE ENERGY PREDICTED BY IDOCK:   -0.80 KCAL/MOL
REMARK 927      BINDING AFFINITY PREDICTED BY RF-SCORE:    0.00 PKD
ROOT
HETATM    1  C   UNL     1     -10.178  14.246  68.343  1.00  0.00    -0.245 C  
HETATM    2  C   UNL     1     -11.624  13.798  68.568  1.00  0.00    -0.338 C  
HETATM    3  C   UNL     1     -12.087  14.247  69.957  1.00  0.00    -0.400 C  
ENDROOT
BRANCH   2   4
HETATM    4  N   UNL     1     -12.456  14.369  67.508  1.00  0.00    -0.529 NA 
HETATM    5  H   UNL     1     -12.856  15.260  67.803  1.00  0.00     0.000 HD 
BRANCH   4   6
HETATM    6  C   UNL     1     -11.753  14.514  66.226  1.00  0.00    -0.358 C  
BRANCH   6   7
HETATM    7  C   UNL     1     -12.670  14.078  65.068  1.00  0.00    -0.328 C  
HETATM    8  O   UNL     1     -12.383  14.870  63.905  1.00  0.00    -0.980 OA 
HETATM    9  H   UNL     1     -12.949  14.602  63.191  1.00  0.00     0.000 HD 
BRANCH   7  10
HETATM   10  C   UNL     1     -12.500  12.592  64.735  1.00  0.00    -0.484 C  
BRANCH  10  11
HETATM   11  O   UNL     1     -11.137  12.346  64.354  1.00  0.00    -0.299 OA 
BRANCH  11  12
HETATM   12  C   UNL     1     -10.530  11.317  65.023  1.00  0.00    -0.298 A  
HETATM   13  C   UNL     1     -10.657  11.074  66.391  1.00  0.00    -0.308 A  
HETATM   14  C   UNL     1      -9.988   9.998  66.978  1.00  0.00    -0.257 A  
HETATM   15  C   UNL     1      -9.188   9.142  66.208  1.00  0.00    -0.246 A  
HETATM   16  C   UNL     1      -9.091   9.370  64.832  1.00  0.00    -0.258 A  
HETATM   17  C   UNL     1      -9.767  10.447  64.243  1.00  0.00    -0.389 A  
BRANCH  15  18
HETATM   18  C   UNL     1      -8.441   8.014  66.871  1.00  0.00    -0.124 C  
BRANCH  18  19
HETATM   19  O   UNL     1      -9.370   6.981  67.188  1.00  0.00    -0.134 OA 
BRANCH  19  20
HETATM   20  C   UNL     1      -9.463   6.757  68.594  1.00  0.00    -0.132 C  
BRANCH  20  21
HETATM   21  C   UNL     1     -10.299   5.503  68.823  1.00  0.00    -0.201 C  
BRANCH  21  22
HETATM   22  O   UNL     1      -9.954   4.503  67.866  1.00  0.00    -0.134 OA 
BRANCH  22  23
HETATM   23  C   UNL     1      -9.004   3.548  68.357  1.00  0.00    -0.132 C  
HETATM   24  C   UNL     1      -9.336   3.096  69.776  1.00  0.00    -0.223 C  
HETATM   25  C   UNL     1      -9.038   2.353  67.409  1.00  0.00    -0.195 C  
ENDBRANCH  22  23
ENDBRANCH  21  22
ENDBRANCH  20  21
ENDBRANCH  19  20
ENDBRANCH  18  19
ENDBRANCH  15  18
ENDBRANCH  11  12
ENDBRANCH  10  11
ENDBRANCH   7  10
ENDBRANCH   6   7
ENDBRANCH   4   6
ENDBRANCH   2   4
TORSDOF 12
ENDMDL
MODEL      149
REMARK 921   NORMALIZED FREE ENERGY PREDICTED BY IDOCK:   -3.98 KCAL/MOL
REMARK 922        TOTAL FREE ENERGY PREDICTED BY IDOCK:   -7.79 KCAL/MOL
REMARK 923 INTER-LIGAND FREE ENERGY PREDICTED BY IDOCK:   -6.30 KCAL/MOL
REMARK 924 INTRA-LIGAND FREE ENERGY PREDICTED BY IDOCK:   -1.48 KCAL/MOL
REMARK 927      BINDING AFFINITY PREDICTED BY RF-SCORE:    0.00 PKD
ROOT
HETATM    1  C   UNL     1      -8.189   6.396  68.189  1.00  0.00    -0.116 C  
HETATM    2  C   UNL     1      -7.716   6.692  66.763  1.00  0.00    -0.106 C  
HETATM    3  C   UNL     1      -8.777   6.220  65.765  1.00  0.00    -0.145 C  
ENDROOT
BRANCH   2   4
HETATM    4  N   UNL     1      -7.465   8.130  66.648  1.00  0.00    -0.088 NA 
HETATM    5  H   UNL     1      -6.549   8.368  67.029  1.00  0.00     0.000 HD 
BRANCH   4   6
HETATM    6  C   UNL     1      -7.607   8.641  65.278  1.00  0.00    -0.088 C  
BRANCH   6   7
HETATM    7  C   UNL     1      -7.564  10.180  65.281  1.00  0.00    -0.144 C  
HETATM    8  O   UNL     1      -6.653  10.636  64.268  1.00  0.00    -0.354 OA 
HETATM    9  H   UNL     1      -6.627  11.586  64.270  1.00  0.00     0.000 HD 
BRANCH   7  10
HETATM   10  C   UNL     1      -8.949  10.788  65.040  1.00  0.00    -0.194 C  
BRANCH  10  11
HETATM   11  O   UNL     1      -9.948   9.941  65.631  1.00  0.00    -0.284 OA 
BRANCH  11  12
HETATM   12  C   UNL     1     -10.510  10.429  66.780  1.00  0.00    -0.225 A  
HETATM   13  C   UNL     1     -11.178  11.649  66.882  1.00  0.00    -0.376 A  
HETATM   14  C   UNL     1     -11.708  12.060  68.107  1.00  0.00    -0.398 A  
HETATM   15  C   UNL     1     -11.589  11.254  69.248  1.00  0.00    -0.390 A  
HETATM   16  C   UNL     1     -10.948  10.017  69.133  1.00  0.00    -0.256 A  
HETATM   17  C   UNL     1     -10.419   9.605  67.902  1.00  0.00    -0.296 A  
BRANCH  15  18
HETATM   18  C   UNL     1     -12.132  11.737  70.568  1.00  0.00    -0.347 C  
BRANCH  18  19
HETATM   19  O   UNL     1     -12.168  10.637  71.472  1.00  0.00    -0.335 OA 
BRANCH  19  20
HETATM   20  C   UNL     1     -13.502  10.272  71.821  1.00  0.00    -0.289 C  
BRANCH  20  21
HETATM   21  C   UNL     1     -13.523   8.781  72.134  1.00  0.00    -0.427 C  
BRANCH  21  22
HETATM   22  O   UNL     1     -12.649   8.082  71.249  1.00  0.00    -0.305 OA 
BRANCH  22  23
HETATM   23  C   UNL     1     -11.951   6.997  71.876  1.00  0.00    -0.320 C  
HETATM   24  C   UNL     1     -11.122   6.202  70.872  1.00  0.00    -0.371 C  
HETATM   25  C   UNL     1     -11.040   7.604  72.938  1.00  0.00    -0.448 C  
ENDBRANCH  22  23
ENDBRANCH  21  22
ENDBRANCH  20  21
ENDBRANCH  19  20
ENDBRANCH  18  19
ENDBRANCH  15  18
ENDBRANCH  11  12
ENDBRANCH  10  11
ENDBRANCH   7  10
ENDBRANCH   6   7
ENDBRANCH   4   6
ENDBRANCH   2   4
TORSDOF 12
ENDMDL
MODEL      150
REMARK 921   NORMALIZED FREE ENERGY PREDICTED BY IDOCK:   -3.96 KCAL/MOL
REMARK 922        TOTAL FREE ENERGY PREDICTED BY IDOCK:   -7.75 KCAL/MOL
REMARK 923 INTER-LIGAND FREE ENERGY PREDICTED BY IDOCK:   -7.21 KCAL/MOL
REMARK 924 INTRA-LIGAND FREE ENERGY PREDICTED BY IDOCK:   -0.54 KCAL/MOL
REMARK 927      BINDING AFFINITY PREDICTED BY RF-SCORE:    0.00 PKD
ROOT
HETATM    1  C   UNL     1      -9.321   2.377  71.533  1.00  0.00    -0.193 C  
HETATM    2  C   UNL     1      -8.853   3.775  71.119  1.00  0.00    -0.085 C  
HETATM    3  C   UNL     1      -9.347   4.079  69.703  1.00  0.00    -0.243 C  
ENDROOT
BRANCH   2   4
HETATM    4  N   UNL     1      -9.364   4.742  72.092  1.00  0.00    -0.134 NA 
HETATM    5  H   UNL     1      -8.598   5.170  72.612  1.00  0.00     0.000 HD 
BRANCH   4   6
HETATM    6  C   UNL     1     -10.228   5.770  71.496  1.00  0.00    -0.203 C  
BRANCH   6   7
HETATM    7  C   UNL     1     -11.559   5.853  72.266  1.00  0.00    -0.282 C  
HETATM    8  O   UNL     1     -11.309   5.704  73.673  1.00  0.00    -0.427 OA 
HETATM    9  H   UNL     1     -12.130   5.755  74.148  1.00  0.00     0.000 HD 
BRANCH   7  10
HETATM   10  C   UNL     1     -12.283   7.179  72.010  1.00  0.00    -0.278 C  
BRANCH  10  11
HETATM   11  O   UNL     1     -11.371   8.267  72.229  1.00  0.00    -0.325 OA 
BRANCH  11  12
HETATM   12  C   UNL     1     -11.493   9.306  71.346  1.00  0.00    -0.369 A  
HETATM   13  C   UNL     1     -12.349  10.395  71.514  1.00  0.00    -0.468 A  
HETATM   14  C   UNL     1     -12.404  11.400  70.546  1.00  0.00    -0.439 A  
HETATM   15  C   UNL     1     -11.598  11.341  69.401  1.00  0.00    -0.390 A  
HETATM   16  C   UNL     1     -10.718  10.265  69.254  1.00  0.00    -0.265 A  
HETATM   17  C   UNL     1     -10.660   9.258  70.228  1.00  0.00    -0.278 A  
BRANCH  15  18
HETATM   18  C   UNL     1     -11.706  12.416  68.351  1.00  0.00    -0.336 C  
BRANCH  18  19
HETATM   19  O   UNL     1     -11.746  11.794  67.070  1.00  0.00    -0.555 OA 
BRANCH  19  20
HETATM   20  C   UNL     1     -11.928  12.741  66.019  1.00  0.00    -0.432 C  
BRANCH  20  21
HETATM   21  C   UNL     1     -11.880  14.139  66.623  1.00  0.00    -0.424 C  
BRANCH  21  22
HETATM   22  O   UNL     1     -10.586  14.710  66.436  1.00  0.00    -0.290 OA 
BRANCH  22  23
HETATM   23  C   UNL     1     -10.415  15.966  67.105  1.00  0.00    -0.313 C  
HETATM   24  C   UNL     1      -9.386  15.875  68.228  1.00  0.00    -0.194 C  
HETATM   25  C   UNL     1      -9.953  16.974  66.057  1.00  0.00    -0.288 C  
ENDBRANCH  22  23
ENDBRANCH  21  22
ENDBRANCH  20  21
ENDBRANCH  19  20
ENDBRANCH  18  19
ENDBRANCH  15  18
ENDBRANCH  11  12
ENDBRANCH  10  11
ENDBRANCH   7  10
ENDBRANCH   6   7
ENDBRANCH   4   6
ENDBRANCH   2   4
TORSDOF 12
ENDMDL
MODEL      151
REMARK 921   NORMALIZED FREE ENERGY PREDICTED BY IDOCK:   -3.95 KCAL/MOL
REMARK 922        TOTAL FREE ENERGY PREDICTED BY IDOCK:   -7.74 KCAL/MOL
REMARK 923 INTER-LIGAND FREE ENERGY PREDICTED BY IDOCK:   -6.52 KCAL/MOL
REMARK 924 INTRA-LIGAND FREE ENERGY PREDICTED BY IDOCK:   -1.22 KCAL/MOL
REMARK 927      BINDING AFFINITY PREDICTED BY RF-SCORE:    0.00 PKD
ROOT
HETATM    1  C   UNL     1     -10.509  17.962  67.731  1.00  0.00    -0.409 C  
HETATM    2  C   UNL     1     -10.027  18.480  66.374  1.00  0.00    -0.379 C  
HETATM    3  C   UNL     1     -10.648  19.852  66.101  1.00  0.00    -0.526 C  
ENDROOT
BRANCH   2   4
HETATM    4  N   UNL     1      -8.564  18.540  66.394  1.00  0.00    -0.366 NA 
HETATM    5  H   UNL     1      -8.227  19.317  65.826  1.00  0.00     0.000 HD 
BRANCH   4   6
HETATM    6  C   UNL     1      -8.000  18.603  67.749  1.00  0.00    -0.250 C  
BRANCH   6   7
HETATM    7  C   UNL     1      -6.739  17.724  67.838  1.00  0.00    -0.191 C  
HETATM    8  O   UNL     1      -5.943  18.140  68.959  1.00  0.00    -0.205 OA 
HETATM    9  H   UNL     1      -5.165  17.598  69.014  1.00  0.00     0.000 HD 
BRANCH   7  10
HETATM   10  C   UNL     1      -7.089  16.239  67.977  1.00  0.00    -0.133 C  
BRANCH  10  11
HETATM   11  O   UNL     1      -7.560  15.744  66.713  1.00  0.00    -0.218 OA 
BRANCH  11  12
HETATM   12  C   UNL     1      -8.570  14.823  66.798  1.00  0.00    -0.193 A  
HETATM   13  C   UNL     1      -9.708  14.815  65.992  1.00  0.00    -0.350 A  
HETATM   14  C   UNL     1     -10.686  13.833  66.166  1.00  0.00    -0.283 A  
HETATM   15  C   UNL     1     -10.538  12.836  67.140  1.00  0.00    -0.249 A  
HETATM   16  C   UNL     1      -9.380  12.829  67.923  1.00  0.00    -0.208 A  
HETATM   17  C   UNL     1      -8.397  13.813  67.745  1.00  0.00    -0.180 A  
BRANCH  15  18
HETATM   18  C   UNL     1     -11.625  11.813  67.338  1.00  0.00    -0.280 C  
BRANCH  18  19
HETATM   19  O   UNL     1     -11.255  10.963  68.420  1.00  0.00    -0.241 OA 
BRANCH  19  20
HETATM   20  C   UNL     1     -12.142  11.090  69.529  1.00  0.00    -0.329 C  
BRANCH  20  21
HETATM   21  C   UNL     1     -11.546  10.327  70.707  1.00  0.00    -0.355 C  
BRANCH  21  22
HETATM   22  O   UNL     1     -12.336   9.175  70.994  1.00  0.00    -0.288 OA 
BRANCH  22  23
HETATM   23  C   UNL     1     -11.571   8.068  71.488  1.00  0.00    -0.275 C  
HETATM   24  C   UNL     1     -12.448   6.850  71.763  1.00  0.00    -0.397 C  
HETATM   25  C   UNL     1     -10.532   7.730  70.424  1.00  0.00    -0.221 C  
ENDBRANCH  22  23
ENDBRANCH  21  22
ENDBRANCH  20  21
ENDBRANCH  19  20
ENDBRANCH  18  19
ENDBRANCH  15  18
ENDBRANCH  11  12
ENDBRANCH  10  11
ENDBRANCH   7  10
ENDBRANCH   6   7
ENDBRANCH   4   6
ENDBRANCH   2   4
TORSDOF 12
ENDMDL
MODEL      152
REMARK 921   NORMALIZED FREE ENERGY PREDICTED BY IDOCK:   -3.94 KCAL/MOL
REMARK 922        TOTAL FREE ENERGY PREDICTED BY IDOCK:   -7.73 KCAL/MOL
REMARK 923 INTER-LIGAND FREE ENERGY PREDICTED BY IDOCK:   -6.56 KCAL/MOL
REMARK 924 INTRA-LIGAND FREE ENERGY PREDICTED BY IDOCK:   -1.17 KCAL/MOL
REMARK 927      BINDING AFFINITY PREDICTED BY RF-SCORE:    0.00 PKD
ROOT
HETATM    1  C   UNL     1     -11.317   6.221  69.692  1.00  0.00    -0.492 C  
HETATM    2  C   UNL     1     -10.063   5.442  70.098  1.00  0.00    -0.252 C  
HETATM    3  C   UNL     1     -10.248   4.878  71.509  1.00  0.00    -0.264 C  
ENDROOT
BRANCH   2   4
HETATM    4  N   UNL     1      -9.838   4.382  69.114  1.00  0.00    -0.166 NA 
HETATM    5  H   UNL     1     -10.515   3.628  69.234  1.00  0.00     0.000 HD 
BRANCH   4   6
HETATM    6  C   UNL     1      -9.834   4.862  67.726  1.00  0.00    -0.147 C  
BRANCH   6   7
HETATM    7  C   UNL     1      -8.417   5.314  67.328  1.00  0.00    -0.106 C  
HETATM    8  O   UNL     1      -7.878   4.402  66.357  1.00  0.00    -0.097 OA 
HETATM    9  H   UNL     1      -7.004   4.681  66.112  1.00  0.00     0.000 HD 
BRANCH   7  10
HETATM   10  C   UNL     1      -8.413   6.736  66.756  1.00  0.00    -0.117 C  
BRANCH  10  11
HETATM   11  O   UNL     1      -8.031   7.660  67.788  1.00  0.00    -0.117 OA 
BRANCH  11  12
HETATM   12  C   UNL     1      -8.987   8.585  68.113  1.00  0.00    -0.142 A  
HETATM   13  C   UNL     1      -9.953   9.073  67.233  1.00  0.00    -0.275 A  
HETATM   14  C   UNL     1     -10.879  10.025  67.663  1.00  0.00    -0.336 A  
HETATM   15  C   UNL     1     -10.864  10.497  68.983  1.00  0.00    -0.272 A  
HETATM   16  C   UNL     1      -9.916   9.980  69.871  1.00  0.00    -0.280 A  
HETATM   17  C   UNL     1      -8.988   9.022  69.438  1.00  0.00    -0.145 A  
BRANCH  15  18
HETATM   18  C   UNL     1     -11.846  11.555  69.413  1.00  0.00    -0.350 C  
BRANCH  18  19
HETATM   19  O   UNL     1     -12.111  12.406  68.302  1.00  0.00    -0.313 OA 
BRANCH  19  20
HETATM   20  C   UNL     1     -12.007  13.786  68.646  1.00  0.00    -0.366 C  
BRANCH  20  21
HETATM   21  C   UNL     1     -12.198  13.918  70.152  1.00  0.00    -0.358 C  
BRANCH  21  22
HETATM   22  O   UNL     1     -13.072  15.008  70.442  1.00  0.00    -0.287 OA 
BRANCH  22  23
HETATM   23  C   UNL     1     -13.482  15.060  71.815  1.00  0.00    -0.410 C  
HETATM   24  C   UNL     1     -13.558  13.669  72.437  1.00  0.00    -0.703 C  
HETATM   25  C   UNL     1     -12.454  15.907  72.558  1.00  0.00    -0.566 C  
ENDBRANCH  22  23
ENDBRANCH  21  22
ENDBRANCH  20  21
ENDBRANCH  19  20
ENDBRANCH  18  19
ENDBRANCH  15  18
ENDBRANCH  11  12
ENDBRANCH  10  11
ENDBRANCH   7  10
ENDBRANCH   6   7
ENDBRANCH   4   6
ENDBRANCH   2   4
TORSDOF 12
ENDMDL
MODEL      153
REMARK 921   NORMALIZED FREE ENERGY PREDICTED BY IDOCK:   -3.94 KCAL/MOL
REMARK 922        TOTAL FREE ENERGY PREDICTED BY IDOCK:   -7.73 KCAL/MOL
REMARK 923 INTER-LIGAND FREE ENERGY PREDICTED BY IDOCK:   -6.93 KCAL/MOL
REMARK 924 INTRA-LIGAND FREE ENERGY PREDICTED BY IDOCK:   -0.80 KCAL/MOL
REMARK 927      BINDING AFFINITY PREDICTED BY RF-SCORE:    0.00 PKD
ROOT
HETATM    1  C   UNL     1      -8.818  16.028  65.969  1.00  0.00    -0.314 C  
HETATM    2  C   UNL     1      -9.980  16.350  66.911  1.00  0.00    -0.271 C  
HETATM    3  C   UNL     1     -10.218  17.862  66.929  1.00  0.00    -0.358 C  
ENDROOT
BRANCH   2   4
HETATM    4  N   UNL     1     -11.164  15.619  66.454  1.00  0.00    -0.127 NA 
HETATM    5  H   UNL     1     -12.015  16.134  66.680  1.00  0.00     0.000 HD 
BRANCH   4   6
HETATM    6  C   UNL     1     -11.126  15.278  65.026  1.00  0.00    -0.426 C  
BRANCH   6   7
HETATM    7  C   UNL     1     -12.285  14.326  64.679  1.00  0.00    -0.454 C  
HETATM    8  O   UNL     1     -12.284  14.064  63.267  1.00  0.00    -1.071 OA 
HETATM    9  H   UNL     1     -12.999  13.477  63.053  1.00  0.00     0.000 HD 
BRANCH   7  10
HETATM   10  C   UNL     1     -12.187  13.005  65.449  1.00  0.00    -0.471 C  
BRANCH  10  11
HETATM   11  O   UNL     1     -10.805  12.638  65.584  1.00  0.00    -0.266 OA 
BRANCH  11  12
HETATM   12  C   UNL     1     -10.587  11.445  66.222  1.00  0.00    -0.263 A  
HETATM   13  C   UNL     1     -10.174  10.272  65.592  1.00  0.00    -0.301 A  
HETATM   14  C   UNL     1      -9.988   9.104  66.335  1.00  0.00    -0.358 A  
HETATM   15  C   UNL     1     -10.203   9.091  67.721  1.00  0.00    -0.284 A  
HETATM   16  C   UNL     1     -10.585  10.279  68.352  1.00  0.00    -0.247 A  
HETATM   17  C   UNL     1     -10.767  11.452  67.606  1.00  0.00    -0.261 A  
BRANCH  15  18
HETATM   18  C   UNL     1     -10.038   7.810  68.494  1.00  0.00    -0.199 C  
BRANCH  18  19
HETATM   19  O   UNL     1     -10.188   6.716  67.595  1.00  0.00    -0.148 OA 
BRANCH  19  20
HETATM   20  C   UNL     1     -10.490   5.499  68.275  1.00  0.00    -0.157 C  
BRANCH  20  21
HETATM   21  C   UNL     1     -10.598   5.800  69.766  1.00  0.00    -0.318 C  
BRANCH  21  22
HETATM   22  O   UNL     1      -9.634   5.037  70.490  1.00  0.00    -0.160 OA 
BRANCH  22  23
HETATM   23  C   UNL     1     -10.219   4.121  71.426  1.00  0.00    -0.021 C  
HETATM   24  C   UNL     1      -9.287   2.953  71.733  1.00  0.00    -0.193 C  
HETATM   25  C   UNL     1     -10.505   4.907  72.702  1.00  0.00    -0.261 C  
ENDBRANCH  22  23
ENDBRANCH  21  22
ENDBRANCH  20  21
ENDBRANCH  19  20
ENDBRANCH  18  19
ENDBRANCH  15  18
ENDBRANCH  11  12
ENDBRANCH  10  11
ENDBRANCH   7  10
ENDBRANCH   6   7
ENDBRANCH   4   6
ENDBRANCH   2   4
TORSDOF 12
ENDMDL
MODEL      154
REMARK 921   NORMALIZED FREE ENERGY PREDICTED BY IDOCK:   -3.94 KCAL/MOL
REMARK 922        TOTAL FREE ENERGY PREDICTED BY IDOCK:   -7.73 KCAL/MOL
REMARK 923 INTER-LIGAND FREE ENERGY PREDICTED BY IDOCK:   -7.26 KCAL/MOL
REMARK 924 INTRA-LIGAND FREE ENERGY PREDICTED BY IDOCK:   -0.47 KCAL/MOL
REMARK 927      BINDING AFFINITY PREDICTED BY RF-SCORE:    0.00 PKD
ROOT
HETATM    1  C   UNL     1      -8.564   9.293  66.976  1.00  0.00    -0.128 C  
HETATM    2  C   UNL     1      -8.127  10.322  65.931  1.00  0.00    -0.143 C  
HETATM    3  C   UNL     1      -6.659  10.087  65.565  1.00  0.00    -0.100 C  
ENDROOT
BRANCH   2   4
HETATM    4  N   UNL     1      -9.004  10.199  64.765  1.00  0.00    -0.185 NA 
HETATM    5  H   UNL     1      -9.000   9.243  64.410  1.00  0.00     0.000 HD 
BRANCH   4   6
HETATM    6  C   UNL     1     -10.378  10.656  65.014  1.00  0.00    -0.271 C  
BRANCH   6   7
HETATM    7  C   UNL     1     -10.875  11.505  63.831  1.00  0.00    -0.401 C  
HETATM    8  O   UNL     1     -10.551  10.844  62.597  1.00  0.00    -0.761 OA 
HETATM    9  H   UNL     1     -10.858  11.368  61.866  1.00  0.00     0.000 HD 
BRANCH   7  10
HETATM   10  C   UNL     1     -12.386  11.751  63.902  1.00  0.00    -0.288 C  
BRANCH  10  11
HETATM   11  O   UNL     1     -12.642  13.160  63.793  1.00  0.00    -0.684 OA 
BRANCH  11  12
HETATM   12  C   UNL     1     -12.140  13.916  64.819  1.00  0.00    -0.419 A  
HETATM   13  C   UNL     1     -12.488  13.765  66.161  1.00  0.00    -0.466 A  
HETATM   14  C   UNL     1     -11.922  14.596  67.131  1.00  0.00    -0.310 A  
HETATM   15  C   UNL     1     -10.993  15.584  66.778  1.00  0.00    -0.257 A  
HETATM   16  C   UNL     1     -10.622  15.709  65.436  1.00  0.00    -0.436 A  
HETATM   17  C   UNL     1     -11.188  14.872  64.464  1.00  0.00    -0.273 A  
BRANCH  15  18
HETATM   18  C   UNL     1     -10.428  16.496  67.836  1.00  0.00    -0.313 C  
BRANCH  18  19
HETATM   19  O   UNL     1      -9.078  16.800  67.498  1.00  0.00    -0.208 OA 
BRANCH  19  20
HETATM   20  C   UNL     1      -8.886  18.191  67.255  1.00  0.00    -0.251 C  
BRANCH  20  21
HETATM   21  C   UNL     1      -7.492  18.386  66.670  1.00  0.00    -0.229 C  
BRANCH  21  22
HETATM   22  O   UNL     1      -7.516  19.409  65.676  1.00  0.00    -0.407 OA 
BRANCH  22  23
HETATM   23  C   UNL     1      -6.213  19.777  65.206  1.00  0.00    -0.244 C  
HETATM   24  C   UNL     1      -5.433  18.570  64.694  1.00  0.00    -0.174 C  
HETATM   25  C   UNL     1      -6.411  20.784  64.077  1.00  0.00    -0.312 C  
ENDBRANCH  22  23
ENDBRANCH  21  22
ENDBRANCH  20  21
ENDBRANCH  19  20
ENDBRANCH  18  19
ENDBRANCH  15  18
ENDBRANCH  11  12
ENDBRANCH  10  11
ENDBRANCH   7  10
ENDBRANCH   6   7
ENDBRANCH   4   6
ENDBRANCH   2   4
TORSDOF 12
ENDMDL
MODEL      155
REMARK 921   NORMALIZED FREE ENERGY PREDICTED BY IDOCK:   -3.94 KCAL/MOL
REMARK 922        TOTAL FREE ENERGY PREDICTED BY IDOCK:   -7.73 KCAL/MOL
REMARK 923 INTER-LIGAND FREE ENERGY PREDICTED BY IDOCK:   -6.45 KCAL/MOL
REMARK 924 INTRA-LIGAND FREE ENERGY PREDICTED BY IDOCK:   -1.28 KCAL/MOL
REMARK 927      BINDING AFFINITY PREDICTED BY RF-SCORE:    0.00 PKD
ROOT
HETATM    1  C   UNL     1     -10.251  10.692  64.088  1.00  0.00    -0.365 C  
HETATM    2  C   UNL     1      -8.815  10.368  64.507  1.00  0.00    -0.207 C  
HETATM    3  C   UNL     1      -7.925  10.294  63.264  1.00  0.00    -0.148 C  
ENDROOT
BRANCH   2   4
HETATM    4  N   UNL     1      -8.361  11.401  65.440  1.00  0.00    -0.360 NA 
HETATM    5  H   UNL     1      -8.208  12.285  64.953  1.00  0.00     0.000 HD 
BRANCH   4   6
HETATM    6  C   UNL     1      -9.256  11.587  66.589  1.00  0.00    -0.186 C  
BRANCH   6   7
HETATM    7  C   UNL     1      -8.598  12.514  67.627  1.00  0.00    -0.178 C  
HETATM    8  O   UNL     1      -7.602  13.324  66.983  1.00  0.00    -0.374 OA 
HETATM    9  H   UNL     1      -7.195  13.896  67.624  1.00  0.00     0.000 HD 
BRANCH   7  10
HETATM   10  C   UNL     1      -9.626  13.415  68.319  1.00  0.00    -0.220 C  
BRANCH  10  11
HETATM   11  O   UNL     1     -10.559  13.905  67.342  1.00  0.00    -0.264 OA 
BRANCH  11  12
HETATM   12  C   UNL     1     -10.535  15.262  67.155  1.00  0.00    -0.280 A  
HETATM   13  C   UNL     1     -10.439  15.891  65.914  1.00  0.00    -0.373 A  
HETATM   14  C   UNL     1     -10.414  17.285  65.833  1.00  0.00    -0.267 A  
HETATM   15  C   UNL     1     -10.496  18.074  66.989  1.00  0.00    -0.361 A  
HETATM   16  C   UNL     1     -10.625  17.439  68.228  1.00  0.00    -0.366 A  
HETATM   17  C   UNL     1     -10.654  16.039  68.307  1.00  0.00    -0.283 A  
BRANCH  15  18
HETATM   18  C   UNL     1     -10.424  19.574  66.881  1.00  0.00    -0.477 C  
BRANCH  18  19
HETATM   19  O   UNL     1      -9.393  19.913  65.958  1.00  0.00    -0.386 OA 
BRANCH  19  20
HETATM   20  C   UNL     1      -8.143  20.134  66.608  1.00  0.00    -0.287 C  
BRANCH  20  21
HETATM   21  C   UNL     1      -7.172  19.048  66.160  1.00  0.00    -0.259 C  
BRANCH  21  22
HETATM   22  O   UNL     1      -6.044  19.008  67.032  1.00  0.00    -0.173 OA 
BRANCH  22  23
HETATM   23  C   UNL     1      -5.963  17.802  67.804  1.00  0.00    -0.153 C  
HETATM   24  C   UNL     1      -6.359  18.033  69.259  1.00  0.00    -0.249 C  
HETATM   25  C   UNL     1      -6.909  16.793  67.161  1.00  0.00    -0.231 C  
ENDBRANCH  22  23
ENDBRANCH  21  22
ENDBRANCH  20  21
ENDBRANCH  19  20
ENDBRANCH  18  19
ENDBRANCH  15  18
ENDBRANCH  11  12
ENDBRANCH  10  11
ENDBRANCH   7  10
ENDBRANCH   6   7
ENDBRANCH   4   6
ENDBRANCH   2   4
TORSDOF 12
ENDMDL
MODEL      156
REMARK 921   NORMALIZED FREE ENERGY PREDICTED BY IDOCK:   -3.93 KCAL/MOL
REMARK 922        TOTAL FREE ENERGY PREDICTED BY IDOCK:   -7.71 KCAL/MOL
REMARK 923 INTER-LIGAND FREE ENERGY PREDICTED BY IDOCK:   -5.96 KCAL/MOL
REMARK 924 INTRA-LIGAND FREE ENERGY PREDICTED BY IDOCK:   -1.75 KCAL/MOL
REMARK 927      BINDING AFFINITY PREDICTED BY RF-SCORE:    0.00 PKD
ROOT
HETATM    1  C   UNL     1      -9.749   9.104  65.586  1.00  0.00    -0.247 C  
HETATM    2  C   UNL     1      -9.607  10.184  64.511  1.00  0.00    -0.311 C  
HETATM    3  C   UNL     1     -10.690  11.248  64.711  1.00  0.00    -0.352 C  
ENDROOT
BRANCH   2   4
HETATM    4  N   UNL     1      -8.262  10.755  64.603  1.00  0.00    -0.364 NA 
HETATM    5  H   UNL     1      -8.243  11.530  65.266  1.00  0.00     0.000 HD 
BRANCH   4   6
HETATM    6  C   UNL     1      -7.227   9.765  64.930  1.00  0.00    -0.129 C  
BRANCH   6   7
HETATM    7  C   UNL     1      -6.059  10.445  65.666  1.00  0.00    -0.123 C  
HETATM    8  O   UNL     1      -5.306  11.241  64.737  1.00  0.00    -0.490 OA 
HETATM    9  H   UNL     1      -4.585  11.661  65.191  1.00  0.00     0.000 HD 
BRANCH   7  10
HETATM   10  C   UNL     1      -6.548  11.326  66.820  1.00  0.00    -0.140 C  
BRANCH  10  11
HETATM   11  O   UNL     1      -7.233  10.507  67.782  1.00  0.00    -0.083 OA 
BRANCH  11  12
HETATM   12  C   UNL     1      -8.439  11.001  68.202  1.00  0.00    -0.135 A  
HETATM   13  C   UNL     1      -8.965  12.238  67.828  1.00  0.00    -0.177 A  
HETATM   14  C   UNL     1     -10.204  12.652  68.321  1.00  0.00    -0.240 A  
HETATM   15  C   UNL     1     -10.943  11.835  69.188  1.00  0.00    -0.261 A  
HETATM   16  C   UNL     1     -10.427  10.583  69.534  1.00  0.00    -0.265 A  
HETATM   17  C   UNL     1      -9.185  10.166  69.035  1.00  0.00    -0.188 A  
BRANCH  15  18
HETATM   18  C   UNL     1     -12.257  12.322  69.741  1.00  0.00    -0.134 C  
BRANCH  18  19
HETATM   19  O   UNL     1     -11.995  13.360  70.681  1.00  0.00    -0.316 OA 
BRANCH  19  20
HETATM   20  C   UNL     1     -12.652  14.577  70.332  1.00  0.00    -0.346 C  
BRANCH  20  21
HETATM   21  C   UNL     1     -11.587  15.618  70.005  1.00  0.00    -0.350 C  
BRANCH  21  22
HETATM   22  O   UNL     1     -11.732  16.060  68.657  1.00  0.00    -0.382 OA 
BRANCH  22  23
HETATM   23  C   UNL     1     -10.483  16.351  68.016  1.00  0.00    -0.303 C  
HETATM   24  C   UNL     1     -10.465  17.756  67.421  1.00  0.00    -0.367 C  
HETATM   25  C   UNL     1      -9.394  16.221  69.076  1.00  0.00    -0.254 C  
ENDBRANCH  22  23
ENDBRANCH  21  22
ENDBRANCH  20  21
ENDBRANCH  19  20
ENDBRANCH  18  19
ENDBRANCH  15  18
ENDBRANCH  11  12
ENDBRANCH  10  11
ENDBRANCH   7  10
ENDBRANCH   6   7
ENDBRANCH   4   6
ENDBRANCH   2   4
TORSDOF 12
ENDMDL
MODEL      157
REMARK 921   NORMALIZED FREE ENERGY PREDICTED BY IDOCK:   -3.93 KCAL/MOL
REMARK 922        TOTAL FREE ENERGY PREDICTED BY IDOCK:   -7.71 KCAL/MOL
REMARK 923 INTER-LIGAND FREE ENERGY PREDICTED BY IDOCK:   -6.54 KCAL/MOL
REMARK 924 INTRA-LIGAND FREE ENERGY PREDICTED BY IDOCK:   -1.17 KCAL/MOL
REMARK 927      BINDING AFFINITY PREDICTED BY RF-SCORE:    0.00 PKD
ROOT
HETATM    1  C   UNL     1      -8.681   9.400  67.080  1.00  0.00    -0.135 C  
HETATM    2  C   UNL     1      -8.309  10.378  65.963  1.00  0.00    -0.149 C  
HETATM    3  C   UNL     1      -6.894  10.070  65.466  1.00  0.00    -0.120 C  
ENDROOT
BRANCH   2   4
HETATM    4  N   UNL     1      -9.299  10.257  64.891  1.00  0.00    -0.228 NA 
HETATM    5  H   UNL     1      -9.413   9.282  64.613  1.00  0.00     0.000 HD 
BRANCH   4   6
HETATM    6  C   UNL     1     -10.598  10.858  65.224  1.00  0.00    -0.189 C  
BRANCH   6   7
HETATM    7  C   UNL     1     -11.051  11.795  64.090  1.00  0.00    -0.374 C  
HETATM    8  O   UNL     1     -10.977  11.100  62.835  1.00  0.00    -0.809 OA 
HETATM    9  H   UNL     1     -11.257  11.678  62.135  1.00  0.00     0.000 HD 
BRANCH   7  10
HETATM   10  C   UNL     1     -12.478  12.308  64.311  1.00  0.00    -0.413 C  
BRANCH  10  11
HETATM   11  O   UNL     1     -12.504  13.732  64.126  1.00  0.00    -0.652 OA 
BRANCH  11  12
HETATM   12  C   UNL     1     -11.875  14.451  65.107  1.00  0.00    -0.386 A  
HETATM   13  C   UNL     1     -10.999  15.512  64.877  1.00  0.00    -0.452 A  
HETATM   14  C   UNL     1     -10.402  16.175  65.951  1.00  0.00    -0.384 A  
HETATM   15  C   UNL     1     -10.677  15.796  67.273  1.00  0.00    -0.313 A  
HETATM   16  C   UNL     1     -11.581  14.754  67.499  1.00  0.00    -0.379 A  
HETATM   17  C   UNL     1     -12.183  14.091  66.420  1.00  0.00    -0.492 A  
BRANCH  15  18
HETATM   18  C   UNL     1      -9.988  16.498  68.414  1.00  0.00    -0.250 C  
BRANCH  18  19
HETATM   19  O   UNL     1      -9.271  15.529  69.174  1.00  0.00    -0.211 OA 
BRANCH  19  20
HETATM   20  C   UNL     1      -7.932  15.368  68.711  1.00  0.00    -0.158 C  
BRANCH  20  21
HETATM   21  C   UNL     1      -7.046  15.053  69.911  1.00  0.00    -0.121 C  
BRANCH  21  22
HETATM   22  O   UNL     1      -6.053  14.095  69.549  1.00  0.00    -0.100 OA 
BRANCH  22  23
HETATM   23  C   UNL     1      -6.489  13.175  68.540  1.00  0.00    -0.085 C  
HETATM   24  C   UNL     1      -5.400  12.910  67.505  1.00  0.00    -0.057 C  
HETATM   25  C   UNL     1      -6.860  11.876  69.249  1.00  0.00    -0.080 C  
ENDBRANCH  22  23
ENDBRANCH  21  22
ENDBRANCH  20  21
ENDBRANCH  19  20
ENDBRANCH  18  19
ENDBRANCH  15  18
ENDBRANCH  11  12
ENDBRANCH  10  11
ENDBRANCH   7  10
ENDBRANCH   6   7
ENDBRANCH   4   6
ENDBRANCH   2   4
TORSDOF 12
ENDMDL
MODEL      158
REMARK 921   NORMALIZED FREE ENERGY PREDICTED BY IDOCK:   -3.93 KCAL/MOL
REMARK 922        TOTAL FREE ENERGY PREDICTED BY IDOCK:   -7.70 KCAL/MOL
REMARK 923 INTER-LIGAND FREE ENERGY PREDICTED BY IDOCK:   -6.54 KCAL/MOL
REMARK 924 INTRA-LIGAND FREE ENERGY PREDICTED BY IDOCK:   -1.16 KCAL/MOL
REMARK 927      BINDING AFFINITY PREDICTED BY RF-SCORE:    0.00 PKD
ROOT
HETATM    1  C   UNL     1     -12.256  14.878  64.273  1.00  0.00    -0.365 C  
HETATM    2  C   UNL     1     -11.147  15.059  65.312  1.00  0.00    -0.386 C  
HETATM    3  C   UNL     1     -10.056  14.010  65.083  1.00  0.00    -0.343 C  
ENDROOT
BRANCH   2   4
HETATM    4  N   UNL     1     -10.622  16.421  65.198  1.00  0.00    -0.663 NA 
HETATM    5  H   UNL     1     -11.284  17.097  65.580  1.00  0.00     0.000 HD 
BRANCH   4   6
HETATM    6  C   UNL     1      -9.296  16.591  65.807  1.00  0.00    -0.075 C  
BRANCH   6   7
HETATM    7  C   UNL     1      -9.363  17.638  66.934  1.00  0.00    -0.264 C  
HETATM    8  O   UNL     1     -10.721  18.073  67.104  1.00  0.00    -0.356 OA 
HETATM    9  H   UNL     1     -10.762  18.719  67.799  1.00  0.00     0.000 HD 
BRANCH   7  10
HETATM   10  C   UNL     1      -8.830  17.082  68.259  1.00  0.00    -0.242 C  
BRANCH  10  11
HETATM   11  O   UNL     1      -9.919  16.518  69.007  1.00  0.00    -0.250 OA 
BRANCH  11  12
HETATM   12  C   UNL     1     -10.071  15.164  68.869  1.00  0.00    -0.238 A  
HETATM   13  C   UNL     1     -11.287  14.487  68.957  1.00  0.00    -0.296 A  
HETATM   14  C   UNL     1     -11.332  13.099  68.808  1.00  0.00    -0.333 A  
HETATM   15  C   UNL     1     -10.164  12.365  68.559  1.00  0.00    -0.213 A  
HETATM   16  C   UNL     1      -8.952  13.052  68.438  1.00  0.00    -0.126 A  
HETATM   17  C   UNL     1      -8.909  14.445  68.584  1.00  0.00    -0.167 A  
BRANCH  15  18
HETATM   18  C   UNL     1     -10.230  10.865  68.444  1.00  0.00    -0.178 C  
BRANCH  18  19
HETATM   19  O   UNL     1      -9.234  10.302  69.292  1.00  0.00    -0.189 OA 
BRANCH  19  20
HETATM   20  C   UNL     1      -9.803   9.585  70.386  1.00  0.00    -0.271 C  
BRANCH  20  21
HETATM   21  C   UNL     1     -10.802   8.578  69.829  1.00  0.00    -0.175 C  
BRANCH  21  22
HETATM   22  O   UNL     1     -11.779   8.258  70.818  1.00  0.00    -0.277 OA 
BRANCH  22  23
HETATM   23  C   UNL     1     -11.928   6.850  71.038  1.00  0.00    -0.374 C  
HETATM   24  C   UNL     1     -11.131   6.031  70.027  1.00  0.00    -0.451 C  
HETATM   25  C   UNL     1     -11.430   6.560  72.450  1.00  0.00    -0.306 C  
ENDBRANCH  22  23
ENDBRANCH  21  22
ENDBRANCH  20  21
ENDBRANCH  19  20
ENDBRANCH  18  19
ENDBRANCH  15  18
ENDBRANCH  11  12
ENDBRANCH  10  11
ENDBRANCH   7  10
ENDBRANCH   6   7
ENDBRANCH   4   6
ENDBRANCH   2   4
TORSDOF 12
ENDMDL
MODEL      159
REMARK 921   NORMALIZED FREE ENERGY PREDICTED BY IDOCK:   -3.92 KCAL/MOL
REMARK 922        TOTAL FREE ENERGY PREDICTED BY IDOCK:   -7.69 KCAL/MOL
REMARK 923 INTER-LIGAND FREE ENERGY PREDICTED BY IDOCK:   -7.13 KCAL/MOL
REMARK 924 INTRA-LIGAND FREE ENERGY PREDICTED BY IDOCK:   -0.56 KCAL/MOL
REMARK 927      BINDING AFFINITY PREDICTED BY RF-SCORE:    0.00 PKD
ROOT
HETATM    1  C   UNL     1     -14.053  14.814  71.489  1.00  0.00    -0.566 C  
HETATM    2  C   UNL     1     -12.645  15.325  71.176  1.00  0.00    -0.393 C  
HETATM    3  C   UNL     1     -11.955  15.748  72.476  1.00  0.00    -0.600 C  
ENDROOT
BRANCH   2   4
HETATM    4  N   UNL     1     -11.907  14.263  70.491  1.00  0.00    -0.375 NA 
HETATM    5  H   UNL     1     -11.967  13.388  71.012  1.00  0.00     0.000 HD 
BRANCH   4   6
HETATM    6  C   UNL     1     -12.324  14.067  69.096  1.00  0.00    -0.134 C  
BRANCH   6   7
HETATM    7  C   UNL     1     -11.379  13.072  68.397  1.00  0.00    -0.291 C  
HETATM    8  O   UNL     1     -12.153  12.104  67.671  1.00  0.00    -0.522 OA 
HETATM    9  H   UNL     1     -11.570  11.491  67.240  1.00  0.00     0.000 HD 
BRANCH   7  10
HETATM   10  C   UNL     1     -10.413  13.781  67.441  1.00  0.00    -0.256 C  
BRANCH  10  11
HETATM   11  O   UNL     1     -11.078  14.905  66.843  1.00  0.00    -0.325 OA 
BRANCH  11  12
HETATM   12  C   UNL     1     -10.515  16.122  67.124  1.00  0.00    -0.305 A  
HETATM   13  C   UNL     1      -9.751  16.868  66.227  1.00  0.00    -0.301 A  
HETATM   14  C   UNL     1      -9.213  18.097  66.617  1.00  0.00    -0.295 A  
HETATM   15  C   UNL     1      -9.438  18.605  67.904  1.00  0.00    -0.331 A  
HETATM   16  C   UNL     1     -10.233  17.868  68.787  1.00  0.00    -0.362 A  
HETATM   17  C   UNL     1     -10.776  16.637  68.394  1.00  0.00    -0.353 A  
BRANCH  15  18
HETATM   18  C   UNL     1      -8.813  19.912  68.315  1.00  0.00    -0.218 C  
BRANCH  18  19
HETATM   19  O   UNL     1      -7.398  19.788  68.214  1.00  0.00    -0.300 OA 
BRANCH  19  20
HETATM   20  C   UNL     1      -6.847  19.032  69.291  1.00  0.00    -0.283 C  
BRANCH  20  21
HETATM   21  C   UNL     1      -6.151  17.807  68.708  1.00  0.00    -0.195 C  
BRANCH  21  22
HETATM   22  O   UNL     1      -6.057  16.781  69.694  1.00  0.00    -0.204 OA 
BRANCH  22  23
HETATM   23  C   UNL     1      -6.836  15.619  69.384  1.00  0.00    -0.186 C  
HETATM   24  C   UNL     1      -6.684  15.209  67.922  1.00  0.00    -0.168 C  
HETATM   25  C   UNL     1      -6.348  14.495  70.292  1.00  0.00    -0.170 C  
ENDBRANCH  22  23
ENDBRANCH  21  22
ENDBRANCH  20  21
ENDBRANCH  19  20
ENDBRANCH  18  19
ENDBRANCH  15  18
ENDBRANCH  11  12
ENDBRANCH  10  11
ENDBRANCH   7  10
ENDBRANCH   6   7
ENDBRANCH   4   6
ENDBRANCH   2   4
TORSDOF 12
ENDMDL
MODEL      160
REMARK 921   NORMALIZED FREE ENERGY PREDICTED BY IDOCK:   -3.91 KCAL/MOL
REMARK 922        TOTAL FREE ENERGY PREDICTED BY IDOCK:   -7.67 KCAL/MOL
REMARK 923 INTER-LIGAND FREE ENERGY PREDICTED BY IDOCK:   -6.67 KCAL/MOL
REMARK 924 INTRA-LIGAND FREE ENERGY PREDICTED BY IDOCK:   -1.00 KCAL/MOL
REMARK 927      BINDING AFFINITY PREDICTED BY RF-SCORE:    0.00 PKD
ROOT
HETATM    1  C   UNL     1     -10.864  12.992  68.449  1.00  0.00    -0.280 C  
HETATM    2  C   UNL     1     -11.904  13.726  67.600  1.00  0.00    -0.378 C  
HETATM    3  C   UNL     1     -11.377  15.116  67.237  1.00  0.00    -0.305 C  
ENDROOT
BRANCH   2   4
HETATM    4  N   UNL     1     -12.180  12.922  66.408  1.00  0.00    -0.482 NA 
HETATM    5  H   UNL     1     -12.928  12.252  66.589  1.00  0.00     0.000 HD 
BRANCH   4   6
HETATM    6  C   UNL     1     -12.480  13.726  65.215  1.00  0.00    -0.480 C  
BRANCH   6   7
HETATM    7  C   UNL     1     -11.609  13.264  64.034  1.00  0.00    -0.409 C  
HETATM    8  O   UNL     1     -10.272  13.763  64.200  1.00  0.00    -0.705 OA 
HETATM    9  H   UNL     1      -9.734  13.478  63.470  1.00  0.00     0.000 HD 
BRANCH   7  10
HETATM   10  C   UNL     1     -11.577  11.736  63.913  1.00  0.00    -0.377 C  
BRANCH  10  11
HETATM   11  O   UNL     1     -10.231  11.310  63.647  1.00  0.00    -0.320 OA 
BRANCH  11  12
HETATM   12  C   UNL     1      -9.776  10.306  64.459  1.00  0.00    -0.329 A  
HETATM   13  C   UNL     1      -8.795   9.380  64.104  1.00  0.00    -0.216 A  
HETATM   14  C   UNL     1      -8.407   8.387  65.006  1.00  0.00    -0.169 A  
HETATM   15  C   UNL     1      -8.985   8.308  66.280  1.00  0.00    -0.221 A  
HETATM   16  C   UNL     1      -9.943   9.258  66.644  1.00  0.00    -0.333 A  
HETATM   17  C   UNL     1     -10.329  10.257  65.739  1.00  0.00    -0.236 A  
BRANCH  15  18
HETATM   18  C   UNL     1      -8.581   7.202  67.220  1.00  0.00    -0.121 C  
BRANCH  18  19
HETATM   19  O   UNL     1      -8.335   6.026  66.456  1.00  0.00    -0.109 OA 
BRANCH  19  20
HETATM   20  C   UNL     1      -9.319   5.020  66.686  1.00  0.00    -0.138 C  
BRANCH  20  21
HETATM   21  C   UNL     1     -10.148   5.431  67.898  1.00  0.00    -0.168 C  
BRANCH  21  22
HETATM   22  O   UNL     1      -9.931   4.517  68.972  1.00  0.00    -0.165 OA 
BRANCH  22  23
HETATM   23  C   UNL     1      -9.978   5.136  70.265  1.00  0.00    -0.250 C  
HETATM   24  C   UNL     1      -8.594   5.570  70.736  1.00  0.00    -0.128 C  
HETATM   25  C   UNL     1     -10.892   6.352  70.147  1.00  0.00    -0.355 C  
ENDBRANCH  22  23
ENDBRANCH  21  22
ENDBRANCH  20  21
ENDBRANCH  19  20
ENDBRANCH  18  19
ENDBRANCH  15  18
ENDBRANCH  11  12
ENDBRANCH  10  11
ENDBRANCH   7  10
ENDBRANCH   6   7
ENDBRANCH   4   6
ENDBRANCH   2   4
TORSDOF 12
ENDMDL
MODEL      161
REMARK 921   NORMALIZED FREE ENERGY PREDICTED BY IDOCK:   -3.89 KCAL/MOL
REMARK 922        TOTAL FREE ENERGY PREDICTED BY IDOCK:   -7.64 KCAL/MOL
REMARK 923 INTER-LIGAND FREE ENERGY PREDICTED BY IDOCK:   -6.22 KCAL/MOL
REMARK 924 INTRA-LIGAND FREE ENERGY PREDICTED BY IDOCK:   -1.41 KCAL/MOL
REMARK 927      BINDING AFFINITY PREDICTED BY RF-SCORE:    0.00 PKD
ROOT
HETATM    1  C   UNL     1     -11.580  15.199  68.040  1.00  0.00    -0.345 C  
HETATM    2  C   UNL     1     -11.325  13.947  67.198  1.00  0.00    -0.327 C  
HETATM    3  C   UNL     1     -11.902  12.724  67.914  1.00  0.00    -0.392 C  
ENDROOT
BRANCH   2   4
HETATM    4  N   UNL     1     -11.934  14.143  65.881  1.00  0.00    -0.392 NA 
HETATM    5  H   UNL     1     -11.272  14.576  65.237  1.00  0.00     0.000 HD 
BRANCH   4   6
HETATM    6  C   UNL     1     -12.490  12.911  65.304  1.00  0.00    -0.493 C  
BRANCH   6   7
HETATM    7  C   UNL     1     -11.837  12.625  63.940  1.00  0.00    -0.467 C  
HETATM    8  O   UNL     1     -12.180  13.670  63.016  1.00  0.00    -0.995 OA 
HETATM    9  H   UNL     1     -11.776  13.493  62.174  1.00  0.00     0.000 HD 
BRANCH   7  10
HETATM   10  C   UNL     1     -10.313  12.514  64.051  1.00  0.00    -0.404 C  
BRANCH  10  11
HETATM   11  O   UNL     1      -9.952  11.138  64.251  1.00  0.00    -0.255 OA 
BRANCH  11  12
HETATM   12  C   UNL     1      -9.745  10.783  65.558  1.00  0.00    -0.239 A  
HETATM   13  C   UNL     1     -10.330   9.682  66.183  1.00  0.00    -0.202 A  
HETATM   14  C   UNL     1     -10.059   9.412  67.526  1.00  0.00    -0.268 A  
HETATM   15  C   UNL     1      -9.191  10.229  68.263  1.00  0.00    -0.139 A  
HETATM   16  C   UNL     1      -8.581  11.311  67.622  1.00  0.00    -0.124 A  
HETATM   17  C   UNL     1      -8.851  11.580  66.273  1.00  0.00    -0.186 A  
BRANCH  15  18
HETATM   18  C   UNL     1      -8.946   9.943  69.722  1.00  0.00    -0.221 C  
BRANCH  18  19
HETATM   19  O   UNL     1      -7.587  10.243  70.021  1.00  0.00    -0.163 OA 
BRANCH  19  20
HETATM   20  C   UNL     1      -6.779   9.070  70.085  1.00  0.00    -0.047 C  
BRANCH  20  21
HETATM   21  C   UNL     1      -7.675   7.894  70.457  1.00  0.00    -0.086 C  
BRANCH  21  22
HETATM   22  O   UNL     1      -7.335   6.752  69.672  1.00  0.00    -0.082 OA 
BRANCH  22  23
HETATM   23  C   UNL     1      -8.424   5.837  69.496  1.00  0.00    -0.112 C  
HETATM   24  C   UNL     1      -9.733   6.404  70.037  1.00  0.00    -0.183 C  
HETATM   25  C   UNL     1      -8.551   5.574  67.999  1.00  0.00    -0.100 C  
ENDBRANCH  22  23
ENDBRANCH  21  22
ENDBRANCH  20  21
ENDBRANCH  19  20
ENDBRANCH  18  19
ENDBRANCH  15  18
ENDBRANCH  11  12
ENDBRANCH  10  11
ENDBRANCH   7  10
ENDBRANCH   6   7
ENDBRANCH   4   6
ENDBRANCH   2   4
TORSDOF 12
ENDMDL
MODEL      162
REMARK 921   NORMALIZED FREE ENERGY PREDICTED BY IDOCK:   -3.89 KCAL/MOL
REMARK 922        TOTAL FREE ENERGY PREDICTED BY IDOCK:   -7.64 KCAL/MOL
REMARK 923 INTER-LIGAND FREE ENERGY PREDICTED BY IDOCK:   -6.30 KCAL/MOL
REMARK 924 INTRA-LIGAND FREE ENERGY PREDICTED BY IDOCK:   -1.34 KCAL/MOL
REMARK 927      BINDING AFFINITY PREDICTED BY RF-SCORE:    0.00 PKD
ROOT
HETATM    1  C   UNL     1     -11.714  14.700  68.694  1.00  0.00    -0.362 C  
HETATM    2  C   UNL     1     -11.387  13.244  68.353  1.00  0.00    -0.291 C  
HETATM    3  C   UNL     1     -11.858  12.335  69.490  1.00  0.00    -0.380 C  
ENDROOT
BRANCH   2   4
HETATM    4  N   UNL     1     -12.036  12.909  67.084  1.00  0.00    -0.372 NA 
HETATM    5  H   UNL     1     -12.176  13.745  66.517  1.00  0.00     0.000 HD 
BRANCH   4   6
HETATM    6  C   UNL     1     -11.327  11.874  66.319  1.00  0.00    -0.334 C  
BRANCH   6   7
HETATM    7  C   UNL     1     -11.293  12.251  64.827  1.00  0.00    -0.323 C  
HETATM    8  O   UNL     1     -12.636  12.389  64.337  1.00  0.00    -0.542 OA 
HETATM    9  H   UNL     1     -12.615  12.621  63.416  1.00  0.00     0.000 HD 
BRANCH   7  10
HETATM   10  C   UNL     1     -10.519  13.551  64.586  1.00  0.00    -0.421 C  
BRANCH  10  11
HETATM   11  O   UNL     1     -11.326  14.665  65.000  1.00  0.00    -0.355 OA 
BRANCH  11  12
HETATM   12  C   UNL     1     -10.620  15.766  65.407  1.00  0.00    -0.421 A  
HETATM   13  C   UNL     1      -9.340  15.729  65.960  1.00  0.00    -0.384 A  
HETATM   14  C   UNL     1      -8.709  16.912  66.351  1.00  0.00    -0.321 A  
HETATM   15  C   UNL     1      -9.342  18.153  66.186  1.00  0.00    -0.147 A  
HETATM   16  C   UNL     1     -10.611  18.187  65.600  1.00  0.00    -0.104 A  
HETATM   17  C   UNL     1     -11.242  16.999  65.205  1.00  0.00     0.246 A  
BRANCH  15  18
HETATM   18  C   UNL     1      -8.660  19.411  66.654  1.00  0.00    -0.329 C  
BRANCH  18  19
HETATM   19  O   UNL     1      -7.282  19.339  66.299  1.00  0.00    -0.226 OA 
BRANCH  19  20
HETATM   20  C   UNL     1      -6.535  20.435  66.821  1.00  0.00    -0.219 C  
BRANCH  20  21
HETATM   21  C   UNL     1      -5.545  19.892  67.846  1.00  0.00    -0.200 C  
BRANCH  21  22
HETATM   22  O   UNL     1      -5.795  18.508  68.083  1.00  0.00    -0.183 OA 
BRANCH  22  23
HETATM   23  C   UNL     1      -6.368  18.244  69.370  1.00  0.00    -0.250 C  
HETATM   24  C   UNL     1      -7.151  16.934  69.384  1.00  0.00    -0.126 C  
HETATM   25  C   UNL     1      -5.217  18.172  70.368  1.00  0.00    -0.250 C  
ENDBRANCH  22  23
ENDBRANCH  21  22
ENDBRANCH  20  21
ENDBRANCH  19  20
ENDBRANCH  18  19
ENDBRANCH  15  18
ENDBRANCH  11  12
ENDBRANCH  10  11
ENDBRANCH   7  10
ENDBRANCH   6   7
ENDBRANCH   4   6
ENDBRANCH   2   4
TORSDOF 12
ENDMDL
MODEL      163
REMARK 921   NORMALIZED FREE ENERGY PREDICTED BY IDOCK:   -3.88 KCAL/MOL
REMARK 922        TOTAL FREE ENERGY PREDICTED BY IDOCK:   -7.62 KCAL/MOL
REMARK 923 INTER-LIGAND FREE ENERGY PREDICTED BY IDOCK:   -6.61 KCAL/MOL
REMARK 924 INTRA-LIGAND FREE ENERGY PREDICTED BY IDOCK:   -1.01 KCAL/MOL
REMARK 927      BINDING AFFINITY PREDICTED BY RF-SCORE:    0.00 PKD
ROOT
HETATM    1  C   UNL     1     -14.014  14.806  71.476  1.00  0.00    -0.548 C  
HETATM    2  C   UNL     1     -12.527  15.120  71.292  1.00  0.00    -0.344 C  
HETATM    3  C   UNL     1     -11.936  15.587  72.625  1.00  0.00    -0.562 C  
ENDROOT
BRANCH   2   4
HETATM    4  N   UNL     1     -11.858  13.918  70.792  1.00  0.00    -0.510 NA 
HETATM    5  H   UNL     1     -12.150  13.096  71.321  1.00  0.00     0.000 HD 
BRANCH   4   6
HETATM    6  C   UNL     1     -12.043  13.702  69.350  1.00  0.00    -0.314 C  
BRANCH   6   7
HETATM    7  C   UNL     1     -11.384  12.377  68.926  1.00  0.00    -0.294 C  
HETATM    8  O   UNL     1     -12.274  11.655  68.061  1.00  0.00    -0.551 OA 
HETATM    9  H   UNL     1     -11.867  10.837  67.799  1.00  0.00     0.000 HD 
BRANCH   7  10
HETATM   10  C   UNL     1     -10.047  12.610  68.213  1.00  0.00    -0.233 C  
BRANCH  10  11
HETATM   11  O   UNL     1      -9.146  11.538  68.535  1.00  0.00    -0.175 OA 
BRANCH  11  12
HETATM   12  C   UNL     1      -8.711  10.811  67.459  1.00  0.00    -0.125 A  
HETATM   13  C   UNL     1      -7.480  10.988  66.827  1.00  0.00    -0.139 A  
HETATM   14  C   UNL     1      -7.135  10.197  65.729  1.00  0.00    -0.127 A  
HETATM   15  C   UNL     1      -8.008   9.210  65.251  1.00  0.00    -0.111 A  
HETATM   16  C   UNL     1      -9.226   9.014  65.909  1.00  0.00    -0.290 A  
HETATM   17  C   UNL     1      -9.570   9.806  67.014  1.00  0.00    -0.218 A  
BRANCH  15  18
HETATM   18  C   UNL     1      -7.632   8.398  64.039  1.00  0.00    -0.126 C  
BRANCH  18  19
HETATM   19  O   UNL     1      -7.608   9.261  62.906  1.00  0.00    -0.104 OA 
BRANCH  19  20
HETATM   20  C   UNL     1      -8.915   9.510  62.393  1.00  0.00    -0.265 C  
BRANCH  20  21
HETATM   21  C   UNL     1      -9.215  10.996  62.551  1.00  0.00    -0.299 C  
BRANCH  21  22
HETATM   22  O   UNL     1     -10.625  11.209  62.596  1.00  0.00     0.122 OA 
BRANCH  22  23
HETATM   23  C   UNL     1     -11.088  11.688  63.866  1.00  0.00    -0.401 C  
HETATM   24  C   UNL     1     -10.244  12.852  64.375  1.00  0.00    -0.342 C  
HETATM   25  C   UNL     1     -12.533  12.139  63.675  1.00  0.00    -0.658 C  
ENDBRANCH  22  23
ENDBRANCH  21  22
ENDBRANCH  20  21
ENDBRANCH  19  20
ENDBRANCH  18  19
ENDBRANCH  15  18
ENDBRANCH  11  12
ENDBRANCH  10  11
ENDBRANCH   7  10
ENDBRANCH   6   7
ENDBRANCH   4   6
ENDBRANCH   2   4
TORSDOF 12
ENDMDL
MODEL      164
REMARK 921   NORMALIZED FREE ENERGY PREDICTED BY IDOCK:   -3.88 KCAL/MOL
REMARK 922        TOTAL FREE ENERGY PREDICTED BY IDOCK:   -7.62 KCAL/MOL
REMARK 923 INTER-LIGAND FREE ENERGY PREDICTED BY IDOCK:   -6.65 KCAL/MOL
REMARK 924 INTRA-LIGAND FREE ENERGY PREDICTED BY IDOCK:   -0.97 KCAL/MOL
REMARK 927      BINDING AFFINITY PREDICTED BY RF-SCORE:    0.00 PKD
ROOT
HETATM    1  C   UNL     1     -11.220  15.618  67.961  1.00  0.00    -0.339 C  
HETATM    2  C   UNL     1     -11.027  14.207  67.401  1.00  0.00    -0.299 C  
HETATM    3  C   UNL     1     -11.717  13.194  68.318  1.00  0.00    -0.384 C  
ENDROOT
BRANCH   2   4
HETATM    4  N   UNL     1     -11.573  14.169  66.043  1.00  0.00    -0.350 NA 
HETATM    5  H   UNL     1     -10.980  14.695  65.400  1.00  0.00     0.000 HD 
BRANCH   4   6
HETATM    6  C   UNL     1     -11.803  12.807  65.541  1.00  0.00    -0.422 C  
BRANCH   6   7
HETATM    7  C   UNL     1     -10.797  12.479  64.423  1.00  0.00    -0.342 C  
HETATM    8  O   UNL     1      -9.820  13.528  64.334  1.00  0.00    -0.659 OA 
HETATM    9  H   UNL     1      -9.199  13.326  63.644  1.00  0.00     0.000 HD 
BRANCH   7  10
HETATM   10  C   UNL     1     -10.094  11.139  64.665  1.00  0.00    -0.302 C  
BRANCH  10  11
HETATM   11  O   UNL     1      -9.146  11.289  65.735  1.00  0.00    -0.208 OA 
BRANCH  11  12
HETATM   12  C   UNL     1      -9.377  10.489  66.823  1.00  0.00    -0.157 A  
HETATM   13  C   UNL     1      -9.102  10.845  68.143  1.00  0.00    -0.155 A  
HETATM   14  C   UNL     1      -9.368   9.950  69.181  1.00  0.00    -0.197 A  
HETATM   15  C   UNL     1      -9.923   8.689  68.920  1.00  0.00    -0.197 A  
HETATM   16  C   UNL     1     -10.228   8.350  67.598  1.00  0.00    -0.298 A  
HETATM   17  C   UNL     1      -9.964   9.251  66.557  1.00  0.00    -0.344 A  
BRANCH  15  18
HETATM   18  C   UNL     1     -10.161   7.724  70.052  1.00  0.00    -0.210 C  
BRANCH  18  19
HETATM   19  O   UNL     1     -10.789   8.426  71.120  1.00  0.00    -0.224 OA 
BRANCH  19  20
HETATM   20  C   UNL     1     -11.676   7.592  71.863  1.00  0.00    -0.284 C  
BRANCH  20  21
HETATM   21  C   UNL     1     -11.015   7.260  73.196  1.00  0.00    -0.340 C  
BRANCH  21  22
HETATM   22  O   UNL     1     -10.115   6.164  73.038  1.00  0.00    -0.173 OA 
BRANCH  22  23
HETATM   23  C   UNL     1     -10.730   4.998  72.475  1.00  0.00    -0.212 C  
HETATM   24  C   UNL     1      -9.753   4.200  71.617  1.00  0.00    -0.246 C  
HETATM   25  C   UNL     1     -11.218   4.142  73.640  1.00  0.00    -0.312 C  
ENDBRANCH  22  23
ENDBRANCH  21  22
ENDBRANCH  20  21
ENDBRANCH  19  20
ENDBRANCH  18  19
ENDBRANCH  15  18
ENDBRANCH  11  12
ENDBRANCH  10  11
ENDBRANCH   7  10
ENDBRANCH   6   7
ENDBRANCH   4   6
ENDBRANCH   2   4
TORSDOF 12
ENDMDL
MODEL      165
REMARK 921   NORMALIZED FREE ENERGY PREDICTED BY IDOCK:   -3.87 KCAL/MOL
REMARK 922        TOTAL FREE ENERGY PREDICTED BY IDOCK:   -7.61 KCAL/MOL
REMARK 923 INTER-LIGAND FREE ENERGY PREDICTED BY IDOCK:   -6.75 KCAL/MOL
REMARK 924 INTRA-LIGAND FREE ENERGY PREDICTED BY IDOCK:   -0.85 KCAL/MOL
REMARK 927      BINDING AFFINITY PREDICTED BY RF-SCORE:    0.00 PKD
ROOT
HETATM    1  C   UNL     1     -11.301  15.651  64.584  1.00  0.00    -0.355 C  
HETATM    2  C   UNL     1     -10.161  15.490  65.592  1.00  0.00    -0.376 C  
HETATM    3  C   UNL     1     -10.270  16.578  66.664  1.00  0.00    -0.302 C  
ENDROOT
BRANCH   2   4
HETATM    4  N   UNL     1     -10.241  14.148  66.171  1.00  0.00    -0.295 NA 
HETATM    5  H   UNL     1      -9.352  13.886  66.599  1.00  0.00     0.000 HD 
BRANCH   4   6
HETATM    6  C   UNL     1     -11.345  13.987  67.127  1.00  0.00    -0.331 C  
BRANCH   6   7
HETATM    7  C   UNL     1     -10.880  13.157  68.337  1.00  0.00    -0.262 C  
HETATM    8  O   UNL     1     -10.866  13.986  69.510  1.00  0.00    -0.408 OA 
HETATM    9  H   UNL     1     -10.579  13.474  70.257  1.00  0.00     0.000 HD 
BRANCH   7  10
HETATM   10  C   UNL     1     -11.783  11.942  68.575  1.00  0.00    -0.330 C  
BRANCH  10  11
HETATM   11  O   UNL     1     -12.277  11.977  69.924  1.00  0.00    -0.254 OA 
BRANCH  11  12
HETATM   12  C   UNL     1     -12.053  10.835  70.647  1.00  0.00    -0.370 A  
HETATM   13  C   UNL     1     -12.973  10.253  71.518  1.00  0.00    -0.556 A  
HETATM   14  C   UNL     1     -12.640   9.090  72.216  1.00  0.00    -0.445 A  
HETATM   15  C   UNL     1     -11.388   8.484  72.047  1.00  0.00    -0.425 A  
HETATM   16  C   UNL     1     -10.481   9.053  71.148  1.00  0.00    -0.363 A  
HETATM   17  C   UNL     1     -10.818  10.218  70.445  1.00  0.00    -0.320 A  
BRANCH  15  18
HETATM   18  C   UNL     1     -11.036   7.254  72.843  1.00  0.00    -0.337 C  
BRANCH  18  19
HETATM   19  O   UNL     1     -11.766   6.150  72.317  1.00  0.00    -0.309 OA 
BRANCH  19  20
HETATM   20  C   UNL     1     -11.151   5.607  71.150  1.00  0.00    -0.132 C  
BRANCH  20  21
HETATM   21  C   UNL     1      -9.743   5.154  71.519  1.00  0.00    -0.166 C  
BRANCH  21  22
HETATM   22  O   UNL     1      -8.892   5.217  70.375  1.00  0.00    -0.120 OA 
BRANCH  22  23
HETATM   23  C   UNL     1      -8.244   6.486  70.216  1.00  0.00    -0.126 C  
HETATM   24  C   UNL     1      -6.748   6.398  70.503  1.00  0.00    -0.053 C  
HETATM   25  C   UNL     1      -8.472   6.929  68.775  1.00  0.00    -0.121 C  
ENDBRANCH  22  23
ENDBRANCH  21  22
ENDBRANCH  20  21
ENDBRANCH  19  20
ENDBRANCH  18  19
ENDBRANCH  15  18
ENDBRANCH  11  12
ENDBRANCH  10  11
ENDBRANCH   7  10
ENDBRANCH   6   7
ENDBRANCH   4   6
ENDBRANCH   2   4
TORSDOF 12
ENDMDL
MODEL      166
REMARK 921   NORMALIZED FREE ENERGY PREDICTED BY IDOCK:   -3.86 KCAL/MOL
REMARK 922        TOTAL FREE ENERGY PREDICTED BY IDOCK:   -7.59 KCAL/MOL
REMARK 923 INTER-LIGAND FREE ENERGY PREDICTED BY IDOCK:   -6.51 KCAL/MOL
REMARK 924 INTRA-LIGAND FREE ENERGY PREDICTED BY IDOCK:   -1.07 KCAL/MOL
REMARK 927      BINDING AFFINITY PREDICTED BY RF-SCORE:    0.00 PKD
ROOT
HETATM    1  C   UNL     1     -11.406  15.513  64.597  1.00  0.00    -0.363 C  
HETATM    2  C   UNL     1     -10.703  14.693  65.682  1.00  0.00    -0.332 C  
HETATM    3  C   UNL     1     -11.735  14.204  66.701  1.00  0.00    -0.422 C  
ENDROOT
BRANCH   2   4
HETATM    4  N   UNL     1     -10.004  13.578  65.040  1.00  0.00    -0.581 NA 
HETATM    5  H   UNL     1      -9.845  12.821  65.704  1.00  0.00     0.000 HD 
BRANCH   4   6
HETATM    6  C   UNL     1     -10.679  13.080  63.834  1.00  0.00    -0.284 C  
BRANCH   6   7
HETATM    7  C   UNL     1     -11.233  11.666  64.084  1.00  0.00    -0.345 C  
HETATM    8  O   UNL     1     -12.150  11.317  63.035  1.00  0.00    -0.869 OA 
HETATM    9  H   UNL     1     -12.492  10.444  63.190  1.00  0.00     0.000 HD 
BRANCH   7  10
HETATM   10  C   UNL     1     -10.114  10.622  64.158  1.00  0.00    -0.334 C  
BRANCH  10  11
HETATM   11  O   UNL     1      -9.312  10.869  65.324  1.00  0.00    -0.197 OA 
BRANCH  11  12
HETATM   12  C   UNL     1      -9.682  10.161  66.437  1.00  0.00    -0.205 A  
HETATM   13  C   UNL     1      -9.935   8.790  66.458  1.00  0.00    -0.360 A  
HETATM   14  C   UNL     1     -10.316   8.164  67.647  1.00  0.00    -0.313 A  
HETATM   15  C   UNL     1     -10.439   8.895  68.836  1.00  0.00    -0.225 A  
HETATM   16  C   UNL     1     -10.152  10.263  68.817  1.00  0.00    -0.198 A  
HETATM   17  C   UNL     1      -9.766  10.889  67.624  1.00  0.00    -0.188 A  
BRANCH  15  18
HETATM   18  C   UNL     1     -10.893   8.207  70.097  1.00  0.00    -0.241 C  
BRANCH  18  19
HETATM   19  O   UNL     1     -11.430   6.934  69.750  1.00  0.00    -0.259 OA 
BRANCH  19  20
HETATM   20  C   UNL     1     -11.046   5.919  70.675  1.00  0.00    -0.265 C  
BRANCH  20  21
HETATM   21  C   UNL     1      -9.684   6.289  71.251  1.00  0.00    -0.174 C  
BRANCH  21  22
HETATM   22  O   UNL     1      -8.689   5.382  70.778  1.00  0.00    -0.128 OA 
BRANCH  22  23
HETATM   23  C   UNL     1      -7.455   5.461  71.505  1.00  0.00    -0.101 C  
HETATM   24  C   UNL     1      -7.689   5.668  72.998  1.00  0.00    -0.101 C  
HETATM   25  C   UNL     1      -6.713   4.149  71.272  1.00  0.00    -0.030 C  
ENDBRANCH  22  23
ENDBRANCH  21  22
ENDBRANCH  20  21
ENDBRANCH  19  20
ENDBRANCH  18  19
ENDBRANCH  15  18
ENDBRANCH  11  12
ENDBRANCH  10  11
ENDBRANCH   7  10
ENDBRANCH   6   7
ENDBRANCH   4   6
ENDBRANCH   2   4
TORSDOF 12
ENDMDL
MODEL      167
REMARK 921   NORMALIZED FREE ENERGY PREDICTED BY IDOCK:   -3.85 KCAL/MOL
REMARK 922        TOTAL FREE ENERGY PREDICTED BY IDOCK:   -7.56 KCAL/MOL
REMARK 923 INTER-LIGAND FREE ENERGY PREDICTED BY IDOCK:   -6.73 KCAL/MOL
REMARK 924 INTRA-LIGAND FREE ENERGY PREDICTED BY IDOCK:   -0.83 KCAL/MOL
REMARK 927      BINDING AFFINITY PREDICTED BY RF-SCORE:    0.00 PKD
ROOT
HETATM    1  C   UNL     1      -9.914   8.029  71.186  1.00  0.00    -0.206 C  
HETATM    2  C   UNL     1     -10.766   7.048  70.377  1.00  0.00    -0.234 C  
HETATM    3  C   UNL     1     -12.175   6.984  70.972  1.00  0.00    -0.419 C  
ENDROOT
BRANCH   2   4
HETATM    4  N   UNL     1     -10.785   7.492  68.982  1.00  0.00    -0.358 NA 
HETATM    5  H   UNL     1     -10.678   8.505  68.924  1.00  0.00     0.000 HD 
BRANCH   4   6
HETATM    6  C   UNL     1      -9.792   6.815  68.138  1.00  0.00    -0.137 C  
BRANCH   6   7
HETATM    7  C   UNL     1      -8.575   7.731  67.915  1.00  0.00    -0.122 C  
HETATM    8  O   UNL     1      -7.373   6.945  67.944  1.00  0.00    -0.092 OA 
HETATM    9  H   UNL     1      -6.621   7.511  67.806  1.00  0.00     0.000 HD 
BRANCH   7  10
HETATM   10  C   UNL     1      -8.667   8.485  66.585  1.00  0.00    -0.125 C  
BRANCH  10  11
HETATM   11  O   UNL     1     -10.049   8.675  66.242  1.00  0.00    -0.277 OA 
BRANCH  11  12
HETATM   12  C   UNL     1     -10.426   9.981  66.078  1.00  0.00    -0.074 A  
HETATM   13  C   UNL     1     -10.204  10.733  64.924  1.00  0.00    -0.388 A  
HETATM   14  C   UNL     1     -10.623  12.064  64.862  1.00  0.00    -0.334 A  
HETATM   15  C   UNL     1     -11.279  12.663  65.947  1.00  0.00    -0.350 A  
HETATM   16  C   UNL     1     -11.529  11.895  67.088  1.00  0.00    -0.386 A  
HETATM   17  C   UNL     1     -11.112  10.557  67.148  1.00  0.00    -0.232 A  
BRANCH  15  18
HETATM   18  C   UNL     1     -11.683  14.112  65.873  1.00  0.00    -0.365 C  
BRANCH  18  19
HETATM   19  O   UNL     1     -10.683  14.894  66.519  1.00  0.00    -0.296 OA 
BRANCH  19  20
HETATM   20  C   UNL     1     -10.445  16.126  65.843  1.00  0.00    -0.352 C  
BRANCH  20  21
HETATM   21  C   UNL     1      -9.209  16.776  66.454  1.00  0.00    -0.279 C  
BRANCH  21  22
HETATM   22  O   UNL     1      -9.106  18.133  66.025  1.00  0.00    -0.513 OA 
BRANCH  22  23
HETATM   23  C   UNL     1      -9.042  19.069  67.108  1.00  0.00    -0.283 C  
HETATM   24  C   UNL     1     -10.361  19.816  67.290  1.00  0.00    -0.581 C  
HETATM   25  C   UNL     1      -8.717  18.275  68.369  1.00  0.00    -0.325 C  
ENDBRANCH  22  23
ENDBRANCH  21  22
ENDBRANCH  20  21
ENDBRANCH  19  20
ENDBRANCH  18  19
ENDBRANCH  15  18
ENDBRANCH  11  12
ENDBRANCH  10  11
ENDBRANCH   7  10
ENDBRANCH   6   7
ENDBRANCH   4   6
ENDBRANCH   2   4
TORSDOF 12
ENDMDL
MODEL      168
REMARK 921   NORMALIZED FREE ENERGY PREDICTED BY IDOCK:   -3.83 KCAL/MOL
REMARK 922        TOTAL FREE ENERGY PREDICTED BY IDOCK:   -7.54 KCAL/MOL
REMARK 923 INTER-LIGAND FREE ENERGY PREDICTED BY IDOCK:   -6.16 KCAL/MOL
REMARK 924 INTRA-LIGAND FREE ENERGY PREDICTED BY IDOCK:   -1.38 KCAL/MOL
REMARK 927      BINDING AFFINITY PREDICTED BY RF-SCORE:    0.00 PKD
ROOT
HETATM    1  C   UNL     1      -7.789  11.882  68.590  1.00  0.00    -0.104 C  
HETATM    2  C   UNL     1      -7.318  11.546  67.173  1.00  0.00    -0.139 C  
HETATM    3  C   UNL     1      -7.175  10.029  67.029  1.00  0.00    -0.090 C  
ENDROOT
BRANCH   2   4
HETATM    4  N   UNL     1      -8.287  12.093  66.221  1.00  0.00    -0.389 NA 
HETATM    5  H   UNL     1      -8.921  11.365  65.893  1.00  0.00     0.000 HD 
BRANCH   4   6
HETATM    6  C   UNL     1      -9.039  13.241  66.746  1.00  0.00    -0.210 C  
BRANCH   6   7
HETATM    7  C   UNL     1     -10.350  13.418  65.959  1.00  0.00    -0.297 C  
HETATM    8  O   UNL     1     -10.071  14.044  64.696  1.00  0.00    -0.582 OA 
HETATM    9  H   UNL     1     -10.880  14.153  64.211  1.00  0.00     0.000 HD 
BRANCH   7  10
HETATM   10  C   UNL     1     -11.058  12.079  65.725  1.00  0.00    -0.324 C  
BRANCH  10  11
HETATM   11  O   UNL     1     -12.076  11.901  66.723  1.00  0.00    -0.593 OA 
BRANCH  11  12
HETATM   12  C   UNL     1     -11.673  11.219  67.839  1.00  0.00    -0.214 A  
HETATM   13  C   UNL     1     -10.923  10.043  67.824  1.00  0.00    -0.310 A  
HETATM   14  C   UNL     1     -10.570   9.420  69.024  1.00  0.00    -0.233 A  
HETATM   15  C   UNL     1     -10.950   9.966  70.257  1.00  0.00    -0.366 A  
HETATM   16  C   UNL     1     -11.672  11.163  70.267  1.00  0.00    -0.431 A  
HETATM   17  C   UNL     1     -12.023  11.790  69.063  1.00  0.00    -0.341 A  
BRANCH  15  18
HETATM   18  C   UNL     1     -10.595   9.254  71.536  1.00  0.00    -0.335 C  
BRANCH  18  19
HETATM   19  O   UNL     1     -10.194   7.925  71.217  1.00  0.00    -0.186 OA 
BRANCH  19  20
HETATM   20  C   UNL     1     -10.875   6.954  72.009  1.00  0.00    -0.225 C  
BRANCH  20  21
HETATM   21  C   UNL     1     -10.851   5.626  71.262  1.00  0.00    -0.219 C  
BRANCH  21  22
HETATM   22  O   UNL     1      -9.634   4.932  71.534  1.00  0.00    -0.148 OA 
BRANCH  22  23
HETATM   23  C   UNL     1      -8.859   4.660  70.359  1.00  0.00    -0.098 C  
HETATM   24  C   UNL     1      -8.273   3.251  70.382  1.00  0.00    -0.073 C  
HETATM   25  C   UNL     1      -9.790   4.816  69.161  1.00  0.00    -0.254 C  
ENDBRANCH  22  23
ENDBRANCH  21  22
ENDBRANCH  20  21
ENDBRANCH  19  20
ENDBRANCH  18  19
ENDBRANCH  15  18
ENDBRANCH  11  12
ENDBRANCH  10  11
ENDBRANCH   7  10
ENDBRANCH   6   7
ENDBRANCH   4   6
ENDBRANCH   2   4
TORSDOF 12
ENDMDL
MODEL      169
REMARK 921   NORMALIZED FREE ENERGY PREDICTED BY IDOCK:   -3.83 KCAL/MOL
REMARK 922        TOTAL FREE ENERGY PREDICTED BY IDOCK:   -7.54 KCAL/MOL
REMARK 923 INTER-LIGAND FREE ENERGY PREDICTED BY IDOCK:   -6.59 KCAL/MOL
REMARK 924 INTRA-LIGAND FREE ENERGY PREDICTED BY IDOCK:   -0.95 KCAL/MOL
REMARK 927      BINDING AFFINITY PREDICTED BY RF-SCORE:    0.00 PKD
ROOT
HETATM    1  C   UNL     1     -10.427  12.442  68.115  1.00  0.00    -0.228 C  
HETATM    2  C   UNL     1     -11.778  12.997  67.657  1.00  0.00    -0.366 C  
HETATM    3  C   UNL     1     -11.725  14.527  67.652  1.00  0.00    -0.410 C  
ENDROOT
BRANCH   2   4
HETATM    4  N   UNL     1     -12.073  12.459  66.328  1.00  0.00    -0.630 NA 
HETATM    5  H   UNL     1     -12.593  11.584  66.400  1.00  0.00     0.000 HD 
BRANCH   4   6
HETATM    6  C   UNL     1     -12.773  13.410  65.454  1.00  0.00    -0.426 C  
BRANCH   6   7
HETATM    7  C   UNL     1     -12.070  13.485  64.086  1.00  0.00    -0.435 C  
HETATM    8  O   UNL     1     -10.851  14.234  64.214  1.00  0.00    -0.602 OA 
HETATM    9  H   UNL     1     -10.418  14.280  63.370  1.00  0.00     0.000 HD 
BRANCH   7  10
HETATM   10  C   UNL     1     -11.764  12.092  63.527  1.00  0.00    -0.490 C  
BRANCH  10  11
HETATM   11  O   UNL     1     -10.392  12.044  63.103  1.00  0.00    -0.404 OA 
BRANCH  11  12
HETATM   12  C   UNL     1      -9.705  10.930  63.506  1.00  0.00    -0.342 A  
HETATM   13  C   UNL     1      -9.096  10.017  62.646  1.00  0.00    -0.304 A  
HETATM   14  C   UNL     1      -8.425   8.906  63.162  1.00  0.00    -0.162 A  
HETATM   15  C   UNL     1      -8.342   8.694  64.545  1.00  0.00    -0.157 A  
HETATM   16  C   UNL     1      -8.925   9.630  65.404  1.00  0.00    -0.231 A  
HETATM   17  C   UNL     1      -9.595  10.747  64.885  1.00  0.00    -0.307 A  
BRANCH  15  18
HETATM   18  C   UNL     1      -7.650   7.466  65.076  1.00  0.00    -0.103 C  
BRANCH  18  19
HETATM   19  O   UNL     1      -7.108   6.741  63.977  1.00  0.00    -0.052 OA 
BRANCH  19  20
HETATM   20  C   UNL     1      -7.292   5.334  64.120  1.00  0.00    -0.056 C  
BRANCH  20  21
HETATM   21  C   UNL     1      -8.038   5.080  65.425  1.00  0.00    -0.116 C  
BRANCH  21  22
HETATM   22  O   UNL     1      -8.319   3.688  65.565  1.00  0.00    -0.103 OA 
BRANCH  22  23
HETATM   23  C   UNL     1      -9.516   3.421  66.307  1.00  0.00    -0.113 C  
HETATM   24  C   UNL     1      -9.220   3.129  67.775  1.00  0.00    -0.241 C  
HETATM   25  C   UNL     1     -10.401   4.658  66.191  1.00  0.00    -0.310 C  
ENDBRANCH  22  23
ENDBRANCH  21  22
ENDBRANCH  20  21
ENDBRANCH  19  20
ENDBRANCH  18  19
ENDBRANCH  15  18
ENDBRANCH  11  12
ENDBRANCH  10  11
ENDBRANCH   7  10
ENDBRANCH   6   7
ENDBRANCH   4   6
ENDBRANCH   2   4
TORSDOF 12
ENDMDL
MODEL      170
REMARK 921   NORMALIZED FREE ENERGY PREDICTED BY IDOCK:   -3.83 KCAL/MOL
REMARK 922        TOTAL FREE ENERGY PREDICTED BY IDOCK:   -7.54 KCAL/MOL
REMARK 923 INTER-LIGAND FREE ENERGY PREDICTED BY IDOCK:   -6.69 KCAL/MOL
REMARK 924 INTRA-LIGAND FREE ENERGY PREDICTED BY IDOCK:   -0.85 KCAL/MOL
REMARK 927      BINDING AFFINITY PREDICTED BY RF-SCORE:    0.00 PKD
ROOT
HETATM    1  C   UNL     1      -9.151   6.805  66.186  1.00  0.00    -0.138 C  
HETATM    2  C   UNL     1      -9.104   5.931  67.442  1.00  0.00    -0.110 C  
HETATM    3  C   UNL     1      -7.854   5.048  67.402  1.00  0.00    -0.095 C  
ENDROOT
BRANCH   2   4
HETATM    4  N   UNL     1      -9.113   6.806  68.616  1.00  0.00    -0.128 NA 
HETATM    5  H   UNL     1      -9.968   7.361  68.646  1.00  0.00     0.000 HD 
BRANCH   4   6
HETATM    6  C   UNL     1      -8.913   6.088  69.882  1.00  0.00    -0.141 C  
BRANCH   6   7
HETATM    7  C   UNL     1     -10.206   5.356  70.284  1.00  0.00    -0.267 C  
HETATM    8  O   UNL     1      -9.910   3.978  70.561  1.00  0.00    -0.194 OA 
HETATM    9  H   UNL     1     -10.708   3.525  70.809  1.00  0.00     0.000 HD 
BRANCH   7  10
HETATM   10  C   UNL     1     -10.867   5.997  71.509  1.00  0.00    -0.266 C  
BRANCH  10  11
HETATM   11  O   UNL     1     -12.158   6.507  71.138  1.00  0.00    -0.350 OA 
BRANCH  11  12
HETATM   12  C   UNL     1     -12.279   7.869  71.207  1.00  0.00    -0.294 A  
HETATM   13  C   UNL     1     -11.384   8.776  70.641  1.00  0.00    -0.289 A  
HETATM   14  C   UNL     1     -11.595  10.150  70.777  1.00  0.00    -0.445 A  
HETATM   15  C   UNL     1     -12.710  10.640  71.472  1.00  0.00    -0.549 A  
HETATM   16  C   UNL     1     -13.622   9.727  72.010  1.00  0.00    -0.436 A  
HETATM   17  C   UNL     1     -13.410   8.348  71.869  1.00  0.00    -0.380 A  
BRANCH  15  18
HETATM   18  C   UNL     1     -12.894  12.126  71.643  1.00  0.00    -0.285 C  
BRANCH  18  19
HETATM   19  O   UNL     1     -12.236  12.790  70.568  1.00  0.00    -0.368 OA 
BRANCH  19  20
HETATM   20  C   UNL     1     -12.637  14.154  70.455  1.00  0.00    -0.332 C  
BRANCH  20  21
HETATM   21  C   UNL     1     -11.710  14.843  69.460  1.00  0.00    -0.320 C  
BRANCH  21  22
HETATM   22  O   UNL     1     -12.120  14.550  68.125  1.00  0.00    -0.294 OA 
BRANCH  22  23
HETATM   23  C   UNL     1     -11.129  13.842  67.368  1.00  0.00    -0.298 C  
HETATM   24  C   UNL     1     -11.401  12.341  67.344  1.00  0.00    -0.389 C  
HETATM   25  C   UNL     1     -11.166  14.400  65.949  1.00  0.00    -0.324 C  
ENDBRANCH  22  23
ENDBRANCH  21  22
ENDBRANCH  20  21
ENDBRANCH  19  20
ENDBRANCH  18  19
ENDBRANCH  15  18
ENDBRANCH  11  12
ENDBRANCH  10  11
ENDBRANCH   7  10
ENDBRANCH   6   7
ENDBRANCH   4   6
ENDBRANCH   2   4
TORSDOF 12
ENDMDL
MODEL      171
REMARK 921   NORMALIZED FREE ENERGY PREDICTED BY IDOCK:   -3.83 KCAL/MOL
REMARK 922        TOTAL FREE ENERGY PREDICTED BY IDOCK:   -7.54 KCAL/MOL
REMARK 923 INTER-LIGAND FREE ENERGY PREDICTED BY IDOCK:   -6.63 KCAL/MOL
REMARK 924 INTRA-LIGAND FREE ENERGY PREDICTED BY IDOCK:   -0.90 KCAL/MOL
REMARK 927      BINDING AFFINITY PREDICTED BY RF-SCORE:    0.00 PKD
ROOT
HETATM    1  C   UNL     1     -11.316  15.561  68.341  1.00  0.00    -0.357 C  
HETATM    2  C   UNL     1     -11.268  14.256  67.542  1.00  0.00    -0.307 C  
HETATM    3  C   UNL     1     -11.791  13.108  68.408  1.00  0.00    -0.386 C  
ENDROOT
BRANCH   2   4
HETATM    4  N   UNL     1     -12.066  14.427  66.327  1.00  0.00    -0.397 NA 
HETATM    5  H   UNL     1     -11.601  15.059  65.675  1.00  0.00     0.000 HD 
BRANCH   4   6
HETATM    6  C   UNL     1     -12.408  13.159  65.668  1.00  0.00    -0.461 C  
BRANCH   6   7
HETATM    7  C   UNL     1     -11.760  13.097  64.273  1.00  0.00    -0.395 C  
HETATM    8  O   UNL     1     -11.136  14.357  63.977  1.00  0.00    -0.534 OA 
HETATM    9  H   UNL     1     -10.736  14.318  63.117  1.00  0.00     0.000 HD 
BRANCH   7  10
HETATM   10  C   UNL     1     -10.722  11.974  64.178  1.00  0.00    -0.357 C  
BRANCH  10  11
HETATM   11  O   UNL     1     -10.139  11.757  65.472  1.00  0.00    -0.232 OA 
BRANCH  11  12
HETATM   12  C   UNL     1      -9.887  10.446  65.777  1.00  0.00    -0.239 A  
HETATM   13  C   UNL     1      -9.011   9.620  65.072  1.00  0.00    -0.255 A  
HETATM   14  C   UNL     1      -8.833   8.291  65.461  1.00  0.00    -0.152 A  
HETATM   15  C   UNL     1      -9.517   7.767  66.567  1.00  0.00    -0.262 A  
HETATM   16  C   UNL     1     -10.368   8.608  67.291  1.00  0.00    -0.366 A  
HETATM   17  C   UNL     1     -10.544   9.943  66.901  1.00  0.00    -0.248 A  
BRANCH  15  18
HETATM   18  C   UNL     1      -9.340   6.319  66.942  1.00  0.00    -0.136 C  
BRANCH  18  19
HETATM   19  O   UNL     1      -8.525   6.250  68.108  1.00  0.00    -0.114 OA 
BRANCH  19  20
HETATM   20  C   UNL     1      -9.210   5.652  69.207  1.00  0.00    -0.116 C  
BRANCH  20  21
HETATM   21  C   UNL     1      -9.463   6.730  70.255  1.00  0.00    -0.162 C  
BRANCH  21  22
HETATM   22  O   UNL     1      -9.517   6.146  71.556  1.00  0.00    -0.149 OA 
BRANCH  22  23
HETATM   23  C   UNL     1     -10.851   6.004  72.061  1.00  0.00    -0.252 C  
HETATM   24  C   UNL     1     -10.937   4.929  73.141  1.00  0.00    -0.376 C  
HETATM   25  C   UNL     1     -11.257   7.356  72.641  1.00  0.00    -0.379 C  
ENDBRANCH  22  23
ENDBRANCH  21  22
ENDBRANCH  20  21
ENDBRANCH  19  20
ENDBRANCH  18  19
ENDBRANCH  15  18
ENDBRANCH  11  12
ENDBRANCH  10  11
ENDBRANCH   7  10
ENDBRANCH   6   7
ENDBRANCH   4   6
ENDBRANCH   2   4
TORSDOF 12
ENDMDL
MODEL      172
REMARK 921   NORMALIZED FREE ENERGY PREDICTED BY IDOCK:   -3.82 KCAL/MOL
REMARK 922        TOTAL FREE ENERGY PREDICTED BY IDOCK:   -7.53 KCAL/MOL
REMARK 923 INTER-LIGAND FREE ENERGY PREDICTED BY IDOCK:   -6.81 KCAL/MOL
REMARK 924 INTRA-LIGAND FREE ENERGY PREDICTED BY IDOCK:   -0.71 KCAL/MOL
REMARK 927      BINDING AFFINITY PREDICTED BY RF-SCORE:    0.00 PKD
ROOT
HETATM    1  C   UNL     1     -13.532  14.019  72.532  1.00  0.00    -0.661 C  
HETATM    2  C   UNL     1     -13.373  12.842  71.566  1.00  0.00    -0.173 C  
HETATM    3  C   UNL     1     -12.231  13.134  70.589  1.00  0.00    -0.402 C  
ENDROOT
BRANCH   2   4
HETATM    4  N   UNL     1     -13.121  11.631  72.349  1.00  0.00    -0.353 NA 
HETATM    5  H   UNL     1     -13.845  11.500  73.055  1.00  0.00     0.000 HD 
BRANCH   4   6
HETATM    6  C   UNL     1     -12.972  10.423  71.526  1.00  0.00    -0.458 C  
BRANCH   6   7
HETATM    7  C   UNL     1     -12.934   9.173  72.425  1.00  0.00    -0.398 C  
HETATM    8  O   UNL     1     -13.920   8.230  71.977  1.00  0.00    -0.387 OA 
HETATM    9  H   UNL     1     -13.896   7.459  72.532  1.00  0.00     0.000 HD 
BRANCH   7  10
HETATM   10  C   UNL     1     -11.551   8.513  72.423  1.00  0.00    -0.354 C  
BRANCH  10  11
HETATM   11  O   UNL     1     -11.648   7.214  71.817  1.00  0.00    -0.261 OA 
BRANCH  11  12
HETATM   12  C   UNL     1     -10.897   7.052  70.683  1.00  0.00    -0.246 A  
HETATM   13  C   UNL     1      -9.564   7.441  70.550  1.00  0.00    -0.172 A  
HETATM   14  C   UNL     1      -8.891   7.237  69.343  1.00  0.00    -0.137 A  
HETATM   15  C   UNL     1      -9.533   6.632  68.254  1.00  0.00    -0.123 A  
HETATM   16  C   UNL     1     -10.858   6.213  68.404  1.00  0.00    -0.382 A  
HETATM   17  C   UNL     1     -11.533   6.415  69.616  1.00  0.00    -0.446 A  
BRANCH  15  18
HETATM   18  C   UNL     1      -8.799   6.461  66.950  1.00  0.00    -0.119 C  
BRANCH  18  19
HETATM   19  O   UNL     1      -9.201   7.502  66.065  1.00  0.00    -0.143 OA 
BRANCH  19  20
HETATM   20  C   UNL     1      -8.150   7.894  65.185  1.00  0.00    -0.144 C  
BRANCH  20  21
HETATM   21  C   UNL     1      -8.369   9.352  64.798  1.00  0.00    -0.154 C  
BRANCH  21  22
HETATM   22  O   UNL     1      -9.623   9.810  65.302  1.00  0.00    -0.269 OA 
BRANCH  22  23
HETATM   23  C   UNL     1     -10.225  10.827  64.492  1.00  0.00    -0.359 C  
HETATM   24  C   UNL     1     -10.064  12.213  65.110  1.00  0.00    -0.288 C  
HETATM   25  C   UNL     1      -9.539  10.783  63.130  1.00  0.00    -0.385 C  
ENDBRANCH  22  23
ENDBRANCH  21  22
ENDBRANCH  20  21
ENDBRANCH  19  20
ENDBRANCH  18  19
ENDBRANCH  15  18
ENDBRANCH  11  12
ENDBRANCH  10  11
ENDBRANCH   7  10
ENDBRANCH   6   7
ENDBRANCH   4   6
ENDBRANCH   2   4
TORSDOF 12
ENDMDL
MODEL      173
REMARK 921   NORMALIZED FREE ENERGY PREDICTED BY IDOCK:   -3.82 KCAL/MOL
REMARK 922        TOTAL FREE ENERGY PREDICTED BY IDOCK:   -7.52 KCAL/MOL
REMARK 923 INTER-LIGAND FREE ENERGY PREDICTED BY IDOCK:   -6.70 KCAL/MOL
REMARK 924 INTRA-LIGAND FREE ENERGY PREDICTED BY IDOCK:   -0.82 KCAL/MOL
REMARK 927      BINDING AFFINITY PREDICTED BY RF-SCORE:    0.00 PKD
ROOT
HETATM    1  C   UNL     1     -10.147  19.274  67.166  1.00  0.00    -0.473 C  
HETATM    2  C   UNL     1      -9.192  18.082  67.069  1.00  0.00    -0.265 C  
HETATM    3  C   UNL     1      -9.480  17.103  68.210  1.00  0.00    -0.276 C  
ENDROOT
BRANCH   2   4
HETATM    4  N   UNL     1      -9.368  17.454  65.758  1.00  0.00    -0.508 NA 
HETATM    5  H   UNL     1      -8.504  17.499  65.217  1.00  0.00     0.000 HD 
BRANCH   4   6
HETATM    6  C   UNL     1      -9.864  16.073  65.832  1.00  0.00    -0.348 C  
BRANCH   6   7
HETATM    7  C   UNL     1     -11.316  16.005  65.324  1.00  0.00     0.008 C  
HETATM    8  O   UNL     1     -11.329  16.126  63.893  1.00  0.00    -1.261 OA 
HETATM    9  H   UNL     1     -12.225  16.084  63.580  1.00  0.00     0.000 HD 
BRANCH   7  10
HETATM   10  C   UNL     1     -12.003  14.700  65.738  1.00  0.00    -0.235 C  
BRANCH  10  11
HETATM   11  O   UNL     1     -11.157  13.590  65.396  1.00  0.00    -0.289 OA 
BRANCH  11  12
HETATM   12  C   UNL     1     -11.141  12.574  66.314  1.00  0.00    -0.295 A  
HETATM   13  C   UNL     1     -11.895  12.553  67.487  1.00  0.00    -0.389 A  
HETATM   14  C   UNL     1     -11.799  11.469  68.364  1.00  0.00    -0.353 A  
HETATM   15  C   UNL     1     -10.957  10.386  68.078  1.00  0.00    -0.347 A  
HETATM   16  C   UNL     1     -10.229  10.397  66.884  1.00  0.00    -0.281 A  
HETATM   17  C   UNL     1     -10.329  11.483  66.004  1.00  0.00    -0.290 A  
BRANCH  15  18
HETATM   18  C   UNL     1     -10.838   9.248  69.058  1.00  0.00    -0.111 C  
BRANCH  18  19
HETATM   19  O   UNL     1      -9.462   9.071  69.380  1.00  0.00    -0.154 OA 
BRANCH  19  20
HETATM   20  C   UNL     1      -9.222   7.833  70.047  1.00  0.00    -0.153 C  
BRANCH  20  21
HETATM   21  C   UNL     1      -8.016   7.166  69.395  1.00  0.00    -0.125 C  
BRANCH  21  22
HETATM   22  O   UNL     1      -8.446   6.130  68.514  1.00  0.00    -0.113 OA 
BRANCH  22  23
HETATM   23  C   UNL     1      -8.624   6.570  67.161  1.00  0.00    -0.111 C  
HETATM   24  C   UNL     1      -7.649   5.884  66.209  1.00  0.00    -0.094 C  
HETATM   25  C   UNL     1     -10.059   6.236  66.765  1.00  0.00    -0.237 C  
ENDBRANCH  22  23
ENDBRANCH  21  22
ENDBRANCH  20  21
ENDBRANCH  19  20
ENDBRANCH  18  19
ENDBRANCH  15  18
ENDBRANCH  11  12
ENDBRANCH  10  11
ENDBRANCH   7  10
ENDBRANCH   6   7
ENDBRANCH   4   6
ENDBRANCH   2   4
TORSDOF 12
ENDMDL
MODEL      174
REMARK 921   NORMALIZED FREE ENERGY PREDICTED BY IDOCK:   -3.82 KCAL/MOL
REMARK 922        TOTAL FREE ENERGY PREDICTED BY IDOCK:   -7.51 KCAL/MOL
REMARK 923 INTER-LIGAND FREE ENERGY PREDICTED BY IDOCK:   -6.88 KCAL/MOL
REMARK 924 INTRA-LIGAND FREE ENERGY PREDICTED BY IDOCK:   -0.64 KCAL/MOL
REMARK 927      BINDING AFFINITY PREDICTED BY RF-SCORE:    0.00 PKD
ROOT
HETATM    1  C   UNL     1      -8.019   8.129  74.369  1.00  0.00    -0.308 C  
HETATM    2  C   UNL     1      -8.046   6.908  73.447  1.00  0.00    -0.101 C  
HETATM    3  C   UNL     1      -8.769   5.756  74.147  1.00  0.00    -0.122 C  
ENDROOT
BRANCH   2   4
HETATM    4  N   UNL     1      -8.708   7.286  72.197  1.00  0.00    -0.120 NA 
HETATM    5  H   UNL     1      -9.085   6.464  71.725  1.00  0.00     0.000 HD 
BRANCH   4   6
HETATM    6  C   UNL     1      -9.749   8.308  72.372  1.00  0.00    -0.303 C  
BRANCH   6   7
HETATM    7  C   UNL     1      -9.870   9.162  71.097  1.00  0.00    -0.301 C  
HETATM    8  O   UNL     1      -9.744   8.318  69.941  1.00  0.00    -0.177 OA 
HETATM    9  H   UNL     1      -9.819   8.845  69.154  1.00  0.00     0.000 HD 
BRANCH   7  10
HETATM   10  C   UNL     1     -11.203   9.916  71.041  1.00  0.00    -0.364 C  
BRANCH  10  11
HETATM   11  O   UNL     1     -11.756   9.803  69.720  1.00  0.00    -0.109 OA 
BRANCH  11  12
HETATM   12  C   UNL     1     -11.697  10.949  68.973  1.00  0.00    -0.320 A  
HETATM   13  C   UNL     1     -11.875  12.237  69.478  1.00  0.00    -0.380 A  
HETATM   14  C   UNL     1     -11.803  13.342  68.626  1.00  0.00    -0.380 A  
HETATM   15  C   UNL     1     -11.540  13.179  67.259  1.00  0.00    -0.404 A  
HETATM   16  C   UNL     1     -11.329  11.889  66.764  1.00  0.00    -0.393 A  
HETATM   17  C   UNL     1     -11.398  10.781  67.620  1.00  0.00    -0.328 A  
BRANCH  15  18
HETATM   18  C   UNL     1     -11.509  14.382  66.352  1.00  0.00    -0.360 C  
BRANCH  18  19
HETATM   19  O   UNL     1     -10.153  14.660  66.016  1.00  0.00    -0.281 OA 
BRANCH  19  20
HETATM   20  C   UNL     1      -9.865  16.056  66.061  1.00  0.00    -0.337 C  
BRANCH  20  21
HETATM   21  C   UNL     1     -10.299  16.590  67.421  1.00  0.00    -0.290 C  
BRANCH  21  22
HETATM   22  O   UNL     1     -10.553  17.991  67.339  1.00  0.00    -0.386 OA 
BRANCH  22  23
HETATM   23  C   UNL     1      -9.723  18.666  66.385  1.00  0.00    -0.345 C  
HETATM   24  C   UNL     1     -10.499  19.723  65.604  1.00  0.00    -0.460 C  
HETATM   25  C   UNL     1      -8.589  19.325  67.164  1.00  0.00    -0.311 C  
ENDBRANCH  22  23
ENDBRANCH  21  22
ENDBRANCH  20  21
ENDBRANCH  19  20
ENDBRANCH  18  19
ENDBRANCH  15  18
ENDBRANCH  11  12
ENDBRANCH  10  11
ENDBRANCH   7  10
ENDBRANCH   6   7
ENDBRANCH   4   6
ENDBRANCH   2   4
TORSDOF 12
ENDMDL
MODEL      175
REMARK 921   NORMALIZED FREE ENERGY PREDICTED BY IDOCK:   -3.81 KCAL/MOL
REMARK 922        TOTAL FREE ENERGY PREDICTED BY IDOCK:   -7.50 KCAL/MOL
REMARK 923 INTER-LIGAND FREE ENERGY PREDICTED BY IDOCK:   -6.68 KCAL/MOL
REMARK 924 INTRA-LIGAND FREE ENERGY PREDICTED BY IDOCK:   -0.82 KCAL/MOL
REMARK 927      BINDING AFFINITY PREDICTED BY RF-SCORE:    0.00 PKD
ROOT
HETATM    1  C   UNL     1      -6.191   9.634  64.028  1.00  0.00    -0.108 C  
HETATM    2  C   UNL     1      -7.547   9.658  64.737  1.00  0.00    -0.122 C  
HETATM    3  C   UNL     1      -7.337   9.523  66.247  1.00  0.00    -0.093 C  
ENDROOT
BRANCH   2   4
HETATM    4  N   UNL     1      -8.228  10.908  64.393  1.00  0.00    -0.366 NA 
HETATM    5  H   UNL     1      -7.928  11.242  63.477  1.00  0.00     0.000 HD 
BRANCH   4   6
HETATM    6  C   UNL     1      -9.692  10.815  64.459  1.00  0.00    -0.295 C  
BRANCH   6   7
HETATM    7  C   UNL     1     -10.313  12.223  64.421  1.00  0.00    -0.331 C  
HETATM    8  O   UNL     1     -10.042  12.833  63.149  1.00  0.00    -0.402 OA 
HETATM    9  H   UNL     1     -10.425  13.702  63.126  1.00  0.00     0.000 HD 
BRANCH   7  10
HETATM   10  C   UNL     1     -11.826  12.185  64.662  1.00  0.00    -0.328 C  
BRANCH  10  11
HETATM   11  O   UNL     1     -12.078  11.981  66.062  1.00  0.00    -0.561 OA 
BRANCH  11  12
HETATM   12  C   UNL     1     -11.877  13.084  66.848  1.00  0.00    -0.380 A  
HETATM   13  C   UNL     1     -11.974  14.403  66.406  1.00  0.00    -0.402 A  
HETATM   14  C   UNL     1     -11.741  15.459  67.290  1.00  0.00     0.006 A  
HETATM   15  C   UNL     1     -11.418  15.215  68.632  1.00  0.00    -0.341 A  
HETATM   16  C   UNL     1     -11.354  13.892  69.078  1.00  0.00    -0.324 A  
HETATM   17  C   UNL     1     -11.592  12.833  68.191  1.00  0.00    -0.380 A  
BRANCH  15  18
HETATM   18  C   UNL     1     -11.129  16.369  69.556  1.00  0.00    -0.293 C  
BRANCH  18  19
HETATM   19  O   UNL     1      -9.927  17.002  69.128  1.00  0.00    -0.271 OA 
BRANCH  19  20
HETATM   20  C   UNL     1     -10.104  18.401  68.914  1.00  0.00    -0.321 C  
BRANCH  20  21
HETATM   21  C   UNL     1      -8.901  18.921  68.134  1.00  0.00    -0.308 C  
BRANCH  21  22
HETATM   22  O   UNL     1      -7.905  17.905  68.036  1.00  0.00    -0.236 OA 
BRANCH  22  23
HETATM   23  C   UNL     1      -7.505  17.628  66.687  1.00  0.00    -0.235 C  
HETATM   24  C   UNL     1      -5.997  17.422  66.574  1.00  0.00    -0.245 C  
HETATM   25  C   UNL     1      -8.236  16.362  66.254  1.00  0.00    -0.343 C  
ENDBRANCH  22  23
ENDBRANCH  21  22
ENDBRANCH  20  21
ENDBRANCH  19  20
ENDBRANCH  18  19
ENDBRANCH  15  18
ENDBRANCH  11  12
ENDBRANCH  10  11
ENDBRANCH   7  10
ENDBRANCH   6   7
ENDBRANCH   4   6
ENDBRANCH   2   4
TORSDOF 12
ENDMDL
MODEL      176
REMARK 921   NORMALIZED FREE ENERGY PREDICTED BY IDOCK:   -3.81 KCAL/MOL
REMARK 922        TOTAL FREE ENERGY PREDICTED BY IDOCK:   -7.49 KCAL/MOL
REMARK 923 INTER-LIGAND FREE ENERGY PREDICTED BY IDOCK:   -6.12 KCAL/MOL
REMARK 924 INTRA-LIGAND FREE ENERGY PREDICTED BY IDOCK:   -1.38 KCAL/MOL
REMARK 927      BINDING AFFINITY PREDICTED BY RF-SCORE:    0.00 PKD
ROOT
HETATM    1  C   UNL     1     -12.193  13.993  64.453  1.00  0.00    -0.457 C  
HETATM    2  C   UNL     1     -10.738  14.352  64.765  1.00  0.00    -0.403 C  
HETATM    3  C   UNL     1     -10.673  15.113  66.091  1.00  0.00    -0.327 C  
ENDROOT
BRANCH   2   4
HETATM    4  N   UNL     1      -9.955  13.116  64.810  1.00  0.00    -0.578 NA 
HETATM    5  H   UNL     1      -9.098  13.211  64.266  1.00  0.00     0.000 HD 
BRANCH   4   6
HETATM    6  C   UNL     1      -9.657  12.660  66.175  1.00  0.00    -0.222 C  
BRANCH   6   7
HETATM    7  C   UNL     1     -10.403  11.346  66.468  1.00  0.00    -0.236 C  
HETATM    8  O   UNL     1     -10.245  10.447  65.358  1.00  0.00    -0.292 OA 
HETATM    9  H   UNL     1     -10.705   9.636  65.538  1.00  0.00     0.000 HD 
BRANCH   7  10
HETATM   10  C   UNL     1      -9.894  10.676  67.749  1.00  0.00    -0.165 C  
BRANCH  10  11
HETATM   11  O   UNL     1      -9.827   9.256  67.546  1.00  0.00    -0.158 OA 
BRANCH  11  12
HETATM   12  C   UNL     1     -10.398   8.506  68.540  1.00  0.00    -0.198 A  
HETATM   13  C   UNL     1     -10.646   7.136  68.459  1.00  0.00    -0.219 A  
HETATM   14  C   UNL     1     -11.242   6.466  69.530  1.00  0.00    -0.477 A  
HETATM   15  C   UNL     1     -11.589   7.150  70.703  1.00  0.00    -0.354 A  
HETATM   16  C   UNL     1     -11.307   8.516  70.792  1.00  0.00    -0.296 A  
HETATM   17  C   UNL     1     -10.705   9.188  69.718  1.00  0.00    -0.239 A  
BRANCH  15  18
HETATM   18  C   UNL     1     -12.269   6.415  71.828  1.00  0.00    -0.256 C  
BRANCH  18  19
HETATM   19  O   UNL     1     -11.392   6.395  72.951  1.00  0.00    -0.225 OA 
BRANCH  19  20
HETATM   20  C   UNL     1     -10.962   5.074  73.272  1.00  0.00    -0.318 C  
BRANCH  20  21
HETATM   21  C   UNL     1      -9.533   4.902  72.769  1.00  0.00    -0.135 C  
BRANCH  21  22
HETATM   22  O   UNL     1      -8.653   5.762  73.491  1.00  0.00    -0.121 OA 
BRANCH  22  23
HETATM   23  C   UNL     1      -7.832   6.577  72.644  1.00  0.00    -0.103 C  
HETATM   24  C   UNL     1      -7.995   6.209  71.172  1.00  0.00    -0.116 C  
HETATM   25  C   UNL     1      -8.256   8.025  72.868  1.00  0.00    -0.221 C  
ENDBRANCH  22  23
ENDBRANCH  21  22
ENDBRANCH  20  21
ENDBRANCH  19  20
ENDBRANCH  18  19
ENDBRANCH  15  18
ENDBRANCH  11  12
ENDBRANCH  10  11
ENDBRANCH   7  10
ENDBRANCH   6   7
ENDBRANCH   4   6
ENDBRANCH   2   4
TORSDOF 12
ENDMDL
MODEL      177
REMARK 921   NORMALIZED FREE ENERGY PREDICTED BY IDOCK:   -3.80 KCAL/MOL
REMARK 922        TOTAL FREE ENERGY PREDICTED BY IDOCK:   -7.49 KCAL/MOL
REMARK 923 INTER-LIGAND FREE ENERGY PREDICTED BY IDOCK:   -6.83 KCAL/MOL
REMARK 924 INTRA-LIGAND FREE ENERGY PREDICTED BY IDOCK:   -0.66 KCAL/MOL
REMARK 927      BINDING AFFINITY PREDICTED BY RF-SCORE:    0.00 PKD
ROOT
HETATM    1  C   UNL     1      -7.918   6.345  68.791  1.00  0.00    -0.110 C  
HETATM    2  C   UNL     1      -8.777   5.215  68.217  1.00  0.00    -0.101 C  
HETATM    3  C   UNL     1     -10.258   5.556  68.403  1.00  0.00    -0.242 C  
ENDROOT
BRANCH   2   4
HETATM    4  N   UNL     1      -8.433   5.044  66.804  1.00  0.00    -0.107 NA 
HETATM    5  H   UNL     1      -8.557   4.073  66.517  1.00  0.00     0.000 HD 
BRANCH   4   6
HETATM    6  C   UNL     1      -9.166   5.950  65.909  1.00  0.00    -0.092 C  
BRANCH   6   7
HETATM    7  C   UNL     1      -8.184   6.900  65.200  1.00  0.00    -0.115 C  
HETATM    8  O   UNL     1      -8.387   6.826  63.780  1.00  0.00    -0.334 OA 
HETATM    9  H   UNL     1      -7.782   7.413  63.342  1.00  0.00     0.000 HD 
BRANCH   7  10
HETATM   10  C   UNL     1      -8.355   8.349  65.670  1.00  0.00    -0.154 C  
BRANCH  10  11
HETATM   11  O   UNL     1      -9.035   9.100  64.652  1.00  0.00    -0.192 OA 
BRANCH  11  12
HETATM   12  C   UNL     1      -9.775  10.156  65.114  1.00  0.00    -0.304 A  
HETATM   13  C   UNL     1     -10.198  11.231  64.333  1.00  0.00    -0.377 A  
HETATM   14  C   UNL     1     -10.943  12.264  64.906  1.00  0.00    -0.344 A  
HETATM   15  C   UNL     1     -11.287  12.235  66.265  1.00  0.00    -0.395 A  
HETATM   16  C   UNL     1     -10.889  11.138  67.035  1.00  0.00    -0.338 A  
HETATM   17  C   UNL     1     -10.144  10.100  66.458  1.00  0.00    -0.296 A  
BRANCH  15  18
HETATM   18  C   UNL     1     -12.055  13.381  66.870  1.00  0.00    -0.354 C  
BRANCH  18  19
HETATM   19  O   UNL     1     -12.196  13.143  68.267  1.00  0.00    -0.247 OA 
BRANCH  19  20
HETATM   20  C   UNL     1     -11.726  14.239  69.049  1.00  0.00    -0.317 C  
BRANCH  20  21
HETATM   21  C   UNL     1     -12.164  14.019  70.492  1.00  0.00    -0.365 C  
BRANCH  21  22
HETATM   22  O   UNL     1     -11.973  15.214  71.249  1.00  0.00    -0.293 OA 
BRANCH  22  23
HETATM   23  C   UNL     1     -13.140  15.620  71.977  1.00  0.00    -0.459 C  
HETATM   24  C   UNL     1     -14.390  14.890  71.495  1.00  0.00    -0.631 C  
HETATM   25  C   UNL     1     -12.885  15.301  73.446  1.00  0.00    -0.667 C  
ENDBRANCH  22  23
ENDBRANCH  21  22
ENDBRANCH  20  21
ENDBRANCH  19  20
ENDBRANCH  18  19
ENDBRANCH  15  18
ENDBRANCH  11  12
ENDBRANCH  10  11
ENDBRANCH   7  10
ENDBRANCH   6   7
ENDBRANCH   4   6
ENDBRANCH   2   4
TORSDOF 12
ENDMDL
MODEL      178
REMARK 921   NORMALIZED FREE ENERGY PREDICTED BY IDOCK:   -3.80 KCAL/MOL
REMARK 922        TOTAL FREE ENERGY PREDICTED BY IDOCK:   -7.48 KCAL/MOL
REMARK 923 INTER-LIGAND FREE ENERGY PREDICTED BY IDOCK:   -6.36 KCAL/MOL
REMARK 924 INTRA-LIGAND FREE ENERGY PREDICTED BY IDOCK:   -1.12 KCAL/MOL
REMARK 927      BINDING AFFINITY PREDICTED BY RF-SCORE:    0.00 PKD
ROOT
HETATM    1  C   UNL     1     -12.598  12.216  63.367  1.00  0.00    -0.584 C  
HETATM    2  C   UNL     1     -11.104  12.045  63.653  1.00  0.00    -0.452 C  
HETATM    3  C   UNL     1     -10.566  13.312  64.323  1.00  0.00    -0.402 C  
ENDROOT
BRANCH   2   4
HETATM    4  N   UNL     1     -10.927  10.865  64.501  1.00  0.00    -0.177 NA 
HETATM    5  H   UNL     1     -11.238  10.023  64.017  1.00  0.00     0.000 HD 
BRANCH   4   6
HETATM    6  C   UNL     1      -9.554  10.703  64.999  1.00  0.00    -0.265 C  
BRANCH   6   7
HETATM    7  C   UNL     1      -9.215   9.207  65.135  1.00  0.00    -0.153 C  
HETATM    8  O   UNL     1      -8.837   8.683  63.852  1.00  0.00    -0.421 OA 
HETATM    9  H   UNL     1      -8.627   7.760  63.936  1.00  0.00     0.000 HD 
BRANCH   7  10
HETATM   10  C   UNL     1      -8.085   8.970  66.142  1.00  0.00    -0.111 C  
BRANCH  10  11
HETATM   11  O   UNL     1      -8.382   7.798  66.919  1.00  0.00    -0.120 OA 
BRANCH  11  12
HETATM   12  C   UNL     1      -9.149   8.025  68.030  1.00  0.00    -0.129 A  
HETATM   13  C   UNL     1      -8.915   9.033  68.965  1.00  0.00    -0.140 A  
HETATM   14  C   UNL     1      -9.756   9.174  70.071  1.00  0.00    -0.217 A  
HETATM   15  C   UNL     1     -10.851   8.318  70.256  1.00  0.00    -0.241 A  
HETATM   16  C   UNL     1     -11.101   7.331  69.298  1.00  0.00    -0.056 A  
HETATM   17  C   UNL     1     -10.258   7.193  68.186  1.00  0.00    -0.220 A  
BRANCH  15  18
HETATM   18  C   UNL     1     -11.718   8.463  71.479  1.00  0.00    -0.290 C  
BRANCH  18  19
HETATM   19  O   UNL     1     -11.802   9.844  71.814  1.00  0.00    -0.362 OA 
BRANCH  19  20
HETATM   20  C   UNL     1     -12.969  10.459  71.272  1.00  0.00    -0.419 C  
BRANCH  20  21
HETATM   21  C   UNL     1     -12.689  11.947  71.098  1.00  0.00    -0.284 C  
BRANCH  21  22
HETATM   22  O   UNL     1     -11.722  12.147  70.068  1.00  0.00    -0.308 OA 
BRANCH  22  23
HETATM   23  C   UNL     1     -12.033  13.245  69.200  1.00  0.00    -0.296 C  
HETATM   24  C   UNL     1     -11.177  14.470  69.508  1.00  0.00    -0.300 C  
HETATM   25  C   UNL     1     -11.774  12.775  67.772  1.00  0.00    -0.412 C  
ENDBRANCH  22  23
ENDBRANCH  21  22
ENDBRANCH  20  21
ENDBRANCH  19  20
ENDBRANCH  18  19
ENDBRANCH  15  18
ENDBRANCH  11  12
ENDBRANCH  10  11
ENDBRANCH   7  10
ENDBRANCH   6   7
ENDBRANCH   4   6
ENDBRANCH   2   4
TORSDOF 12
ENDMDL
MODEL      179
REMARK 921   NORMALIZED FREE ENERGY PREDICTED BY IDOCK:   -3.78 KCAL/MOL
REMARK 922        TOTAL FREE ENERGY PREDICTED BY IDOCK:   -7.45 KCAL/MOL
REMARK 923 INTER-LIGAND FREE ENERGY PREDICTED BY IDOCK:   -6.30 KCAL/MOL
REMARK 924 INTRA-LIGAND FREE ENERGY PREDICTED BY IDOCK:   -1.15 KCAL/MOL
REMARK 927      BINDING AFFINITY PREDICTED BY RF-SCORE:    0.00 PKD
ROOT
HETATM    1  C   UNL     1      -8.100   7.970  72.666  1.00  0.00    -0.197 C  
HETATM    2  C   UNL     1      -8.942   7.657  71.427  1.00  0.00    -0.132 C  
HETATM    3  C   UNL     1      -9.305   6.170  71.419  1.00  0.00    -0.163 C  
ENDROOT
BRANCH   2   4
HETATM    4  N   UNL     1     -10.134   8.507  71.450  1.00  0.00    -0.213 NA 
HETATM    5  H   UNL     1     -10.312   8.854  72.392  1.00  0.00     0.000 HD 
BRANCH   4   6
HETATM    6  C   UNL     1     -10.080   9.617  70.488  1.00  0.00    -0.274 C  
BRANCH   6   7
HETATM    7  C   UNL     1     -11.181   9.449  69.425  1.00  0.00     0.008 C  
HETATM    8  O   UNL     1     -12.287  10.309  69.740  1.00  0.00    -0.520 OA 
HETATM    9  H   UNL     1     -12.966  10.206  69.083  1.00  0.00     0.000 HD 
BRANCH   7  10
HETATM   10  C   UNL     1     -10.665   9.766  68.017  1.00  0.00    -0.247 C  
BRANCH  10  11
HETATM   11  O   UNL     1     -11.599  10.633  67.355  1.00  0.00    -0.445 OA 
BRANCH  11  12
HETATM   12  C   UNL     1     -11.104  11.868  67.027  1.00  0.00    -0.302 A  
HETATM   13  C   UNL     1      -9.903  12.394  67.502  1.00  0.00    -0.194 A  
HETATM   14  C   UNL     1      -9.492  13.670  67.111  1.00  0.00    -0.244 A  
HETATM   15  C   UNL     1     -10.269  14.437  66.232  1.00  0.00    -0.307 A  
HETATM   16  C   UNL     1     -11.455  13.892  65.733  1.00  0.00    -0.324 A  
HETATM   17  C   UNL     1     -11.865  12.609  66.123  1.00  0.00    -0.477 A  
BRANCH  15  18
HETATM   18  C   UNL     1      -9.826  15.828  65.858  1.00  0.00    -0.349 C  
BRANCH  18  19
HETATM   19  O   UNL     1      -9.134  16.396  66.966  1.00  0.00    -0.204 OA 
BRANCH  19  20
HETATM   20  C   UNL     1      -9.743  17.604  67.417  1.00  0.00    -0.283 C  
BRANCH  20  21
HETATM   21  C   UNL     1     -10.940  17.240  68.287  1.00  0.00    -0.188 C  
BRANCH  21  22
HETATM   22  O   UNL     1     -10.563  16.266  69.258  1.00  0.00    -0.250 OA 
BRANCH  22  23
HETATM   23  C   UNL     1     -11.654  15.824  70.076  1.00  0.00    -0.357 C  
HETATM   24  C   UNL     1     -12.091  14.406  69.721  1.00  0.00    -0.386 C  
HETATM   25  C   UNL     1     -11.178  15.874  71.524  1.00  0.00    -0.257 C  
ENDBRANCH  22  23
ENDBRANCH  21  22
ENDBRANCH  20  21
ENDBRANCH  19  20
ENDBRANCH  18  19
ENDBRANCH  15  18
ENDBRANCH  11  12
ENDBRANCH  10  11
ENDBRANCH   7  10
ENDBRANCH   6   7
ENDBRANCH   4   6
ENDBRANCH   2   4
TORSDOF 12
ENDMDL
MODEL      180
REMARK 921   NORMALIZED FREE ENERGY PREDICTED BY IDOCK:   -3.77 KCAL/MOL
REMARK 922        TOTAL FREE ENERGY PREDICTED BY IDOCK:   -7.43 KCAL/MOL
REMARK 923 INTER-LIGAND FREE ENERGY PREDICTED BY IDOCK:   -5.98 KCAL/MOL
REMARK 924 INTRA-LIGAND FREE ENERGY PREDICTED BY IDOCK:   -1.45 KCAL/MOL
REMARK 927      BINDING AFFINITY PREDICTED BY RF-SCORE:    0.00 PKD
ROOT
HETATM    1  C   UNL     1      -8.169  14.233  67.215  1.00  0.00    -0.212 C  
HETATM    2  C   UNL     1      -9.235  15.153  66.616  1.00  0.00    -0.270 C  
HETATM    3  C   UNL     1      -8.601  16.496  66.245  1.00  0.00    -0.367 C  
ENDROOT
BRANCH   2   4
HETATM    4  N   UNL     1      -9.820  14.488  65.450  1.00  0.00    -0.520 NA 
HETATM    5  H   UNL     1      -9.856  13.478  65.591  1.00  0.00     0.000 HD 
BRANCH   4   6
HETATM    6  C   UNL     1     -11.143  15.009  65.081  1.00  0.00    -0.401 C  
BRANCH   6   7
HETATM    7  C   UNL     1     -12.051  13.859  64.610  1.00  0.00    -0.431 C  
HETATM    8  O   UNL     1     -11.714  13.503  63.260  1.00  0.00    -0.688 OA 
HETATM    9  H   UNL     1     -12.275  12.794  62.969  1.00  0.00     0.000 HD 
BRANCH   7  10
HETATM   10  C   UNL     1     -11.925  12.628  65.514  1.00  0.00    -0.456 C  
BRANCH  10  11
HETATM   11  O   UNL     1     -10.935  11.741  64.969  1.00  0.00    -0.300 OA 
BRANCH  11  12
HETATM   12  C   UNL     1     -10.112  11.159  65.897  1.00  0.00    -0.247 A  
HETATM   13  C   UNL     1     -10.367  11.114  67.268  1.00  0.00    -0.243 A  
HETATM   14  C   UNL     1      -9.456  10.502  68.132  1.00  0.00    -0.157 A  
HETATM   15  C   UNL     1      -8.282   9.915  67.640  1.00  0.00    -0.114 A  
HETATM   16  C   UNL     1      -8.048   9.933  66.262  1.00  0.00    -0.114 A  
HETATM   17  C   UNL     1      -8.964  10.544  65.395  1.00  0.00    -0.207 A  
BRANCH  15  18
HETATM   18  C   UNL     1      -7.294   9.298  68.596  1.00  0.00    -0.076 C  
BRANCH  18  19
HETATM   19  O   UNL     1      -7.396   7.881  68.500  1.00  0.00    -0.092 OA 
BRANCH  19  20
HETATM   20  C   UNL     1      -7.105   7.237  69.738  1.00  0.00    -0.072 C  
BRANCH  20  21
HETATM   21  C   UNL     1      -8.225   6.247  70.037  1.00  0.00    -0.125 C  
BRANCH  21  22
HETATM   22  O   UNL     1      -9.336   6.490  69.176  1.00  0.00    -0.134 OA 
BRANCH  22  23
HETATM   23  C   UNL     1     -10.580   6.624  69.875  1.00  0.00    -0.226 C  
HETATM   24  C   UNL     1     -10.707   5.607  71.006  1.00  0.00    -0.304 C  
HETATM   25  C   UNL     1     -10.627   8.039  70.442  1.00  0.00    -0.224 C  
ENDBRANCH  22  23
ENDBRANCH  21  22
ENDBRANCH  20  21
ENDBRANCH  19  20
ENDBRANCH  18  19
ENDBRANCH  15  18
ENDBRANCH  11  12
ENDBRANCH  10  11
ENDBRANCH   7  10
ENDBRANCH   6   7
ENDBRANCH   4   6
ENDBRANCH   2   4
TORSDOF 12
ENDMDL
MODEL      181
REMARK 921   NORMALIZED FREE ENERGY PREDICTED BY IDOCK:   -3.77 KCAL/MOL
REMARK 922        TOTAL FREE ENERGY PREDICTED BY IDOCK:   -7.43 KCAL/MOL
REMARK 923 INTER-LIGAND FREE ENERGY PREDICTED BY IDOCK:   -6.44 KCAL/MOL
REMARK 924 INTRA-LIGAND FREE ENERGY PREDICTED BY IDOCK:   -0.99 KCAL/MOL
REMARK 927      BINDING AFFINITY PREDICTED BY RF-SCORE:    0.00 PKD
ROOT
HETATM    1  C   UNL     1     -11.542  15.534  71.975  1.00  0.00    -0.542 C  
HETATM    2  C   UNL     1     -12.856  14.925  71.480  1.00  0.00    -0.335 C  
HETATM    3  C   UNL     1     -14.027  15.555  72.238  1.00  0.00    -0.642 C  
ENDROOT
BRANCH   2   4
HETATM    4  N   UNL     1     -12.958  15.152  70.037  1.00  0.00    -0.632 NA 
HETATM    5  H   UNL     1     -13.889  15.487  69.789  1.00  0.00     0.000 HD 
BRANCH   4   6
HETATM    6  C   UNL     1     -11.923  16.053  69.512  1.00  0.00    -0.185 C  
BRANCH   6   7
HETATM    7  C   UNL     1     -11.476  15.586  68.115  1.00  0.00    -0.326 C  
HETATM    8  O   UNL     1     -10.088  15.905  67.924  1.00  0.00    -0.230 OA 
HETATM    9  H   UNL     1      -9.813  15.617  67.061  1.00  0.00     0.000 HD 
BRANCH   7  10
HETATM   10  C   UNL     1     -11.690  14.081  67.922  1.00  0.00    -0.362 C  
BRANCH  10  11
HETATM   11  O   UNL     1     -10.733  13.361  68.716  1.00  0.00    -0.247 OA 
BRANCH  11  12
HETATM   12  C   UNL     1     -10.436  12.105  68.259  1.00  0.00    -0.213 A  
HETATM   13  C   UNL     1      -9.652  11.832  67.138  1.00  0.00    -0.189 A  
HETATM   14  C   UNL     1      -9.416  10.511  66.751  1.00  0.00    -0.190 A  
HETATM   15  C   UNL     1      -9.950   9.441  67.482  1.00  0.00    -0.250 A  
HETATM   16  C   UNL     1     -10.708   9.719  68.624  1.00  0.00    -0.247 A  
HETATM   17  C   UNL     1     -10.941  11.046  69.014  1.00  0.00    -0.284 A  
BRANCH  15  18
HETATM   18  C   UNL     1      -9.718   8.026  67.021  1.00  0.00    -0.211 C  
BRANCH  18  19
HETATM   19  O   UNL     1     -10.981   7.383  66.881  1.00  0.00    -0.324 OA 
BRANCH  19  20
HETATM   20  C   UNL     1     -11.084   6.219  67.699  1.00  0.00    -0.266 C  
BRANCH  20  21
HETATM   21  C   UNL     1     -10.031   5.218  67.240  1.00  0.00    -0.177 C  
BRANCH  21  22
HETATM   22  O   UNL     1      -9.725   4.309  68.297  1.00  0.00    -0.151 OA 
BRANCH  22  23
HETATM   23  C   UNL     1      -9.323   4.961  69.509  1.00  0.00    -0.130 C  
HETATM   24  C   UNL     1      -9.372   4.013  70.705  1.00  0.00    -0.217 C  
HETATM   25  C   UNL     1      -7.897   5.459  69.299  1.00  0.00    -0.089 C  
ENDBRANCH  22  23
ENDBRANCH  21  22
ENDBRANCH  20  21
ENDBRANCH  19  20
ENDBRANCH  18  19
ENDBRANCH  15  18
ENDBRANCH  11  12
ENDBRANCH  10  11
ENDBRANCH   7  10
ENDBRANCH   6   7
ENDBRANCH   4   6
ENDBRANCH   2   4
TORSDOF 12
ENDMDL
MODEL      182
REMARK 921   NORMALIZED FREE ENERGY PREDICTED BY IDOCK:   -3.77 KCAL/MOL
REMARK 922        TOTAL FREE ENERGY PREDICTED BY IDOCK:   -7.43 KCAL/MOL
REMARK 923 INTER-LIGAND FREE ENERGY PREDICTED BY IDOCK:   -6.31 KCAL/MOL
REMARK 924 INTRA-LIGAND FREE ENERGY PREDICTED BY IDOCK:   -1.11 KCAL/MOL
REMARK 927      BINDING AFFINITY PREDICTED BY RF-SCORE:    0.00 PKD
ROOT
HETATM    1  C   UNL     1     -10.796  15.322  67.580  1.00  0.00    -0.295 C  
HETATM    2  C   UNL     1     -11.139  13.980  66.929  1.00  0.00    -0.304 C  
HETATM    3  C   UNL     1     -11.889  13.101  67.934  1.00  0.00    -0.390 C  
ENDROOT
BRANCH   2   4
HETATM    4  N   UNL     1     -11.940  14.238  65.731  1.00  0.00    -0.387 NA 
HETATM    5  H   UNL     1     -11.370  14.665  65.001  1.00  0.00     0.000 HD 
BRANCH   4   6
HETATM    6  C   UNL     1     -12.630  13.045  65.220  1.00  0.00    -0.457 C  
BRANCH   6   7
HETATM    7  C   UNL     1     -12.250  12.804  63.748  1.00  0.00    -0.489 C  
HETATM    8  O   UNL     1     -12.501  13.996  62.987  1.00  0.00    -1.101 OA 
HETATM    9  H   UNL     1     -12.266  13.848  62.078  1.00  0.00     0.000 HD 
BRANCH   7  10
HETATM   10  C   UNL     1     -10.780  12.398  63.599  1.00  0.00    -0.455 C  
BRANCH  10  11
HETATM   11  O   UNL     1     -10.693  10.969  63.482  1.00  0.00    -0.329 OA 
BRANCH  11  12
HETATM   12  C   UNL     1      -9.922  10.360  64.435  1.00  0.00    -0.318 A  
HETATM   13  C   UNL     1     -10.161  10.419  65.808  1.00  0.00    -0.329 A  
HETATM   14  C   UNL     1      -9.305   9.767  66.698  1.00  0.00    -0.200 A  
HETATM   15  C   UNL     1      -8.203   9.037  66.232  1.00  0.00    -0.115 A  
HETATM   16  C   UNL     1      -7.987   8.952  64.854  1.00  0.00    -0.129 A  
HETATM   17  C   UNL     1      -8.849   9.604  63.960  1.00  0.00    -0.256 A  
BRANCH  15  18
HETATM   18  C   UNL     1      -7.270   8.377  67.214  1.00  0.00    -0.084 C  
BRANCH  18  19
HETATM   19  O   UNL     1      -8.008   7.422  67.969  1.00  0.00    -0.116 OA 
BRANCH  19  20
HETATM   20  C   UNL     1      -7.159   6.578  68.744  1.00  0.00    -0.082 C  
BRANCH  20  21
HETATM   21  C   UNL     1      -7.309   5.150  68.233  1.00  0.00    -0.071 C  
BRANCH  21  22
HETATM   22  O   UNL     1      -8.447   5.053  67.378  1.00  0.00    -0.106 OA 
BRANCH  22  23
HETATM   23  C   UNL     1      -8.174   4.382  66.140  1.00  0.00    -0.102 C  
HETATM   24  C   UNL     1      -8.630   5.204  64.938  1.00  0.00    -0.151 C  
HETATM   25  C   UNL     1      -6.667   4.157  66.075  1.00  0.00    -0.049 C  
ENDBRANCH  22  23
ENDBRANCH  21  22
ENDBRANCH  20  21
ENDBRANCH  19  20
ENDBRANCH  18  19
ENDBRANCH  15  18
ENDBRANCH  11  12
ENDBRANCH  10  11
ENDBRANCH   7  10
ENDBRANCH   6   7
ENDBRANCH   4   6
ENDBRANCH   2   4
TORSDOF 12
ENDMDL
MODEL      183
REMARK 921   NORMALIZED FREE ENERGY PREDICTED BY IDOCK:   -3.76 KCAL/MOL
REMARK 922        TOTAL FREE ENERGY PREDICTED BY IDOCK:   -7.42 KCAL/MOL
REMARK 923 INTER-LIGAND FREE ENERGY PREDICTED BY IDOCK:   -6.32 KCAL/MOL
REMARK 924 INTRA-LIGAND FREE ENERGY PREDICTED BY IDOCK:   -1.10 KCAL/MOL
REMARK 927      BINDING AFFINITY PREDICTED BY RF-SCORE:    0.00 PKD
ROOT
HETATM    1  C   UNL     1      -9.193  19.847  67.534  1.00  0.00    -0.448 C  
HETATM    2  C   UNL     1      -9.135  18.696  66.526  1.00  0.00    -0.315 C  
HETATM    3  C   UNL     1      -7.705  18.156  66.451  1.00  0.00    -0.295 C  
ENDROOT
BRANCH   2   4
HETATM    4  N   UNL     1     -10.084  17.664  66.946  1.00  0.00    -0.318 NA 
HETATM    5  H   UNL     1     -10.899  18.083  67.394  1.00  0.00     0.000 HD 
BRANCH   4   6
HETATM    6  C   UNL     1     -10.492  16.766  65.858  1.00  0.00    -0.301 C  
BRANCH   6   7
HETATM    7  C   UNL     1     -10.438  15.302  66.332  1.00  0.00    -0.303 C  
HETATM    8  O   UNL     1      -9.755  14.506  65.351  1.00  0.00    -0.509 OA 
HETATM    9  H   UNL     1      -9.722  13.602  65.643  1.00  0.00     0.000 HD 
BRANCH   7  10
HETATM   10  C   UNL     1      -9.733  15.168  67.686  1.00  0.00    -0.211 C  
BRANCH  10  11
HETATM   11  O   UNL     1     -10.555  14.392  68.572  1.00  0.00    -0.240 OA 
BRANCH  11  12
HETATM   12  C   UNL     1     -10.529  13.042  68.345  1.00  0.00    -0.252 A  
HETATM   13  C   UNL     1     -11.660  12.232  68.237  1.00  0.00    -0.385 A  
HETATM   14  C   UNL     1     -11.523  10.861  68.013  1.00  0.00    -0.356 A  
HETATM   15  C   UNL     1     -10.255  10.277  67.882  1.00  0.00    -0.217 A  
HETATM   16  C   UNL     1      -9.126  11.098  67.958  1.00  0.00    -0.153 A  
HETATM   17  C   UNL     1      -9.265  12.475  68.179  1.00  0.00    -0.209 A  
BRANCH  15  18
HETATM   18  C   UNL     1     -10.131   8.789  67.683  1.00  0.00    -0.216 C  
BRANCH  18  19
HETATM   19  O   UNL     1      -8.779   8.412  67.923  1.00  0.00    -0.136 OA 
BRANCH  19  20
HETATM   20  C   UNL     1      -8.677   7.354  68.874  1.00  0.00    -0.132 C  
BRANCH  20  21
HETATM   21  C   UNL     1     -10.040   7.169  69.530  1.00  0.00    -0.179 C  
BRANCH  21  22
HETATM   22  O   UNL     1      -9.909   7.208  70.950  1.00  0.00    -0.181 OA 
BRANCH  22  23
HETATM   23  C   UNL     1      -9.695   8.528  71.467  1.00  0.00    -0.234 C  
HETATM   24  C   UNL     1     -10.968   9.368  71.421  1.00  0.00    -0.443 C  
HETATM   25  C   UNL     1      -9.225   8.375  72.910  1.00  0.00    -0.288 C  
ENDBRANCH  22  23
ENDBRANCH  21  22
ENDBRANCH  20  21
ENDBRANCH  19  20
ENDBRANCH  18  19
ENDBRANCH  15  18
ENDBRANCH  11  12
ENDBRANCH  10  11
ENDBRANCH   7  10
ENDBRANCH   6   7
ENDBRANCH   4   6
ENDBRANCH   2   4
TORSDOF 12
ENDMDL
MODEL      184
REMARK 921   NORMALIZED FREE ENERGY PREDICTED BY IDOCK:   -3.76 KCAL/MOL
REMARK 922        TOTAL FREE ENERGY PREDICTED BY IDOCK:   -7.42 KCAL/MOL
REMARK 923 INTER-LIGAND FREE ENERGY PREDICTED BY IDOCK:   -5.88 KCAL/MOL
REMARK 924 INTRA-LIGAND FREE ENERGY PREDICTED BY IDOCK:   -1.54 KCAL/MOL
REMARK 927      BINDING AFFINITY PREDICTED BY RF-SCORE:    0.00 PKD
ROOT
HETATM    1  C   UNL     1      -9.080   9.593  62.537  1.00  0.00    -0.283 C  
HETATM    2  C   UNL     1      -8.023   8.486  62.555  1.00  0.00    -0.151 C  
HETATM    3  C   UNL     1      -6.677   9.073  62.986  1.00  0.00    -0.090 C  
ENDROOT
BRANCH   2   4
HETATM    4  N   UNL     1      -8.473   7.432  63.467  1.00  0.00    -0.349 NA 
HETATM    5  H   UNL     1      -8.999   6.719  62.963  1.00  0.00     0.000 HD 
BRANCH   4   6
HETATM    6  C   UNL     1      -7.382   6.824  64.242  1.00  0.00    -0.088 C  
BRANCH   6   7
HETATM    7  C   UNL     1      -7.666   6.959  65.749  1.00  0.00    -0.100 C  
HETATM    8  O   UNL     1      -6.679   7.814  66.347  1.00  0.00    -0.052 OA 
HETATM    9  H   UNL     1      -6.854   7.898  67.278  1.00  0.00     0.000 HD 
BRANCH   7  10
HETATM   10  C   UNL     1      -9.066   7.523  66.016  1.00  0.00    -0.094 C  
BRANCH  10  11
HETATM   11  O   UNL     1      -9.017   8.957  65.960  1.00  0.00    -0.167 OA 
BRANCH  11  12
HETATM   12  C   UNL     1      -9.760   9.595  66.918  1.00  0.00    -0.186 A  
HETATM   13  C   UNL     1     -10.630  10.657  66.672  1.00  0.00    -0.276 A  
HETATM   14  C   UNL     1     -11.336  11.244  67.725  1.00  0.00    -0.354 A  
HETATM   15  C   UNL     1     -11.192  10.774  69.038  1.00  0.00    -0.322 A  
HETATM   16  C   UNL     1     -10.344   9.688  69.274  1.00  0.00    -0.223 A  
HETATM   17  C   UNL     1      -9.639   9.097  68.216  1.00  0.00    -0.161 A  
BRANCH  15  18
HETATM   18  C   UNL     1     -11.931  11.451  70.163  1.00  0.00    -0.377 C  
BRANCH  18  19
HETATM   19  O   UNL     1     -13.036  10.632  70.535  1.00  0.00    -0.323 OA 
BRANCH  19  20
HETATM   20  C   UNL     1     -13.216  10.587  71.949  1.00  0.00    -0.420 C  
BRANCH  20  21
HETATM   21  C   UNL     1     -12.853   9.187  72.432  1.00  0.00    -0.367 C  
BRANCH  21  22
HETATM   22  O   UNL     1     -12.900   8.266  71.344  1.00  0.00    -0.305 OA 
BRANCH  22  23
HETATM   23  C   UNL     1     -12.194   7.045  71.600  1.00  0.00    -0.357 C  
HETATM   24  C   UNL     1     -11.601   6.455  70.324  1.00  0.00    -0.451 C  
HETATM   25  C   UNL     1     -11.078   7.371  72.589  1.00  0.00    -0.378 C  
ENDBRANCH  22  23
ENDBRANCH  21  22
ENDBRANCH  20  21
ENDBRANCH  19  20
ENDBRANCH  18  19
ENDBRANCH  15  18
ENDBRANCH  11  12
ENDBRANCH  10  11
ENDBRANCH   7  10
ENDBRANCH   6   7
ENDBRANCH   4   6
ENDBRANCH   2   4
TORSDOF 12
ENDMDL
MODEL      185
REMARK 921   NORMALIZED FREE ENERGY PREDICTED BY IDOCK:   -3.75 KCAL/MOL
REMARK 922        TOTAL FREE ENERGY PREDICTED BY IDOCK:   -7.40 KCAL/MOL
REMARK 923 INTER-LIGAND FREE ENERGY PREDICTED BY IDOCK:   -5.94 KCAL/MOL
REMARK 924 INTRA-LIGAND FREE ENERGY PREDICTED BY IDOCK:   -1.46 KCAL/MOL
REMARK 927      BINDING AFFINITY PREDICTED BY RF-SCORE:    0.00 PKD
ROOT
HETATM    1  C   UNL     1     -12.746  13.698  65.664  1.00  0.00    -0.505 C  
HETATM    2  C   UNL     1     -11.500  13.726  64.776  1.00  0.00    -0.356 C  
HETATM    3  C   UNL     1     -11.797  13.008  63.457  1.00  0.00    -0.582 C  
ENDROOT
BRANCH   2   4
HETATM    4  N   UNL     1     -11.116  15.122  64.559  1.00  0.00    -0.658 NA 
HETATM    5  H   UNL     1     -11.827  15.753  64.929  1.00  0.00     0.000 HD 
BRANCH   4   6
HETATM    6  C   UNL     1      -9.791  15.456  65.100  1.00  0.00    -0.101 C  
BRANCH   6   7
HETATM    7  C   UNL     1      -9.906  16.626  66.094  1.00  0.00    -0.318 C  
HETATM    8  O   UNL     1     -11.250  17.133  66.085  1.00  0.00     0.286 OA 
HETATM    9  H   UNL     1     -11.321  17.855  66.698  1.00  0.00     0.000 HD 
BRANCH   7  10
HETATM   10  C   UNL     1      -9.524  16.204  67.516  1.00  0.00    -0.223 C  
BRANCH  10  11
HETATM   11  O   UNL     1     -10.718  15.918  68.262  1.00  0.00    -0.267 OA 
BRANCH  11  12
HETATM   12  C   UNL     1     -10.869  14.605  68.622  1.00  0.00    -0.255 A  
HETATM   13  C   UNL     1     -11.973  14.090  69.302  1.00  0.00    -0.396 A  
HETATM   14  C   UNL     1     -12.025  12.734  69.631  1.00  0.00    -0.354 A  
HETATM   15  C   UNL     1     -10.982  11.867  69.277  1.00  0.00    -0.208 A  
HETATM   16  C   UNL     1      -9.893  12.382  68.567  1.00  0.00    -0.156 A  
HETATM   17  C   UNL     1      -9.843  13.743  68.234  1.00  0.00    -0.232 A  
BRANCH  15  18
HETATM   18  C   UNL     1     -11.040  10.417  69.680  1.00  0.00    -0.276 C  
BRANCH  18  19
HETATM   19  O   UNL     1     -10.992   9.618  68.502  1.00  0.00    -0.193 OA 
BRANCH  19  20
HETATM   20  C   UNL     1      -9.814   8.816  68.445  1.00  0.00    -0.171 C  
BRANCH  20  21
HETATM   21  C   UNL     1      -9.332   8.776  66.999  1.00  0.00    -0.157 C  
BRANCH  21  22
HETATM   22  O   UNL     1      -9.665   9.996  66.338  1.00  0.00    -0.187 OA 
BRANCH  22  23
HETATM   23  C   UNL     1      -8.742  10.351  65.300  1.00  0.00    -0.179 C  
HETATM   24  C   UNL     1      -7.517   9.441  65.295  1.00  0.00    -0.100 C  
HETATM   25  C   UNL     1      -9.488  10.225  63.975  1.00  0.00    -0.356 C  
ENDBRANCH  22  23
ENDBRANCH  21  22
ENDBRANCH  20  21
ENDBRANCH  19  20
ENDBRANCH  18  19
ENDBRANCH  15  18
ENDBRANCH  11  12
ENDBRANCH  10  11
ENDBRANCH   7  10
ENDBRANCH   6   7
ENDBRANCH   4   6
ENDBRANCH   2   4
TORSDOF 12
ENDMDL
MODEL      186
REMARK 921   NORMALIZED FREE ENERGY PREDICTED BY IDOCK:   -3.74 KCAL/MOL
REMARK 922        TOTAL FREE ENERGY PREDICTED BY IDOCK:   -7.39 KCAL/MOL
REMARK 923 INTER-LIGAND FREE ENERGY PREDICTED BY IDOCK:   -6.31 KCAL/MOL
REMARK 924 INTRA-LIGAND FREE ENERGY PREDICTED BY IDOCK:   -1.08 KCAL/MOL
REMARK 927      BINDING AFFINITY PREDICTED BY RF-SCORE:    0.00 PKD
ROOT
HETATM    1  C   UNL     1     -10.120   8.996  71.210  1.00  0.00    -0.384 C  
HETATM    2  C   UNL     1      -9.592   7.650  70.709  1.00  0.00    -0.166 C  
HETATM    3  C   UNL     1     -10.696   6.595  70.821  1.00  0.00    -0.282 C  
ENDROOT
BRANCH   2   4
HETATM    4  N   UNL     1      -9.139   7.816  69.327  1.00  0.00    -0.146 NA 
HETATM    5  H   UNL     1      -8.167   8.125  69.300  1.00  0.00     0.000 HD 
BRANCH   4   6
HETATM    6  C   UNL     1      -9.326   6.616  68.500  1.00  0.00    -0.125 C  
BRANCH   6   7
HETATM    7  C   UNL     1      -9.961   6.997  67.151  1.00  0.00    -0.189 C  
HETATM    8  O   UNL     1     -11.359   6.667  67.168  1.00  0.00    -0.724 OA 
HETATM    9  H   UNL     1     -11.751   6.903  66.335  1.00  0.00     0.000 HD 
BRANCH   7  10
HETATM   10  C   UNL     1      -9.787   8.488  66.841  1.00  0.00    -0.242 C  
BRANCH  10  11
HETATM   11  O   UNL     1     -10.819   9.233  67.506  1.00  0.00    -0.259 OA 
BRANCH  11  12
HETATM   12  C   UNL     1     -10.907  10.549  67.137  1.00  0.00    -0.259 A  
HETATM   13  C   UNL     1     -10.433  11.069  65.932  1.00  0.00    -0.300 A  
HETATM   14  C   UNL     1     -10.565  12.432  65.656  1.00  0.00    -0.297 A  
HETATM   15  C   UNL     1     -11.181  13.295  66.572  1.00  0.00    -0.329 A  
HETATM   16  C   UNL     1     -11.684  12.763  67.763  1.00  0.00    -0.412 A  
HETATM   17  C   UNL     1     -11.555  11.394  68.038  1.00  0.00    -0.357 A  
BRANCH  15  18
HETATM   18  C   UNL     1     -11.274  14.768  66.270  1.00  0.00    -0.343 C  
BRANCH  18  19
HETATM   19  O   UNL     1     -10.903  15.493  67.439  1.00  0.00    -0.304 OA 
BRANCH  19  20
HETATM   20  C   UNL     1      -9.564  15.978  67.367  1.00  0.00    -0.225 C  
BRANCH  20  21
HETATM   21  C   UNL     1      -8.705  15.152  68.317  1.00  0.00    -0.171 C  
BRANCH  21  22
HETATM   22  O   UNL     1      -8.198  15.978  69.364  1.00  0.00    -0.235 OA 
BRANCH  22  23
HETATM   23  C   UNL     1      -6.768  16.078  69.369  1.00  0.00    -0.200 C  
HETATM   24  C   UNL     1      -6.140  15.280  68.231  1.00  0.00    -0.122 C  
HETATM   25  C   UNL     1      -6.422  17.556  69.220  1.00  0.00    -0.243 C  
ENDBRANCH  22  23
ENDBRANCH  21  22
ENDBRANCH  20  21
ENDBRANCH  19  20
ENDBRANCH  18  19
ENDBRANCH  15  18
ENDBRANCH  11  12
ENDBRANCH  10  11
ENDBRANCH   7  10
ENDBRANCH   6   7
ENDBRANCH   4   6
ENDBRANCH   2   4
TORSDOF 12
ENDMDL
MODEL      187
REMARK 921   NORMALIZED FREE ENERGY PREDICTED BY IDOCK:   -3.74 KCAL/MOL
REMARK 922        TOTAL FREE ENERGY PREDICTED BY IDOCK:   -7.39 KCAL/MOL
REMARK 923 INTER-LIGAND FREE ENERGY PREDICTED BY IDOCK:   -6.90 KCAL/MOL
REMARK 924 INTRA-LIGAND FREE ENERGY PREDICTED BY IDOCK:   -0.48 KCAL/MOL
REMARK 927      BINDING AFFINITY PREDICTED BY RF-SCORE:    0.00 PKD
ROOT
HETATM    1  C   UNL     1      -8.044   4.588  65.689  1.00  0.00    -0.106 C  
HETATM    2  C   UNL     1      -8.497   4.750  67.142  1.00  0.00    -0.105 C  
HETATM    3  C   UNL     1      -7.825   3.681  68.008  1.00  0.00    -0.068 C  
ENDROOT
BRANCH   2   4
HETATM    4  N   UNL     1      -8.156   6.102  67.586  1.00  0.00    -0.112 NA 
HETATM    5  H   UNL     1      -7.689   6.620  66.841  1.00  0.00     0.000 HD 
BRANCH   4   6
HETATM    6  C   UNL     1      -9.306   6.856  68.103  1.00  0.00    -0.124 C  
BRANCH   6   7
HETATM    7  C   UNL     1     -10.320   7.113  66.974  1.00  0.00    -0.298 C  
HETATM    8  O   UNL     1     -11.582   6.519  67.319  1.00  0.00    -0.737 OA 
HETATM    9  H   UNL     1     -12.208   6.677  66.622  1.00  0.00     0.000 HD 
BRANCH   7  10
HETATM   10  C   UNL     1     -10.511   8.610  66.710  1.00  0.00    -0.228 C  
BRANCH  10  11
HETATM   11  O   UNL     1     -11.044   9.235  67.889  1.00  0.00    -0.098 OA 
BRANCH  11  12
HETATM   12  C   UNL     1     -11.201  10.592  67.799  1.00  0.00    -0.313 A  
HETATM   13  C   UNL     1     -10.927  11.350  66.660  1.00  0.00    -0.341 A  
HETATM   14  C   UNL     1     -11.114  12.734  66.676  1.00  0.00    -0.313 A  
HETATM   15  C   UNL     1     -11.587  13.383  67.825  1.00  0.00    -0.375 A  
HETATM   16  C   UNL     1     -11.891  12.615  68.953  1.00  0.00    -0.345 A  
HETATM   17  C   UNL     1     -11.707  11.225  68.935  1.00  0.00    -0.409 A  
BRANCH  15  18
HETATM   18  C   UNL     1     -11.739  14.881  67.832  1.00  0.00    -0.321 C  
BRANCH  18  19
HETATM   19  O   UNL     1     -11.277  15.389  66.584  1.00  0.00    -0.284 OA 
BRANCH  19  20
HETATM   20  C   UNL     1     -10.107  16.191  66.732  1.00  0.00    -0.271 C  
BRANCH  20  21
HETATM   21  C   UNL     1     -10.376  17.549  66.093  1.00  0.00    -0.329 C  
BRANCH  21  22
HETATM   22  O   UNL     1      -9.144  18.216  65.823  1.00  0.00    -0.466 OA 
BRANCH  22  23
HETATM   23  C   UNL     1      -9.170  19.613  66.139  1.00  0.00    -0.340 C  
HETATM   24  C   UNL     1     -10.257  19.943  67.158  1.00  0.00    -0.579 C  
HETATM   25  C   UNL     1      -7.800  19.971  66.706  1.00  0.00    -0.341 C  
ENDBRANCH  22  23
ENDBRANCH  21  22
ENDBRANCH  20  21
ENDBRANCH  19  20
ENDBRANCH  18  19
ENDBRANCH  15  18
ENDBRANCH  11  12
ENDBRANCH  10  11
ENDBRANCH   7  10
ENDBRANCH   6   7
ENDBRANCH   4   6
ENDBRANCH   2   4
TORSDOF 12
ENDMDL
MODEL      188
REMARK 921   NORMALIZED FREE ENERGY PREDICTED BY IDOCK:   -3.74 KCAL/MOL
REMARK 922        TOTAL FREE ENERGY PREDICTED BY IDOCK:   -7.39 KCAL/MOL
REMARK 923 INTER-LIGAND FREE ENERGY PREDICTED BY IDOCK:   -6.54 KCAL/MOL
REMARK 924 INTRA-LIGAND FREE ENERGY PREDICTED BY IDOCK:   -0.84 KCAL/MOL
REMARK 927      BINDING AFFINITY PREDICTED BY RF-SCORE:    0.00 PKD
ROOT
HETATM    1  C   UNL     1     -12.628  12.194  63.730  1.00  0.00    -0.585 C  
HETATM    2  C   UNL     1     -11.465  12.044  64.714  1.00  0.00    -0.298 C  
HETATM    3  C   UNL     1     -10.364  13.046  64.360  1.00  0.00    -0.397 C  
ENDROOT
BRANCH   2   4
HETATM    4  N   UNL     1     -11.976  12.255  66.070  1.00  0.00    -0.609 NA 
HETATM    5  H   UNL     1     -11.350  11.838  66.760  1.00  0.00     0.000 HD 
BRANCH   4   6
HETATM    6  C   UNL     1     -12.233  13.667  66.386  1.00  0.00    -0.423 C  
BRANCH   6   7
HETATM    7  C   UNL     1     -11.555  14.042  67.716  1.00  0.00    -0.345 C  
HETATM    8  O   UNL     1     -12.505  14.705  68.567  1.00  0.00    -0.587 OA 
HETATM    9  H   UNL     1     -12.087  14.937  69.388  1.00  0.00     0.000 HD 
BRANCH   7  10
HETATM   10  C   UNL     1     -10.990  12.812  68.434  1.00  0.00    -0.254 C  
BRANCH  10  11
HETATM   11  O   UNL     1     -12.046  12.162  69.160  1.00  0.00    -0.267 OA 
BRANCH  11  12
HETATM   12  C   UNL     1     -11.640  11.125  69.958  1.00  0.00    -0.338 A  
HETATM   13  C   UNL     1     -10.439  10.431  69.809  1.00  0.00    -0.284 A  
HETATM   14  C   UNL     1     -10.124   9.380  70.673  1.00  0.00    -0.356 A  
HETATM   15  C   UNL     1     -10.996   9.013  71.707  1.00  0.00    -0.443 A  
HETATM   16  C   UNL     1     -12.183   9.733  71.873  1.00  0.00    -0.378 A  
HETATM   17  C   UNL     1     -12.497  10.790  71.007  1.00  0.00    -0.522 A  
BRANCH  15  18
HETATM   18  C   UNL     1     -10.654   7.849  72.600  1.00  0.00    -0.329 C  
BRANCH  18  19
HETATM   19  O   UNL     1     -10.855   6.643  71.869  1.00  0.00    -0.226 OA 
BRANCH  19  20
HETATM   20  C   UNL     1     -12.150   6.090  72.091  1.00  0.00    -0.142 C  
BRANCH  20  21
HETATM   21  C   UNL     1     -11.987   4.612  72.425  1.00  0.00     0.927 C  
BRANCH  21  22
HETATM   22  O   UNL     1     -10.816   4.414  73.217  1.00  0.00    -0.212 OA 
BRANCH  22  23
HETATM   23  C   UNL     1      -9.984   3.346  72.747  1.00  0.00    -0.151 C  
HETATM   24  C   UNL     1      -8.632   3.328  73.453  1.00  0.00    -0.078 C  
HETATM   25  C   UNL     1     -10.730   2.043  73.020  1.00  0.00    -0.245 C  
ENDBRANCH  22  23
ENDBRANCH  21  22
ENDBRANCH  20  21
ENDBRANCH  19  20
ENDBRANCH  18  19
ENDBRANCH  15  18
ENDBRANCH  11  12
ENDBRANCH  10  11
ENDBRANCH   7  10
ENDBRANCH   6   7
ENDBRANCH   4   6
ENDBRANCH   2   4
TORSDOF 12
ENDMDL
MODEL      189
REMARK 921   NORMALIZED FREE ENERGY PREDICTED BY IDOCK:   -3.74 KCAL/MOL
REMARK 922        TOTAL FREE ENERGY PREDICTED BY IDOCK:   -7.38 KCAL/MOL
REMARK 923 INTER-LIGAND FREE ENERGY PREDICTED BY IDOCK:   -6.71 KCAL/MOL
REMARK 924 INTRA-LIGAND FREE ENERGY PREDICTED BY IDOCK:   -0.67 KCAL/MOL
REMARK 927      BINDING AFFINITY PREDICTED BY RF-SCORE:    0.00 PKD
ROOT
HETATM    1  C   UNL     1      -5.819  12.862  68.300  1.00  0.00    -0.079 C  
HETATM    2  C   UNL     1      -6.950  13.890  68.390  1.00  0.00    -0.102 C  
HETATM    3  C   UNL     1      -6.498  15.072  69.251  1.00  0.00    -0.124 C  
ENDROOT
BRANCH   2   4
HETATM    4  N   UNL     1      -7.304  14.310  67.033  1.00  0.00    -0.335 NA 
HETATM    5  H   UNL     1      -7.962  13.653  66.612  1.00  0.00     0.000 HD 
BRANCH   4   6
HETATM    6  C   UNL     1      -7.823  15.683  66.962  1.00  0.00    -0.231 C  
BRANCH   6   7
HETATM    7  C   UNL     1      -9.249  15.680  66.384  1.00  0.00    -0.311 C  
HETATM    8  O   UNL     1      -9.361  14.650  65.389  1.00  0.00    -0.453 OA 
HETATM    9  H   UNL     1     -10.242  14.648  65.032  1.00  0.00     0.000 HD 
BRANCH   7  10
HETATM   10  C   UNL     1     -10.304  15.460  67.474  1.00  0.00    -0.264 C  
BRANCH  10  11
HETATM   11  O   UNL     1     -11.206  14.422  67.057  1.00  0.00    -0.307 OA 
BRANCH  11  12
HETATM   12  C   UNL     1     -11.473  13.476  68.010  1.00  0.00    -0.307 A  
HETATM   13  C   UNL     1     -11.349  12.100  67.820  1.00  0.00    -0.371 A  
HETATM   14  C   UNL     1     -11.656  11.217  68.858  1.00  0.00    -0.386 A  
HETATM   15  C   UNL     1     -12.081  11.695  70.106  1.00  0.00    -0.414 A  
HETATM   16  C   UNL     1     -12.172  13.076  70.301  1.00  0.00    -0.368 A  
HETATM   17  C   UNL     1     -11.860  13.961  69.260  1.00  0.00    -0.394 A  
BRANCH  15  18
HETATM   18  C   UNL     1     -12.448  10.722  71.196  1.00  0.00    -0.414 C  
BRANCH  18  19
HETATM   19  O   UNL     1     -11.954   9.435  70.840  1.00  0.00    -0.288 OA 
BRANCH  19  20
HETATM   20  C   UNL     1     -11.905   8.550  71.957  1.00  0.00    -0.362 C  
BRANCH  20  21
HETATM   21  C   UNL     1     -11.079   7.330  71.565  1.00  0.00    -0.237 C  
BRANCH  21  22
HETATM   22  O   UNL     1     -10.513   6.728  72.727  1.00  0.00    -0.199 OA 
BRANCH  22  23
HETATM   23  C   UNL     1     -10.030   5.397  72.501  1.00  0.00    -0.168 C  
HETATM   24  C   UNL     1     -10.768   4.373  73.359  1.00  0.00    -0.315 C  
HETATM   25  C   UNL     1     -10.244   5.087  71.023  1.00  0.00    -0.283 C  
ENDBRANCH  22  23
ENDBRANCH  21  22
ENDBRANCH  20  21
ENDBRANCH  19  20
ENDBRANCH  18  19
ENDBRANCH  15  18
ENDBRANCH  11  12
ENDBRANCH  10  11
ENDBRANCH   7  10
ENDBRANCH   6   7
ENDBRANCH   4   6
ENDBRANCH   2   4
TORSDOF 12
ENDMDL
MODEL      190
REMARK 921   NORMALIZED FREE ENERGY PREDICTED BY IDOCK:   -3.74 KCAL/MOL
REMARK 922        TOTAL FREE ENERGY PREDICTED BY IDOCK:   -7.38 KCAL/MOL
REMARK 923 INTER-LIGAND FREE ENERGY PREDICTED BY IDOCK:   -6.25 KCAL/MOL
REMARK 924 INTRA-LIGAND FREE ENERGY PREDICTED BY IDOCK:   -1.13 KCAL/MOL
REMARK 927      BINDING AFFINITY PREDICTED BY RF-SCORE:    0.00 PKD
ROOT
HETATM    1  C   UNL     1      -9.322   3.884  71.540  1.00  0.00    -0.203 C  
HETATM    2  C   UNL     1      -8.572   5.144  71.978  1.00  0.00    -0.130 C  
HETATM    3  C   UNL     1      -7.614   5.581  70.867  1.00  0.00    -0.090 C  
ENDROOT
BRANCH   2   4
HETATM    4  N   UNL     1      -9.555   6.184  72.287  1.00  0.00    -0.153 NA 
HETATM    5  H   UNL     1      -9.478   6.961  71.631  1.00  0.00     0.000 HD 
BRANCH   4   6
HETATM    6  C   UNL     1     -10.937   5.686  72.343  1.00  0.00    -0.259 C  
BRANCH   6   7
HETATM    7  C   UNL     1     -11.918   6.806  71.952  1.00  0.00    -0.333 C  
HETATM    8  O   UNL     1     -12.086   7.705  73.060  1.00  0.00    -0.569 OA 
HETATM    9  H   UNL     1     -12.692   8.396  72.819  1.00  0.00     0.000 HD 
BRANCH   7  10
HETATM   10  C   UNL     1     -11.433   7.585  70.726  1.00  0.00    -0.284 C  
BRANCH  10  11
HETATM   11  O   UNL     1     -10.963   6.660  69.733  1.00  0.00    -0.260 OA 
BRANCH  11  12
HETATM   12  C   UNL     1     -10.498   7.239  68.582  1.00  0.00    -0.194 A  
HETATM   13  C   UNL     1      -9.876   6.550  67.541  1.00  0.00    -0.150 A  
HETATM   14  C   UNL     1      -9.430   7.239  66.411  1.00  0.00    -0.185 A  
HETATM   15  C   UNL     1      -9.606   8.625  66.297  1.00  0.00    -0.322 A  
HETATM   16  C   UNL     1     -10.260   9.306  67.329  1.00  0.00    -0.315 A  
HETATM   17  C   UNL     1     -10.711   8.613  68.461  1.00  0.00    -0.091 A  
BRANCH  15  18
HETATM   18  C   UNL     1      -9.079   9.353  65.088  1.00  0.00    -0.225 C  
BRANCH  18  19
HETATM   19  O   UNL     1      -9.940  10.452  64.810  1.00  0.00    -0.314 OA 
BRANCH  19  20
HETATM   20  C   UNL     1      -9.940  10.798  63.427  1.00  0.00    -0.328 C  
BRANCH  20  21
HETATM   21  C   UNL     1     -10.894  11.969  63.226  1.00  0.00    -0.334 C  
BRANCH  21  22
HETATM   22  O   UNL     1     -10.562  13.030  64.120  1.00  0.00    -0.402 OA 
BRANCH  22  23
HETATM   23  C   UNL     1     -11.670  13.474  64.915  1.00  0.00    -0.357 C  
HETATM   24  C   UNL     1     -11.242  13.828  66.336  1.00  0.00    -0.321 C  
HETATM   25  C   UNL     1     -12.252  14.703  64.226  1.00  0.00    -0.432 C  
ENDBRANCH  22  23
ENDBRANCH  21  22
ENDBRANCH  20  21
ENDBRANCH  19  20
ENDBRANCH  18  19
ENDBRANCH  15  18
ENDBRANCH  11  12
ENDBRANCH  10  11
ENDBRANCH   7  10
ENDBRANCH   6   7
ENDBRANCH   4   6
ENDBRANCH   2   4
TORSDOF 12
ENDMDL
MODEL      191
REMARK 921   NORMALIZED FREE ENERGY PREDICTED BY IDOCK:   -3.73 KCAL/MOL
REMARK 922        TOTAL FREE ENERGY PREDICTED BY IDOCK:   -7.36 KCAL/MOL
REMARK 923 INTER-LIGAND FREE ENERGY PREDICTED BY IDOCK:   -6.61 KCAL/MOL
REMARK 924 INTRA-LIGAND FREE ENERGY PREDICTED BY IDOCK:   -0.75 KCAL/MOL
REMARK 927      BINDING AFFINITY PREDICTED BY RF-SCORE:    0.00 PKD
ROOT
HETATM    1  C   UNL     1      -9.315  18.878  68.538  1.00  0.00    -0.412 C  
HETATM    2  C   UNL     1     -10.656  18.723  67.817  1.00  0.00    -0.390 C  
HETATM    3  C   UNL     1     -10.737  19.729  66.666  1.00  0.00    -0.518 C  
ENDROOT
BRANCH   2   4
HETATM    4  N   UNL     1     -10.768  17.343  67.340  1.00  0.00    -0.301 NA 
HETATM    5  H   UNL     1     -11.675  16.947  67.589  1.00  0.00     0.000 HD 
BRANCH   4   6
HETATM    6  C   UNL     1     -10.516  17.199  65.899  1.00  0.00    -0.258 C  
BRANCH   6   7
HETATM    7  C   UNL     1     -10.122  15.747  65.574  1.00  0.00    -0.351 C  
HETATM    8  O   UNL     1      -8.777  15.505  66.018  1.00  0.00    -0.405 OA 
HETATM    9  H   UNL     1      -8.534  14.608  65.817  1.00  0.00     0.000 HD 
BRANCH   7  10
HETATM   10  C   UNL     1     -11.071  14.740  66.232  1.00  0.00    -0.341 C  
BRANCH  10  11
HETATM   11  O   UNL     1     -10.752  14.630  67.628  1.00  0.00    -0.263 OA 
BRANCH  11  12
HETATM   12  C   UNL     1     -10.720  13.350  68.112  1.00  0.00    -0.253 A  
HETATM   13  C   UNL     1      -9.837  12.359  67.682  1.00  0.00    -0.198 A  
HETATM   14  C   UNL     1      -9.894  11.079  68.236  1.00  0.00    -0.185 A  
HETATM   15  C   UNL     1     -10.826  10.769  69.236  1.00  0.00    -0.287 A  
HETATM   16  C   UNL     1     -11.687  11.774  69.687  1.00  0.00    -0.413 A  
HETATM   17  C   UNL     1     -11.626  13.060  69.133  1.00  0.00    -0.368 A  
BRANCH  15  18
HETATM   18  C   UNL     1     -10.897   9.369  69.788  1.00  0.00    -0.232 C  
BRANCH  18  19
HETATM   19  O   UNL     1      -9.594   8.985  70.217  1.00  0.00    -0.174 OA 
BRANCH  19  20
HETATM   20  C   UNL     1      -9.432   9.121  71.627  1.00  0.00    -0.113 C  
BRANCH  20  21
HETATM   21  C   UNL     1      -9.263   7.729  72.225  1.00  0.00    -0.154 C  
BRANCH  21  22
HETATM   22  O   UNL     1      -9.759   7.706  73.562  1.00  0.00    -0.281 OA 
BRANCH  22  23
HETATM   23  C   UNL     1     -10.628   6.597  73.828  1.00  0.00    -0.278 C  
HETATM   24  C   UNL     1     -11.473   6.235  72.610  1.00  0.00    -0.255 C  
HETATM   25  C   UNL     1      -9.744   5.417  74.217  1.00  0.00    -0.180 C  
ENDBRANCH  22  23
ENDBRANCH  21  22
ENDBRANCH  20  21
ENDBRANCH  19  20
ENDBRANCH  18  19
ENDBRANCH  15  18
ENDBRANCH  11  12
ENDBRANCH  10  11
ENDBRANCH   7  10
ENDBRANCH   6   7
ENDBRANCH   4   6
ENDBRANCH   2   4
TORSDOF 12
ENDMDL
MODEL      192
REMARK 921   NORMALIZED FREE ENERGY PREDICTED BY IDOCK:   -3.71 KCAL/MOL
REMARK 922        TOTAL FREE ENERGY PREDICTED BY IDOCK:   -7.33 KCAL/MOL
REMARK 923 INTER-LIGAND FREE ENERGY PREDICTED BY IDOCK:   -6.19 KCAL/MOL
REMARK 924 INTRA-LIGAND FREE ENERGY PREDICTED BY IDOCK:   -1.14 KCAL/MOL
REMARK 927      BINDING AFFINITY PREDICTED BY RF-SCORE:    0.00 PKD
ROOT
HETATM    1  C   UNL     1      -5.863  10.225  64.326  1.00  0.00    -0.142 C  
HETATM    2  C   UNL     1      -6.304   9.574  65.639  1.00  0.00    -0.070 C  
HETATM    3  C   UNL     1      -6.742  10.660  66.625  1.00  0.00    -0.106 C  
ENDROOT
BRANCH   2   4
HETATM    4  N   UNL     1      -7.389   8.635  65.348  1.00  0.00    -0.083 NA 
HETATM    5  H   UNL     1      -7.159   8.055  64.542  1.00  0.00     0.000 HD 
BRANCH   4   6
HETATM    6  C   UNL     1      -7.766   7.802  66.498  1.00  0.00    -0.097 C  
BRANCH   6   7
HETATM    7  C   UNL     1      -9.159   7.186  66.271  1.00  0.00    -0.147 C  
HETATM    8  O   UNL     1      -9.204   5.875  66.856  1.00  0.00    -0.120 OA 
HETATM    9  H   UNL     1     -10.063   5.495  66.716  1.00  0.00     0.000 HD 
BRANCH   7  10
HETATM   10  C   UNL     1     -10.270   8.056  66.867  1.00  0.00    -0.315 C  
BRANCH  10  11
HETATM   11  O   UNL     1      -9.720   9.324  67.260  1.00  0.00    -0.152 OA 
BRANCH  11  12
HETATM   12  C   UNL     1     -10.338  10.414  66.707  1.00  0.00    -0.235 A  
HETATM   13  C   UNL     1     -10.238  10.790  65.368  1.00  0.00    -0.341 A  
HETATM   14  C   UNL     1     -10.904  11.928  64.907  1.00  0.00    -0.356 A  
HETATM   15  C   UNL     1     -11.689  12.702  65.772  1.00  0.00    -0.466 A  
HETATM   16  C   UNL     1     -11.813  12.302  67.106  1.00  0.00    -0.328 A  
HETATM   17  C   UNL     1     -11.147  11.157  67.567  1.00  0.00    -0.353 A  
BRANCH  15  18
HETATM   18  C   UNL     1     -12.363  13.949  65.262  1.00  0.00    -0.464 C  
BRANCH  18  19
HETATM   19  O   UNL     1     -11.878  15.062  66.005  1.00  0.00    -0.190 OA 
BRANCH  19  20
HETATM   20  C   UNL     1     -10.894  15.801  65.285  1.00  0.00    -0.395 C  
BRANCH  20  21
HETATM   21  C   UNL     1     -10.032  16.557  66.290  1.00  0.00    -0.329 C  
BRANCH  21  22
HETATM   22  O   UNL     1     -10.858  17.176  67.275  1.00  0.00    -0.251 OA 
BRANCH  22  23
HETATM   23  C   UNL     1     -10.281  18.360  67.840  1.00  0.00    -0.381 C  
HETATM   24  C   UNL     1      -8.756  18.296  67.854  1.00  0.00    -0.274 C  
HETATM   25  C   UNL     1     -10.743  19.536  66.987  1.00  0.00    -0.592 C  
ENDBRANCH  22  23
ENDBRANCH  21  22
ENDBRANCH  20  21
ENDBRANCH  19  20
ENDBRANCH  18  19
ENDBRANCH  15  18
ENDBRANCH  11  12
ENDBRANCH  10  11
ENDBRANCH   7  10
ENDBRANCH   6   7
ENDBRANCH   4   6
ENDBRANCH   2   4
TORSDOF 12
ENDMDL
MODEL      193
REMARK 921   NORMALIZED FREE ENERGY PREDICTED BY IDOCK:   -3.69 KCAL/MOL
REMARK 922        TOTAL FREE ENERGY PREDICTED BY IDOCK:   -7.30 KCAL/MOL
REMARK 923 INTER-LIGAND FREE ENERGY PREDICTED BY IDOCK:   -6.14 KCAL/MOL
REMARK 924 INTRA-LIGAND FREE ENERGY PREDICTED BY IDOCK:   -1.16 KCAL/MOL
REMARK 927      BINDING AFFINITY PREDICTED BY RF-SCORE:    0.00 PKD
ROOT
HETATM    1  C   UNL     1     -10.179   6.553  66.808  1.00  0.00    -0.257 C  
HETATM    2  C   UNL     1      -9.487   5.739  67.904  1.00  0.00    -0.110 C  
HETATM    3  C   UNL     1      -8.192   6.441  68.321  1.00  0.00    -0.116 C  
ENDROOT
BRANCH   2   4
HETATM    4  N   UNL     1     -10.413   5.596  69.029  1.00  0.00    -0.244 NA 
HETATM    5  H   UNL     1     -11.139   4.913  68.814  1.00  0.00     0.000 HD 
BRANCH   4   6
HETATM    6  C   UNL     1      -9.747   5.267  70.297  1.00  0.00    -0.195 C  
BRANCH   6   7
HETATM    7  C   UNL     1     -10.647   5.659  71.483  1.00  0.00    -0.244 C  
HETATM    8  O   UNL     1      -9.844   6.242  72.522  1.00  0.00    -0.167 OA 
HETATM    9  H   UNL     1     -10.399   6.484  73.254  1.00  0.00     0.000 HD 
BRANCH   7  10
HETATM   10  C   UNL     1     -11.742   6.646  71.065  1.00  0.00    -0.360 C  
BRANCH  10  11
HETATM   11  O   UNL     1     -11.513   7.909  71.709  1.00  0.00    -0.252 OA 
BRANCH  11  12
HETATM   12  C   UNL     1     -11.446   8.982  70.862  1.00  0.00    -0.291 A  
HETATM   13  C   UNL     1     -10.329   9.324  70.100  1.00  0.00    -0.258 A  
HETATM   14  C   UNL     1     -10.362  10.448  69.271  1.00  0.00    -0.250 A  
HETATM   15  C   UNL     1     -11.513  11.242  69.181  1.00  0.00    -0.364 A  
HETATM   16  C   UNL     1     -12.641  10.876  69.921  1.00  0.00    -0.211 A  
HETATM   17  C   UNL     1     -12.609   9.746  70.750  1.00  0.00    -0.276 A  
BRANCH  15  18
HETATM   18  C   UNL     1     -11.510  12.473  68.313  1.00  0.00    -0.308 C  
BRANCH  18  19
HETATM   19  O   UNL     1     -12.039  12.128  67.036  1.00  0.00    -0.591 OA 
BRANCH  19  20
HETATM   20  C   UNL     1     -11.171  12.513  65.973  1.00  0.00    -0.315 C  
BRANCH  20  21
HETATM   21  C   UNL     1     -10.963  11.306  65.065  1.00  0.00    -0.156 C  
BRANCH  21  22
HETATM   22  O   UNL     1     -10.193  11.679  63.923  1.00  0.00    -0.296 OA 
BRANCH  22  23
HETATM   23  C   UNL     1      -9.484  10.583  63.331  1.00  0.00    -0.316 C  
HETATM   24  C   UNL     1      -8.352  11.063  62.427  1.00  0.00    -0.286 C  
HETATM   25  C   UNL     1      -8.918   9.745  64.473  1.00  0.00    -0.278 C  
ENDBRANCH  22  23
ENDBRANCH  21  22
ENDBRANCH  20  21
ENDBRANCH  19  20
ENDBRANCH  18  19
ENDBRANCH  15  18
ENDBRANCH  11  12
ENDBRANCH  10  11
ENDBRANCH   7  10
ENDBRANCH   6   7
ENDBRANCH   4   6
ENDBRANCH   2   4
TORSDOF 12
ENDMDL
MODEL      194
REMARK 921   NORMALIZED FREE ENERGY PREDICTED BY IDOCK:   -3.69 KCAL/MOL
REMARK 922        TOTAL FREE ENERGY PREDICTED BY IDOCK:   -7.29 KCAL/MOL
REMARK 923 INTER-LIGAND FREE ENERGY PREDICTED BY IDOCK:   -6.05 KCAL/MOL
REMARK 924 INTRA-LIGAND FREE ENERGY PREDICTED BY IDOCK:   -1.25 KCAL/MOL
REMARK 927      BINDING AFFINITY PREDICTED BY RF-SCORE:    0.00 PKD
ROOT
HETATM    1  C   UNL     1     -10.185  10.115  65.341  1.00  0.00    -0.281 C  
HETATM    2  C   UNL     1      -9.842  10.702  63.970  1.00  0.00    -0.338 C  
HETATM    3  C   UNL     1     -10.610  12.010  63.768  1.00  0.00    -0.478 C  
ENDROOT
BRANCH   2   4
HETATM    4  N   UNL     1      -8.394  10.907  63.903  1.00  0.00    -0.370 NA 
HETATM    5  H   UNL     1      -8.130  11.775  64.369  1.00  0.00     0.000 HD 
BRANCH   4   6
HETATM    6  C   UNL     1      -7.618   9.776  64.431  1.00  0.00    -0.135 C  
BRANCH   6   7
HETATM    7  C   UNL     1      -6.124  10.145  64.496  1.00  0.00    -0.133 C  
HETATM    8  O   UNL     1      -5.779  10.949  63.357  1.00  0.00    -0.361 OA 
HETATM    9  H   UNL     1      -4.858  11.177  63.397  1.00  0.00     0.000 HD 
BRANCH   7  10
HETATM   10  C   UNL     1      -5.782  10.902  65.783  1.00  0.00    -0.127 C  
BRANCH  10  11
HETATM   11  O   UNL     1      -6.935  10.928  66.639  1.00  0.00    -0.118 OA 
BRANCH  11  12
HETATM   12  C   UNL     1      -7.189  12.140  67.225  1.00  0.00    -0.144 A  
HETATM   13  C   UNL     1      -6.217  12.973  67.779  1.00  0.00    -0.149 A  
HETATM   14  C   UNL     1      -6.583  14.188  68.362  1.00  0.00    -0.106 A  
HETATM   15  C   UNL     1      -7.924  14.596  68.392  1.00  0.00    -0.137 A  
HETATM   16  C   UNL     1      -8.890  13.773  67.806  1.00  0.00    -0.188 A  
HETATM   17  C   UNL     1      -8.521  12.555  67.217  1.00  0.00    -0.185 A  
BRANCH  15  18
HETATM   18  C   UNL     1      -8.300  15.891  69.064  1.00  0.00    -0.239 C  
BRANCH  18  19
HETATM   19  O   UNL     1      -9.494  15.682  69.812  1.00  0.00    -0.277 OA 
BRANCH  19  20
HETATM   20  C   UNL     1     -10.535  16.576  69.421  1.00  0.00    -0.320 C  
BRANCH  20  21
HETATM   21  C   UNL     1      -9.924  17.672  68.557  1.00  0.00    -0.368 C  
BRANCH  21  22
HETATM   22  O   UNL     1     -10.731  17.893  67.401  1.00  0.00    -0.370 OA 
BRANCH  22  23
HETATM   23  C   UNL     1     -10.039  18.570  66.344  1.00  0.00    -0.405 C  
HETATM   24  C   UNL     1     -10.622  19.955  66.081  1.00  0.00    -0.526 C  
HETATM   25  C   UNL     1      -8.579  18.693  66.769  1.00  0.00    -0.291 C  
ENDBRANCH  22  23
ENDBRANCH  21  22
ENDBRANCH  20  21
ENDBRANCH  19  20
ENDBRANCH  18  19
ENDBRANCH  15  18
ENDBRANCH  11  12
ENDBRANCH  10  11
ENDBRANCH   7  10
ENDBRANCH   6   7
ENDBRANCH   4   6
ENDBRANCH   2   4
TORSDOF 12
ENDMDL
MODEL      195
REMARK 921   NORMALIZED FREE ENERGY PREDICTED BY IDOCK:   -3.68 KCAL/MOL
REMARK 922        TOTAL FREE ENERGY PREDICTED BY IDOCK:   -7.28 KCAL/MOL
REMARK 923 INTER-LIGAND FREE ENERGY PREDICTED BY IDOCK:   -6.52 KCAL/MOL
REMARK 924 INTRA-LIGAND FREE ENERGY PREDICTED BY IDOCK:   -0.76 KCAL/MOL
REMARK 927      BINDING AFFINITY PREDICTED BY RF-SCORE:    0.00 PKD
ROOT
HETATM    1  C   UNL     1     -11.222  15.255  65.557  1.00  0.00    -0.277 C  
HETATM    2  C   UNL     1     -10.583  14.082  66.305  1.00  0.00    -0.281 C  
HETATM    3  C   UNL     1     -11.668  13.296  67.045  1.00  0.00    -0.439 C  
ENDROOT
BRANCH   2   4
HETATM    4  N   UNL     1      -9.873  13.246  65.336  1.00  0.00    -0.499 NA 
HETATM    5  H   UNL     1      -9.626  12.346  65.747  1.00  0.00     0.000 HD 
BRANCH   4   6
HETATM    6  C   UNL     1     -10.605  13.060  64.075  1.00  0.00    -0.344 C  
BRANCH   6   7
HETATM    7  C   UNL     1     -11.102  11.608  63.963  1.00  0.00    -0.384 C  
HETATM    8  O   UNL     1     -12.111  11.524  62.943  1.00  0.00    -0.913 OA 
HETATM    9  H   UNL     1     -12.418  10.628  62.874  1.00  0.00     0.000 HD 
BRANCH   7  10
HETATM   10  C   UNL     1      -9.961  10.639  63.640  1.00  0.00    -0.301 C  
BRANCH  10  11
HETATM   11  O   UNL     1      -9.119  10.496  64.795  1.00  0.00    -0.187 OA 
BRANCH  11  12
HETATM   12  C   UNL     1      -9.242   9.301  65.452  1.00  0.00    -0.222 A  
HETATM   13  C   UNL     1      -8.421   8.192  65.245  1.00  0.00    -0.157 A  
HETATM   14  C   UNL     1      -8.638   7.014  65.964  1.00  0.00    -0.154 A  
HETATM   15  C   UNL     1      -9.671   6.927  66.907  1.00  0.00    -0.222 A  
HETATM   16  C   UNL     1     -10.470   8.052  67.135  1.00  0.00    -0.408 A  
HETATM   17  C   UNL     1     -10.249   9.235  66.416  1.00  0.00    -0.298 A  
BRANCH  15  18
HETATM   18  C   UNL     1      -9.913   5.633  67.639  1.00  0.00    -0.150 C  
BRANCH  18  19
HETATM   19  O   UNL     1      -9.074   5.600  68.790  1.00  0.00    -0.117 OA 
BRANCH  19  20
HETATM   20  C   UNL     1      -9.818   5.727  70.000  1.00  0.00    -0.180 C  
BRANCH  20  21
HETATM   21  C   UNL     1      -9.093   4.947  71.090  1.00  0.00    -0.141 C  
BRANCH  21  22
HETATM   22  O   UNL     1      -9.934   3.909  71.592  1.00  0.00    -0.185 OA 
BRANCH  22  23
HETATM   23  C   UNL     1     -10.089   3.939  73.016  1.00  0.00    -0.150 C  
HETATM   24  C   UNL     1      -8.844   4.486  73.710  1.00  0.00    -0.104 C  
HETATM   25  C   UNL     1     -11.287   4.834  73.319  1.00  0.00    -0.408 C  
ENDBRANCH  22  23
ENDBRANCH  21  22
ENDBRANCH  20  21
ENDBRANCH  19  20
ENDBRANCH  18  19
ENDBRANCH  15  18
ENDBRANCH  11  12
ENDBRANCH  10  11
ENDBRANCH   7  10
ENDBRANCH   6   7
ENDBRANCH   4   6
ENDBRANCH   2   4
TORSDOF 12
ENDMDL
MODEL      196
REMARK 921   NORMALIZED FREE ENERGY PREDICTED BY IDOCK:   -3.67 KCAL/MOL
REMARK 922        TOTAL FREE ENERGY PREDICTED BY IDOCK:   -7.27 KCAL/MOL
REMARK 923 INTER-LIGAND FREE ENERGY PREDICTED BY IDOCK:   -6.29 KCAL/MOL
REMARK 924 INTRA-LIGAND FREE ENERGY PREDICTED BY IDOCK:   -0.98 KCAL/MOL
REMARK 927      BINDING AFFINITY PREDICTED BY RF-SCORE:    0.00 PKD
ROOT
HETATM    1  C   UNL     1      -9.640   9.257  65.588  1.00  0.00    -0.324 C  
HETATM    2  C   UNL     1      -9.547  10.335  64.505  1.00  0.00    -0.316 C  
HETATM    3  C   UNL     1     -10.275  11.595  64.977  1.00  0.00    -0.321 C  
ENDROOT
BRANCH   2   4
HETATM    4  N   UNL     1      -8.133  10.595  64.231  1.00  0.00    -0.355 NA 
HETATM    5  H   UNL     1      -7.907  11.576  64.396  1.00  0.00     0.000 HD 
BRANCH   4   6
HETATM    6  C   UNL     1      -7.220   9.718  64.977  1.00  0.00    -0.127 C  
BRANCH   6   7
HETATM    7  C   UNL     1      -5.800  10.311  64.977  1.00  0.00    -0.133 C  
HETATM    8  O   UNL     1      -5.601  11.078  63.779  1.00  0.00    -0.374 OA 
HETATM    9  H   UNL     1      -4.724  11.445  63.780  1.00  0.00     0.000 HD 
BRANCH   7  10
HETATM   10  C   UNL     1      -5.554  11.197  66.203  1.00  0.00    -0.141 C  
BRANCH  10  11
HETATM   11  O   UNL     1      -6.371  10.737  67.292  1.00  0.00    -0.060 OA 
BRANCH  11  12
HETATM   12  C   UNL     1      -7.439  11.541  67.587  1.00  0.00    -0.110 A  
HETATM   13  C   UNL     1      -7.559  12.876  67.204  1.00  0.00    -0.037 A  
HETATM   14  C   UNL     1      -8.689  13.612  67.565  1.00  0.00    -0.198 A  
HETATM   15  C   UNL     1      -9.724  13.024  68.306  1.00  0.00    -0.221 A  
HETATM   16  C   UNL     1      -9.615  11.676  68.659  1.00  0.00    -0.139 A  
HETATM   17  C   UNL     1      -8.481  10.936  68.292  1.00  0.00    -0.134 A  
BRANCH  15  18
HETATM   18  C   UNL     1     -10.914  13.849  68.721  1.00  0.00    -0.263 C  
BRANCH  18  19
HETATM   19  O   UNL     1     -10.445  15.007  69.406  1.00  0.00    -0.238 OA 
BRANCH  19  20
HETATM   20  C   UNL     1     -11.389  16.074  69.364  1.00  0.00    -0.355 C  
BRANCH  20  21
HETATM   21  C   UNL     1     -12.568  15.705  70.258  1.00  0.00    -0.280 C  
BRANCH  21  22
HETATM   22  O   UNL     1     -12.131  15.558  71.608  1.00  0.00    -0.325 OA 
BRANCH  22  23
HETATM   23  C   UNL     1     -13.208  15.529  72.554  1.00  0.00    -0.473 C  
HETATM   24  C   UNL     1     -14.021  14.242  72.448  1.00  0.00    -0.597 C  
HETATM   25  C   UNL     1     -12.587  15.639  73.943  1.00  0.00    -0.767 C  
ENDBRANCH  22  23
ENDBRANCH  21  22
ENDBRANCH  20  21
ENDBRANCH  19  20
ENDBRANCH  18  19
ENDBRANCH  15  18
ENDBRANCH  11  12
ENDBRANCH  10  11
ENDBRANCH   7  10
ENDBRANCH   6   7
ENDBRANCH   4   6
ENDBRANCH   2   4
TORSDOF 12
ENDMDL
MODEL      197
REMARK 921   NORMALIZED FREE ENERGY PREDICTED BY IDOCK:   -3.67 KCAL/MOL
REMARK 922        TOTAL FREE ENERGY PREDICTED BY IDOCK:   -7.27 KCAL/MOL
REMARK 923 INTER-LIGAND FREE ENERGY PREDICTED BY IDOCK:   -6.12 KCAL/MOL
REMARK 924 INTRA-LIGAND FREE ENERGY PREDICTED BY IDOCK:   -1.15 KCAL/MOL
REMARK 927      BINDING AFFINITY PREDICTED BY RF-SCORE:    0.00 PKD
ROOT
HETATM    1  C   UNL     1     -11.785  13.964  67.934  1.00  0.00    -0.396 C  
HETATM    2  C   UNL     1     -12.389  13.323  66.682  1.00  0.00    -0.212 C  
HETATM    3  C   UNL     1     -12.176  14.248  65.481  1.00  0.00    -0.408 C  
ENDROOT
BRANCH   2   4
HETATM    4  N   UNL     1     -11.759  12.017  66.479  1.00  0.00    -0.575 NA 
HETATM    5  H   UNL     1     -12.370  11.400  65.945  1.00  0.00     0.000 HD 
BRANCH   4   6
HETATM    6  C   UNL     1     -10.430  12.099  65.858  1.00  0.00    -0.254 C  
BRANCH   6   7
HETATM    7  C   UNL     1     -10.269  10.987  64.806  1.00  0.00    -0.319 C  
HETATM    8  O   UNL     1      -9.545  11.498  63.675  1.00  0.00    -0.353 OA 
HETATM    9  H   UNL     1      -9.446  10.812  63.026  1.00  0.00     0.000 HD 
BRANCH   7  10
HETATM   10  C   UNL     1      -9.541   9.765  65.375  1.00  0.00    -0.292 C  
BRANCH  10  11
HETATM   11  O   UNL     1     -10.326   9.197  66.435  1.00  0.00    -0.258 OA 
BRANCH  11  12
HETATM   12  C   UNL     1     -10.078   7.875  66.689  1.00  0.00    -0.240 A  
HETATM   13  C   UNL     1     -11.033   6.955  67.121  1.00  0.00    -0.427 A  
HETATM   14  C   UNL     1     -10.673   5.627  67.360  1.00  0.00    -0.283 A  
HETATM   15  C   UNL     1      -9.355   5.193  67.162  1.00  0.00    -0.129 A  
HETATM   16  C   UNL     1      -8.408   6.111  66.697  1.00  0.00    -0.111 A  
HETATM   17  C   UNL     1      -8.772   7.443  66.454  1.00  0.00    -0.154 A  
BRANCH  15  18
HETATM   18  C   UNL     1      -8.980   3.767  67.467  1.00  0.00    -0.135 C  
BRANCH  18  19
HETATM   19  O   UNL     1      -9.313   3.492  68.825  1.00  0.00    -0.152 OA 
BRANCH  19  20
HETATM   20  C   UNL     1      -8.220   3.739  69.706  1.00  0.00    -0.053 C  
BRANCH  20  21
HETATM   21  C   UNL     1      -8.709   4.641  70.833  1.00  0.00    -0.110 C  
BRANCH  21  22
HETATM   22  O   UNL     1     -10.134   4.703  70.828  1.00  0.00    -0.224 OA 
BRANCH  22  23
HETATM   23  C   UNL     1     -10.659   5.811  71.570  1.00  0.00    -0.246 C  
HETATM   24  C   UNL     1     -11.685   6.600  70.761  1.00  0.00    -0.445 C  
HETATM   25  C   UNL     1     -11.314   5.241  72.825  1.00  0.00    -0.342 C  
ENDBRANCH  22  23
ENDBRANCH  21  22
ENDBRANCH  20  21
ENDBRANCH  19  20
ENDBRANCH  18  19
ENDBRANCH  15  18
ENDBRANCH  11  12
ENDBRANCH  10  11
ENDBRANCH   7  10
ENDBRANCH   6   7
ENDBRANCH   4   6
ENDBRANCH   2   4
TORSDOF 12
ENDMDL
MODEL      198
REMARK 921   NORMALIZED FREE ENERGY PREDICTED BY IDOCK:   -3.67 KCAL/MOL
REMARK 922        TOTAL FREE ENERGY PREDICTED BY IDOCK:   -7.27 KCAL/MOL
REMARK 923 INTER-LIGAND FREE ENERGY PREDICTED BY IDOCK:   -6.17 KCAL/MOL
REMARK 924 INTRA-LIGAND FREE ENERGY PREDICTED BY IDOCK:   -1.10 KCAL/MOL
REMARK 927      BINDING AFFINITY PREDICTED BY RF-SCORE:    0.00 PKD
ROOT
HETATM    1  C   UNL     1     -10.188  17.754  68.469  1.00  0.00    -0.382 C  
HETATM    2  C   UNL     1     -10.429  18.178  67.019  1.00  0.00    -0.370 C  
HETATM    3  C   UNL     1      -9.497  19.340  66.665  1.00  0.00    -0.398 C  
ENDROOT
BRANCH   2   4
HETATM    4  N   UNL     1     -10.203  17.019  66.154  1.00  0.00    -0.337 NA 
HETATM    5  H   UNL     1      -9.205  16.853  66.024  1.00  0.00     0.000 HD 
BRANCH   4   6
HETATM    6  C   UNL     1     -10.876  15.799  66.622  1.00  0.00    -0.241 C  
BRANCH   6   7
HETATM    7  C   UNL     1     -10.023  14.563  66.286  1.00  0.00    -0.305 C  
HETATM    8  O   UNL     1      -8.652  14.958  66.118  1.00  0.00    -0.418 OA 
HETATM    9  H   UNL     1      -8.125  14.195  65.911  1.00  0.00     0.000 HD 
BRANCH   7  10
HETATM   10  C   UNL     1     -10.121  13.491  67.376  1.00  0.00    -0.237 C  
BRANCH  10  11
HETATM   11  O   UNL     1     -10.754  12.321  66.834  1.00  0.00    -0.224 OA 
BRANCH  11  12
HETATM   12  C   UNL     1     -10.371  11.140  67.413  1.00  0.00    -0.196 A  
HETATM   13  C   UNL     1      -9.680  11.034  68.620  1.00  0.00    -0.198 A  
HETATM   14  C   UNL     1      -9.328   9.778  69.119  1.00  0.00    -0.185 A  
HETATM   15  C   UNL     1      -9.670   8.608  68.428  1.00  0.00    -0.176 A  
HETATM   16  C   UNL     1     -10.392   8.718  67.236  1.00  0.00    -0.360 A  
HETATM   17  C   UNL     1     -10.748   9.979  66.737  1.00  0.00    -0.172 A  
BRANCH  15  18
HETATM   18  C   UNL     1      -9.243   7.267  68.965  1.00  0.00    -0.139 C  
BRANCH  18  19
HETATM   19  O   UNL     1      -8.757   7.444  70.292  1.00  0.00    -0.143 OA 
BRANCH  19  20
HETATM   20  C   UNL     1      -8.985   6.295  71.105  1.00  0.00    -0.146 C  
BRANCH  20  21
HETATM   21  C   UNL     1     -10.230   6.545  71.948  1.00  0.00    -0.194 C  
BRANCH  21  22
HETATM   22  O   UNL     1     -10.506   7.943  72.012  1.00  0.00    -0.208 OA 
BRANCH  22  23
HETATM   23  C   UNL     1     -11.897   8.257  71.862  1.00  0.00    -0.324 C  
HETATM   24  C   UNL     1     -12.104   9.629  71.227  1.00  0.00    -0.457 C  
HETATM   25  C   UNL     1     -12.508   7.177  70.976  1.00  0.00    -0.359 C  
ENDBRANCH  22  23
ENDBRANCH  21  22
ENDBRANCH  20  21
ENDBRANCH  19  20
ENDBRANCH  18  19
ENDBRANCH  15  18
ENDBRANCH  11  12
ENDBRANCH  10  11
ENDBRANCH   7  10
ENDBRANCH   6   7
ENDBRANCH   4   6
ENDBRANCH   2   4
TORSDOF 12
ENDMDL
MODEL      199
REMARK 921   NORMALIZED FREE ENERGY PREDICTED BY IDOCK:   -3.67 KCAL/MOL
REMARK 922        TOTAL FREE ENERGY PREDICTED BY IDOCK:   -7.26 KCAL/MOL
REMARK 923 INTER-LIGAND FREE ENERGY PREDICTED BY IDOCK:   -6.57 KCAL/MOL
REMARK 924 INTRA-LIGAND FREE ENERGY PREDICTED BY IDOCK:   -0.69 KCAL/MOL
REMARK 927      BINDING AFFINITY PREDICTED BY RF-SCORE:    0.00 PKD
ROOT
HETATM    1  C   UNL     1      -8.652   2.946  65.815  1.00  0.00    -0.117 C  
HETATM    2  C   UNL     1      -9.550   4.185  65.782  1.00  0.00    -0.190 C  
HETATM    3  C   UNL     1     -10.513   4.086  64.596  1.00  0.00    -0.208 C  
ENDROOT
BRANCH   2   4
HETATM    4  N   UNL     1     -10.266   4.272  67.057  1.00  0.00    -0.201 NA 
HETATM    5  H   UNL     1      -9.891   3.603  67.728  1.00  0.00     0.000 HD 
BRANCH   4   6
HETATM    6  C   UNL     1     -10.283   5.627  67.627  1.00  0.00    -0.199 C  
BRANCH   6   7
HETATM    7  C   UNL     1     -10.219   5.554  69.163  1.00  0.00    -0.239 C  
HETATM    8  O   UNL     1      -8.990   6.139  69.620  1.00  0.00    -0.132 OA 
HETATM    9  H   UNL     1      -8.950   6.094  70.568  1.00  0.00     0.000 HD 
BRANCH   7  10
HETATM   10  C   UNL     1     -11.405   6.271  69.816  1.00  0.00    -0.436 C  
BRANCH  10  11
HETATM   11  O   UNL     1     -10.930   7.070  70.912  1.00  0.00    -0.239 OA 
BRANCH  11  12
HETATM   12  C   UNL     1     -11.354   8.372  70.900  1.00  0.00    -0.268 A  
HETATM   13  C   UNL     1     -12.350   8.891  71.727  1.00  0.00    -0.424 A  
HETATM   14  C   UNL     1     -12.715  10.235  71.629  1.00  0.00    -0.561 A  
HETATM   15  C   UNL     1     -12.084  11.086  70.711  1.00  0.00    -0.467 A  
HETATM   16  C   UNL     1     -11.063  10.569  69.908  1.00  0.00    -0.371 A  
HETATM   17  C   UNL     1     -10.695   9.220  70.010  1.00  0.00    -0.259 A  
BRANCH  15  18
HETATM   18  C   UNL     1     -12.523  12.522  70.593  1.00  0.00    -0.238 C  
BRANCH  18  19
HETATM   19  O   UNL     1     -13.101  12.921  71.832  1.00  0.00    -0.399 OA 
BRANCH  19  20
HETATM   20  C   UNL     1     -12.957  14.321  72.065  1.00  0.00    -0.355 C  
BRANCH  20  21
HETATM   21  C   UNL     1     -11.670  14.787  71.394  1.00  0.00    -0.292 C  
BRANCH  21  22
HETATM   22  O   UNL     1     -11.893  16.019  70.709  1.00  0.00    -0.380 OA 
BRANCH  22  23
HETATM   23  C   UNL     1     -10.880  16.323  69.741  1.00  0.00    -0.356 C  
HETATM   24  C   UNL     1      -9.765  15.282  69.741  1.00  0.00    -0.167 C  
HETATM   25  C   UNL     1     -11.560  16.356  68.376  1.00  0.00    -0.071 C  
ENDBRANCH  22  23
ENDBRANCH  21  22
ENDBRANCH  20  21
ENDBRANCH  19  20
ENDBRANCH  18  19
ENDBRANCH  15  18
ENDBRANCH  11  12
ENDBRANCH  10  11
ENDBRANCH   7  10
ENDBRANCH   6   7
ENDBRANCH   4   6
ENDBRANCH   2   4
TORSDOF 12
ENDMDL
MODEL      200
REMARK 921   NORMALIZED FREE ENERGY PREDICTED BY IDOCK:   -3.65 KCAL/MOL
REMARK 922        TOTAL FREE ENERGY PREDICTED BY IDOCK:   -7.23 KCAL/MOL
REMARK 923 INTER-LIGAND FREE ENERGY PREDICTED BY IDOCK:   -6.26 KCAL/MOL
REMARK 924 INTRA-LIGAND FREE ENERGY PREDICTED BY IDOCK:   -0.97 KCAL/MOL
REMARK 927      BINDING AFFINITY PREDICTED BY RF-SCORE:    0.00 PKD
ROOT
HETATM    1  C   UNL     1      -5.869  10.725  62.337  1.00  0.00    -0.155 C  
HETATM    2  C   UNL     1      -6.515   9.450  62.883  1.00  0.00    -0.098 C  
HETATM    3  C   UNL     1      -5.432   8.403  63.152  1.00  0.00    -0.064 C  
ENDROOT
BRANCH   2   4
HETATM    4  N   UNL     1      -7.255   9.790  64.100  1.00  0.00    -0.124 NA 
HETATM    5  H   UNL     1      -7.063  10.751  64.383  1.00  0.00     0.000 HD 
BRANCH   4   6
HETATM    6  C   UNL     1      -8.702   9.560  63.989  1.00  0.00    -0.216 C  
BRANCH   6   7
HETATM    7  C   UNL     1      -9.434  10.896  63.767  1.00  0.00    -0.275 C  
HETATM    8  O   UNL     1      -9.756  11.042  62.375  1.00  0.00    -0.566 OA 
HETATM    9  H   UNL     1     -10.208  11.866  62.238  1.00  0.00     0.000 HD 
BRANCH   7  10
HETATM   10  C   UNL     1     -10.714  10.989  64.604  1.00  0.00    -0.248 C  
BRANCH  10  11
HETATM   11  O   UNL     1     -10.377  11.390  65.942  1.00  0.00    -0.236 OA 
BRANCH  11  12
HETATM   12  C   UNL     1     -10.127  12.727  66.096  1.00  0.00    -0.266 A  
HETATM   13  C   UNL     1      -9.012  13.258  66.744  1.00  0.00    -0.183 A  
HETATM   14  C   UNL     1      -8.856  14.642  66.854  1.00  0.00    -0.267 A  
HETATM   15  C   UNL     1      -9.806  15.518  66.310  1.00  0.00    -0.317 A  
HETATM   16  C   UNL     1     -10.905  14.981  65.632  1.00  0.00    -0.356 A  
HETATM   17  C   UNL     1     -11.058  13.592  65.519  1.00  0.00    -0.301 A  
BRANCH  15  18
HETATM   18  C   UNL     1      -9.638  17.005  66.478  1.00  0.00    -0.278 C  
BRANCH  18  19
HETATM   19  O   UNL     1     -10.590  17.462  67.434  1.00  0.00    -0.349 OA 
BRANCH  19  20
HETATM   20  C   UNL     1      -9.992  17.731  68.700  1.00  0.00    -0.379 C  
BRANCH  20  21
HETATM   21  C   UNL     1     -10.850  17.084  69.781  1.00  0.00     0.099 C  
BRANCH  21  22
HETATM   22  O   UNL     1     -11.568  15.977  69.239  1.00  0.00    -0.352 OA 
BRANCH  22  23
HETATM   23  C   UNL     1     -12.317  15.248  70.221  1.00  0.00    -0.366 C  
HETATM   24  C   UNL     1     -12.050  13.748  70.138  1.00  0.00    -0.429 C  
HETATM   25  C   UNL     1     -11.896  15.776  71.589  1.00  0.00    -0.539 C  
ENDBRANCH  22  23
ENDBRANCH  21  22
ENDBRANCH  20  21
ENDBRANCH  19  20
ENDBRANCH  18  19
ENDBRANCH  15  18
ENDBRANCH  11  12
ENDBRANCH  10  11
ENDBRANCH   7  10
ENDBRANCH   6   7
ENDBRANCH   4   6
ENDBRANCH   2   4
TORSDOF 12
ENDMDL
MODEL      201
REMARK 921   NORMALIZED FREE ENERGY PREDICTED BY IDOCK:   -3.64 KCAL/MOL
REMARK 922        TOTAL FREE ENERGY PREDICTED BY IDOCK:   -7.21 KCAL/MOL
REMARK 923 INTER-LIGAND FREE ENERGY PREDICTED BY IDOCK:   -5.96 KCAL/MOL
REMARK 924 INTRA-LIGAND FREE ENERGY PREDICTED BY IDOCK:   -1.26 KCAL/MOL
REMARK 927      BINDING AFFINITY PREDICTED BY RF-SCORE:    0.00 PKD
ROOT
HETATM    1  C   UNL     1      -9.073  15.747  69.178  1.00  0.00    -0.262 C  
HETATM    2  C   UNL     1      -9.060  15.045  67.817  1.00  0.00    -0.180 C  
HETATM    3  C   UNL     1      -8.008  13.934  67.827  1.00  0.00    -0.174 C  
ENDROOT
BRANCH   2   4
HETATM    4  N   UNL     1     -10.402  14.521  67.554  1.00  0.00    -0.243 NA 
HETATM    5  H   UNL     1     -10.994  14.615  68.380  1.00  0.00     0.000 HD 
BRANCH   4   6
HETATM    6  C   UNL     1     -11.046  15.124  66.380  1.00  0.00    -0.312 C  
BRANCH   6   7
HETATM    7  C   UNL     1     -11.195  14.076  65.262  1.00  0.00    -0.319 C  
HETATM    8  O   UNL     1     -10.089  14.186  64.352  1.00  0.00    -0.682 OA 
HETATM    9  H   UNL     1     -10.181  13.539  63.662  1.00  0.00     0.000 HD 
BRANCH   7  10
HETATM   10  C   UNL     1     -11.260  12.651  65.824  1.00  0.00    -0.312 C  
BRANCH  10  11
HETATM   11  O   UNL     1      -9.943  12.079  65.815  1.00  0.00    -0.232 OA 
BRANCH  11  12
HETATM   12  C   UNL     1      -9.897  10.739  66.099  1.00  0.00    -0.221 A  
HETATM   13  C   UNL     1     -10.691  10.101  67.051  1.00  0.00    -0.264 A  
HETATM   14  C   UNL     1     -10.560   8.728  67.269  1.00  0.00    -0.303 A  
HETATM   15  C   UNL     1      -9.640   7.968  66.533  1.00  0.00    -0.295 A  
HETATM   16  C   UNL     1      -8.869   8.607  65.557  1.00  0.00    -0.220 A  
HETATM   17  C   UNL     1      -9.005   9.984  65.336  1.00  0.00    -0.213 A  
BRANCH  15  18
HETATM   18  C   UNL     1      -9.485   6.497  66.816  1.00  0.00    -0.158 C  
BRANCH  18  19
HETATM   19  O   UNL     1      -9.958   6.237  68.134  1.00  0.00    -0.128 OA 
BRANCH  19  20
HETATM   20  C   UNL     1      -8.912   5.810  69.004  1.00  0.00    -0.117 C  
BRANCH  20  21
HETATM   21  C   UNL     1      -9.173   6.395  70.387  1.00  0.00    -0.155 C  
BRANCH  21  22
HETATM   22  O   UNL     1     -10.562   6.684  70.543  1.00  0.00    -0.215 OA 
BRANCH  22  23
HETATM   23  C   UNL     1     -10.815   7.992  71.074  1.00  0.00    -0.235 C  
HETATM   24  C   UNL     1     -11.833   7.955  72.209  1.00  0.00    -0.404 C  
HETATM   25  C   UNL     1      -9.484   8.534  71.586  1.00  0.00    -0.316 C  
ENDBRANCH  22  23
ENDBRANCH  21  22
ENDBRANCH  20  21
ENDBRANCH  19  20
ENDBRANCH  18  19
ENDBRANCH  15  18
ENDBRANCH  11  12
ENDBRANCH  10  11
ENDBRANCH   7  10
ENDBRANCH   6   7
ENDBRANCH   4   6
ENDBRANCH   2   4
TORSDOF 12
ENDMDL
MODEL      202
REMARK 921   NORMALIZED FREE ENERGY PREDICTED BY IDOCK:   -3.61 KCAL/MOL
REMARK 922        TOTAL FREE ENERGY PREDICTED BY IDOCK:   -7.16 KCAL/MOL
REMARK 923 INTER-LIGAND FREE ENERGY PREDICTED BY IDOCK:   -6.43 KCAL/MOL
REMARK 924 INTRA-LIGAND FREE ENERGY PREDICTED BY IDOCK:   -0.72 KCAL/MOL
REMARK 927      BINDING AFFINITY PREDICTED BY RF-SCORE:    0.00 PKD
ROOT
HETATM    1  C   UNL     1     -11.529  16.089  64.700  1.00  0.00    -0.252 C  
HETATM    2  C   UNL     1     -10.357  15.249  65.213  1.00  0.00    -0.401 C  
HETATM    3  C   UNL     1     -10.563  14.939  66.698  1.00  0.00    -0.305 C  
ENDROOT
BRANCH   2   4
HETATM    4  N   UNL     1     -10.275  14.028  64.410  1.00  0.00    -0.711 NA 
HETATM    5  H   UNL     1      -9.918  13.252  64.968  1.00  0.00     0.000 HD 
BRANCH   4   6
HETATM    6  C   UNL     1     -11.545  13.664  63.766  1.00  0.00    -0.165 C  
BRANCH   6   7
HETATM    7  C   UNL     1     -12.198  12.487  64.513  1.00  0.00    -0.453 C  
HETATM    8  O   UNL     1     -13.335  12.020  63.770  1.00  0.00    -0.681 OA 
HETATM    9  H   UNL     1     -13.738  11.294  64.231  1.00  0.00     0.000 HD 
BRANCH   7  10
HETATM   10  C   UNL     1     -11.214  11.333  64.729  1.00  0.00    -0.058 C  
BRANCH  10  11
HETATM   11  O   UNL     1     -10.096  11.802  65.501  1.00  0.00    -0.232 OA 
BRANCH  11  12
HETATM   12  C   UNL     1      -9.750  10.999  66.555  1.00  0.00    -0.198 A  
HETATM   13  C   UNL     1      -8.503  10.395  66.717  1.00  0.00    -0.125 A  
HETATM   14  C   UNL     1      -8.254   9.586  67.827  1.00  0.00    -0.114 A  
HETATM   15  C   UNL     1      -9.242   9.375  68.800  1.00  0.00    -0.132 A  
HETATM   16  C   UNL     1     -10.478  10.010  68.650  1.00  0.00    -0.228 A  
HETATM   17  C   UNL     1     -10.726  10.826  67.537  1.00  0.00    -0.312 A  
BRANCH  15  18
HETATM   18  C   UNL     1      -8.964   8.464  69.967  1.00  0.00    -0.138 C  
BRANCH  18  19
HETATM   19  O   UNL     1      -8.557   9.260  71.075  1.00  0.00    -0.237 OA 
BRANCH  19  20
HETATM   20  C   UNL     1      -8.842   8.629  72.322  1.00  0.00    -0.148 C  
BRANCH  20  21
HETATM   21  C   UNL     1     -10.329   8.296  72.360  1.00  0.00    -0.332 C  
BRANCH  21  22
HETATM   22  O   UNL     1     -10.521   6.966  72.841  1.00  0.00    -0.210 OA 
BRANCH  22  23
HETATM   23  C   UNL     1     -11.227   6.124  71.920  1.00  0.00    -0.284 C  
HETATM   24  C   UNL     1     -12.043   6.937  70.920  1.00  0.00    -0.424 C  
HETATM   25  C   UNL     1     -10.183   5.290  71.184  1.00  0.00    -0.294 C  
ENDBRANCH  22  23
ENDBRANCH  21  22
ENDBRANCH  20  21
ENDBRANCH  19  20
ENDBRANCH  18  19
ENDBRANCH  15  18
ENDBRANCH  11  12
ENDBRANCH  10  11
ENDBRANCH   7  10
ENDBRANCH   6   7
ENDBRANCH   4   6
ENDBRANCH   2   4
TORSDOF 12
ENDMDL
MODEL      203
REMARK 921   NORMALIZED FREE ENERGY PREDICTED BY IDOCK:   -3.60 KCAL/MOL
REMARK 922        TOTAL FREE ENERGY PREDICTED BY IDOCK:   -7.14 KCAL/MOL
REMARK 923 INTER-LIGAND FREE ENERGY PREDICTED BY IDOCK:   -5.90 KCAL/MOL
REMARK 924 INTRA-LIGAND FREE ENERGY PREDICTED BY IDOCK:   -1.25 KCAL/MOL
REMARK 927      BINDING AFFINITY PREDICTED BY RF-SCORE:    0.00 PKD
ROOT
HETATM    1  C   UNL     1     -10.124   7.804  71.146  1.00  0.00    -0.206 C  
HETATM    2  C   UNL     1      -9.916   7.067  69.820  1.00  0.00    -0.173 C  
HETATM    3  C   UNL     1     -11.223   6.389  69.403  1.00  0.00    -0.459 C  
ENDROOT
BRANCH   2   4
HETATM    4  N   UNL     1      -9.462   8.034  68.819  1.00  0.00    -0.147 NA 
HETATM    5  H   UNL     1      -9.877   8.950  68.987  1.00  0.00     0.000 HD 
BRANCH   4   6
HETATM    6  C   UNL     1      -7.999   8.135  68.724  1.00  0.00    -0.115 C  
BRANCH   6   7
HETATM    7  C   UNL     1      -7.539   9.546  69.132  1.00  0.00    -0.075 C  
HETATM    8  O   UNL     1      -6.216   9.478  69.686  1.00  0.00    -0.038 OA 
HETATM    9  H   UNL     1      -5.932  10.349  69.938  1.00  0.00     0.000 HD 
BRANCH   7  10
HETATM   10  C   UNL     1      -7.552  10.514  67.944  1.00  0.00    -0.092 C  
BRANCH  10  11
HETATM   11  O   UNL     1      -8.062   9.835  66.786  1.00  0.00    -0.118 OA 
BRANCH  11  12
HETATM   12  C   UNL     1      -9.051  10.505  66.116  1.00  0.00    -0.162 A  
HETATM   13  C   UNL     1      -9.084  10.701  64.736  1.00  0.00    -0.236 A  
HETATM   14  C   UNL     1     -10.138  11.408  64.152  1.00  0.00    -0.358 A  
HETATM   15  C   UNL     1     -11.181  11.920  64.936  1.00  0.00    -0.350 A  
HETATM   16  C   UNL     1     -11.161  11.692  66.315  1.00  0.00    -0.345 A  
HETATM   17  C   UNL     1     -10.104  10.979  66.899  1.00  0.00    -0.248 A  
BRANCH  15  18
HETATM   18  C   UNL     1     -12.285  12.716  64.289  1.00  0.00    -0.445 C  
BRANCH  18  19
HETATM   19  O   UNL     1     -12.424  13.948  64.989  1.00  0.00    -0.467 OA 
BRANCH  19  20
HETATM   20  C   UNL     1     -11.700  15.006  64.364  1.00  0.00    -0.312 C  
BRANCH  20  21
HETATM   21  C   UNL     1     -10.710  15.570  65.376  1.00  0.00    -0.405 C  
BRANCH  21  22
HETATM   22  O   UNL     1     -11.139  15.268  66.702  1.00  0.00    -0.324 OA 
BRANCH  22  23
HETATM   23  C   UNL     1     -10.120  15.469  67.690  1.00  0.00    -0.243 C  
HETATM   24  C   UNL     1      -8.726  15.494  67.070  1.00  0.00    -0.258 C  
HETATM   25  C   UNL     1     -10.410  16.804  68.369  1.00  0.00    -0.319 C  
ENDBRANCH  22  23
ENDBRANCH  21  22
ENDBRANCH  20  21
ENDBRANCH  19  20
ENDBRANCH  18  19
ENDBRANCH  15  18
ENDBRANCH  11  12
ENDBRANCH  10  11
ENDBRANCH   7  10
ENDBRANCH   6   7
ENDBRANCH   4   6
ENDBRANCH   2   4
TORSDOF 12
ENDMDL
MODEL      204
REMARK 921   NORMALIZED FREE ENERGY PREDICTED BY IDOCK:   -3.59 KCAL/MOL
REMARK 922        TOTAL FREE ENERGY PREDICTED BY IDOCK:   -7.12 KCAL/MOL
REMARK 923 INTER-LIGAND FREE ENERGY PREDICTED BY IDOCK:   -6.49 KCAL/MOL
REMARK 924 INTRA-LIGAND FREE ENERGY PREDICTED BY IDOCK:   -0.63 KCAL/MOL
REMARK 927      BINDING AFFINITY PREDICTED BY RF-SCORE:    0.00 PKD
ROOT
HETATM    1  C   UNL     1      -7.217   8.438  65.203  1.00  0.00    -0.080 C  
HETATM    2  C   UNL     1      -7.846   7.051  65.051  1.00  0.00    -0.125 C  
HETATM    3  C   UNL     1      -6.915   6.156  64.228  1.00  0.00    -0.051 C  
ENDROOT
BRANCH   2   4
HETATM    4  N   UNL     1      -8.086   6.502  66.386  1.00  0.00    -0.109 NA 
HETATM    5  H   UNL     1      -7.879   7.195  67.105  1.00  0.00     0.000 HD 
BRANCH   4   6
HETATM    6  C   UNL     1      -9.441   5.960  66.562  1.00  0.00    -0.155 C  
BRANCH   6   7
HETATM    7  C   UNL     1     -10.400   7.074  67.020  1.00  0.00    -0.290 C  
HETATM    8  O   UNL     1     -11.543   6.488  67.663  1.00  0.00    -0.670 OA 
HETATM    9  H   UNL     1     -12.135   7.175  67.945  1.00  0.00     0.000 HD 
BRANCH   7  10
HETATM   10  C   UNL     1      -9.716   8.055  67.977  1.00  0.00    -0.160 C  
BRANCH  10  11
HETATM   11  O   UNL     1     -10.676   8.525  68.938  1.00  0.00    -0.182 OA 
BRANCH  11  12
HETATM   12  C   UNL     1     -10.966   9.861  68.854  1.00  0.00    -0.179 A  
HETATM   13  C   UNL     1     -10.918  10.612  67.680  1.00  0.00    -0.370 A  
HETATM   14  C   UNL     1     -11.226  11.974  67.704  1.00  0.00    -0.343 A  
HETATM   15  C   UNL     1     -11.598  12.605  68.899  1.00  0.00    -0.363 A  
HETATM   16  C   UNL     1     -11.677  11.841  70.066  1.00  0.00    -0.386 A  
HETATM   17  C   UNL     1     -11.372  10.473  70.040  1.00  0.00    -0.392 A  
BRANCH  15  18
HETATM   18  C   UNL     1     -11.884  14.084  68.908  1.00  0.00    -0.355 C  
BRANCH  18  19
HETATM   19  O   UNL     1     -11.362  14.638  70.112  1.00  0.00    -0.257 OA 
BRANCH  19  20
HETATM   20  C   UNL     1     -11.037  16.020  69.970  1.00  0.00    -0.362 C  
BRANCH  20  21
HETATM   21  C   UNL     1     -10.538  16.249  68.548  1.00  0.00    -0.294 C  
BRANCH  21  22
HETATM   22  O   UNL     1     -11.193  17.380  67.976  1.00  0.00    -0.157 OA 
BRANCH  22  23
HETATM   23  C   UNL     1     -10.323  18.204  67.188  1.00  0.00    -0.379 C  
HETATM   24  C   UNL     1     -10.517  19.686  67.493  1.00  0.00    -0.589 C  
HETATM   25  C   UNL     1      -8.893  17.788  67.515  1.00  0.00    -0.243 C  
ENDBRANCH  22  23
ENDBRANCH  21  22
ENDBRANCH  20  21
ENDBRANCH  19  20
ENDBRANCH  18  19
ENDBRANCH  15  18
ENDBRANCH  11  12
ENDBRANCH  10  11
ENDBRANCH   7  10
ENDBRANCH   6   7
ENDBRANCH   4   6
ENDBRANCH   2   4
TORSDOF 12
ENDMDL
MODEL      205
REMARK 921   NORMALIZED FREE ENERGY PREDICTED BY IDOCK:   -3.58 KCAL/MOL
REMARK 922        TOTAL FREE ENERGY PREDICTED BY IDOCK:   -7.11 KCAL/MOL
REMARK 923 INTER-LIGAND FREE ENERGY PREDICTED BY IDOCK:   -6.34 KCAL/MOL
REMARK 924 INTRA-LIGAND FREE ENERGY PREDICTED BY IDOCK:   -0.76 KCAL/MOL
REMARK 927      BINDING AFFINITY PREDICTED BY RF-SCORE:    0.00 PKD
ROOT
HETATM    1  C   UNL     1      -7.588   7.923  69.105  1.00  0.00    -0.098 C  
HETATM    2  C   UNL     1      -8.183   6.862  68.176  1.00  0.00    -0.119 C  
HETATM    3  C   UNL     1      -9.707   7.003  68.151  1.00  0.00    -0.139 C  
ENDROOT
BRANCH   2   4
HETATM    4  N   UNL     1      -7.600   7.032  66.844  1.00  0.00    -0.092 NA 
HETATM    5  H   UNL     1      -7.001   6.241  66.608  1.00  0.00     0.000 HD 
BRANCH   4   6
HETATM    6  C   UNL     1      -8.601   7.259  65.792  1.00  0.00    -0.131 C  
BRANCH   6   7
HETATM    7  C   UNL     1      -8.234   8.511  64.975  1.00  0.00    -0.158 C  
HETATM    8  O   UNL     1      -8.745   8.378  63.639  1.00  0.00    -0.415 OA 
HETATM    9  H   UNL     1      -8.518   9.151  63.134  1.00  0.00     0.000 HD 
BRANCH   7  10
HETATM   10  C   UNL     1      -8.787   9.789  65.613  1.00  0.00    -0.154 C  
BRANCH  10  11
HETATM   11  O   UNL     1     -10.135   9.998  65.163  1.00  0.00    -0.325 OA 
BRANCH  11  12
HETATM   12  C   UNL     1     -10.485  11.311  64.988  1.00  0.00    -0.298 A  
HETATM   13  C   UNL     1     -11.113  11.821  63.852  1.00  0.00    -0.482 A  
HETATM   14  C   UNL     1     -11.420  13.180  63.770  1.00  0.00    -0.426 A  
HETATM   15  C   UNL     1     -11.116  14.051  64.826  1.00  0.00    -0.391 A  
HETATM   16  C   UNL     1     -10.517  13.529  65.976  1.00  0.00    -0.299 A  
HETATM   17  C   UNL     1     -10.212  12.163  66.059  1.00  0.00    -0.265 A  
BRANCH  15  18
HETATM   18  C   UNL     1     -11.418  15.521  64.697  1.00  0.00    -0.324 C  
BRANCH  18  19
HETATM   19  O   UNL     1     -10.329  16.257  65.247  1.00  0.00    -0.552 OA 
BRANCH  19  20
HETATM   20  C   UNL     1     -10.706  17.584  65.608  1.00  0.00    -0.089 C  
BRANCH  20  21
HETATM   21  C   UNL     1      -9.659  18.133  66.570  1.00  0.00    -0.317 C  
BRANCH  21  22
HETATM   22  O   UNL     1      -8.408  18.282  65.900  1.00  0.00    -0.506 OA 
BRANCH  22  23
HETATM   23  C   UNL     1      -7.276  18.125  66.765  1.00  0.00    -0.206 C  
HETATM   24  C   UNL     1      -7.542  18.693  68.156  1.00  0.00    -0.292 C  
HETATM   25  C   UNL     1      -6.987  16.630  66.860  1.00  0.00    -0.262 C  
ENDBRANCH  22  23
ENDBRANCH  21  22
ENDBRANCH  20  21
ENDBRANCH  19  20
ENDBRANCH  18  19
ENDBRANCH  15  18
ENDBRANCH  11  12
ENDBRANCH  10  11
ENDBRANCH   7  10
ENDBRANCH   6   7
ENDBRANCH   4   6
ENDBRANCH   2   4
TORSDOF 12
ENDMDL
MODEL      206
REMARK 921   NORMALIZED FREE ENERGY PREDICTED BY IDOCK:   -3.56 KCAL/MOL
REMARK 922        TOTAL FREE ENERGY PREDICTED BY IDOCK:   -7.08 KCAL/MOL
REMARK 923 INTER-LIGAND FREE ENERGY PREDICTED BY IDOCK:   -6.48 KCAL/MOL
REMARK 924 INTRA-LIGAND FREE ENERGY PREDICTED BY IDOCK:   -0.60 KCAL/MOL
REMARK 927      BINDING AFFINITY PREDICTED BY RF-SCORE:    0.00 PKD
ROOT
HETATM    1  C   UNL     1      -9.476  19.451  67.175  1.00  0.00    -0.398 C  
HETATM    2  C   UNL     1      -8.110  18.930  66.723  1.00  0.00    -0.269 C  
HETATM    3  C   UNL     1      -7.282  18.538  67.949  1.00  0.00    -0.247 C  
ENDROOT
BRANCH   2   4
HETATM    4  N   UNL     1      -8.322  17.794  65.824  1.00  0.00    -0.486 NA 
HETATM    5  H   UNL     1      -7.564  17.726  65.144  1.00  0.00     0.000 HD 
BRANCH   4   6
HETATM    6  C   UNL     1      -8.507  16.518  66.527  1.00  0.00    -0.293 C  
BRANCH   6   7
HETATM    7  C   UNL     1      -9.975  16.065  66.422  1.00  0.00    -0.295 C  
HETATM    8  O   UNL     1     -10.182  15.399  65.167  1.00  0.00    -0.364 OA 
HETATM    9  H   UNL     1     -11.088  15.120  65.102  1.00  0.00     0.000 HD 
BRANCH   7  10
HETATM   10  C   UNL     1     -10.366  15.131  67.572  1.00  0.00    -0.242 C  
BRANCH  10  11
HETATM   11  O   UNL     1      -9.598  13.920  67.480  1.00  0.00    -0.218 OA 
BRANCH  11  12
HETATM   12  C   UNL     1     -10.116  12.857  68.170  1.00  0.00    -0.240 A  
HETATM   13  C   UNL     1     -11.380  12.833  68.761  1.00  0.00    -0.332 A  
HETATM   14  C   UNL     1     -11.811  11.698  69.451  1.00  0.00    -0.408 A  
HETATM   15  C   UNL     1     -10.992  10.565  69.555  1.00  0.00    -0.312 A  
HETATM   16  C   UNL     1      -9.740  10.582  68.933  1.00  0.00    -0.206 A  
HETATM   17  C   UNL     1      -9.310  11.720  68.237  1.00  0.00    -0.193 A  
BRANCH  15  18
HETATM   18  C   UNL     1     -11.461   9.369  70.341  1.00  0.00    -0.223 C  
BRANCH  18  19
HETATM   19  O   UNL     1     -10.921   9.452  71.656  1.00  0.00    -0.369 OA 
BRANCH  19  20
HETATM   20  C   UNL     1     -11.313   8.346  72.467  1.00  0.00    -0.346 C  
BRANCH  20  21
HETATM   21  C   UNL     1     -10.052   7.676  73.002  1.00  0.00    -0.304 C  
BRANCH  21  22
HETATM   22  O   UNL     1     -10.064   6.286  72.684  1.00  0.00    -0.175 OA 
BRANCH  22  23
HETATM   23  C   UNL     1     -10.113   6.024  71.275  1.00  0.00    -0.192 C  
HETATM   24  C   UNL     1      -8.931   6.649  70.541  1.00  0.00    -0.152 C  
HETATM   25  C   UNL     1     -10.092   4.509  71.099  1.00  0.00    -0.218 C  
ENDBRANCH  22  23
ENDBRANCH  21  22
ENDBRANCH  20  21
ENDBRANCH  19  20
ENDBRANCH  18  19
ENDBRANCH  15  18
ENDBRANCH  11  12
ENDBRANCH  10  11
ENDBRANCH   7  10
ENDBRANCH   6   7
ENDBRANCH   4   6
ENDBRANCH   2   4
TORSDOF 12
ENDMDL
MODEL      207
REMARK 921   NORMALIZED FREE ENERGY PREDICTED BY IDOCK:   -3.55 KCAL/MOL
REMARK 922        TOTAL FREE ENERGY PREDICTED BY IDOCK:   -7.07 KCAL/MOL
REMARK 923 INTER-LIGAND FREE ENERGY PREDICTED BY IDOCK:   -5.99 KCAL/MOL
REMARK 924 INTRA-LIGAND FREE ENERGY PREDICTED BY IDOCK:   -1.07 KCAL/MOL
REMARK 927      BINDING AFFINITY PREDICTED BY RF-SCORE:    0.00 PKD
ROOT
HETATM    1  C   UNL     1     -10.081  11.501  65.463  1.00  0.00    -0.286 C  
HETATM    2  C   UNL     1     -10.121  10.548  64.266  1.00  0.00    -0.310 C  
HETATM    3  C   UNL     1      -9.562  11.256  63.030  1.00  0.00    -0.397 C  
ENDROOT
BRANCH   2   4
HETATM    4  N   UNL     1      -9.349   9.350  64.601  1.00  0.00    -0.433 NA 
HETATM    5  H   UNL     1      -9.911   8.509  64.471  1.00  0.00     0.000 HD 
BRANCH   4   6
HETATM    6  C   UNL     1      -8.081   9.246  63.866  1.00  0.00    -0.151 C  
BRANCH   6   7
HETATM    7  C   UNL     1      -7.532   7.811  63.959  1.00  0.00    -0.103 C  
HETATM    8  O   UNL     1      -6.187   7.779  63.457  1.00  0.00    -0.060 OA 
HETATM    9  H   UNL     1      -5.848   6.893  63.514  1.00  0.00     0.000 HD 
BRANCH   7  10
HETATM   10  C   UNL     1      -7.559   7.284  65.397  1.00  0.00    -0.100 C  
BRANCH  10  11
HETATM   11  O   UNL     1      -8.704   6.434  65.569  1.00  0.00    -0.141 OA 
BRANCH  11  12
HETATM   12  C   UNL     1      -9.252   6.455  66.824  1.00  0.00    -0.142 A  
HETATM   13  C   UNL     1     -10.562   6.081  67.125  1.00  0.00    -0.374 A  
HETATM   14  C   UNL     1     -11.026   6.148  68.441  1.00  0.00    -0.391 A  
HETATM   15  C   UNL     1     -10.187   6.579  69.478  1.00  0.00    -0.219 A  
HETATM   16  C   UNL     1      -8.866   6.921  69.176  1.00  0.00    -0.134 A  
HETATM   17  C   UNL     1      -8.400   6.850  67.855  1.00  0.00    -0.121 A  
BRANCH  15  18
HETATM   18  C   UNL     1     -10.722   6.684  70.882  1.00  0.00    -0.235 C  
BRANCH  18  19
HETATM   19  O   UNL     1     -11.933   7.435  70.850  1.00  0.00    -0.307 OA 
BRANCH  19  20
HETATM   20  C   UNL     1     -12.377   7.792  72.157  1.00  0.00    -0.265 C  
BRANCH  20  21
HETATM   21  C   UNL     1     -12.706   9.280  72.160  1.00  0.00    -0.390 C  
BRANCH  21  22
HETATM   22  O   UNL     1     -11.738   9.998  71.396  1.00  0.00    -0.367 OA 
BRANCH  22  23
HETATM   23  C   UNL     1     -12.316  10.953  70.497  1.00  0.00    -0.374 C  
HETATM   24  C   UNL     1     -12.685  12.251  71.210  1.00  0.00    -0.351 C  
HETATM   25  C   UNL     1     -11.279  11.233  69.413  1.00  0.00    -0.345 C  
ENDBRANCH  22  23
ENDBRANCH  21  22
ENDBRANCH  20  21
ENDBRANCH  19  20
ENDBRANCH  18  19
ENDBRANCH  15  18
ENDBRANCH  11  12
ENDBRANCH  10  11
ENDBRANCH   7  10
ENDBRANCH   6   7
ENDBRANCH   4   6
ENDBRANCH   2   4
TORSDOF 12
ENDMDL
MODEL      208
REMARK 921   NORMALIZED FREE ENERGY PREDICTED BY IDOCK:   -3.55 KCAL/MOL
REMARK 922        TOTAL FREE ENERGY PREDICTED BY IDOCK:   -7.06 KCAL/MOL
REMARK 923 INTER-LIGAND FREE ENERGY PREDICTED BY IDOCK:   -6.46 KCAL/MOL
REMARK 924 INTRA-LIGAND FREE ENERGY PREDICTED BY IDOCK:   -0.60 KCAL/MOL
REMARK 927      BINDING AFFINITY PREDICTED BY RF-SCORE:    0.00 PKD
ROOT
HETATM    1  C   UNL     1     -11.133   8.140  72.518  1.00  0.00    -0.446 C  
HETATM    2  C   UNL     1     -10.146   6.976  72.643  1.00  0.00    -0.181 C  
HETATM    3  C   UNL     1      -9.994   6.593  74.117  1.00  0.00    -0.361 C  
ENDROOT
BRANCH   2   4
HETATM    4  N   UNL     1     -10.645   5.858  71.840  1.00  0.00    -0.223 NA 
HETATM    5  H   UNL     1     -11.398   5.372  72.327  1.00  0.00     0.000 HD 
BRANCH   4   6
HETATM    6  C   UNL     1     -11.066   6.250  70.488  1.00  0.00    -0.335 C  
BRANCH   6   7
HETATM    7  C   UNL     1      -9.903   6.062  69.497  1.00  0.00    -0.161 C  
HETATM    8  O   UNL     1      -9.603   4.663  69.370  1.00  0.00    -0.153 OA 
HETATM    9  H   UNL     1      -8.886   4.546  68.759  1.00  0.00     0.000 HD 
BRANCH   7  10
HETATM   10  C   UNL     1     -10.229   6.646  68.119  1.00  0.00    -0.170 C  
BRANCH  10  11
HETATM   11  O   UNL     1      -9.075   7.334  67.611  1.00  0.00    -0.125 OA 
BRANCH  11  12
HETATM   12  C   UNL     1      -9.240   8.683  67.439  1.00  0.00    -0.136 A  
HETATM   13  C   UNL     1      -8.207   9.619  67.467  1.00  0.00    -0.114 A  
HETATM   14  C   UNL     1      -8.484  10.977  67.289  1.00  0.00    -0.130 A  
HETATM   15  C   UNL     1      -9.796  11.420  67.069  1.00  0.00    -0.214 A  
HETATM   16  C   UNL     1     -10.823  10.474  67.008  1.00  0.00    -0.288 A  
HETATM   17  C   UNL     1     -10.543   9.111  67.184  1.00  0.00    -0.286 A  
BRANCH  15  18
HETATM   18  C   UNL     1     -10.076  12.892  66.921  1.00  0.00    -0.241 C  
BRANCH  18  19
HETATM   19  O   UNL     1     -10.602  13.378  68.153  1.00  0.00    -0.232 OA 
BRANCH  19  20
HETATM   20  C   UNL     1     -11.750  14.201  67.958  1.00  0.00    -0.359 C  
BRANCH  20  21
HETATM   21  C   UNL     1     -11.828  15.193  69.113  1.00  0.00    -0.313 C  
BRANCH  21  22
HETATM   22  O   UNL     1     -12.363  14.556  70.271  1.00  0.00    -0.316 OA 
BRANCH  22  23
HETATM   23  C   UNL     1     -13.097  15.446  71.123  1.00  0.00    -0.498 C  
HETATM   24  C   UNL     1     -14.116  14.699  71.979  1.00  0.00    -0.603 C  
HETATM   25  C   UNL     1     -12.083  16.150  72.017  1.00  0.00    -0.572 C  
ENDBRANCH  22  23
ENDBRANCH  21  22
ENDBRANCH  20  21
ENDBRANCH  19  20
ENDBRANCH  18  19
ENDBRANCH  15  18
ENDBRANCH  11  12
ENDBRANCH  10  11
ENDBRANCH   7  10
ENDBRANCH   6   7
ENDBRANCH   4   6
ENDBRANCH   2   4
TORSDOF 12
ENDMDL
MODEL      209
REMARK 921   NORMALIZED FREE ENERGY PREDICTED BY IDOCK:   -3.55 KCAL/MOL
REMARK 922        TOTAL FREE ENERGY PREDICTED BY IDOCK:   -7.06 KCAL/MOL
REMARK 923 INTER-LIGAND FREE ENERGY PREDICTED BY IDOCK:   -6.04 KCAL/MOL
REMARK 924 INTRA-LIGAND FREE ENERGY PREDICTED BY IDOCK:   -1.02 KCAL/MOL
REMARK 927      BINDING AFFINITY PREDICTED BY RF-SCORE:    0.00 PKD
ROOT
HETATM    1  C   UNL     1     -10.543  19.988  65.922  1.00  0.00    -0.459 C  
HETATM    2  C   UNL     1     -10.450  19.096  67.163  1.00  0.00    -0.447 C  
HETATM    3  C   UNL     1     -10.483  17.626  66.738  1.00  0.00    -0.289 C  
ENDROOT
BRANCH   2   4
HETATM    4  N   UNL     1      -9.216  19.427  67.879  1.00  0.00    -0.312 NA 
HETATM    5  H   UNL     1      -9.044  18.757  68.629  1.00  0.00     0.000 HD 
BRANCH   4   6
HETATM    6  C   UNL     1      -8.043  19.540  67.002  1.00  0.00    -0.275 C  
BRANCH   6   7
HETATM    7  C   UNL     1      -6.770  19.139  67.769  1.00  0.00    -0.209 C  
HETATM    8  O   UNL     1      -6.240  20.287  68.451  1.00  0.00    -0.263 OA 
HETATM    9  H   UNL     1      -5.454  20.040  68.924  1.00  0.00     0.000 HD 
BRANCH   7  10
HETATM   10  C   UNL     1      -7.042  18.020  68.779  1.00  0.00    -0.276 C  
BRANCH  10  11
HETATM   11  O   UNL     1      -6.847  16.748  68.141  1.00  0.00    -0.143 OA 
BRANCH  11  12
HETATM   12  C   UNL     1      -7.946  15.931  68.140  1.00  0.00    -0.137 A  
HETATM   13  C   UNL     1      -8.210  14.955  67.179  1.00  0.00    -0.244 A  
HETATM   14  C   UNL     1      -9.368  14.179  67.266  1.00  0.00    -0.225 A  
HETATM   15  C   UNL     1     -10.275  14.356  68.320  1.00  0.00    -0.241 A  
HETATM   16  C   UNL     1      -9.989  15.312  69.299  1.00  0.00    -0.251 A  
HETATM   17  C   UNL     1      -8.825  16.088  69.213  1.00  0.00    -0.227 A  
BRANCH  15  18
HETATM   18  C   UNL     1     -11.538  13.536  68.370  1.00  0.00    -0.343 C  
BRANCH  18  19
HETATM   19  O   UNL     1     -11.345  12.464  69.287  1.00  0.00    -0.259 OA 
BRANCH  19  20
HETATM   20  C   UNL     1     -11.966  11.259  68.842  1.00  0.00    -0.310 C  
BRANCH  20  21
HETATM   21  C   UNL     1     -10.887  10.194  68.688  1.00  0.00    -0.235 C  
BRANCH  21  22
HETATM   22  O   UNL     1     -10.997   9.567  67.411  1.00  0.00    -0.232 OA 
BRANCH  22  23
HETATM   23  C   UNL     1      -9.903   9.866  66.534  1.00  0.00    -0.215 C  
HETATM   24  C   UNL     1     -10.317  10.821  65.417  1.00  0.00    -0.315 C  
HETATM   25  C   UNL     1      -8.808  10.504  67.383  1.00  0.00    -0.132 C  
ENDBRANCH  22  23
ENDBRANCH  21  22
ENDBRANCH  20  21
ENDBRANCH  19  20
ENDBRANCH  18  19
ENDBRANCH  15  18
ENDBRANCH  11  12
ENDBRANCH  10  11
ENDBRANCH   7  10
ENDBRANCH   6   7
ENDBRANCH   4   6
ENDBRANCH   2   4
TORSDOF 12
ENDMDL
MODEL      210
REMARK 921   NORMALIZED FREE ENERGY PREDICTED BY IDOCK:   -3.55 KCAL/MOL
REMARK 922        TOTAL FREE ENERGY PREDICTED BY IDOCK:   -7.06 KCAL/MOL
REMARK 923 INTER-LIGAND FREE ENERGY PREDICTED BY IDOCK:   -6.04 KCAL/MOL
REMARK 924 INTRA-LIGAND FREE ENERGY PREDICTED BY IDOCK:   -1.01 KCAL/MOL
REMARK 927      BINDING AFFINITY PREDICTED BY RF-SCORE:    0.00 PKD
ROOT
HETATM    1  C   UNL     1      -8.192   6.319  66.834  1.00  0.00    -0.109 C  
HETATM    2  C   UNL     1      -9.510   5.561  66.654  1.00  0.00    -0.146 C  
HETATM    3  C   UNL     1      -9.253   4.056  66.764  1.00  0.00    -0.178 C  
ENDROOT
BRANCH   2   4
HETATM    4  N   UNL     1     -10.454   6.026  67.672  1.00  0.00    -0.207 NA 
HETATM    5  H   UNL     1     -11.406   6.036  67.304  1.00  0.00     0.000 HD 
BRANCH   4   6
HETATM    6  C   UNL     1     -10.388   5.262  68.925  1.00  0.00    -0.158 C  
BRANCH   6   7
HETATM    7  C   UNL     1     -10.936   6.108  70.089  1.00  0.00    -0.358 C  
HETATM    8  O   UNL     1      -9.882   6.368  71.029  1.00  0.00    -0.179 OA 
HETATM    9  H   UNL     1     -10.219   6.890  71.748  1.00  0.00     0.000 HD 
BRANCH   7  10
HETATM   10  C   UNL     1     -11.528   7.434  69.599  1.00  0.00     0.132 C  
BRANCH  10  11
HETATM   11  O   UNL     1     -10.526   8.460  69.683  1.00  0.00    -0.216 OA 
BRANCH  11  12
HETATM   12  C   UNL     1     -10.820   9.607  68.996  1.00  0.00    -0.183 A  
HETATM   13  C   UNL     1     -10.781   9.734  67.608  1.00  0.00    -0.334 A  
HETATM   14  C   UNL     1     -11.091  10.955  67.005  1.00  0.00    -0.271 A  
HETATM   15  C   UNL     1     -11.456  12.066  67.777  1.00  0.00    -0.394 A  
HETATM   16  C   UNL     1     -11.527  11.925  69.166  1.00  0.00    -0.356 A  
HETATM   17  C   UNL     1     -11.218  10.697  69.770  1.00  0.00    -0.363 A  
BRANCH  15  18
HETATM   18  C   UNL     1     -11.745  13.384  67.108  1.00  0.00    -0.379 C  
BRANCH  18  19
HETATM   19  O   UNL     1     -11.894  13.158  65.709  1.00  0.00    -0.356 OA 
BRANCH  19  20
HETATM   20  C   UNL     1     -11.357  14.226  64.933  1.00  0.00    -0.372 C  
BRANCH  20  21
HETATM   21  C   UNL     1     -11.232  15.452  65.830  1.00  0.00    -0.196 C  
BRANCH  21  22
HETATM   22  O   UNL     1     -10.268  16.357  65.292  1.00  0.00    -0.575 OA 
BRANCH  22  23
HETATM   23  C   UNL     1      -9.417  16.941  66.287  1.00  0.00    -0.271 C  
HETATM   24  C   UNL     1     -10.078  18.136  66.966  1.00  0.00    -0.357 C  
HETATM   25  C   UNL     1      -9.121  15.856  67.317  1.00  0.00    -0.218 C  
ENDBRANCH  22  23
ENDBRANCH  21  22
ENDBRANCH  20  21
ENDBRANCH  19  20
ENDBRANCH  18  19
ENDBRANCH  15  18
ENDBRANCH  11  12
ENDBRANCH  10  11
ENDBRANCH   7  10
ENDBRANCH   6   7
ENDBRANCH   4   6
ENDBRANCH   2   4
TORSDOF 12
ENDMDL
MODEL      211
REMARK 921   NORMALIZED FREE ENERGY PREDICTED BY IDOCK:   -3.55 KCAL/MOL
REMARK 922        TOTAL FREE ENERGY PREDICTED BY IDOCK:   -7.06 KCAL/MOL
REMARK 923 INTER-LIGAND FREE ENERGY PREDICTED BY IDOCK:   -6.27 KCAL/MOL
REMARK 924 INTRA-LIGAND FREE ENERGY PREDICTED BY IDOCK:   -0.79 KCAL/MOL
REMARK 927      BINDING AFFINITY PREDICTED BY RF-SCORE:    0.00 PKD
ROOT
HETATM    1  C   UNL     1     -10.904  19.368  67.305  1.00  0.00    -0.561 C  
HETATM    2  C   UNL     1     -10.029  18.978  66.111  1.00  0.00    -0.364 C  
HETATM    3  C   UNL     1      -8.574  19.354  66.400  1.00  0.00    -0.372 C  
ENDROOT
BRANCH   2   4
HETATM    4  N   UNL     1     -10.182  17.541  65.874  1.00  0.00    -0.564 NA 
HETATM    5  H   UNL     1     -10.488  17.364  64.916  1.00  0.00     0.000 HD 
BRANCH   4   6
HETATM    6  C   UNL     1      -8.976  16.764  66.188  1.00  0.00    -0.260 C  
BRANCH   6   7
HETATM    7  C   UNL     1      -9.292  15.711  67.265  1.00  0.00    -0.215 C  
HETATM    8  O   UNL     1      -8.490  15.962  68.430  1.00  0.00    -0.165 OA 
HETATM    9  H   UNL     1      -8.685  15.312  69.095  1.00  0.00     0.000 HD 
BRANCH   7  10
HETATM   10  C   UNL     1     -10.775  15.717  67.649  1.00  0.00    -0.310 C  
BRANCH  10  11
HETATM   11  O   UNL     1     -11.513  14.931  66.700  1.00  0.00    -0.349 OA 
BRANCH  11  12
HETATM   12  C   UNL     1     -11.215  13.595  66.705  1.00  0.00    -0.313 A  
HETATM   13  C   UNL     1     -10.943  12.846  67.849  1.00  0.00    -0.266 A  
HETATM   14  C   UNL     1     -10.641  11.486  67.744  1.00  0.00    -0.227 A  
HETATM   15  C   UNL     1     -10.616  10.850  66.495  1.00  0.00    -0.295 A  
HETATM   16  C   UNL     1     -10.922  11.598  65.354  1.00  0.00    -0.328 A  
HETATM   17  C   UNL     1     -11.229  12.962  65.461  1.00  0.00    -0.319 A  
BRANCH  15  18
HETATM   18  C   UNL     1     -10.245   9.393  66.401  1.00  0.00    -0.230 C  
BRANCH  18  19
HETATM   19  O   UNL     1      -8.899   9.240  66.840  1.00  0.00    -0.125 OA 
BRANCH  19  20
HETATM   20  C   UNL     1      -8.429   7.904  66.673  1.00  0.00    -0.131 C  
BRANCH  20  21
HETATM   21  C   UNL     1      -9.584   6.952  66.961  1.00  0.00    -0.158 C  
BRANCH  21  22
HETATM   22  O   UNL     1      -9.087   5.721  67.484  1.00  0.00    -0.109 OA 
BRANCH  22  23
HETATM   23  C   UNL     1      -9.969   4.612  67.268  1.00  0.00    -0.159 C  
HETATM   24  C   UNL     1     -10.162   4.322  65.782  1.00  0.00    -0.207 C  
HETATM   25  C   UNL     1      -9.346   3.402  67.956  1.00  0.00    -0.241 C  
ENDBRANCH  22  23
ENDBRANCH  21  22
ENDBRANCH  20  21
ENDBRANCH  19  20
ENDBRANCH  18  19
ENDBRANCH  15  18
ENDBRANCH  11  12
ENDBRANCH  10  11
ENDBRANCH   7  10
ENDBRANCH   6   7
ENDBRANCH   4   6
ENDBRANCH   2   4
TORSDOF 12
ENDMDL
MODEL      212
REMARK 921   NORMALIZED FREE ENERGY PREDICTED BY IDOCK:   -3.54 KCAL/MOL
REMARK 922        TOTAL FREE ENERGY PREDICTED BY IDOCK:   -7.04 KCAL/MOL
REMARK 923 INTER-LIGAND FREE ENERGY PREDICTED BY IDOCK:   -5.76 KCAL/MOL
REMARK 924 INTRA-LIGAND FREE ENERGY PREDICTED BY IDOCK:   -1.27 KCAL/MOL
REMARK 927      BINDING AFFINITY PREDICTED BY RF-SCORE:    0.00 PKD
ROOT
HETATM    1  C   UNL     1     -11.028  16.162  68.259  1.00  0.00    -0.340 C  
HETATM    2  C   UNL     1     -10.850  14.918  69.133  1.00  0.00    -0.250 C  
HETATM    3  C   UNL     1     -11.988  14.845  70.154  1.00  0.00    -0.368 C  
ENDROOT
BRANCH   2   4
HETATM    4  N   UNL     1     -10.824  13.741  68.264  1.00  0.00    -0.243 NA 
HETATM    5  H   UNL     1      -9.882  13.575  67.908  1.00  0.00     0.000 HD 
BRANCH   4   6
HETATM    6  C   UNL     1     -11.360  12.530  68.901  1.00  0.00    -0.297 C  
BRANCH   6   7
HETATM    7  C   UNL     1     -10.524  11.304  68.494  1.00  0.00    -0.197 C  
HETATM    8  O   UNL     1      -9.260  11.338  69.177  1.00  0.00    -0.397 OA 
HETATM    9  H   UNL     1      -8.744  10.581  68.926  1.00  0.00     0.000 HD 
BRANCH   7  10
HETATM   10  C   UNL     1     -11.246   9.991  68.813  1.00  0.00    -0.122 C  
BRANCH  10  11
HETATM   11  O   UNL     1     -11.850  10.086  70.113  1.00  0.00    -0.238 OA 
BRANCH  11  12
HETATM   12  C   UNL     1     -11.613   9.018  70.937  1.00  0.00    -0.290 A  
HETATM   13  C   UNL     1     -12.484   7.944  71.116  1.00  0.00    -0.221 A  
HETATM   14  C   UNL     1     -12.149   6.906  71.988  1.00  0.00    -0.331 A  
HETATM   15  C   UNL     1     -10.934   6.919  72.688  1.00  0.00    -0.303 A  
HETATM   16  C   UNL     1     -10.050   7.981  72.479  1.00  0.00    -0.346 A  
HETATM   17  C   UNL     1     -10.385   9.020  71.600  1.00  0.00    -0.420 A  
BRANCH  15  18
HETATM   18  C   UNL     1     -10.614   5.810  73.656  1.00  0.00    -0.276 C  
BRANCH  18  19
HETATM   19  O   UNL     1     -11.490   4.717  73.397  1.00  0.00    -0.328 OA 
BRANCH  19  20
HETATM   20  C   UNL     1     -10.798   3.470  73.365  1.00  0.00    -0.216 C  
BRANCH  20  21
HETATM   21  C   UNL     1      -9.322   3.750  73.104  1.00  0.00    -0.102 C  
BRANCH  21  22
HETATM   22  O   UNL     1      -8.937   3.212  71.840  1.00  0.00    -0.086 OA 
BRANCH  22  23
HETATM   23  C   UNL     1      -8.301   4.170  70.983  1.00  0.00    -0.079 C  
HETATM   24  C   UNL     1      -9.312   4.914  70.116  1.00  0.00    -0.217 C  
HETATM   25  C   UNL     1      -7.562   5.156  71.883  1.00  0.00    -0.096 C  
ENDBRANCH  22  23
ENDBRANCH  21  22
ENDBRANCH  20  21
ENDBRANCH  19  20
ENDBRANCH  18  19
ENDBRANCH  15  18
ENDBRANCH  11  12
ENDBRANCH  10  11
ENDBRANCH   7  10
ENDBRANCH   6   7
ENDBRANCH   4   6
ENDBRANCH   2   4
TORSDOF 12
ENDMDL
MODEL      213
REMARK 921   NORMALIZED FREE ENERGY PREDICTED BY IDOCK:   -3.52 KCAL/MOL
REMARK 922        TOTAL FREE ENERGY PREDICTED BY IDOCK:   -7.02 KCAL/MOL
REMARK 923 INTER-LIGAND FREE ENERGY PREDICTED BY IDOCK:   -6.03 KCAL/MOL
REMARK 924 INTRA-LIGAND FREE ENERGY PREDICTED BY IDOCK:   -0.98 KCAL/MOL
REMARK 927      BINDING AFFINITY PREDICTED BY RF-SCORE:    0.00 PKD
ROOT
HETATM    1  C   UNL     1      -6.242  10.333  62.710  1.00  0.00    -0.139 C  
HETATM    2  C   UNL     1      -7.280   9.250  63.014  1.00  0.00    -0.098 C  
HETATM    3  C   UNL     1      -6.648   7.869  62.821  1.00  0.00    -0.084 C  
ENDROOT
BRANCH   2   4
HETATM    4  N   UNL     1      -7.761   9.440  64.383  1.00  0.00    -0.114 NA 
HETATM    5  H   UNL     1      -7.302  10.241  64.819  1.00  0.00     0.000 HD 
BRANCH   4   6
HETATM    6  C   UNL     1      -9.222   9.562  64.479  1.00  0.00    -0.162 C  
BRANCH   6   7
HETATM    7  C   UNL     1      -9.621  11.043  64.613  1.00  0.00    -0.254 C  
HETATM    8  O   UNL     1     -10.102  11.526  63.348  1.00  0.00    -0.347 OA 
HETATM    9  H   UNL     1     -10.348  12.440  63.431  1.00  0.00     0.000 HD 
BRANCH   7  10
HETATM   10  C   UNL     1     -10.696  11.248  65.685  1.00  0.00    -0.217 C  
BRANCH  10  11
HETATM   11  O   UNL     1     -10.111  11.906  66.821  1.00  0.00    -0.199 OA 
BRANCH  11  12
HETATM   12  C   UNL     1     -10.023  13.269  66.713  1.00  0.00    -0.263 A  
HETATM   13  C   UNL     1      -8.905  14.023  67.069  1.00  0.00    -0.234 A  
HETATM   14  C   UNL     1      -8.920  15.412  66.927  1.00  0.00    -0.273 A  
HETATM   15  C   UNL     1     -10.048  16.070  66.417  1.00  0.00    -0.314 A  
HETATM   16  C   UNL     1     -11.153  15.307  66.030  1.00  0.00    -0.278 A  
HETATM   17  C   UNL     1     -11.135  13.912  66.170  1.00  0.00    -0.299 A  
BRANCH  15  18
HETATM   18  C   UNL     1     -10.057  17.573  66.312  1.00  0.00    -0.336 C  
BRANCH  18  19
HETATM   19  O   UNL     1     -10.548  18.108  67.538  1.00  0.00    -0.402 OA 
BRANCH  19  20
HETATM   20  C   UNL     1     -10.741  19.519  67.467  1.00  0.00    -0.440 C  
BRANCH  20  21
HETATM   21  C   UNL     1      -9.634  20.110  66.601  1.00  0.00    -0.418 C  
BRANCH  21  22
HETATM   22  O   UNL     1      -8.604  20.653  67.424  1.00  0.00    -0.329 OA 
BRANCH  22  23
HETATM   23  C   UNL     1      -7.296  20.170  67.093  1.00  0.00    -0.271 C  
HETATM   24  C   UNL     1      -6.949  18.900  67.864  1.00  0.00    -0.247 C  
HETATM   25  C   UNL     1      -7.288  19.887  65.594  1.00  0.00    -0.316 C  
ENDBRANCH  22  23
ENDBRANCH  21  22
ENDBRANCH  20  21
ENDBRANCH  19  20
ENDBRANCH  18  19
ENDBRANCH  15  18
ENDBRANCH  11  12
ENDBRANCH  10  11
ENDBRANCH   7  10
ENDBRANCH   6   7
ENDBRANCH   4   6
ENDBRANCH   2   4
TORSDOF 12
ENDMDL
MODEL      214
REMARK 921   NORMALIZED FREE ENERGY PREDICTED BY IDOCK:   -3.51 KCAL/MOL
REMARK 922        TOTAL FREE ENERGY PREDICTED BY IDOCK:   -7.00 KCAL/MOL
REMARK 923 INTER-LIGAND FREE ENERGY PREDICTED BY IDOCK:   -5.97 KCAL/MOL
REMARK 924 INTRA-LIGAND FREE ENERGY PREDICTED BY IDOCK:   -1.03 KCAL/MOL
REMARK 927      BINDING AFFINITY PREDICTED BY RF-SCORE:    0.00 PKD
ROOT
HETATM    1  C   UNL     1     -12.686  13.807  65.474  1.00  0.00    -0.530 C  
HETATM    2  C   UNL     1     -11.402  14.297  66.148  1.00  0.00    -0.342 C  
HETATM    3  C   UNL     1     -11.713  14.740  67.579  1.00  0.00    -0.370 C  
ENDROOT
BRANCH   2   4
HETATM    4  N   UNL     1     -10.419  13.213  66.116  1.00  0.00    -0.276 NA 
HETATM    5  H   UNL     1      -9.470  13.585  66.115  1.00  0.00     0.000 HD 
BRANCH   4   6
HETATM    6  C   UNL     1     -10.592  12.234  67.198  1.00  0.00    -0.225 C  
BRANCH   6   7
HETATM    7  C   UNL     1     -10.236  10.823  66.697  1.00  0.00    -0.233 C  
HETATM    8  O   UNL     1      -8.839  10.769  66.368  1.00  0.00    -0.155 OA 
HETATM    9  H   UNL     1      -8.620   9.898  66.058  1.00  0.00     0.000 HD 
BRANCH   7  10
HETATM   10  C   UNL     1     -10.562   9.749  67.740  1.00  0.00    -0.266 C  
BRANCH  10  11
HETATM   11  O   UNL     1     -11.140  10.373  68.897  1.00  0.00    -0.227 OA 
BRANCH  11  12
HETATM   12  C   UNL     1     -10.949   9.695  70.072  1.00  0.00    -0.260 A  
HETATM   13  C   UNL     1     -11.972   9.284  70.927  1.00  0.00    -0.321 A  
HETATM   14  C   UNL     1     -11.668   8.603  72.108  1.00  0.00    -0.442 A  
HETATM   15  C   UNL     1     -10.340   8.313  72.450  1.00  0.00    -0.402 A  
HETATM   16  C   UNL     1      -9.321   8.698  71.573  1.00  0.00    -0.319 A  
HETATM   17  C   UNL     1      -9.627   9.378  70.385  1.00  0.00    -0.319 A  
BRANCH  15  18
HETATM   18  C   UNL     1     -10.034   7.616  73.750  1.00  0.00    -0.117 C  
BRANCH  18  19
HETATM   19  O   UNL     1      -8.626   7.422  73.839  1.00  0.00    -0.164 OA 
BRANCH  19  20
HETATM   20  C   UNL     1      -8.291   6.093  74.231  1.00  0.00    -0.116 C  
BRANCH  20  21
HETATM   21  C   UNL     1      -8.170   5.240  72.973  1.00  0.00    -0.112 C  
BRANCH  21  22
HETATM   22  O   UNL     1      -8.945   4.050  73.111  1.00  0.00    -0.106 OA 
BRANCH  22  23
HETATM   23  C   UNL     1      -9.905   3.870  72.062  1.00  0.00    -0.174 C  
HETATM   24  C   UNL     1      -9.826   4.986  71.024  1.00  0.00    -0.266 C  
HETATM   25  C   UNL     1      -9.606   2.527  71.405  1.00  0.00    -0.225 C  
ENDBRANCH  22  23
ENDBRANCH  21  22
ENDBRANCH  20  21
ENDBRANCH  19  20
ENDBRANCH  18  19
ENDBRANCH  15  18
ENDBRANCH  11  12
ENDBRANCH  10  11
ENDBRANCH   7  10
ENDBRANCH   6   7
ENDBRANCH   4   6
ENDBRANCH   2   4
TORSDOF 12
ENDMDL
MODEL      215
REMARK 921   NORMALIZED FREE ENERGY PREDICTED BY IDOCK:   -3.51 KCAL/MOL
REMARK 922        TOTAL FREE ENERGY PREDICTED BY IDOCK:   -6.99 KCAL/MOL
REMARK 923 INTER-LIGAND FREE ENERGY PREDICTED BY IDOCK:   -5.41 KCAL/MOL
REMARK 924 INTRA-LIGAND FREE ENERGY PREDICTED BY IDOCK:   -1.58 KCAL/MOL
REMARK 927      BINDING AFFINITY PREDICTED BY RF-SCORE:    0.00 PKD
ROOT
HETATM    1  C   UNL     1     -10.403   8.805  68.076  1.00  0.00    -0.273 C  
HETATM    2  C   UNL     1      -9.913   7.725  67.108  1.00  0.00    -0.230 C  
HETATM    3  C   UNL     1     -10.971   6.625  66.994  1.00  0.00    -0.463 C  
ENDROOT
BRANCH   2   4
HETATM    4  N   UNL     1      -9.640   8.352  65.814  1.00  0.00    -0.451 NA 
HETATM    5  H   UNL     1     -10.106   7.845  65.061  1.00  0.00     0.000 HD 
BRANCH   4   6
HETATM    6  C   UNL     1      -9.985   9.780  65.770  1.00  0.00    -0.279 C  
BRANCH   6   7
HETATM    7  C   UNL     1      -8.938  10.551  64.947  1.00  0.00    -0.199 C  
HETATM    8  O   UNL     1      -9.030  11.953  65.247  1.00  0.00    -0.413 OA 
HETATM    9  H   UNL     1      -8.384  12.429  64.739  1.00  0.00     0.000 HD 
BRANCH   7  10
HETATM   10  C   UNL     1      -7.516  10.056  65.228  1.00  0.00    -0.137 C  
BRANCH  10  11
HETATM   11  O   UNL     1      -6.940  10.846  66.281  1.00  0.00    -0.130 OA 
BRANCH  11  12
HETATM   12  C   UNL     1      -6.946  10.250  67.515  1.00  0.00    -0.085 A  
HETATM   13  C   UNL     1      -6.476   8.964  67.779  1.00  0.00    -0.060 A  
HETATM   14  C   UNL     1      -6.536   8.446  69.074  1.00  0.00    -0.048 A  
HETATM   15  C   UNL     1      -7.057   9.208  70.130  1.00  0.00    -0.059 A  
HETATM   16  C   UNL     1      -7.496  10.509  69.866  1.00  0.00    -0.091 A  
HETATM   17  C   UNL     1      -7.431  11.029  68.566  1.00  0.00    -0.106 A  
BRANCH  15  18
HETATM   18  C   UNL     1      -7.151   8.613  71.510  1.00  0.00    -0.089 C  
BRANCH  18  19
HETATM   19  O   UNL     1      -8.249   7.707  71.538  1.00  0.00    -0.099 OA 
BRANCH  19  20
HETATM   20  C   UNL     1      -9.242   8.097  72.485  1.00  0.00    -0.251 C  
BRANCH  20  21
HETATM   21  C   UNL     1     -10.338   8.853  71.743  1.00  0.00    -0.356 C  
BRANCH  21  22
HETATM   22  O   UNL     1     -11.573   8.744  72.450  1.00  0.00    -0.352 OA 
BRANCH  22  23
HETATM   23  C   UNL     1     -12.692   8.461  71.600  1.00  0.00    -0.331 C  
HETATM   24  C   UNL     1     -12.815   6.970  71.301  1.00  0.00    -0.376 C  
HETATM   25  C   UNL     1     -13.942   8.950  72.326  1.00  0.00    -0.531 C  
ENDBRANCH  22  23
ENDBRANCH  21  22
ENDBRANCH  20  21
ENDBRANCH  19  20
ENDBRANCH  18  19
ENDBRANCH  15  18
ENDBRANCH  11  12
ENDBRANCH  10  11
ENDBRANCH   7  10
ENDBRANCH   6   7
ENDBRANCH   4   6
ENDBRANCH   2   4
TORSDOF 12
ENDMDL
MODEL      216
REMARK 921   NORMALIZED FREE ENERGY PREDICTED BY IDOCK:   -3.51 KCAL/MOL
REMARK 922        TOTAL FREE ENERGY PREDICTED BY IDOCK:   -6.99 KCAL/MOL
REMARK 923 INTER-LIGAND FREE ENERGY PREDICTED BY IDOCK:   -5.75 KCAL/MOL
REMARK 924 INTRA-LIGAND FREE ENERGY PREDICTED BY IDOCK:   -1.24 KCAL/MOL
REMARK 927      BINDING AFFINITY PREDICTED BY RF-SCORE:    0.00 PKD
ROOT
HETATM    1  C   UNL     1     -10.922  15.603  67.611  1.00  0.00    -0.315 C  
HETATM    2  C   UNL     1     -11.112  14.190  67.053  1.00  0.00    -0.307 C  
HETATM    3  C   UNL     1     -12.011  13.386  67.995  1.00  0.00    -0.357 C  
ENDROOT
BRANCH   2   4
HETATM    4  N   UNL     1     -11.687  14.295  65.711  1.00  0.00    -0.351 NA 
HETATM    5  H   UNL     1     -11.058  14.799  65.087  1.00  0.00     0.000 HD 
BRANCH   4   6
HETATM    6  C   UNL     1     -12.065  12.998  65.133  1.00  0.00    -0.433 C  
BRANCH   6   7
HETATM    7  C   UNL     1     -11.016  12.556  64.097  1.00  0.00    -0.381 C  
HETATM    8  O   UNL     1      -9.923  13.488  64.094  1.00  0.00    -0.766 OA 
HETATM    9  H   UNL     1      -9.275  13.215  63.455  1.00  0.00     0.000 HD 
BRANCH   7  10
HETATM   10  C   UNL     1     -10.490  11.146  64.385  1.00  0.00    -0.353 C  
BRANCH  10  11
HETATM   11  O   UNL     1      -9.304  11.238  65.190  1.00  0.00    -0.219 OA 
BRANCH  11  12
HETATM   12  C   UNL     1      -9.478  10.911  66.509  1.00  0.00    -0.185 A  
HETATM   13  C   UNL     1      -8.736  11.442  67.564  1.00  0.00    -0.140 A  
HETATM   14  C   UNL     1      -8.988  11.034  68.875  1.00  0.00    -0.123 A  
HETATM   15  C   UNL     1      -9.992  10.097  69.156  1.00  0.00    -0.221 A  
HETATM   16  C   UNL     1     -10.755   9.592  68.099  1.00  0.00    -0.266 A  
HETATM   17  C   UNL     1     -10.504  10.006  66.783  1.00  0.00    -0.267 A  
BRANCH  15  18
HETATM   18  C   UNL     1     -10.217   9.639  70.574  1.00  0.00    -0.287 C  
BRANCH  18  19
HETATM   19  O   UNL     1      -9.103   8.849  70.976  1.00  0.00    -0.201 OA 
BRANCH  19  20
HETATM   20  C   UNL     1      -9.191   8.455  72.344  1.00  0.00    -0.275 C  
BRANCH  20  21
HETATM   21  C   UNL     1      -8.058   7.477  72.633  1.00  0.00    -0.111 C  
BRANCH  21  22
HETATM   22  O   UNL     1      -7.734   6.741  71.455  1.00  0.00    -0.091 OA 
BRANCH  22  23
HETATM   23  C   UNL     1      -6.323   6.604  71.239  1.00  0.00    -0.041 C  
HETATM   24  C   UNL     1      -5.763   7.752  70.405  1.00  0.00    -0.023 C  
HETATM   25  C   UNL     1      -5.659   6.588  72.612  1.00  0.00    -0.038 C  
ENDBRANCH  22  23
ENDBRANCH  21  22
ENDBRANCH  20  21
ENDBRANCH  19  20
ENDBRANCH  18  19
ENDBRANCH  15  18
ENDBRANCH  11  12
ENDBRANCH  10  11
ENDBRANCH   7  10
ENDBRANCH   6   7
ENDBRANCH   4   6
ENDBRANCH   2   4
TORSDOF 12
ENDMDL
MODEL      217
REMARK 921   NORMALIZED FREE ENERGY PREDICTED BY IDOCK:   -3.47 KCAL/MOL
REMARK 922        TOTAL FREE ENERGY PREDICTED BY IDOCK:   -6.93 KCAL/MOL
REMARK 923 INTER-LIGAND FREE ENERGY PREDICTED BY IDOCK:   -5.09 KCAL/MOL
REMARK 924 INTRA-LIGAND FREE ENERGY PREDICTED BY IDOCK:   -1.84 KCAL/MOL
REMARK 927      BINDING AFFINITY PREDICTED BY RF-SCORE:    0.00 PKD
ROOT
HETATM    1  C   UNL     1      -7.097  10.063  63.053  1.00  0.00    -0.129 C  
HETATM    2  C   UNL     1      -5.897   9.516  63.831  1.00  0.00    -0.091 C  
HETATM    3  C   UNL     1      -5.443  10.552  64.863  1.00  0.00    -0.142 C  
ENDROOT
BRANCH   2   4
HETATM    4  N   UNL     1      -6.291   8.256  64.464  1.00  0.00    -0.064 NA 
HETATM    5  H   UNL     1      -6.539   7.560  63.760  1.00  0.00     0.000 HD 
BRANCH   4   6
HETATM    6  C   UNL     1      -5.280   7.724  65.388  1.00  0.00    -0.029 C  
BRANCH   6   7
HETATM    7  C   UNL     1      -5.947   7.283  66.703  1.00  0.00    -0.035 C  
HETATM    8  O   UNL     1      -5.357   7.996  67.802  1.00  0.00    -0.031 OA 
HETATM    9  H   UNL     1      -5.769   7.724  68.614  1.00  0.00     0.000 HD 
BRANCH   7  10
HETATM   10  C   UNL     1      -7.460   7.526  66.683  1.00  0.00    -0.092 C  
BRANCH  10  11
HETATM   11  O   UNL     1      -7.763   8.685  67.476  1.00  0.00    -0.096 OA 
BRANCH  11  12
HETATM   12  C   UNL     1      -8.493   9.647  66.830  1.00  0.00    -0.127 A  
HETATM   13  C   UNL     1      -8.400  11.016  67.080  1.00  0.00    -0.137 A  
HETATM   14  C   UNL     1      -9.197  11.916  66.369  1.00  0.00    -0.218 A  
HETATM   15  C   UNL     1     -10.093  11.464  65.390  1.00  0.00    -0.308 A  
HETATM   16  C   UNL     1     -10.158  10.094  65.120  1.00  0.00    -0.329 A  
HETATM   17  C   UNL     1      -9.354   9.192  65.831  1.00  0.00    -0.306 A  
BRANCH  15  18
HETATM   18  C   UNL     1     -10.974  12.449  64.666  1.00  0.00    -0.305 C  
BRANCH  18  19
HETATM   19  O   UNL     1     -12.230  12.509  65.335  1.00  0.00    -0.497 OA 
BRANCH  19  20
HETATM   20  C   UNL     1     -12.654  13.852  65.560  1.00  0.00    -0.526 C  
BRANCH  20  21
HETATM   21  C   UNL     1     -12.000  14.350  66.844  1.00  0.00    -0.399 C  
BRANCH  21  22
HETATM   22  O   UNL     1     -12.180  13.395  67.888  1.00  0.00    -0.287 OA 
BRANCH  22  23
HETATM   23  C   UNL     1     -11.393  13.670  69.055  1.00  0.00    -0.287 C  
HETATM   24  C   UNL     1     -10.281  14.674  68.764  1.00  0.00    -0.242 C  
HETATM   25  C   UNL     1     -12.339  14.234  70.111  1.00  0.00    -0.413 C  
ENDBRANCH  22  23
ENDBRANCH  21  22
ENDBRANCH  20  21
ENDBRANCH  19  20
ENDBRANCH  18  19
ENDBRANCH  15  18
ENDBRANCH  11  12
ENDBRANCH  10  11
ENDBRANCH   7  10
ENDBRANCH   6   7
ENDBRANCH   4   6
ENDBRANCH   2   4
TORSDOF 12
ENDMDL
MODEL      218
REMARK 921   NORMALIZED FREE ENERGY PREDICTED BY IDOCK:   -3.47 KCAL/MOL
REMARK 922        TOTAL FREE ENERGY PREDICTED BY IDOCK:   -6.93 KCAL/MOL
REMARK 923 INTER-LIGAND FREE ENERGY PREDICTED BY IDOCK:   -5.40 KCAL/MOL
REMARK 924 INTRA-LIGAND FREE ENERGY PREDICTED BY IDOCK:   -1.53 KCAL/MOL
REMARK 927      BINDING AFFINITY PREDICTED BY RF-SCORE:    0.00 PKD
ROOT
HETATM    1  C   UNL     1      -7.809  13.605  67.373  1.00  0.00    -0.162 C  
HETATM    2  C   UNL     1      -9.207  14.219  67.270  1.00  0.00    -0.214 C  
HETATM    3  C   UNL     1      -9.272  15.486  68.127  1.00  0.00    -0.189 C  
ENDROOT
BRANCH   2   4
HETATM    4  N   UNL     1      -9.485  14.502  65.861  1.00  0.00    -0.509 NA 
HETATM    5  H   UNL     1      -9.669  13.639  65.349  1.00  0.00     0.000 HD 
BRANCH   4   6
HETATM    6  C   UNL     1     -10.575  15.468  65.662  1.00  0.00    -0.373 C  
BRANCH   6   7
HETATM    7  C   UNL     1     -11.765  14.785  64.963  1.00  0.00    -0.364 C  
HETATM    8  O   UNL     1     -11.299  14.086  63.798  1.00  0.00    -0.534 OA 
HETATM    9  H   UNL     1     -12.033  13.665  63.366  1.00  0.00     0.000 HD 
BRANCH   7  10
HETATM   10  C   UNL     1     -12.488  13.808  65.896  1.00  0.00    -0.468 C  
BRANCH  10  11
HETATM   11  O   UNL     1     -12.348  12.473  65.383  1.00  0.00    -0.579 OA 
BRANCH  11  12
HETATM   12  C   UNL     1     -11.648  11.618  66.193  1.00  0.00    -0.028 A  
HETATM   13  C   UNL     1     -11.763  11.565  67.582  1.00  0.00    -0.283 A  
HETATM   14  C   UNL     1     -10.995  10.659  68.316  1.00  0.00    -0.314 A  
HETATM   15  C   UNL     1     -10.108   9.784  67.676  1.00  0.00    -0.236 A  
HETATM   16  C   UNL     1     -10.020   9.817  66.281  1.00  0.00    -0.331 A  
HETATM   17  C   UNL     1     -10.795  10.725  65.544  1.00  0.00    -0.061 A  
BRANCH  15  18
HETATM   18  C   UNL     1      -9.259   8.845  68.492  1.00  0.00    -0.137 C  
BRANCH  18  19
HETATM   19  O   UNL     1      -7.965   8.775  67.901  1.00  0.00    -0.105 OA 
BRANCH  19  20
HETATM   20  C   UNL     1      -7.624   7.447  67.510  1.00  0.00    -0.106 C  
BRANCH  20  21
HETATM   21  C   UNL     1      -6.769   7.524  66.250  1.00  0.00    -0.057 C  
BRANCH  21  22
HETATM   22  O   UNL     1      -6.973   8.775  65.596  1.00  0.00    -0.077 OA 
BRANCH  22  23
HETATM   23  C   UNL     1      -6.978   8.675  64.166  1.00  0.00    -0.089 C  
HETATM   24  C   UNL     1      -8.159   7.852  63.659  1.00  0.00    -0.074 C  
HETATM   25  C   UNL     1      -7.061  10.096  63.617  1.00  0.00    -0.110 C  
ENDBRANCH  22  23
ENDBRANCH  21  22
ENDBRANCH  20  21
ENDBRANCH  19  20
ENDBRANCH  18  19
ENDBRANCH  15  18
ENDBRANCH  11  12
ENDBRANCH  10  11
ENDBRANCH   7  10
ENDBRANCH   6   7
ENDBRANCH   4   6
ENDBRANCH   2   4
TORSDOF 12
ENDMDL
MODEL      219
REMARK 921   NORMALIZED FREE ENERGY PREDICTED BY IDOCK:   -3.47 KCAL/MOL
REMARK 922        TOTAL FREE ENERGY PREDICTED BY IDOCK:   -6.92 KCAL/MOL
REMARK 923 INTER-LIGAND FREE ENERGY PREDICTED BY IDOCK:   -5.44 KCAL/MOL
REMARK 924 INTRA-LIGAND FREE ENERGY PREDICTED BY IDOCK:   -1.48 KCAL/MOL
REMARK 927      BINDING AFFINITY PREDICTED BY RF-SCORE:    0.00 PKD
ROOT
HETATM    1  C   UNL     1     -12.750  14.340  64.687  1.00  0.00    -0.137 C  
HETATM    2  C   UNL     1     -11.313  14.176  65.186  1.00  0.00    -0.336 C  
HETATM    3  C   UNL     1     -10.529  13.298  64.207  1.00  0.00    -0.372 C  
ENDROOT
BRANCH   2   4
HETATM    4  N   UNL     1     -10.715  15.505  65.321  1.00  0.00    -0.396 NA 
HETATM    5  H   UNL     1     -11.364  16.149  65.773  1.00  0.00     0.000 HD 
BRANCH   4   6
HETATM    6  C   UNL     1      -9.421  15.498  66.018  1.00  0.00    -0.352 C  
BRANCH   6   7
HETATM    7  C   UNL     1      -9.609  15.924  67.485  1.00  0.00    -0.221 C  
HETATM    8  O   UNL     1     -10.936  16.440  67.668  1.00  0.00    -0.308 OA 
HETATM    9  H   UNL     1     -11.052  16.703  68.574  1.00  0.00     0.000 HD 
BRANCH   7  10
HETATM   10  C   UNL     1      -9.372  14.758  68.451  1.00  0.00    -0.197 C  
BRANCH  10  11
HETATM   11  O   UNL     1     -10.627  14.123  68.744  1.00  0.00    -0.245 OA 
BRANCH  11  12
HETATM   12  C   UNL     1     -10.639  12.765  68.565  1.00  0.00    -0.252 A  
HETATM   13  C   UNL     1     -11.599  11.903  69.094  1.00  0.00    -0.373 A  
HETATM   14  C   UNL     1     -11.515  10.529  68.859  1.00  0.00    -0.292 A  
HETATM   15  C   UNL     1     -10.478   9.995  68.082  1.00  0.00    -0.250 A  
HETATM   16  C   UNL     1      -9.538  10.867  67.525  1.00  0.00    -0.171 A  
HETATM   17  C   UNL     1      -9.625  12.246  67.759  1.00  0.00    -0.200 A  
BRANCH  15  18
HETATM   18  C   UNL     1     -10.384   8.505  67.877  1.00  0.00    -0.223 C  
BRANCH  18  19
HETATM   19  O   UNL     1      -9.142   8.213  67.243  1.00  0.00    -0.134 OA 
BRANCH  19  20
HETATM   20  C   UNL     1      -8.386   7.244  67.965  1.00  0.00    -0.123 C  
BRANCH  20  21
HETATM   21  C   UNL     1      -9.238   6.742  69.126  1.00  0.00    -0.137 C  
BRANCH  21  22
HETATM   22  O   UNL     1      -8.470   6.731  70.328  1.00  0.00    -0.132 OA 
BRANCH  22  23
HETATM   23  C   UNL     1      -8.992   7.594  71.346  1.00  0.00    -0.132 C  
HETATM   24  C   UNL     1      -8.534   9.037  71.156  1.00  0.00    -0.234 C  
HETATM   25  C   UNL     1     -10.513   7.516  71.263  1.00  0.00    -0.220 C  
ENDBRANCH  22  23
ENDBRANCH  21  22
ENDBRANCH  20  21
ENDBRANCH  19  20
ENDBRANCH  18  19
ENDBRANCH  15  18
ENDBRANCH  11  12
ENDBRANCH  10  11
ENDBRANCH   7  10
ENDBRANCH   6   7
ENDBRANCH   4   6
ENDBRANCH   2   4
TORSDOF 12
ENDMDL
MODEL      220
REMARK 921   NORMALIZED FREE ENERGY PREDICTED BY IDOCK:   -3.46 KCAL/MOL
REMARK 922        TOTAL FREE ENERGY PREDICTED BY IDOCK:   -6.91 KCAL/MOL
REMARK 923 INTER-LIGAND FREE ENERGY PREDICTED BY IDOCK:   -6.29 KCAL/MOL
REMARK 924 INTRA-LIGAND FREE ENERGY PREDICTED BY IDOCK:   -0.62 KCAL/MOL
REMARK 927      BINDING AFFINITY PREDICTED BY RF-SCORE:    0.00 PKD
ROOT
HETATM    1  C   UNL     1      -7.796   7.054  69.363  1.00  0.00    -0.113 C  
HETATM    2  C   UNL     1      -7.642   5.734  68.604  1.00  0.00    -0.089 C  
HETATM    3  C   UNL     1      -8.997   5.317  68.026  1.00  0.00    -0.113 C  
ENDROOT
BRANCH   2   4
HETATM    4  N   UNL     1      -6.638   5.918  67.555  1.00  0.00    -0.054 NA 
HETATM    5  H   UNL     1      -6.057   5.085  67.461  1.00  0.00     0.000 HD 
BRANCH   4   6
HETATM    6  C   UNL     1      -7.210   6.301  66.257  1.00  0.00    -0.069 C  
BRANCH   6   7
HETATM    7  C   UNL     1      -6.890   7.776  65.953  1.00  0.00    -0.057 C  
HETATM    8  O   UNL     1      -6.248   7.873  64.672  1.00  0.00    -0.048 OA 
HETATM    9  H   UNL     1      -6.050   8.783  64.484  1.00  0.00     0.000 HD 
BRANCH   7  10
HETATM   10  C   UNL     1      -8.151   8.647  65.966  1.00  0.00    -0.109 C  
BRANCH  10  11
HETATM   11  O   UNL     1      -8.545   8.928  64.613  1.00  0.00    -0.175 OA 
BRANCH  11  12
HETATM   12  C   UNL     1      -9.308  10.054  64.460  1.00  0.00    -0.286 A  
HETATM   13  C   UNL     1      -9.486  10.735  63.256  1.00  0.00    -0.353 A  
HETATM   14  C   UNL     1     -10.281  11.883  63.209  1.00  0.00    -0.428 A  
HETATM   15  C   UNL     1     -10.920  12.363  64.361  1.00  0.00    -0.377 A  
HETATM   16  C   UNL     1     -10.765  11.657  65.558  1.00  0.00    -0.333 A  
HETATM   17  C   UNL     1      -9.970  10.503  65.603  1.00  0.00    -0.332 A  
BRANCH  15  18
HETATM   18  C   UNL     1     -11.737  13.626  64.295  1.00  0.00    -0.403 C  
BRANCH  18  19
HETATM   19  O   UNL     1     -11.339  14.479  65.364  1.00  0.00    -0.322 OA 
BRANCH  19  20
HETATM   20  C   UNL     1     -11.078  15.809  64.921  1.00  0.00    -0.399 C  
BRANCH  20  21
HETATM   21  C   UNL     1     -10.079  16.445  65.881  1.00  0.00    -0.347 C  
BRANCH  21  22
HETATM   22  O   UNL     1      -9.998  17.850  65.644  1.00  0.00    -0.539 OA 
BRANCH  22  23
HETATM   23  C   UNL     1     -10.483  18.641  66.737  1.00  0.00    -0.408 C  
HETATM   24  C   UNL     1     -10.316  17.924  68.073  1.00  0.00    -0.394 C  
HETATM   25  C   UNL     1      -9.684  19.940  66.740  1.00  0.00    -0.538 C  
ENDBRANCH  22  23
ENDBRANCH  21  22
ENDBRANCH  20  21
ENDBRANCH  19  20
ENDBRANCH  18  19
ENDBRANCH  15  18
ENDBRANCH  11  12
ENDBRANCH  10  11
ENDBRANCH   7  10
ENDBRANCH   6   7
ENDBRANCH   4   6
ENDBRANCH   2   4
TORSDOF 12
ENDMDL
MODEL      221
REMARK 921   NORMALIZED FREE ENERGY PREDICTED BY IDOCK:   -3.46 KCAL/MOL
REMARK 922        TOTAL FREE ENERGY PREDICTED BY IDOCK:   -6.90 KCAL/MOL
REMARK 923 INTER-LIGAND FREE ENERGY PREDICTED BY IDOCK:   -5.68 KCAL/MOL
REMARK 924 INTRA-LIGAND FREE ENERGY PREDICTED BY IDOCK:   -1.23 KCAL/MOL
REMARK 927      BINDING AFFINITY PREDICTED BY RF-SCORE:    0.00 PKD
ROOT
HETATM    1  C   UNL     1      -5.834  12.148  67.795  1.00  0.00    -0.089 C  
HETATM    2  C   UNL     1      -6.053  12.263  69.305  1.00  0.00    -0.094 C  
HETATM    3  C   UNL     1      -6.379  13.715  69.664  1.00  0.00    -0.110 C  
ENDROOT
BRANCH   2   4
HETATM    4  N   UNL     1      -7.134  11.353  69.688  1.00  0.00    -0.333 NA 
HETATM    5  H   UNL     1      -7.975  11.875  69.935  1.00  0.00     0.000 HD 
BRANCH   4   6
HETATM    6  C   UNL     1      -7.432  10.337  68.669  1.00  0.00    -0.086 C  
BRANCH   6   7
HETATM    7  C   UNL     1      -8.895   9.877  68.795  1.00  0.00    -0.136 C  
HETATM    8  O   UNL     1      -9.032   9.022  69.942  1.00  0.00    -0.145 OA 
HETATM    9  H   UNL     1      -9.935   8.737  70.019  1.00  0.00     0.000 HD 
BRANCH   7  10
HETATM   10  C   UNL     1      -9.857  11.063  68.920  1.00  0.00    -0.177 C  
BRANCH  10  11
HETATM   11  O   UNL     1     -10.776  11.045  67.816  1.00  0.00    -0.196 OA 
BRANCH  11  12
HETATM   12  C   UNL     1     -10.904  12.239  67.156  1.00  0.00    -0.244 A  
HETATM   13  C   UNL     1     -12.117  12.878  66.898  1.00  0.00    -0.313 A  
HETATM   14  C   UNL     1     -12.138  14.091  66.208  1.00  0.00    -0.482 A  
HETATM   15  C   UNL     1     -10.949  14.692  65.772  1.00  0.00    -0.330 A  
HETATM   16  C   UNL     1      -9.734  14.064  66.062  1.00  0.00    -0.280 A  
HETATM   17  C   UNL     1      -9.713  12.847  66.759  1.00  0.00    -0.246 A  
BRANCH  15  18
HETATM   18  C   UNL     1     -11.000  15.979  64.992  1.00  0.00    -0.380 C  
BRANCH  18  19
HETATM   19  O   UNL     1     -10.006  16.861  65.508  1.00  0.00    -0.572 OA 
BRANCH  19  20
HETATM   20  C   UNL     1     -10.531  17.738  66.502  1.00  0.00    -0.297 C  
BRANCH  20  21
HETATM   21  C   UNL     1      -9.363  18.443  67.182  1.00  0.00    -0.271 C  
BRANCH  21  22
HETATM   22  O   UNL     1      -8.127  17.940  66.678  1.00  0.00    -0.231 OA 
BRANCH  22  23
HETATM   23  C   UNL     1      -7.326  17.294  67.675  1.00  0.00    -0.166 C  
HETATM   24  C   UNL     1      -5.997  16.806  67.106  1.00  0.00    -0.208 C  
HETATM   25  C   UNL     1      -7.075  18.315  68.781  1.00  0.00    -0.291 C  
ENDBRANCH  22  23
ENDBRANCH  21  22
ENDBRANCH  20  21
ENDBRANCH  19  20
ENDBRANCH  18  19
ENDBRANCH  15  18
ENDBRANCH  11  12
ENDBRANCH  10  11
ENDBRANCH   7  10
ENDBRANCH   6   7
ENDBRANCH   4   6
ENDBRANCH   2   4
TORSDOF 12
ENDMDL
MODEL      222
REMARK 921   NORMALIZED FREE ENERGY PREDICTED BY IDOCK:   -3.46 KCAL/MOL
REMARK 922        TOTAL FREE ENERGY PREDICTED BY IDOCK:   -6.90 KCAL/MOL
REMARK 923 INTER-LIGAND FREE ENERGY PREDICTED BY IDOCK:   -5.98 KCAL/MOL
REMARK 924 INTRA-LIGAND FREE ENERGY PREDICTED BY IDOCK:   -0.92 KCAL/MOL
REMARK 927      BINDING AFFINITY PREDICTED BY RF-SCORE:    0.00 PKD
ROOT
HETATM    1  C   UNL     1      -8.169   8.633  63.328  1.00  0.00    -0.162 C  
HETATM    2  C   UNL     1      -8.088   8.668  64.856  1.00  0.00    -0.146 C  
HETATM    3  C   UNL     1      -9.319   9.385  65.416  1.00  0.00    -0.311 C  
ENDROOT
BRANCH   2   4
HETATM    4  N   UNL     1      -7.991   7.292  65.347  1.00  0.00    -0.118 NA 
HETATM    5  H   UNL     1      -7.067   7.112  65.738  1.00  0.00     0.000 HD 
BRANCH   4   6
HETATM    6  C   UNL     1      -9.043   6.939  66.310  1.00  0.00    -0.141 C  
BRANCH   6   7
HETATM    7  C   UNL     1      -9.143   5.408  66.445  1.00  0.00    -0.141 C  
HETATM    8  O   UNL     1      -8.658   4.789  65.243  1.00  0.00    -0.126 OA 
HETATM    9  H   UNL     1      -8.720   3.844  65.326  1.00  0.00     0.000 HD 
BRANCH   7  10
HETATM   10  C   UNL     1      -8.350   4.889  67.649  1.00  0.00    -0.105 C  
BRANCH  10  11
HETATM   11  O   UNL     1      -9.264   4.517  68.693  1.00  0.00    -0.114 OA 
BRANCH  11  12
HETATM   12  C   UNL     1      -9.725   5.560  69.452  1.00  0.00    -0.160 A  
HETATM   13  C   UNL     1     -11.072   5.851  69.667  1.00  0.00    -0.414 A  
HETATM   14  C   UNL     1     -11.437   6.946  70.453  1.00  0.00    -0.387 A  
HETATM   15  C   UNL     1     -10.463   7.762  71.045  1.00  0.00    -0.216 A  
HETATM   16  C   UNL     1      -9.114   7.447  70.853  1.00  0.00    -0.154 A  
HETATM   17  C   UNL     1      -8.749   6.345  70.067  1.00  0.00    -0.142 A  
BRANCH  15  18
HETATM   18  C   UNL     1     -10.880   8.963  71.853  1.00  0.00    -0.363 C  
BRANCH  18  19
HETATM   19  O   UNL     1     -11.759   9.758  71.063  1.00  0.00    -0.311 OA 
BRANCH  19  20
HETATM   20  C   UNL     1     -11.055  10.550  70.109  1.00  0.00    -0.298 C  
BRANCH  20  21
HETATM   21  C   UNL     1     -12.030  11.559  69.513  1.00  0.00    -0.335 C  
BRANCH  21  22
HETATM   22  O   UNL     1     -12.122  11.376  68.101  1.00  0.00    -0.623 OA 
BRANCH  22  23
HETATM   23  C   UNL     1     -11.417  12.373  67.350  1.00  0.00    -0.352 C  
HETATM   24  C   UNL     1     -11.698  12.260  65.855  1.00  0.00    -0.451 C  
HETATM   25  C   UNL     1     -11.881  13.732  67.865  1.00  0.00    -0.413 C  
ENDBRANCH  22  23
ENDBRANCH  21  22
ENDBRANCH  20  21
ENDBRANCH  19  20
ENDBRANCH  18  19
ENDBRANCH  15  18
ENDBRANCH  11  12
ENDBRANCH  10  11
ENDBRANCH   7  10
ENDBRANCH   6   7
ENDBRANCH   4   6
ENDBRANCH   2   4
TORSDOF 12
ENDMDL
MODEL      223
REMARK 921   NORMALIZED FREE ENERGY PREDICTED BY IDOCK:   -3.45 KCAL/MOL
REMARK 922        TOTAL FREE ENERGY PREDICTED BY IDOCK:   -6.89 KCAL/MOL
REMARK 923 INTER-LIGAND FREE ENERGY PREDICTED BY IDOCK:   -5.28 KCAL/MOL
REMARK 924 INTRA-LIGAND FREE ENERGY PREDICTED BY IDOCK:   -1.62 KCAL/MOL
REMARK 927      BINDING AFFINITY PREDICTED BY RF-SCORE:    0.00 PKD
ROOT
HETATM    1  C   UNL     1      -7.752  11.284  68.955  1.00  0.00    -0.125 C  
HETATM    2  C   UNL     1      -7.407  10.685  67.589  1.00  0.00    -0.090 C  
HETATM    3  C   UNL     1      -7.576   9.164  67.642  1.00  0.00    -0.085 C  
ENDROOT
BRANCH   2   4
HETATM    4  N   UNL     1      -8.278  11.293  66.582  1.00  0.00    -0.161 NA 
HETATM    5  H   UNL     1      -9.121  10.735  66.449  1.00  0.00     0.000 HD 
BRANCH   4   6
HETATM    6  C   UNL     1      -8.620  12.692  66.873  1.00  0.00    -0.151 C  
BRANCH   6   7
HETATM    7  C   UNL     1     -10.089  12.965  66.501  1.00  0.00    -0.261 C  
HETATM    8  O   UNL     1     -10.177  13.286  65.103  1.00  0.00    -0.337 OA 
HETATM    9  H   UNL     1     -11.084  13.455  64.873  1.00  0.00     0.000 HD 
BRANCH   7  10
HETATM   10  C   UNL     1     -10.987  11.763  66.811  1.00  0.00    -0.288 C  
BRANCH  10  11
HETATM   11  O   UNL     1     -11.832  12.080  67.929  1.00  0.00    -0.457 OA 
BRANCH  11  12
HETATM   12  C   UNL     1     -11.784  11.179  68.959  1.00  0.00    -0.339 A  
HETATM   13  C   UNL     1     -11.288   9.880  68.855  1.00  0.00    -0.060 A  
HETATM   14  C   UNL     1     -11.291   9.036  69.968  1.00  0.00    -0.072 A  
HETATM   15  C   UNL     1     -11.780   9.479  71.205  1.00  0.00    -0.444 A  
HETATM   16  C   UNL     1     -12.246  10.793  71.312  1.00  0.00    -0.426 A  
HETATM   17  C   UNL     1     -12.238  11.640  70.195  1.00  0.00    -0.367 A  
BRANCH  15  18
HETATM   18  C   UNL     1     -11.814   8.537  72.380  1.00  0.00    -0.367 C  
BRANCH  18  19
HETATM   19  O   UNL     1     -11.935   7.205  71.890  1.00  0.00    -0.285 OA 
BRANCH  19  20
HETATM   20  C   UNL     1     -11.016   6.316  72.519  1.00  0.00    -0.251 C  
BRANCH  20  21
HETATM   21  C   UNL     1      -9.738   6.283  71.688  1.00  0.00    -0.161 C  
BRANCH  21  22
HETATM   22  O   UNL     1      -8.597   6.351  72.542  1.00  0.00    -0.123 OA 
BRANCH  22  23
HETATM   23  C   UNL     1      -8.239   7.689  72.911  1.00  0.00    -0.120 C  
HETATM   24  C   UNL     1      -6.915   7.734  73.668  1.00  0.00    -0.112 C  
HETATM   25  C   UNL     1      -8.128   8.496  71.621  1.00  0.00    -0.195 C  
ENDBRANCH  22  23
ENDBRANCH  21  22
ENDBRANCH  20  21
ENDBRANCH  19  20
ENDBRANCH  18  19
ENDBRANCH  15  18
ENDBRANCH  11  12
ENDBRANCH  10  11
ENDBRANCH   7  10
ENDBRANCH   6   7
ENDBRANCH   4   6
ENDBRANCH   2   4
TORSDOF 12
ENDMDL
MODEL      224
REMARK 921   NORMALIZED FREE ENERGY PREDICTED BY IDOCK:   -3.45 KCAL/MOL
REMARK 922        TOTAL FREE ENERGY PREDICTED BY IDOCK:   -6.89 KCAL/MOL
REMARK 923 INTER-LIGAND FREE ENERGY PREDICTED BY IDOCK:   -5.18 KCAL/MOL
REMARK 924 INTRA-LIGAND FREE ENERGY PREDICTED BY IDOCK:   -1.71 KCAL/MOL
REMARK 927      BINDING AFFINITY PREDICTED BY RF-SCORE:    0.00 PKD
ROOT
HETATM    1  C   UNL     1     -11.025   6.640  67.712  1.00  0.00    -0.367 C  
HETATM    2  C   UNL     1     -10.398   5.951  66.497  1.00  0.00    -0.179 C  
HETATM    3  C   UNL     1      -9.007   6.536  66.241  1.00  0.00    -0.168 C  
ENDROOT
BRANCH   2   4
HETATM    4  N   UNL     1     -10.342   4.512  66.758  1.00  0.00    -0.246 NA 
HETATM    5  H   UNL     1     -11.184   4.049  66.414  1.00  0.00     0.000 HD 
BRANCH   4   6
HETATM    6  C   UNL     1      -9.137   3.866  66.221  1.00  0.00    -0.148 C  
BRANCH   6   7
HETATM    7  C   UNL     1      -8.398   3.111  67.342  1.00  0.00    -0.084 C  
HETATM    8  O   UNL     1      -7.018   3.510  67.359  1.00  0.00    -0.052 OA 
HETATM    9  H   UNL     1      -6.562   3.044  68.051  1.00  0.00     0.000 HD 
BRANCH   7  10
HETATM   10  C   UNL     1      -9.028   3.372  68.714  1.00  0.00    -0.129 C  
BRANCH  10  11
HETATM   11  O   UNL     1      -8.104   4.115  69.525  1.00  0.00    -0.059 OA 
BRANCH  11  12
HETATM   12  C   UNL     1      -8.635   5.218  70.138  1.00  0.00    -0.117 A  
HETATM   13  C   UNL     1      -8.083   6.498  70.087  1.00  0.00    -0.121 A  
HETATM   14  C   UNL     1      -8.702   7.557  70.756  1.00  0.00    -0.140 A  
HETATM   15  C   UNL     1      -9.888   7.357  71.477  1.00  0.00    -0.185 A  
HETATM   16  C   UNL     1     -10.455   6.079  71.497  1.00  0.00    -0.278 A  
HETATM   17  C   UNL     1      -9.835   5.018  70.822  1.00  0.00    -0.279 A  
BRANCH  15  18
HETATM   18  C   UNL     1     -10.514   8.504  72.226  1.00  0.00    -0.332 C  
BRANCH  18  19
HETATM   19  O   UNL     1     -11.918   8.279  72.307  1.00  0.00    -0.341 OA 
BRANCH  19  20
HETATM   20  C   UNL     1     -12.655   9.176  71.480  1.00  0.00    -0.343 C  
BRANCH  20  21
HETATM   21  C   UNL     1     -11.714  10.286  71.023  1.00  0.00    -0.370 C  
BRANCH  21  22
HETATM   22  O   UNL     1     -12.292  10.999  69.931  1.00  0.00    -0.322 OA 
BRANCH  22  23
HETATM   23  C   UNL     1     -11.581  10.828  68.698  1.00  0.00    -0.272 C  
HETATM   24  C   UNL     1     -11.541  12.117  67.883  1.00  0.00    -0.413 C  
HETATM   25  C   UNL     1     -10.163  10.395  69.055  1.00  0.00    -0.233 C  
ENDBRANCH  22  23
ENDBRANCH  21  22
ENDBRANCH  20  21
ENDBRANCH  19  20
ENDBRANCH  18  19
ENDBRANCH  15  18
ENDBRANCH  11  12
ENDBRANCH  10  11
ENDBRANCH   7  10
ENDBRANCH   6   7
ENDBRANCH   4   6
ENDBRANCH   2   4
TORSDOF 12
ENDMDL
MODEL      225
REMARK 921   NORMALIZED FREE ENERGY PREDICTED BY IDOCK:   -3.44 KCAL/MOL
REMARK 922        TOTAL FREE ENERGY PREDICTED BY IDOCK:   -6.87 KCAL/MOL
REMARK 923 INTER-LIGAND FREE ENERGY PREDICTED BY IDOCK:   -6.58 KCAL/MOL
REMARK 924 INTRA-LIGAND FREE ENERGY PREDICTED BY IDOCK:   -0.29 KCAL/MOL
REMARK 927      BINDING AFFINITY PREDICTED BY RF-SCORE:    0.00 PKD
ROOT
HETATM    1  C   UNL     1      -9.425  18.357  67.904  1.00  0.00    -0.299 C  
HETATM    2  C   UNL     1     -10.241  18.128  66.629  1.00  0.00    -0.381 C  
HETATM    3  C   UNL     1     -10.676  19.477  66.052  1.00  0.00    -0.529 C  
ENDROOT
BRANCH   2   4
HETATM    4  N   UNL     1      -9.418  17.372  65.682  1.00  0.00    -0.412 NA 
HETATM    5  H   UNL     1      -8.428  17.465  65.910  1.00  0.00     0.000 HD 
BRANCH   4   6
HETATM    6  C   UNL     1      -9.798  15.957  65.577  1.00  0.00    -0.230 C  
BRANCH   6   7
HETATM    7  C   UNL     1     -11.317  15.832  65.361  1.00  0.00    -0.032 C  
HETATM    8  O   UNL     1     -11.660  16.343  64.062  1.00  0.00    -1.447 OA 
HETATM    9  H   UNL     1     -12.597  16.266  63.929  1.00  0.00     0.000 HD 
BRANCH   7  10
HETATM   10  C   UNL     1     -11.792  14.381  65.486  1.00  0.00    -0.357 C  
BRANCH  10  11
HETATM   11  O   UNL     1     -11.249  13.610  64.402  1.00  0.00    -0.370 OA 
BRANCH  11  12
HETATM   12  C   UNL     1     -10.472  12.549  64.785  1.00  0.00    -0.311 A  
HETATM   13  C   UNL     1     -10.255  11.405  64.017  1.00  0.00    -0.398 A  
HETATM   14  C   UNL     1      -9.450  10.374  64.505  1.00  0.00    -0.342 A  
HETATM   15  C   UNL     1      -8.840  10.472  65.764  1.00  0.00    -0.190 A  
HETATM   16  C   UNL     1      -9.034  11.634  66.516  1.00  0.00    -0.191 A  
HETATM   17  C   UNL     1      -9.840  12.671  66.023  1.00  0.00    -0.260 A  
BRANCH  15  18
HETATM   18  C   UNL     1      -8.011   9.329  66.288  1.00  0.00    -0.107 C  
BRANCH  18  19
HETATM   19  O   UNL     1      -8.360   8.150  65.569  1.00  0.00    -0.138 OA 
BRANCH  19  20
HETATM   20  C   UNL     1      -9.328   7.365  66.263  1.00  0.00    -0.111 C  
BRANCH  20  21
HETATM   21  C   UNL     1      -8.691   6.026  66.618  1.00  0.00    -0.123 C  
BRANCH  21  22
HETATM   22  O   UNL     1      -8.757   5.140  65.503  1.00  0.00    -0.137 OA 
BRANCH  22  23
HETATM   23  C   UNL     1      -9.886   4.257  65.542  1.00  0.00    -0.215 C  
HETATM   24  C   UNL     1     -10.796   4.447  64.333  1.00  0.00     0.066 C  
HETATM   25  C   UNL     1      -9.341   2.833  65.565  1.00  0.00    -0.063 C  
ENDBRANCH  22  23
ENDBRANCH  21  22
ENDBRANCH  20  21
ENDBRANCH  19  20
ENDBRANCH  18  19
ENDBRANCH  15  18
ENDBRANCH  11  12
ENDBRANCH  10  11
ENDBRANCH   7  10
ENDBRANCH   6   7
ENDBRANCH   4   6
ENDBRANCH   2   4
TORSDOF 12
ENDMDL
MODEL      226
REMARK 921   NORMALIZED FREE ENERGY PREDICTED BY IDOCK:   -3.43 KCAL/MOL
REMARK 922        TOTAL FREE ENERGY PREDICTED BY IDOCK:   -6.86 KCAL/MOL
REMARK 923 INTER-LIGAND FREE ENERGY PREDICTED BY IDOCK:   -6.12 KCAL/MOL
REMARK 924 INTRA-LIGAND FREE ENERGY PREDICTED BY IDOCK:   -0.75 KCAL/MOL
REMARK 927      BINDING AFFINITY PREDICTED BY RF-SCORE:    0.00 PKD
ROOT
HETATM    1  C   UNL     1     -10.406  17.293  68.851  1.00  0.00    -0.352 C  
HETATM    2  C   UNL     1      -9.954  17.873  67.508  1.00  0.00    -0.322 C  
HETATM    3  C   UNL     1     -10.767  19.131  67.197  1.00  0.00    -0.567 C  
ENDROOT
BRANCH   2   4
HETATM    4  N   UNL     1      -8.520  18.158  67.586  1.00  0.00    -0.242 NA 
HETATM    5  H   UNL     1      -8.354  19.052  68.049  1.00  0.00     0.000 HD 
BRANCH   4   6
HETATM    6  C   UNL     1      -7.744  17.088  68.227  1.00  0.00    -0.209 C  
BRANCH   6   7
HETATM    7  C   UNL     1      -7.486  15.949  67.224  1.00  0.00    -0.210 C  
HETATM    8  O   UNL     1      -6.070  15.770  67.056  1.00  0.00    -0.314 OA 
HETATM    9  H   UNL     1      -5.911  15.067  66.437  1.00  0.00     0.000 HD 
BRANCH   7  10
HETATM   10  C   UNL     1      -8.121  14.632  67.682  1.00  0.00    -0.173 C  
BRANCH  10  11
HETATM   11  O   UNL     1      -9.047  14.180  66.681  1.00  0.00    -0.257 OA 
BRANCH  11  12
HETATM   12  C   UNL     1      -9.477  12.889  66.837  1.00  0.00    -0.237 A  
HETATM   13  C   UNL     1     -10.815  12.497  66.875  1.00  0.00    -0.280 A  
HETATM   14  C   UNL     1     -11.148  11.152  67.048  1.00  0.00    -0.339 A  
HETATM   15  C   UNL     1     -10.150  10.175  67.175  1.00  0.00    -0.260 A  
HETATM   16  C   UNL     1      -8.811  10.569  67.102  1.00  0.00    -0.140 A  
HETATM   17  C   UNL     1      -8.478  11.919  66.925  1.00  0.00    -0.174 A  
BRANCH  15  18
HETATM   18  C   UNL     1     -10.533   8.736  67.403  1.00  0.00    -0.279 C  
BRANCH  18  19
HETATM   19  O   UNL     1      -9.709   8.207  68.437  1.00  0.00    -0.155 OA 
BRANCH  19  20
HETATM   20  C   UNL     1     -10.384   7.214  69.207  1.00  0.00    -0.203 C  
BRANCH  20  21
HETATM   21  C   UNL     1     -11.183   7.918  70.297  1.00  0.00    -0.200 C  
BRANCH  21  22
HETATM   22  O   UNL     1     -10.372   8.898  70.943  1.00  0.00    -0.207 OA 
BRANCH  22  23
HETATM   23  C   UNL     1     -10.085   8.587  72.313  1.00  0.00    -0.316 C  
HETATM   24  C   UNL     1     -11.015   7.506  72.856  1.00  0.00    -0.434 C  
HETATM   25  C   UNL     1      -8.639   8.105  72.369  1.00  0.00    -0.245 C  
ENDBRANCH  22  23
ENDBRANCH  21  22
ENDBRANCH  20  21
ENDBRANCH  19  20
ENDBRANCH  18  19
ENDBRANCH  15  18
ENDBRANCH  11  12
ENDBRANCH  10  11
ENDBRANCH   7  10
ENDBRANCH   6   7
ENDBRANCH   4   6
ENDBRANCH   2   4
TORSDOF 12
ENDMDL
MODEL      227
REMARK 921   NORMALIZED FREE ENERGY PREDICTED BY IDOCK:   -3.42 KCAL/MOL
REMARK 922        TOTAL FREE ENERGY PREDICTED BY IDOCK:   -6.83 KCAL/MOL
REMARK 923 INTER-LIGAND FREE ENERGY PREDICTED BY IDOCK:   -6.18 KCAL/MOL
REMARK 924 INTRA-LIGAND FREE ENERGY PREDICTED BY IDOCK:   -0.66 KCAL/MOL
REMARK 927      BINDING AFFINITY PREDICTED BY RF-SCORE:    0.00 PKD
ROOT
HETATM    1  C   UNL     1     -12.065  15.832  72.224  1.00  0.00    -0.574 C  
HETATM    2  C   UNL     1     -13.010  14.990  71.363  1.00  0.00    -0.371 C  
HETATM    3  C   UNL     1     -14.410  15.002  71.982  1.00  0.00    -0.666 C  
ENDROOT
BRANCH   2   4
HETATM    4  N   UNL     1     -13.012  15.536  70.005  1.00  0.00    -0.630 NA 
HETATM    5  H   UNL     1     -13.701  16.283  69.917  1.00  0.00     0.000 HD 
BRANCH   4   6
HETATM    6  C   UNL     1     -11.689  15.994  69.557  1.00  0.00    -0.272 C  
BRANCH   6   7
HETATM    7  C   UNL     1     -11.455  15.578  68.093  1.00  0.00    -0.326 C  
HETATM    8  O   UNL     1     -10.275  16.228  67.594  1.00  0.00    -0.259 OA 
HETATM    9  H   UNL     1     -10.130  15.972  66.690  1.00  0.00     0.000 HD 
BRANCH   7  10
HETATM   10  C   UNL     1     -11.307  14.060  67.949  1.00  0.00    -0.291 C  
BRANCH  10  11
HETATM   11  O   UNL     1     -11.480  13.696  66.570  1.00  0.00    -0.314 OA 
BRANCH  11  12
HETATM   12  C   UNL     1     -10.874  12.523  66.205  1.00  0.00    -0.268 A  
HETATM   13  C   UNL     1     -10.905  11.979  64.922  1.00  0.00    -0.349 A  
HETATM   14  C   UNL     1     -10.260  10.769  64.656  1.00  0.00    -0.419 A  
HETATM   15  C   UNL     1      -9.564  10.088  65.665  1.00  0.00    -0.313 A  
HETATM   16  C   UNL     1      -9.509  10.655  66.942  1.00  0.00    -0.189 A  
HETATM   17  C   UNL     1     -10.153  11.871  67.207  1.00  0.00    -0.213 A  
BRANCH  15  18
HETATM   18  C   UNL     1      -8.912   8.764  65.366  1.00  0.00    -0.160 C  
BRANCH  18  19
HETATM   19  O   UNL     1      -8.286   8.289  66.554  1.00  0.00    -0.106 OA 
BRANCH  19  20
HETATM   20  C   UNL     1      -7.822   6.948  66.416  1.00  0.00    -0.103 C  
BRANCH  20  21
HETATM   21  C   UNL     1      -6.991   6.859  65.141  1.00  0.00    -0.052 C  
BRANCH  21  22
HETATM   22  O   UNL     1      -7.376   5.713  64.383  1.00  0.00    -0.059 OA 
BRANCH  22  23
HETATM   23  C   UNL     1      -8.045   6.039  63.158  1.00  0.00    -0.089 C  
HETATM   24  C   UNL     1      -7.261   7.060  62.338  1.00  0.00    -0.072 C  
HETATM   25  C   UNL     1      -8.193   4.742  62.369  1.00  0.00    -0.083 C  
ENDBRANCH  22  23
ENDBRANCH  21  22
ENDBRANCH  20  21
ENDBRANCH  19  20
ENDBRANCH  18  19
ENDBRANCH  15  18
ENDBRANCH  11  12
ENDBRANCH  10  11
ENDBRANCH   7  10
ENDBRANCH   6   7
ENDBRANCH   4   6
ENDBRANCH   2   4
TORSDOF 12
ENDMDL
MODEL      228
REMARK 921   NORMALIZED FREE ENERGY PREDICTED BY IDOCK:   -3.41 KCAL/MOL
REMARK 922        TOTAL FREE ENERGY PREDICTED BY IDOCK:   -6.82 KCAL/MOL
REMARK 923 INTER-LIGAND FREE ENERGY PREDICTED BY IDOCK:   -6.03 KCAL/MOL
REMARK 924 INTRA-LIGAND FREE ENERGY PREDICTED BY IDOCK:   -0.79 KCAL/MOL
REMARK 927      BINDING AFFINITY PREDICTED BY RF-SCORE:    0.00 PKD
ROOT
HETATM    1  C   UNL     1     -10.219  14.635  68.495  1.00  0.00    -0.240 C  
HETATM    2  C   UNL     1     -11.653  14.195  68.800  1.00  0.00    -0.327 C  
HETATM    3  C   UNL     1     -12.175  14.964  70.015  1.00  0.00    -0.381 C  
ENDROOT
BRANCH   2   4
HETATM    4  N   UNL     1     -12.473  14.435  67.611  1.00  0.00    -0.530 NA 
HETATM    5  H   UNL     1     -12.950  15.335  67.677  1.00  0.00     0.000 HD 
BRANCH   4   6
HETATM    6  C   UNL     1     -11.723  14.335  66.352  1.00  0.00    -0.391 C  
BRANCH   6   7
HETATM    7  C   UNL     1     -12.381  13.295  65.427  1.00  0.00    -0.479 C  
HETATM    8  O   UNL     1     -12.413  13.801  64.083  1.00  0.00    -0.652 OA 
HETATM    9  H   UNL     1     -12.818  13.159  63.512  1.00  0.00     0.000 HD 
BRANCH   7  10
HETATM   10  C   UNL     1     -11.636  11.956  65.456  1.00  0.00    -0.218 C  
BRANCH  10  11
HETATM   11  O   UNL     1     -10.241  12.185  65.199  1.00  0.00    -0.268 OA 
BRANCH  11  12
HETATM   12  C   UNL     1      -9.387  11.536  66.051  1.00  0.00    -0.223 A  
HETATM   13  C   UNL     1      -9.523  11.501  67.438  1.00  0.00    -0.171 A  
HETATM   14  C   UNL     1      -8.589  10.816  68.218  1.00  0.00    -0.135 A  
HETATM   15  C   UNL     1      -7.509  10.147  67.625  1.00  0.00    -0.090 A  
HETATM   16  C   UNL     1      -7.396  10.157  66.232  1.00  0.00    -0.112 A  
HETATM   17  C   UNL     1      -8.336  10.842  65.449  1.00  0.00    -0.104 A  
BRANCH  15  18
HETATM   18  C   UNL     1      -6.491   9.451  68.490  1.00  0.00    -0.053 C  
BRANCH  18  19
HETATM   19  O   UNL     1      -6.918   9.532  69.846  1.00  0.00    -0.060 OA 
BRANCH  19  20
HETATM   20  C   UNL     1      -7.547   8.329  70.283  1.00  0.00    -0.072 C  
BRANCH  20  21
HETATM   21  C   UNL     1      -8.165   8.584  71.654  1.00  0.00    -0.160 C  
BRANCH  21  22
HETATM   22  O   UNL     1      -9.460   9.164  71.507  1.00  0.00    -0.267 OA 
BRANCH  22  23
HETATM   23  C   UNL     1     -10.528   8.247  71.778  1.00  0.00    -0.259 C  
HETATM   24  C   UNL     1     -10.408   7.631  73.168  1.00  0.00    -0.411 C  
HETATM   25  C   UNL     1     -11.832   9.032  71.668  1.00  0.00    -0.431 C  
ENDBRANCH  22  23
ENDBRANCH  21  22
ENDBRANCH  20  21
ENDBRANCH  19  20
ENDBRANCH  18  19
ENDBRANCH  15  18
ENDBRANCH  11  12
ENDBRANCH  10  11
ENDBRANCH   7  10
ENDBRANCH   6   7
ENDBRANCH   4   6
ENDBRANCH   2   4
TORSDOF 12
ENDMDL
MODEL      229
REMARK 921   NORMALIZED FREE ENERGY PREDICTED BY IDOCK:   -3.40 KCAL/MOL
REMARK 922        TOTAL FREE ENERGY PREDICTED BY IDOCK:   -6.81 KCAL/MOL
REMARK 923 INTER-LIGAND FREE ENERGY PREDICTED BY IDOCK:   -5.45 KCAL/MOL
REMARK 924 INTRA-LIGAND FREE ENERGY PREDICTED BY IDOCK:   -1.37 KCAL/MOL
REMARK 927      BINDING AFFINITY PREDICTED BY RF-SCORE:    0.00 PKD
ROOT
HETATM    1  C   UNL     1     -11.813  13.196  63.945  1.00  0.00    -0.533 C  
HETATM    2  C   UNL     1     -11.588  13.133  65.458  1.00  0.00    -0.335 C  
HETATM    3  C   UNL     1     -12.474  14.173  66.149  1.00  0.00    -0.426 C  
ENDROOT
BRANCH   2   4
HETATM    4  N   UNL     1     -11.887  11.775  65.915  1.00  0.00    -0.369 NA 
HETATM    5  H   UNL     1     -11.796  11.108  65.148  1.00  0.00     0.000 HD 
BRANCH   4   6
HETATM    6  C   UNL     1     -11.081  11.355  67.069  1.00  0.00    -0.303 C  
BRANCH   6   7
HETATM    7  C   UNL     1     -10.224  10.132  66.697  1.00  0.00    -0.224 C  
HETATM    8  O   UNL     1     -10.402   9.827  65.305  1.00  0.00    -0.238 OA 
HETATM    9  H   UNL     1      -9.872   9.072  65.076  1.00  0.00     0.000 HD 
BRANCH   7  10
HETATM   10  C   UNL     1      -8.738  10.370  66.987  1.00  0.00    -0.130 C  
BRANCH  10  11
HETATM   11  O   UNL     1      -8.059   9.105  67.046  1.00  0.00    -0.108 OA 
BRANCH  11  12
HETATM   12  C   UNL     1      -7.925   8.583  68.306  1.00  0.00    -0.114 A  
HETATM   13  C   UNL     1      -8.304   7.293  68.675  1.00  0.00    -0.125 A  
HETATM   14  C   UNL     1      -8.132   6.861  69.992  1.00  0.00    -0.125 A  
HETATM   15  C   UNL     1      -7.570   7.706  70.959  1.00  0.00    -0.083 A  
HETATM   16  C   UNL     1      -7.161   8.987  70.575  1.00  0.00    -0.073 A  
HETATM   17  C   UNL     1      -7.330   9.418  69.252  1.00  0.00    -0.071 A  
BRANCH  15  18
HETATM   18  C   UNL     1      -7.434   7.233  72.382  1.00  0.00    -0.083 C  
BRANCH  18  19
HETATM   19  O   UNL     1      -8.418   7.891  73.174  1.00  0.00    -0.148 OA 
BRANCH  19  20
HETATM   20  C   UNL     1      -9.331   6.972  73.769  1.00  0.00    -0.209 C  
BRANCH  20  21
HETATM   21  C   UNL     1     -10.748   7.431  73.447  1.00  0.00    -0.357 C  
BRANCH  21  22
HETATM   22  O   UNL     1     -10.869   7.711  72.054  1.00  0.00    -0.223 OA 
BRANCH  22  23
HETATM   23  C   UNL     1     -11.280   9.056  71.776  1.00  0.00    -0.378 C  
HETATM   24  C   UNL     1     -10.976   9.456  70.336  1.00  0.00    -0.317 C  
HETATM   25  C   UNL     1     -12.783   9.126  72.029  1.00  0.00    -0.473 C  
ENDBRANCH  22  23
ENDBRANCH  21  22
ENDBRANCH  20  21
ENDBRANCH  19  20
ENDBRANCH  18  19
ENDBRANCH  15  18
ENDBRANCH  11  12
ENDBRANCH  10  11
ENDBRANCH   7  10
ENDBRANCH   6   7
ENDBRANCH   4   6
ENDBRANCH   2   4
TORSDOF 12
ENDMDL
MODEL      230
REMARK 921   NORMALIZED FREE ENERGY PREDICTED BY IDOCK:   -3.40 KCAL/MOL
REMARK 922        TOTAL FREE ENERGY PREDICTED BY IDOCK:   -6.80 KCAL/MOL
REMARK 923 INTER-LIGAND FREE ENERGY PREDICTED BY IDOCK:   -5.65 KCAL/MOL
REMARK 924 INTRA-LIGAND FREE ENERGY PREDICTED BY IDOCK:   -1.15 KCAL/MOL
REMARK 927      BINDING AFFINITY PREDICTED BY RF-SCORE:    0.00 PKD
ROOT
HETATM    1  C   UNL     1     -12.743  13.155  72.079  1.00  0.00    -0.188 C  
HETATM    2  C   UNL     1     -12.972  11.895  71.240  1.00  0.00    -0.236 C  
HETATM    3  C   UNL     1     -11.811  11.719  70.258  1.00  0.00    -0.382 C  
ENDROOT
BRANCH   2   4
HETATM    4  N   UNL     1     -13.095  10.751  72.146  1.00  0.00    -0.540 NA 
HETATM    5  H   UNL     1     -13.874  10.884  72.791  1.00  0.00     0.000 HD 
BRANCH   4   6
HETATM    6  C   UNL     1     -13.211   9.463  71.449  1.00  0.00    -0.344 C  
BRANCH   6   7
HETATM    7  C   UNL     1     -12.536   8.353  72.276  1.00  0.00    -0.349 C  
HETATM    8  O   UNL     1     -13.041   7.073  71.862  1.00  0.00    -0.480 OA 
HETATM    9  H   UNL     1     -12.624   6.388  72.372  1.00  0.00     0.000 HD 
BRANCH   7  10
HETATM   10  C   UNL     1     -11.011   8.379  72.126  1.00  0.00    -0.341 C  
BRANCH  10  11
HETATM   11  O   UNL     1     -10.622   7.461  71.092  1.00  0.00    -0.220 OA 
BRANCH  11  12
HETATM   12  C   UNL     1     -10.042   8.043  69.996  1.00  0.00    -0.196 A  
HETATM   13  C   UNL     1      -8.847   8.762  70.017  1.00  0.00    -0.149 A  
HETATM   14  C   UNL     1      -8.345   9.324  68.841  1.00  0.00    -0.120 A  
HETATM   15  C   UNL     1      -9.021   9.168  67.623  1.00  0.00    -0.130 A  
HETATM   16  C   UNL     1     -10.200   8.417  67.601  1.00  0.00    -0.298 A  
HETATM   17  C   UNL     1     -10.702   7.851  68.781  1.00  0.00    -0.082 A  
BRANCH  15  18
HETATM   18  C   UNL     1      -8.482   9.819  66.376  1.00  0.00    -0.124 C  
BRANCH  18  19
HETATM   19  O   UNL     1      -9.581  10.282  65.597  1.00  0.00    -0.198 OA 
BRANCH  19  20
HETATM   20  C   UNL     1      -9.510  11.684  65.349  1.00  0.00    -0.171 C  
BRANCH  20  21
HETATM   21  C   UNL     1      -9.805  12.415  66.654  1.00  0.00    -0.223 C  
BRANCH  21  22
HETATM   22  O   UNL     1      -8.678  13.199  67.042  1.00  0.00    -0.211 OA 
BRANCH  22  23
HETATM   23  C   UNL     1      -9.035  14.448  67.650  1.00  0.00    -0.192 C  
HETATM   24  C   UNL     1      -7.993  14.900  68.668  1.00  0.00    -0.144 C  
HETATM   25  C   UNL     1      -9.147  15.476  66.529  1.00  0.00    -0.336 C  
ENDBRANCH  22  23
ENDBRANCH  21  22
ENDBRANCH  20  21
ENDBRANCH  19  20
ENDBRANCH  18  19
ENDBRANCH  15  18
ENDBRANCH  11  12
ENDBRANCH  10  11
ENDBRANCH   7  10
ENDBRANCH   6   7
ENDBRANCH   4   6
ENDBRANCH   2   4
TORSDOF 12
ENDMDL
MODEL      231
REMARK 921   NORMALIZED FREE ENERGY PREDICTED BY IDOCK:   -3.40 KCAL/MOL
REMARK 922        TOTAL FREE ENERGY PREDICTED BY IDOCK:   -6.80 KCAL/MOL
REMARK 923 INTER-LIGAND FREE ENERGY PREDICTED BY IDOCK:   -5.94 KCAL/MOL
REMARK 924 INTRA-LIGAND FREE ENERGY PREDICTED BY IDOCK:   -0.86 KCAL/MOL
REMARK 927      BINDING AFFINITY PREDICTED BY RF-SCORE:    0.00 PKD
ROOT
HETATM    1  C   UNL     1      -6.926   8.296  71.077  1.00  0.00    -0.054 C  
HETATM    2  C   UNL     1      -8.343   7.717  71.098  1.00  0.00    -0.111 C  
HETATM    3  C   UNL     1      -9.154   8.392  72.207  1.00  0.00    -0.313 C  
ENDROOT
BRANCH   2   4
HETATM    4  N   UNL     1      -8.947   7.923  69.781  1.00  0.00    -0.145 NA 
HETATM    5  H   UNL     1      -8.395   8.579  69.229  1.00  0.00     0.000 HD 
BRANCH   4   6
HETATM    6  C   UNL     1      -9.168   6.675  69.037  1.00  0.00    -0.131 C  
BRANCH   6   7
HETATM    7  C   UNL     1      -8.093   6.512  67.947  1.00  0.00    -0.116 C  
HETATM    8  O   UNL     1      -8.525   5.532  66.990  1.00  0.00    -0.111 OA 
HETATM    9  H   UNL     1      -7.862   5.431  66.318  1.00  0.00     0.000 HD 
BRANCH   7  10
HETATM   10  C   UNL     1      -7.801   7.836  67.233  1.00  0.00    -0.117 C  
BRANCH  10  11
HETATM   11  O   UNL     1      -8.333   7.782  65.900  1.00  0.00    -0.119 OA 
BRANCH  11  12
HETATM   12  C   UNL     1      -9.022   8.899  65.510  1.00  0.00    -0.197 A  
HETATM   13  C   UNL     1      -8.941   9.482  64.246  1.00  0.00    -0.248 A  
HETATM   14  C   UNL     1      -9.681  10.630  63.953  1.00  0.00    -0.378 A  
HETATM   15  C   UNL     1     -10.522  11.208  64.914  1.00  0.00    -0.372 A  
HETATM   16  C   UNL     1     -10.625  10.601  66.169  1.00  0.00    -0.211 A  
HETATM   17  C   UNL     1      -9.884   9.447  66.461  1.00  0.00    -0.325 A  
BRANCH  15  18
HETATM   18  C   UNL     1     -11.277  12.470  64.589  1.00  0.00    -0.312 C  
BRANCH  18  19
HETATM   19  O   UNL     1     -12.320  12.632  65.545  1.00  0.00    -0.563 OA 
BRANCH  19  20
HETATM   20  C   UNL     1     -12.503  13.998  65.914  1.00  0.00    -0.481 C  
BRANCH  20  21
HETATM   21  C   UNL     1     -12.032  14.171  67.353  1.00  0.00    -0.404 C  
BRANCH  21  22
HETATM   22  O   UNL     1     -10.862  14.987  67.391  1.00  0.00    -0.290 OA 
BRANCH  22  23
HETATM   23  C   UNL     1     -11.085  16.275  67.977  1.00  0.00    -0.299 C  
HETATM   24  C   UNL     1     -10.763  16.283  69.469  1.00  0.00    -0.323 C  
HETATM   25  C   UNL     1     -10.181  17.264  67.246  1.00  0.00    -0.320 C  
ENDBRANCH  22  23
ENDBRANCH  21  22
ENDBRANCH  20  21
ENDBRANCH  19  20
ENDBRANCH  18  19
ENDBRANCH  15  18
ENDBRANCH  11  12
ENDBRANCH  10  11
ENDBRANCH   7  10
ENDBRANCH   6   7
ENDBRANCH   4   6
ENDBRANCH   2   4
TORSDOF 12
ENDMDL
MODEL      232
REMARK 921   NORMALIZED FREE ENERGY PREDICTED BY IDOCK:   -3.40 KCAL/MOL
REMARK 922        TOTAL FREE ENERGY PREDICTED BY IDOCK:   -6.80 KCAL/MOL
REMARK 923 INTER-LIGAND FREE ENERGY PREDICTED BY IDOCK:   -6.03 KCAL/MOL
REMARK 924 INTRA-LIGAND FREE ENERGY PREDICTED BY IDOCK:   -0.77 KCAL/MOL
REMARK 927      BINDING AFFINITY PREDICTED BY RF-SCORE:    0.00 PKD
ROOT
HETATM    1  C   UNL     1     -14.318  15.283  72.154  1.00  0.00    -0.651 C  
HETATM    2  C   UNL     1     -12.833  15.543  71.890  1.00  0.00    -0.427 C  
HETATM    3  C   UNL     1     -12.135  15.901  73.204  1.00  0.00    -0.611 C  
ENDROOT
BRANCH   2   4
HETATM    4  N   UNL     1     -12.255  14.346  71.276  1.00  0.00    -0.345 NA 
HETATM    5  H   UNL     1     -12.512  13.511  71.802  1.00  0.00     0.000 HD 
BRANCH   4   6
HETATM    6  C   UNL     1     -12.598  14.192  69.856  1.00  0.00    -0.154 C  
BRANCH   6   7
HETATM    7  C   UNL     1     -11.482  13.426  69.123  1.00  0.00    -0.300 C  
HETATM    8  O   UNL     1     -11.370  12.102  69.671  1.00  0.00    -0.412 OA 
HETATM    9  H   UNL     1     -10.682  11.629  69.218  1.00  0.00     0.000 HD 
BRANCH   7  10
HETATM   10  C   UNL     1     -11.747  13.339  67.616  1.00  0.00    -0.366 C  
BRANCH  10  11
HETATM   11  O   UNL     1     -10.496  13.396  66.912  1.00  0.00    -0.269 OA 
BRANCH  11  12
HETATM   12  C   UNL     1      -9.930  12.177  66.646  1.00  0.00    -0.206 A  
HETATM   13  C   UNL     1     -10.459  11.230  65.769  1.00  0.00    -0.310 A  
HETATM   14  C   UNL     1      -9.806  10.011  65.575  1.00  0.00    -0.373 A  
HETATM   15  C   UNL     1      -8.610   9.721  66.245  1.00  0.00    -0.137 A  
HETATM   16  C   UNL     1      -8.066  10.687  67.097  1.00  0.00    -0.121 A  
HETATM   17  C   UNL     1      -8.720  11.912  67.289  1.00  0.00    -0.171 A  
BRANCH  15  18
HETATM   18  C   UNL     1      -7.946   8.383  66.052  1.00  0.00    -0.101 C  
BRANCH  18  19
HETATM   19  O   UNL     1      -8.779   7.378  66.623  1.00  0.00    -0.123 OA 
BRANCH  19  20
HETATM   20  C   UNL     1      -8.305   6.949  67.898  1.00  0.00    -0.121 C  
BRANCH  20  21
HETATM   21  C   UNL     1      -9.510   6.704  68.798  1.00  0.00    -0.129 C  
BRANCH  21  22
HETATM   22  O   UNL     1      -9.087   6.544  70.151  1.00  0.00    -0.153 OA 
BRANCH  22  23
HETATM   23  C   UNL     1      -9.313   7.705  70.961  1.00  0.00    -0.152 C  
HETATM   24  C   UNL     1     -10.395   8.605  70.371  1.00  0.00    -0.225 C  
HETATM   25  C   UNL     1      -9.741   7.214  72.340  1.00  0.00    -0.173 C  
ENDBRANCH  22  23
ENDBRANCH  21  22
ENDBRANCH  20  21
ENDBRANCH  19  20
ENDBRANCH  18  19
ENDBRANCH  15  18
ENDBRANCH  11  12
ENDBRANCH  10  11
ENDBRANCH   7  10
ENDBRANCH   6   7
ENDBRANCH   4   6
ENDBRANCH   2   4
TORSDOF 12
ENDMDL
MODEL      233
REMARK 921   NORMALIZED FREE ENERGY PREDICTED BY IDOCK:   -3.39 KCAL/MOL
REMARK 922        TOTAL FREE ENERGY PREDICTED BY IDOCK:   -6.79 KCAL/MOL
REMARK 923 INTER-LIGAND FREE ENERGY PREDICTED BY IDOCK:   -5.81 KCAL/MOL
REMARK 924 INTRA-LIGAND FREE ENERGY PREDICTED BY IDOCK:   -0.98 KCAL/MOL
REMARK 927      BINDING AFFINITY PREDICTED BY RF-SCORE:    0.00 PKD
ROOT
HETATM    1  C   UNL     1      -6.083  13.861  67.770  1.00  0.00    -0.139 C  
HETATM    2  C   UNL     1      -7.095  14.096  68.893  1.00  0.00    -0.110 C  
HETATM    3  C   UNL     1      -6.415  14.836  70.047  1.00  0.00    -0.169 C  
ENDROOT
BRANCH   2   4
HETATM    4  N   UNL     1      -8.222  14.856  68.350  1.00  0.00    -0.144 NA 
HETATM    5  H   UNL     1      -8.768  14.283  67.706  1.00  0.00     0.000 HD 
BRANCH   4   6
HETATM    6  C   UNL     1      -9.086  15.443  69.384  1.00  0.00    -0.258 C  
BRANCH   6   7
HETATM    7  C   UNL     1     -10.282  16.158  68.730  1.00  0.00    -0.238 C  
HETATM    8  O   UNL     1      -9.936  16.542  67.389  1.00  0.00    -0.255 OA 
HETATM    9  H   UNL     1     -10.674  16.983  66.985  1.00  0.00     0.000 HD 
BRANCH   7  10
HETATM   10  C   UNL     1     -11.531  15.273  68.706  1.00  0.00    -0.331 C  
BRANCH  10  11
HETATM   11  O   UNL     1     -11.672  14.686  67.402  1.00  0.00    -0.379 OA 
BRANCH  11  12
HETATM   12  C   UNL     1     -11.315  13.366  67.325  1.00  0.00    -0.319 A  
HETATM   13  C   UNL     1     -11.602  12.407  68.296  1.00  0.00    -0.384 A  
HETATM   14  C   UNL     1     -11.184  11.086  68.124  1.00  0.00    -0.364 A  
HETATM   15  C   UNL     1     -10.483  10.698  66.974  1.00  0.00    -0.295 A  
HETATM   16  C   UNL     1     -10.227  11.655  65.988  1.00  0.00    -0.270 A  
HETATM   17  C   UNL     1     -10.650  12.981  66.160  1.00  0.00    -0.289 A  
BRANCH  15  18
HETATM   18  C   UNL     1     -10.005   9.276  66.829  1.00  0.00    -0.245 C  
BRANCH  18  19
HETATM   19  O   UNL     1      -9.846   8.718  68.130  1.00  0.00    -0.158 OA 
BRANCH  19  20
HETATM   20  C   UNL     1     -10.133   7.321  68.153  1.00  0.00    -0.173 C  
BRANCH  20  21
HETATM   21  C   UNL     1     -10.244   6.880  69.607  1.00  0.00    -0.193 C  
BRANCH  21  22
HETATM   22  O   UNL     1      -9.863   7.948  70.474  1.00  0.00    -0.185 OA 
BRANCH  22  23
HETATM   23  C   UNL     1     -10.827   8.222  71.499  1.00  0.00    -0.249 C  
HETATM   24  C   UNL     1     -12.175   7.572  71.197  1.00  0.00    -0.330 C  
HETATM   25  C   UNL     1     -10.264   7.668  72.804  1.00  0.00    -0.336 C  
ENDBRANCH  22  23
ENDBRANCH  21  22
ENDBRANCH  20  21
ENDBRANCH  19  20
ENDBRANCH  18  19
ENDBRANCH  15  18
ENDBRANCH  11  12
ENDBRANCH  10  11
ENDBRANCH   7  10
ENDBRANCH   6   7
ENDBRANCH   4   6
ENDBRANCH   2   4
TORSDOF 12
ENDMDL
MODEL      234
REMARK 921   NORMALIZED FREE ENERGY PREDICTED BY IDOCK:   -3.37 KCAL/MOL
REMARK 922        TOTAL FREE ENERGY PREDICTED BY IDOCK:   -6.76 KCAL/MOL
REMARK 923 INTER-LIGAND FREE ENERGY PREDICTED BY IDOCK:   -5.49 KCAL/MOL
REMARK 924 INTRA-LIGAND FREE ENERGY PREDICTED BY IDOCK:   -1.27 KCAL/MOL
REMARK 927      BINDING AFFINITY PREDICTED BY RF-SCORE:    0.00 PKD
ROOT
HETATM    1  C   UNL     1     -12.714  12.040  63.826  1.00  0.00    -0.516 C  
HETATM    2  C   UNL     1     -11.963  12.827  64.904  1.00  0.00    -0.402 C  
HETATM    3  C   UNL     1     -12.689  14.147  65.171  1.00  0.00    -0.387 C  
ENDROOT
BRANCH   2   4
HETATM    4  N   UNL     1     -11.881  11.999  66.108  1.00  0.00    -0.555 NA 
HETATM    5  H   UNL     1     -11.505  11.076  65.888  1.00  0.00     0.000 HD 
BRANCH   4   6
HETATM    6  C   UNL     1     -11.119  12.624  67.198  1.00  0.00    -0.280 C  
BRANCH   6   7
HETATM    7  C   UNL     1      -9.637  12.750  66.802  1.00  0.00    -0.244 C  
HETATM    8  O   UNL     1      -9.109  13.987  67.308  1.00  0.00    -0.201 OA 
HETATM    9  H   UNL     1      -8.194  14.065  67.064  1.00  0.00     0.000 HD 
BRANCH   7  10
HETATM   10  C   UNL     1      -8.805  11.579  67.332  1.00  0.00    -0.157 C  
BRANCH  10  11
HETATM   11  O   UNL     1      -9.186  10.377  66.643  1.00  0.00    -0.153 OA 
BRANCH  11  12
HETATM   12  C   UNL     1      -9.667   9.380  67.450  1.00  0.00    -0.159 A  
HETATM   13  C   UNL     1      -9.823   9.482  68.832  1.00  0.00    -0.179 A  
HETATM   14  C   UNL     1     -10.316   8.400  69.565  1.00  0.00    -0.219 A  
HETATM   15  C   UNL     1     -10.670   7.203  68.928  1.00  0.00    -0.199 A  
HETATM   16  C   UNL     1     -10.543   7.117  67.539  1.00  0.00    -0.348 A  
HETATM   17  C   UNL     1     -10.051   8.205  66.804  1.00  0.00    -0.365 A  
BRANCH  15  18
HETATM   18  C   UNL     1     -11.159   6.035  69.745  1.00  0.00    -0.406 C  
BRANCH  18  19
HETATM   19  O   UNL     1     -10.036   5.413  70.362  1.00  0.00    -0.207 OA 
BRANCH  19  20
HETATM   20  C   UNL     1      -9.993   5.656  71.767  1.00  0.00    -0.176 C  
BRANCH  20  21
HETATM   21  C   UNL     1      -8.532   5.755  72.190  1.00  0.00    -0.122 C  
BRANCH  21  22
HETATM   22  O   UNL     1      -7.989   7.011  71.785  1.00  0.00    -0.098 OA 
BRANCH  22  23
HETATM   23  C   UNL     1      -6.640   6.921  71.309  1.00  0.00    -0.049 C  
HETATM   24  C   UNL     1      -6.358   5.572  70.655  1.00  0.00    -0.031 C  
HETATM   25  C   UNL     1      -6.448   8.042  70.293  1.00  0.00    -0.037 C  
ENDBRANCH  22  23
ENDBRANCH  21  22
ENDBRANCH  20  21
ENDBRANCH  19  20
ENDBRANCH  18  19
ENDBRANCH  15  18
ENDBRANCH  11  12
ENDBRANCH  10  11
ENDBRANCH   7  10
ENDBRANCH   6   7
ENDBRANCH   4   6
ENDBRANCH   2   4
TORSDOF 12
ENDMDL
MODEL      235
REMARK 921   NORMALIZED FREE ENERGY PREDICTED BY IDOCK:   -3.37 KCAL/MOL
REMARK 922        TOTAL FREE ENERGY PREDICTED BY IDOCK:   -6.75 KCAL/MOL
REMARK 923 INTER-LIGAND FREE ENERGY PREDICTED BY IDOCK:   -5.68 KCAL/MOL
REMARK 924 INTRA-LIGAND FREE ENERGY PREDICTED BY IDOCK:   -1.07 KCAL/MOL
REMARK 927      BINDING AFFINITY PREDICTED BY RF-SCORE:    0.00 PKD
ROOT
HETATM    1  C   UNL     1     -11.284  16.085  64.655  1.00  0.00    -0.340 C  
HETATM    2  C   UNL     1     -10.105  15.167  64.985  1.00  0.00    -0.234 C  
HETATM    3  C   UNL     1     -10.038  14.945  66.498  1.00  0.00    -0.279 C  
ENDROOT
BRANCH   2   4
HETATM    4  N   UNL     1     -10.280  13.908  64.259  1.00  0.00    -0.703 NA 
HETATM    5  H   UNL     1      -9.838  13.137  64.760  1.00  0.00     0.000 HD 
BRANCH   4   6
HETATM    6  C   UNL     1     -11.684  13.596  63.959  1.00  0.00    -0.364 C  
BRANCH   6   7
HETATM    7  C   UNL     1     -12.238  12.602  64.997  1.00  0.00    -0.476 C  
HETATM    8  O   UNL     1     -13.555  12.184  64.605  1.00  0.00    -0.354 OA 
HETATM    9  H   UNL     1     -13.897  11.571  65.245  1.00  0.00     0.000 HD 
BRANCH   7  10
HETATM   10  C   UNL     1     -11.332  11.376  65.151  1.00  0.00    -0.009 C  
BRANCH  10  11
HETATM   11  O   UNL     1     -10.189  11.729  65.946  1.00  0.00    -0.221 OA 
BRANCH  11  12
HETATM   12  C   UNL     1      -9.928  10.876  66.986  1.00  0.00    -0.192 A  
HETATM   13  C   UNL     1      -9.249  11.230  68.152  1.00  0.00    -0.170 A  
HETATM   14  C   UNL     1      -9.027  10.280  69.151  1.00  0.00    -0.187 A  
HETATM   15  C   UNL     1      -9.489   8.964  69.007  1.00  0.00    -0.156 A  
HETATM   16  C   UNL     1     -10.199   8.623  67.852  1.00  0.00    -0.273 A  
HETATM   17  C   UNL     1     -10.424   9.579  66.851  1.00  0.00    -0.279 A  
BRANCH  15  18
HETATM   18  C   UNL     1      -9.200   7.945  70.079  1.00  0.00    -0.153 C  
BRANCH  18  19
HETATM   19  O   UNL     1     -10.337   7.852  70.932  1.00  0.00    -0.199 OA 
BRANCH  19  20
HETATM   20  C   UNL     1     -10.490   6.545  71.481  1.00  0.00    -0.215 C  
BRANCH  20  21
HETATM   21  C   UNL     1     -10.779   5.578  70.339  1.00  0.00    -0.251 C  
BRANCH  21  22
HETATM   22  O   UNL     1      -9.977   4.406  70.474  1.00  0.00    -0.217 OA 
BRANCH  22  23
HETATM   23  C   UNL     1      -9.405   3.962  69.237  1.00  0.00    -0.172 C  
HETATM   24  C   UNL     1      -9.871   4.813  68.059  1.00  0.00    -0.185 C  
HETATM   25  C   UNL     1      -7.889   4.062  69.382  1.00  0.00    -0.052 C  
ENDBRANCH  22  23
ENDBRANCH  21  22
ENDBRANCH  20  21
ENDBRANCH  19  20
ENDBRANCH  18  19
ENDBRANCH  15  18
ENDBRANCH  11  12
ENDBRANCH  10  11
ENDBRANCH   7  10
ENDBRANCH   6   7
ENDBRANCH   4   6
ENDBRANCH   2   4
TORSDOF 12
ENDMDL
MODEL      236
REMARK 921   NORMALIZED FREE ENERGY PREDICTED BY IDOCK:   -3.34 KCAL/MOL
REMARK 922        TOTAL FREE ENERGY PREDICTED BY IDOCK:   -6.71 KCAL/MOL
REMARK 923 INTER-LIGAND FREE ENERGY PREDICTED BY IDOCK:   -5.91 KCAL/MOL
REMARK 924 INTRA-LIGAND FREE ENERGY PREDICTED BY IDOCK:   -0.80 KCAL/MOL
REMARK 927      BINDING AFFINITY PREDICTED BY RF-SCORE:    0.00 PKD
ROOT
HETATM    1  C   UNL     1      -9.553  19.792  68.110  1.00  0.00    -0.483 C  
HETATM    2  C   UNL     1     -10.410  18.660  67.539  1.00  0.00    -0.411 C  
HETATM    3  C   UNL     1     -10.075  18.463  66.058  1.00  0.00    -0.293 C  
ENDROOT
BRANCH   2   4
HETATM    4  N   UNL     1     -10.156  17.448  68.319  1.00  0.00    -0.317 NA 
HETATM    5  H   UNL     1     -10.964  16.825  68.293  1.00  0.00     0.000 HD 
BRANCH   4   6
HETATM    6  C   UNL     1      -8.936  16.736  67.913  1.00  0.00    -0.219 C  
BRANCH   6   7
HETATM    7  C   UNL     1      -8.888  15.348  68.580  1.00  0.00    -0.183 C  
HETATM    8  O   UNL     1      -9.103  15.488  69.993  1.00  0.00    -0.246 OA 
HETATM    9  H   UNL     1      -9.073  14.632  70.404  1.00  0.00     0.000 HD 
BRANCH   7  10
HETATM   10  C   UNL     1      -9.936  14.398  67.991  1.00  0.00    -0.225 C  
BRANCH  10  11
HETATM   11  O   UNL     1     -11.176  14.564  68.698  1.00  0.00    -0.239 OA 
BRANCH  11  12
HETATM   12  C   UNL     1     -11.602  13.454  69.379  1.00  0.00    -0.307 A  
HETATM   13  C   UNL     1     -12.543  13.466  70.408  1.00  0.00    -0.237 A  
HETATM   14  C   UNL     1     -12.902  12.276  71.045  1.00  0.00    -0.251 A  
HETATM   15  C   UNL     1     -12.337  11.054  70.656  1.00  0.00    -0.480 A  
HETATM   16  C   UNL     1     -11.419  11.043  69.602  1.00  0.00    -0.375 A  
HETATM   17  C   UNL     1     -11.061  12.237  68.961  1.00  0.00    -0.289 A  
BRANCH  15  18
HETATM   18  C   UNL     1     -12.708   9.789  71.386  1.00  0.00    -0.387 C  
BRANCH  18  19
HETATM   19  O   UNL     1     -11.653   9.458  72.284  1.00  0.00    -0.152 OA 
BRANCH  19  20
HETATM   20  C   UNL     1     -11.235   8.102  72.145  1.00  0.00    -0.329 C  
BRANCH  20  21
HETATM   21  C   UNL     1      -9.789   7.997  72.614  1.00  0.00    -0.279 C  
BRANCH  21  22
HETATM   22  O   UNL     1      -8.930   7.752  71.501  1.00  0.00    -0.128 OA 
BRANCH  22  23
HETATM   23  C   UNL     1      -7.560   7.552  71.872  1.00  0.00    -0.084 C  
HETATM   24  C   UNL     1      -6.758   6.899  70.750  1.00  0.00    -0.054 C  
HETATM   25  C   UNL     1      -6.978   8.925  72.196  1.00  0.00     0.055 C  
ENDBRANCH  22  23
ENDBRANCH  21  22
ENDBRANCH  20  21
ENDBRANCH  19  20
ENDBRANCH  18  19
ENDBRANCH  15  18
ENDBRANCH  11  12
ENDBRANCH  10  11
ENDBRANCH   7  10
ENDBRANCH   6   7
ENDBRANCH   4   6
ENDBRANCH   2   4
TORSDOF 12
ENDMDL
MODEL      237
REMARK 921   NORMALIZED FREE ENERGY PREDICTED BY IDOCK:   -3.34 KCAL/MOL
REMARK 922        TOTAL FREE ENERGY PREDICTED BY IDOCK:   -6.70 KCAL/MOL
REMARK 923 INTER-LIGAND FREE ENERGY PREDICTED BY IDOCK:   -5.61 KCAL/MOL
REMARK 924 INTRA-LIGAND FREE ENERGY PREDICTED BY IDOCK:   -1.09 KCAL/MOL
REMARK 927      BINDING AFFINITY PREDICTED BY RF-SCORE:    0.00 PKD
ROOT
HETATM    1  C   UNL     1     -12.917  13.646  65.680  1.00  0.00    -0.296 C  
HETATM    2  C   UNL     1     -11.604  13.753  64.900  1.00  0.00    -0.351 C  
HETATM    3  C   UNL     1     -11.811  13.225  63.479  1.00  0.00    -0.477 C  
ENDROOT
BRANCH   2   4
HETATM    4  N   UNL     1     -11.177  15.154  64.903  1.00  0.00    -0.443 NA 
HETATM    5  H   UNL     1     -11.856  15.738  65.391  1.00  0.00     0.000 HD 
BRANCH   4   6
HETATM    6  C   UNL     1      -9.829  15.354  65.452  1.00  0.00    -0.279 C  
BRANCH   6   7
HETATM    7  C   UNL     1      -9.913  16.065  66.814  1.00  0.00    -0.258 C  
HETATM    8  O   UNL     1     -11.282  16.398  67.097  1.00  0.00    -0.058 OA 
HETATM    9  H   UNL     1     -11.334  16.837  67.938  1.00  0.00     0.000 HD 
BRANCH   7  10
HETATM   10  C   UNL     1      -9.350  15.198  67.945  1.00  0.00    -0.185 C  
BRANCH  10  11
HETATM   11  O   UNL     1     -10.437  14.642  68.702  1.00  0.00    -0.230 OA 
BRANCH  11  12
HETATM   12  C   UNL     1     -10.587  13.286  68.580  1.00  0.00    -0.256 A  
HETATM   13  C   UNL     1     -11.610  12.544  69.170  1.00  0.00    -0.375 A  
HETATM   14  C   UNL     1     -11.668  11.160  68.989  1.00  0.00    -0.408 A  
HETATM   15  C   UNL     1     -10.712  10.496  68.208  1.00  0.00    -0.270 A  
HETATM   16  C   UNL     1      -9.708  11.249  67.592  1.00  0.00    -0.183 A  
HETATM   17  C   UNL     1      -9.653  12.638  67.770  1.00  0.00    -0.197 A  
BRANCH  15  18
HETATM   18  C   UNL     1     -10.770   8.998  68.063  1.00  0.00    -0.125 C  
BRANCH  18  19
HETATM   19  O   UNL     1     -10.541   8.667  66.697  1.00  0.00    -0.240 OA 
BRANCH  19  20
HETATM   20  C   UNL     1      -9.425   7.794  66.536  1.00  0.00    -0.201 C  
BRANCH  20  21
HETATM   21  C   UNL     1      -9.798   6.431  67.109  1.00  0.00    -0.146 C  
BRANCH  21  22
HETATM   22  O   UNL     1      -8.715   5.518  66.947  1.00  0.00    -0.113 OA 
BRANCH  22  23
HETATM   23  C   UNL     1      -8.647   4.525  67.978  1.00  0.00    -0.102 C  
HETATM   24  C   UNL     1      -9.598   4.838  69.129  1.00  0.00    -0.237 C  
HETATM   25  C   UNL     1      -9.022   3.190  67.342  1.00  0.00    -0.184 C  
ENDBRANCH  22  23
ENDBRANCH  21  22
ENDBRANCH  20  21
ENDBRANCH  19  20
ENDBRANCH  18  19
ENDBRANCH  15  18
ENDBRANCH  11  12
ENDBRANCH  10  11
ENDBRANCH   7  10
ENDBRANCH   6   7
ENDBRANCH   4   6
ENDBRANCH   2   4
TORSDOF 12
ENDMDL
MODEL      238
REMARK 921   NORMALIZED FREE ENERGY PREDICTED BY IDOCK:   -3.33 KCAL/MOL
REMARK 922        TOTAL FREE ENERGY PREDICTED BY IDOCK:   -6.69 KCAL/MOL
REMARK 923 INTER-LIGAND FREE ENERGY PREDICTED BY IDOCK:   -5.40 KCAL/MOL
REMARK 924 INTRA-LIGAND FREE ENERGY PREDICTED BY IDOCK:   -1.29 KCAL/MOL
REMARK 927      BINDING AFFINITY PREDICTED BY RF-SCORE:    0.00 PKD
ROOT
HETATM    1  C   UNL     1      -8.966  15.354  69.388  1.00  0.00    -0.258 C  
HETATM    2  C   UNL     1      -9.031  14.812  67.957  1.00  0.00    -0.174 C  
HETATM    3  C   UNL     1      -7.984  13.710  67.781  1.00  0.00    -0.172 C  
ENDROOT
BRANCH   2   4
HETATM    4  N   UNL     1     -10.387  14.319  67.710  1.00  0.00    -0.237 NA 
HETATM    5  H   UNL     1     -10.872  14.141  68.589  1.00  0.00     0.000 HD 
BRANCH   4   6
HETATM    6  C   UNL     1     -11.182  15.200  66.844  1.00  0.00    -0.292 C  
BRANCH   6   7
HETATM    7  C   UNL     1     -11.583  14.456  65.558  1.00  0.00    -0.347 C  
HETATM    8  O   UNL     1     -10.644  14.761  64.515  1.00  0.00    -0.590 OA 
HETATM    9  H   UNL     1     -10.892  14.302  63.721  1.00  0.00     0.000 HD 
BRANCH   7  10
HETATM   10  C   UNL     1     -11.641  12.940  65.773  1.00  0.00    -0.368 C  
BRANCH  10  11
HETATM   11  O   UNL     1     -10.325  12.388  65.608  1.00  0.00    -0.248 OA 
BRANCH  11  12
HETATM   12  C   UNL     1     -10.179  11.105  66.063  1.00  0.00    -0.250 A  
HETATM   13  C   UNL     1     -10.808  10.586  67.194  1.00  0.00    -0.319 A  
HETATM   14  C   UNL     1     -10.584   9.262  67.578  1.00  0.00    -0.329 A  
HETATM   15  C   UNL     1      -9.737   8.431  66.832  1.00  0.00    -0.292 A  
HETATM   16  C   UNL     1      -9.134   8.946  65.680  1.00  0.00    -0.269 A  
HETATM   17  C   UNL     1      -9.363  10.274  65.294  1.00  0.00    -0.267 A  
BRANCH  15  18
HETATM   18  C   UNL     1      -9.477   7.019  67.289  1.00  0.00    -0.138 C  
BRANCH  18  19
HETATM   19  O   UNL     1     -10.609   6.221  66.957  1.00  0.00    -0.239 OA 
BRANCH  19  20
HETATM   20  C   UNL     1     -10.247   4.874  66.661  1.00  0.00    -0.255 C  
BRANCH  20  21
HETATM   21  C   UNL     1      -9.769   4.815  65.215  1.00  0.00    -0.087 C  
BRANCH  21  22
HETATM   22  O   UNL     1      -8.485   4.198  65.148  1.00  0.00    -0.111 OA 
BRANCH  22  23
HETATM   23  C   UNL     1      -7.672   4.689  64.074  1.00  0.00    -0.077 C  
HETATM   24  C   UNL     1      -7.652   3.726  62.891  1.00  0.00    -0.058 C  
HETATM   25  C   UNL     1      -8.259   6.030  63.644  1.00  0.00    -0.025 C  
ENDBRANCH  22  23
ENDBRANCH  21  22
ENDBRANCH  20  21
ENDBRANCH  19  20
ENDBRANCH  18  19
ENDBRANCH  15  18
ENDBRANCH  11  12
ENDBRANCH  10  11
ENDBRANCH   7  10
ENDBRANCH   6   7
ENDBRANCH   4   6
ENDBRANCH   2   4
TORSDOF 12
ENDMDL
MODEL      239
REMARK 921   NORMALIZED FREE ENERGY PREDICTED BY IDOCK:   -3.33 KCAL/MOL
REMARK 922        TOTAL FREE ENERGY PREDICTED BY IDOCK:   -6.68 KCAL/MOL
REMARK 923 INTER-LIGAND FREE ENERGY PREDICTED BY IDOCK:   -5.53 KCAL/MOL
REMARK 924 INTRA-LIGAND FREE ENERGY PREDICTED BY IDOCK:   -1.15 KCAL/MOL
REMARK 927      BINDING AFFINITY PREDICTED BY RF-SCORE:    0.00 PKD
ROOT
HETATM    1  C   UNL     1      -8.966  15.370  69.429  1.00  0.00    -0.258 C  
HETATM    2  C   UNL     1      -9.089  14.832  68.001  1.00  0.00    -0.179 C  
HETATM    3  C   UNL     1      -8.065  13.714  67.787  1.00  0.00    -0.173 C  
ENDROOT
BRANCH   2   4
HETATM    4  N   UNL     1     -10.459  14.358  67.800  1.00  0.00    -0.244 NA 
HETATM    5  H   UNL     1     -10.919  14.191  68.696  1.00  0.00     0.000 HD 
BRANCH   4   6
HETATM    6  C   UNL     1     -11.269  15.249  66.958  1.00  0.00    -0.275 C  
BRANCH   6   7
HETATM    7  C   UNL     1     -11.689  14.520  65.669  1.00  0.00    -0.335 C  
HETATM    8  O   UNL     1     -10.762  14.834  64.617  1.00  0.00    -0.566 OA 
HETATM    9  H   UNL     1     -11.021  14.384  63.822  1.00  0.00     0.000 HD 
BRANCH   7  10
HETATM   10  C   UNL     1     -11.749  13.002  65.867  1.00  0.00    -0.394 C  
BRANCH  10  11
HETATM   11  O   UNL     1     -10.452  12.440  65.610  1.00  0.00    -0.250 OA 
BRANCH  11  12
HETATM   12  C   UNL     1     -10.295  11.144  66.026  1.00  0.00    -0.254 A  
HETATM   13  C   UNL     1     -10.974  10.566  67.098  1.00  0.00    -0.294 A  
HETATM   14  C   UNL     1     -10.734   9.235  67.446  1.00  0.00    -0.263 A  
HETATM   15  C   UNL     1      -9.820   8.457  66.723  1.00  0.00    -0.329 A  
HETATM   16  C   UNL     1      -9.167   9.031  65.628  1.00  0.00    -0.288 A  
HETATM   17  C   UNL     1      -9.412  10.366  65.277  1.00  0.00    -0.290 A  
BRANCH  15  18
HETATM   18  C   UNL     1      -9.546   7.036  67.143  1.00  0.00    -0.149 C  
BRANCH  18  19
HETATM   19  O   UNL     1     -10.640   6.223  66.730  1.00  0.00    -0.253 OA 
BRANCH  19  20
HETATM   20  C   UNL     1     -10.221   4.915  66.347  1.00  0.00    -0.278 C  
BRANCH  20  21
HETATM   21  C   UNL     1      -8.970   4.561  67.143  1.00  0.00    -0.116 C  
BRANCH  21  22
HETATM   22  O   UNL     1      -9.146   3.307  67.799  1.00  0.00    -0.138 OA 
BRANCH  22  23
HETATM   23  C   UNL     1      -8.444   3.213  69.046  1.00  0.00    -0.063 C  
HETATM   24  C   UNL     1      -6.954   2.960  68.840  1.00  0.00    -0.044 C  
HETATM   25  C   UNL     1      -8.650   4.536  69.777  1.00  0.00    -0.095 C  
ENDBRANCH  22  23
ENDBRANCH  21  22
ENDBRANCH  20  21
ENDBRANCH  19  20
ENDBRANCH  18  19
ENDBRANCH  15  18
ENDBRANCH  11  12
ENDBRANCH  10  11
ENDBRANCH   7  10
ENDBRANCH   6   7
ENDBRANCH   4   6
ENDBRANCH   2   4
TORSDOF 12
ENDMDL
MODEL      240
REMARK 921   NORMALIZED FREE ENERGY PREDICTED BY IDOCK:   -3.33 KCAL/MOL
REMARK 922        TOTAL FREE ENERGY PREDICTED BY IDOCK:   -6.68 KCAL/MOL
REMARK 923 INTER-LIGAND FREE ENERGY PREDICTED BY IDOCK:   -5.64 KCAL/MOL
REMARK 924 INTRA-LIGAND FREE ENERGY PREDICTED BY IDOCK:   -1.04 KCAL/MOL
REMARK 927      BINDING AFFINITY PREDICTED BY RF-SCORE:    0.00 PKD
ROOT
HETATM    1  C   UNL     1      -7.676   7.369  69.350  1.00  0.00    -0.106 C  
HETATM    2  C   UNL     1      -7.520   5.847  69.302  1.00  0.00    -0.084 C  
HETATM    3  C   UNL     1      -8.216   5.225  70.516  1.00  0.00    -0.108 C  
ENDROOT
BRANCH   2   4
HETATM    4  N   UNL     1      -8.089   5.363  68.043  1.00  0.00    -0.096 NA 
HETATM    5  H   UNL     1      -7.499   4.638  67.635  1.00  0.00     0.000 HD 
BRANCH   4   6
HETATM    6  C   UNL     1      -9.476   4.895  68.169  1.00  0.00    -0.137 C  
BRANCH   6   7
HETATM    7  C   UNL     1     -10.416   5.801  67.353  1.00  0.00    -0.254 C  
HETATM    8  O   UNL     1     -11.064   6.735  68.231  1.00  0.00    -0.460 OA 
HETATM    9  H   UNL     1     -11.644   7.294  67.727  1.00  0.00     0.000 HD 
BRANCH   7  10
HETATM   10  C   UNL     1      -9.662   6.562  66.257  1.00  0.00    -0.010 C  
BRANCH  10  11
HETATM   11  O   UNL     1      -9.216   7.824  66.778  1.00  0.00    -0.146 OA 
BRANCH  11  12
HETATM   12  C   UNL     1      -9.505   8.906  65.989  1.00  0.00    -0.252 A  
HETATM   13  C   UNL     1      -9.001   9.109  64.705  1.00  0.00    -0.159 A  
HETATM   14  C   UNL     1      -9.352  10.254  63.985  1.00  0.00    -0.337 A  
HETATM   15  C   UNL     1     -10.220  11.208  64.533  1.00  0.00    -0.383 A  
HETATM   16  C   UNL     1     -10.749  10.984  65.807  1.00  0.00    -0.216 A  
HETATM   17  C   UNL     1     -10.399   9.833  66.527  1.00  0.00    -0.262 A  
BRANCH  15  18
HETATM   18  C   UNL     1     -10.551  12.456  63.755  1.00  0.00    -0.452 C  
BRANCH  18  19
HETATM   19  O   UNL     1     -11.463  13.237  64.520  1.00  0.00    -0.337 OA 
BRANCH  19  20
HETATM   20  C   UNL     1     -10.908  14.496  64.896  1.00  0.00    -0.421 C  
BRANCH  20  21
HETATM   21  C   UNL     1     -11.659  15.003  66.122  1.00  0.00    -0.159 C  
BRANCH  21  22
HETATM   22  O   UNL     1     -11.849  13.940  67.054  1.00  0.00    -0.369 OA 
BRANCH  22  23
HETATM   23  C   UNL     1     -11.303  14.215  68.351  1.00  0.00    -0.287 C  
HETATM   24  C   UNL     1     -11.669  13.132  69.362  1.00  0.00    -0.386 C  
HETATM   25  C   UNL     1      -9.788  14.288  68.194  1.00  0.00    -0.226 C  
ENDBRANCH  22  23
ENDBRANCH  21  22
ENDBRANCH  20  21
ENDBRANCH  19  20
ENDBRANCH  18  19
ENDBRANCH  15  18
ENDBRANCH  11  12
ENDBRANCH  10  11
ENDBRANCH   7  10
ENDBRANCH   6   7
ENDBRANCH   4   6
ENDBRANCH   2   4
TORSDOF 12
ENDMDL
MODEL      241
REMARK 921   NORMALIZED FREE ENERGY PREDICTED BY IDOCK:   -3.32 KCAL/MOL
REMARK 922        TOTAL FREE ENERGY PREDICTED BY IDOCK:   -6.68 KCAL/MOL
REMARK 923 INTER-LIGAND FREE ENERGY PREDICTED BY IDOCK:   -5.72 KCAL/MOL
REMARK 924 INTRA-LIGAND FREE ENERGY PREDICTED BY IDOCK:   -0.96 KCAL/MOL
REMARK 927      BINDING AFFINITY PREDICTED BY RF-SCORE:    0.00 PKD
ROOT
HETATM    1  C   UNL     1     -10.856   6.514  67.124  1.00  0.00    -0.472 C  
HETATM    2  C   UNL     1      -9.767   5.570  67.641  1.00  0.00    -0.129 C  
HETATM    3  C   UNL     1      -8.440   6.325  67.735  1.00  0.00    -0.116 C  
ENDROOT
BRANCH   2   4
HETATM    4  N   UNL     1     -10.188   5.047  68.942  1.00  0.00    -0.154 NA 
HETATM    5  H   UNL     1     -10.756   4.207  68.828  1.00  0.00     0.000 HD 
BRANCH   4   6
HETATM    6  C   UNL     1      -9.069   4.796  69.862  1.00  0.00    -0.104 C  
BRANCH   6   7
HETATM    7  C   UNL     1      -9.531   4.983  71.318  1.00  0.00    -0.154 C  
HETATM    8  O   UNL     1      -8.525   5.699  72.052  1.00  0.00    -0.125 OA 
HETATM    9  H   UNL     1      -8.810   5.814  72.951  1.00  0.00     0.000 HD 
BRANCH   7  10
HETATM   10  C   UNL     1     -10.863   5.735  71.401  1.00  0.00    -0.251 C  
BRANCH  10  11
HETATM   11  O   UNL     1     -10.679   6.941  72.160  1.00  0.00    -0.212 OA 
BRANCH  11  12
HETATM   12  C   UNL     1     -10.947   8.097  71.476  1.00  0.00    -0.243 A  
HETATM   13  C   UNL     1      -9.979   8.987  71.010  1.00  0.00    -0.349 A  
HETATM   14  C   UNL     1     -10.360  10.145  70.329  1.00  0.00    -0.234 A  
HETATM   15  C   UNL     1     -11.712  10.428  70.091  1.00  0.00    -0.394 A  
HETATM   16  C   UNL     1     -12.676   9.516  70.530  1.00  0.00     0.103 A  
HETATM   17  C   UNL     1     -12.293   8.352  71.211  1.00  0.00    -0.289 A  
BRANCH  15  18
HETATM   18  C   UNL     1     -12.101  11.704  69.392  1.00  0.00    -0.263 C  
BRANCH  18  19
HETATM   19  O   UNL     1     -12.282  11.424  68.007  1.00  0.00    -0.607 OA 
BRANCH  19  20
HETATM   20  C   UNL     1     -11.657  12.400  67.176  1.00  0.00    -0.365 C  
BRANCH  20  21
HETATM   21  C   UNL     1     -11.210  13.561  68.056  1.00  0.00    -0.271 C  
BRANCH  21  22
HETATM   22  O   UNL     1     -10.605  14.577  67.258  1.00  0.00    -0.274 OA 
BRANCH  22  23
HETATM   23  C   UNL     1     -10.504  15.842  67.926  1.00  0.00    -0.270 C  
HETATM   24  C   UNL     1     -10.748  17.007  66.972  1.00  0.00    -0.149 C  
HETATM   25  C   UNL     1     -11.552  15.849  69.034  1.00  0.00    -0.392 C  
ENDBRANCH  22  23
ENDBRANCH  21  22
ENDBRANCH  20  21
ENDBRANCH  19  20
ENDBRANCH  18  19
ENDBRANCH  15  18
ENDBRANCH  11  12
ENDBRANCH  10  11
ENDBRANCH   7  10
ENDBRANCH   6   7
ENDBRANCH   4   6
ENDBRANCH   2   4
TORSDOF 12
ENDMDL
MODEL      242
REMARK 921   NORMALIZED FREE ENERGY PREDICTED BY IDOCK:   -3.32 KCAL/MOL
REMARK 922        TOTAL FREE ENERGY PREDICTED BY IDOCK:   -6.67 KCAL/MOL
REMARK 923 INTER-LIGAND FREE ENERGY PREDICTED BY IDOCK:   -5.43 KCAL/MOL
REMARK 924 INTRA-LIGAND FREE ENERGY PREDICTED BY IDOCK:   -1.24 KCAL/MOL
REMARK 927      BINDING AFFINITY PREDICTED BY RF-SCORE:    0.00 PKD
ROOT
HETATM    1  C   UNL     1     -12.824  13.719  65.825  1.00  0.00    -0.430 C  
HETATM    2  C   UNL     1     -11.575  13.838  64.949  1.00  0.00    -0.351 C  
HETATM    3  C   UNL     1     -11.900  13.365  63.530  1.00  0.00    -0.399 C  
ENDROOT
BRANCH   2   4
HETATM    4  N   UNL     1     -11.127  15.232  64.967  1.00  0.00    -0.408 NA 
HETATM    5  H   UNL     1     -11.755  15.806  65.530  1.00  0.00     0.000 HD 
BRANCH   4   6
HETATM    6  C   UNL     1      -9.736  15.394  65.413  1.00  0.00    -0.215 C  
BRANCH   6   7
HETATM    7  C   UNL     1      -9.698  16.087  66.787  1.00  0.00    -0.239 C  
HETATM    8  O   UNL     1     -11.029  16.473  67.165  1.00  0.00    -0.202 OA 
HETATM    9  H   UNL     1     -11.006  16.901  68.013  1.00  0.00     0.000 HD 
BRANCH   7  10
HETATM   10  C   UNL     1      -9.099  15.179  67.866  1.00  0.00    -0.179 C  
BRANCH  10  11
HETATM   11  O   UNL     1     -10.161  14.596  68.637  1.00  0.00    -0.225 OA 
BRANCH  11  12
HETATM   12  C   UNL     1     -10.295  13.240  68.498  1.00  0.00    -0.239 A  
HETATM   13  C   UNL     1     -11.352  12.489  69.011  1.00  0.00    -0.342 A  
HETATM   14  C   UNL     1     -11.389  11.106  68.819  1.00  0.00    -0.342 A  
HETATM   15  C   UNL     1     -10.378  10.452  68.102  1.00  0.00    -0.202 A  
HETATM   16  C   UNL     1      -9.338  11.214  67.561  1.00  0.00    -0.174 A  
HETATM   17  C   UNL     1      -9.303  12.602  67.751  1.00  0.00    -0.198 A  
BRANCH  15  18
HETATM   18  C   UNL     1     -10.417   8.955  67.945  1.00  0.00    -0.223 C  
BRANCH  18  19
HETATM   19  O   UNL     1     -10.393   8.645  66.555  1.00  0.00    -0.282 OA 
BRANCH  19  20
HETATM   20  C   UNL     1      -9.202   7.957  66.179  1.00  0.00    -0.152 C  
BRANCH  20  21
HETATM   21  C   UNL     1      -8.586   8.682  64.988  1.00  0.00    -0.158 C  
BRANCH  21  22
HETATM   22  O   UNL     1      -7.424   7.987  64.539  1.00  0.00    -0.089 OA 
BRANCH  22  23
HETATM   23  C   UNL     1      -7.168   8.150  63.138  1.00  0.00    -0.091 C  
HETATM   24  C   UNL     1      -8.364   8.759  62.411  1.00  0.00    -0.203 C  
HETATM   25  C   UNL     1      -5.958   9.069  63.006  1.00  0.00    -0.089 C  
ENDBRANCH  22  23
ENDBRANCH  21  22
ENDBRANCH  20  21
ENDBRANCH  19  20
ENDBRANCH  18  19
ENDBRANCH  15  18
ENDBRANCH  11  12
ENDBRANCH  10  11
ENDBRANCH   7  10
ENDBRANCH   6   7
ENDBRANCH   4   6
ENDBRANCH   2   4
TORSDOF 12
ENDMDL
MODEL      243
REMARK 921   NORMALIZED FREE ENERGY PREDICTED BY IDOCK:   -3.32 KCAL/MOL
REMARK 922        TOTAL FREE ENERGY PREDICTED BY IDOCK:   -6.67 KCAL/MOL
REMARK 923 INTER-LIGAND FREE ENERGY PREDICTED BY IDOCK:   -5.90 KCAL/MOL
REMARK 924 INTRA-LIGAND FREE ENERGY PREDICTED BY IDOCK:   -0.78 KCAL/MOL
REMARK 927      BINDING AFFINITY PREDICTED BY RF-SCORE:    0.00 PKD
ROOT
HETATM    1  C   UNL     1      -9.479  10.160  68.634  1.00  0.00    -0.164 C  
HETATM    2  C   UNL     1      -8.213  10.898  68.191  1.00  0.00    -0.121 C  
HETATM    3  C   UNL     1      -8.099  10.845  66.666  1.00  0.00    -0.147 C  
ENDROOT
BRANCH   2   4
HETATM    4  N   UNL     1      -8.284  12.275  68.683  1.00  0.00    -0.321 NA 
HETATM    5  H   UNL     1      -8.199  12.300  69.700  1.00  0.00     0.000 HD 
BRANCH   4   6
HETATM    6  C   UNL     1      -7.302  13.171  68.057  1.00  0.00    -0.125 C  
BRANCH   6   7
HETATM    7  C   UNL     1      -6.618  14.038  69.130  1.00  0.00    -0.113 C  
HETATM    8  O   UNL     1      -6.412  13.256  70.318  1.00  0.00    -0.376 OA 
HETATM    9  H   UNL     1      -5.990  13.791  70.980  1.00  0.00     0.000 HD 
BRANCH   7  10
HETATM   10  C   UNL     1      -5.278  14.596  68.641  1.00  0.00    -0.095 C  
BRANCH  10  11
HETATM   11  O   UNL     1      -5.229  16.008  68.904  1.00  0.00    -0.105 OA 
BRANCH  11  12
HETATM   12  C   UNL     1      -6.271  16.726  68.381  1.00  0.00    -0.134 A  
HETATM   13  C   UNL     1      -7.214  17.423  69.137  1.00  0.00    -0.175 A  
HETATM   14  C   UNL     1      -8.246  18.119  68.503  1.00  0.00    -0.320 A  
HETATM   15  C   UNL     1      -8.347  18.140  67.105  1.00  0.00    -0.244 A  
HETATM   16  C   UNL     1      -7.380  17.468  66.352  1.00  0.00    -0.334 A  
HETATM   17  C   UNL     1      -6.342  16.773  66.989  1.00  0.00    -0.222 A  
BRANCH  15  18
HETATM   18  C   UNL     1      -9.493  18.862  66.446  1.00  0.00    -0.336 C  
BRANCH  18  19
HETATM   19  O   UNL     1     -10.145  17.960  65.557  1.00  0.00    -0.530 OA 
BRANCH  19  20
HETATM   20  C   UNL     1     -10.660  16.817  66.236  1.00  0.00    -0.190 C  
BRANCH  20  21
HETATM   21  C   UNL     1     -10.445  15.596  65.348  1.00  0.00    -0.411 C  
BRANCH  21  22
HETATM   22  O   UNL     1     -10.631  14.401  66.104  1.00  0.00    -0.286 OA 
BRANCH  22  23
HETATM   23  C   UNL     1     -11.120  13.303  65.323  1.00  0.00    -0.288 C  
HETATM   24  C   UNL     1     -11.637  12.168  66.202  1.00  0.00    -0.418 C  
HETATM   25  C   UNL     1     -12.249  13.840  64.450  1.00  0.00    -0.440 C  
ENDBRANCH  22  23
ENDBRANCH  21  22
ENDBRANCH  20  21
ENDBRANCH  19  20
ENDBRANCH  18  19
ENDBRANCH  15  18
ENDBRANCH  11  12
ENDBRANCH  10  11
ENDBRANCH   7  10
ENDBRANCH   6   7
ENDBRANCH   4   6
ENDBRANCH   2   4
TORSDOF 12
ENDMDL
MODEL      244
REMARK 921   NORMALIZED FREE ENERGY PREDICTED BY IDOCK:   -3.32 KCAL/MOL
REMARK 922        TOTAL FREE ENERGY PREDICTED BY IDOCK:   -6.67 KCAL/MOL
REMARK 923 INTER-LIGAND FREE ENERGY PREDICTED BY IDOCK:   -5.95 KCAL/MOL
REMARK 924 INTRA-LIGAND FREE ENERGY PREDICTED BY IDOCK:   -0.71 KCAL/MOL
REMARK 927      BINDING AFFINITY PREDICTED BY RF-SCORE:    0.00 PKD
ROOT
HETATM    1  C   UNL     1     -12.782  13.973  65.373  1.00  0.00    -0.499 C  
HETATM    2  C   UNL     1     -11.297  13.892  65.738  1.00  0.00    -0.307 C  
HETATM    3  C   UNL     1     -11.154  13.638  67.240  1.00  0.00    -0.309 C  
ENDROOT
BRANCH   2   4
HETATM    4  N   UNL     1     -10.683  12.825  64.946  1.00  0.00    -0.292 NA 
HETATM    5  H   UNL     1      -9.742  13.088  64.653  1.00  0.00     0.000 HD 
BRANCH   4   6
HETATM    6  C   UNL     1     -10.672  11.523  65.627  1.00  0.00    -0.267 C  
BRANCH   6   7
HETATM    7  C   UNL     1     -10.000  10.465  64.734  1.00  0.00    -0.339 C  
HETATM    8  O   UNL     1      -8.920  11.070  64.004  1.00  0.00    -0.322 OA 
HETATM    9  H   UNL     1      -8.505  10.417  63.453  1.00  0.00     0.000 HD 
BRANCH   7  10
HETATM   10  C   UNL     1      -9.470   9.282  65.552  1.00  0.00    -0.240 C  
BRANCH  10  11
HETATM   11  O   UNL     1     -10.338   9.057  66.674  1.00  0.00    -0.263 OA 
BRANCH  11  12
HETATM   12  C   UNL     1      -9.704   8.990  67.886  1.00  0.00    -0.155 A  
HETATM   13  C   UNL     1     -10.131   9.643  69.043  1.00  0.00    -0.193 A  
HETATM   14  C   UNL     1      -9.405   9.516  70.229  1.00  0.00    -0.305 A  
HETATM   15  C   UNL     1      -8.248   8.726  70.283  1.00  0.00    -0.120 A  
HETATM   16  C   UNL     1      -7.843   8.047  69.130  1.00  0.00    -0.108 A  
HETATM   17  C   UNL     1      -8.575   8.173  67.940  1.00  0.00    -0.132 A  
BRANCH  15  18
HETATM   18  C   UNL     1      -7.458   8.638  71.563  1.00  0.00    -0.101 C  
BRANCH  18  19
HETATM   19  O   UNL     1      -7.989   7.577  72.351  1.00  0.00    -0.096 OA 
BRANCH  19  20
HETATM   20  C   UNL     1      -8.510   8.042  73.594  1.00  0.00    -0.256 C  
BRANCH  20  21
HETATM   21  C   UNL     1      -9.445   6.973  74.149  1.00  0.00    -0.250 C  
BRANCH  21  22
HETATM   22  O   UNL     1     -10.748   7.122  73.587  1.00  0.00    -0.375 OA 
BRANCH  22  23
HETATM   23  C   UNL     1     -11.049   6.145  72.581  1.00  0.00    -0.272 C  
HETATM   24  C   UNL     1     -11.439   4.803  73.193  1.00  0.00    -0.348 C  
HETATM   25  C   UNL     1     -12.206   6.696  71.754  1.00  0.00    -0.400 C  
ENDBRANCH  22  23
ENDBRANCH  21  22
ENDBRANCH  20  21
ENDBRANCH  19  20
ENDBRANCH  18  19
ENDBRANCH  15  18
ENDBRANCH  11  12
ENDBRANCH  10  11
ENDBRANCH   7  10
ENDBRANCH   6   7
ENDBRANCH   4   6
ENDBRANCH   2   4
TORSDOF 12
ENDMDL
MODEL      245
REMARK 921   NORMALIZED FREE ENERGY PREDICTED BY IDOCK:   -3.30 KCAL/MOL
REMARK 922        TOTAL FREE ENERGY PREDICTED BY IDOCK:   -6.63 KCAL/MOL
REMARK 923 INTER-LIGAND FREE ENERGY PREDICTED BY IDOCK:   -5.83 KCAL/MOL
REMARK 924 INTRA-LIGAND FREE ENERGY PREDICTED BY IDOCK:   -0.80 KCAL/MOL
REMARK 927      BINDING AFFINITY PREDICTED BY RF-SCORE:    0.00 PKD
ROOT
HETATM    1  C   UNL     1     -11.823  15.741  69.484  1.00  0.00    -0.359 C  
HETATM    2  C   UNL     1     -11.431  14.484  70.264  1.00  0.00    -0.224 C  
HETATM    3  C   UNL     1     -12.615  14.024  71.119  1.00  0.00    -0.445 C  
ENDROOT
BRANCH   2   4
HETATM    4  N   UNL     1     -11.019  13.455  69.308  1.00  0.00    -0.429 NA 
HETATM    5  H   UNL     1     -10.987  12.538  69.755  1.00  0.00     0.000 HD 
BRANCH   4   6
HETATM    6  C   UNL     1     -11.849  13.415  68.097  1.00  0.00    -0.361 C  
BRANCH   6   7
HETATM    7  C   UNL     1     -11.476  12.191  67.241  1.00  0.00    -0.345 C  
HETATM    8  O   UNL     1     -12.049  12.330  65.931  1.00  0.00    -0.609 OA 
HETATM    9  H   UNL     1     -11.819  11.574  65.403  1.00  0.00     0.000 HD 
BRANCH   7  10
HETATM   10  C   UNL     1      -9.958  12.020  67.124  1.00  0.00    -0.195 C  
BRANCH  10  11
HETATM   11  O   UNL     1      -9.653  10.630  66.922  1.00  0.00    -0.166 OA 
BRANCH  11  12
HETATM   12  C   UNL     1      -9.762   9.849  68.041  1.00  0.00    -0.140 A  
HETATM   13  C   UNL     1     -10.521   8.683  68.125  1.00  0.00    -0.241 A  
HETATM   14  C   UNL     1     -10.572   7.962  69.321  1.00  0.00    -0.195 A  
HETATM   15  C   UNL     1      -9.857   8.389  70.448  1.00  0.00    -0.194 A  
HETATM   16  C   UNL     1      -9.071   9.541  70.349  1.00  0.00    -0.296 A  
HETATM   17  C   UNL     1      -9.018  10.261  69.148  1.00  0.00    -0.187 A  
BRANCH  15  18
HETATM   18  C   UNL     1      -9.961   7.619  71.739  1.00  0.00    -0.172 C  
BRANCH  18  19
HETATM   19  O   UNL     1     -11.246   7.007  71.799  1.00  0.00    -0.236 OA 
BRANCH  19  20
HETATM   20  C   UNL     1     -11.259   5.869  72.657  1.00  0.00    -0.291 C  
BRANCH  20  21
HETATM   21  C   UNL     1      -9.972   5.084  72.429  1.00  0.00    -0.178 C  
BRANCH  21  22
HETATM   22  O   UNL     1     -10.199   4.030  71.495  1.00  0.00    -0.135 OA 
BRANCH  22  23
HETATM   23  C   UNL     1      -9.911   2.729  72.024  1.00  0.00    -0.169 C  
HETATM   24  C   UNL     1      -9.554   1.736  70.922  1.00  0.00    -0.184 C  
HETATM   25  C   UNL     1      -8.736   2.885  72.983  1.00  0.00    -0.083 C  
ENDBRANCH  22  23
ENDBRANCH  21  22
ENDBRANCH  20  21
ENDBRANCH  19  20
ENDBRANCH  18  19
ENDBRANCH  15  18
ENDBRANCH  11  12
ENDBRANCH  10  11
ENDBRANCH   7  10
ENDBRANCH   6   7
ENDBRANCH   4   6
ENDBRANCH   2   4
TORSDOF 12
ENDMDL
MODEL      246
REMARK 921   NORMALIZED FREE ENERGY PREDICTED BY IDOCK:   -3.29 KCAL/MOL
REMARK 922        TOTAL FREE ENERGY PREDICTED BY IDOCK:   -6.62 KCAL/MOL
REMARK 923 INTER-LIGAND FREE ENERGY PREDICTED BY IDOCK:   -5.39 KCAL/MOL
REMARK 924 INTRA-LIGAND FREE ENERGY PREDICTED BY IDOCK:   -1.23 KCAL/MOL
REMARK 927      BINDING AFFINITY PREDICTED BY RF-SCORE:    0.00 PKD
ROOT
HETATM    1  C   UNL     1      -7.214   7.271  65.290  1.00  0.00    -0.069 C  
HETATM    2  C   UNL     1      -7.317   6.412  64.027  1.00  0.00    -0.073 C  
HETATM    3  C   UNL     1      -6.175   5.394  64.008  1.00  0.00    -0.022 C  
ENDROOT
BRANCH   2   4
HETATM    4  N   UNL     1      -8.627   5.759  64.017  1.00  0.00    -0.344 NA 
HETATM    5  H   UNL     1      -9.103   5.916  63.128  1.00  0.00     0.000 HD 
BRANCH   4   6
HETATM    6  C   UNL     1      -8.569   4.325  64.330  1.00  0.00    -0.121 C  
BRANCH   6   7
HETATM    7  C   UNL     1      -9.932   3.844  64.861  1.00  0.00    -0.196 C  
HETATM    8  O   UNL     1      -9.817   2.486  65.314  1.00  0.00    -0.355 OA 
HETATM    9  H   UNL     1     -10.658   2.189  65.642  1.00  0.00     0.000 HD 
BRANCH   7  10
HETATM   10  C   UNL     1     -10.440   4.728  66.005  1.00  0.00    -0.292 C  
BRANCH  10  11
HETATM   11  O   UNL     1      -9.388   4.910  66.966  1.00  0.00    -0.119 OA 
BRANCH  11  12
HETATM   12  C   UNL     1      -9.766   5.544  68.119  1.00  0.00    -0.132 A  
HETATM   13  C   UNL     1     -11.057   5.999  68.389  1.00  0.00    -0.271 A  
HETATM   14  C   UNL     1     -11.337   6.643  69.596  1.00  0.00    -0.387 A  
HETATM   15  C   UNL     1     -10.335   6.834  70.558  1.00  0.00    -0.226 A  
HETATM   16  C   UNL     1      -9.051   6.347  70.297  1.00  0.00    -0.155 A  
HETATM   17  C   UNL     1      -8.772   5.697  69.086  1.00  0.00    -0.108 A  
BRANCH  15  18
HETATM   18  C   UNL     1     -10.651   7.569  71.834  1.00  0.00    -0.211 C  
BRANCH  18  19
HETATM   19  O   UNL     1     -10.822   8.950  71.531  1.00  0.00    -0.272 OA 
BRANCH  19  20
HETATM   20  C   UNL     1     -12.131   9.413  71.857  1.00  0.00    -0.357 C  
BRANCH  20  21
HETATM   21  C   UNL     1     -12.483  10.556  70.912  1.00  0.00    -0.390 C  
BRANCH  21  22
HETATM   22  O   UNL     1     -11.395  10.812  70.026  1.00  0.00    -0.282 OA 
BRANCH  22  23
HETATM   23  C   UNL     1     -11.808  11.112  68.687  1.00  0.00    -0.287 C  
HETATM   24  C   UNL     1     -11.701  12.603  68.380  1.00  0.00    -0.377 C  
HETATM   25  C   UNL     1     -10.900  10.322  67.750  1.00  0.00    -0.346 C  
ENDBRANCH  22  23
ENDBRANCH  21  22
ENDBRANCH  20  21
ENDBRANCH  19  20
ENDBRANCH  18  19
ENDBRANCH  15  18
ENDBRANCH  11  12
ENDBRANCH  10  11
ENDBRANCH   7  10
ENDBRANCH   6   7
ENDBRANCH   4   6
ENDBRANCH   2   4
TORSDOF 12
ENDMDL
MODEL      247
REMARK 921   NORMALIZED FREE ENERGY PREDICTED BY IDOCK:   -3.29 KCAL/MOL
REMARK 922        TOTAL FREE ENERGY PREDICTED BY IDOCK:   -6.61 KCAL/MOL
REMARK 923 INTER-LIGAND FREE ENERGY PREDICTED BY IDOCK:   -5.05 KCAL/MOL
REMARK 924 INTRA-LIGAND FREE ENERGY PREDICTED BY IDOCK:   -1.56 KCAL/MOL
REMARK 927      BINDING AFFINITY PREDICTED BY RF-SCORE:    0.00 PKD
ROOT
HETATM    1  C   UNL     1     -10.041  10.996  64.807  1.00  0.00    -0.367 C  
HETATM    2  C   UNL     1      -9.824  10.381  63.422  1.00  0.00    -0.189 C  
HETATM    3  C   UNL     1      -8.940  11.308  62.585  1.00  0.00    -0.311 C  
ENDROOT
BRANCH   2   4
HETATM    4  N   UNL     1      -9.218   9.059  63.592  1.00  0.00    -0.308 NA 
HETATM    5  H   UNL     1      -9.840   8.329  63.245  1.00  0.00     0.000 HD 
BRANCH   4   6
HETATM    6  C   UNL     1      -7.887   8.943  62.982  1.00  0.00    -0.133 C  
BRANCH   6   7
HETATM    7  C   UNL     1      -7.102   7.793  63.640  1.00  0.00    -0.074 C  
HETATM    8  O   UNL     1      -5.841   7.630  62.972  1.00  0.00    -0.049 OA 
HETATM    9  H   UNL     1      -5.357   6.921  63.378  1.00  0.00     0.000 HD 
BRANCH   7  10
HETATM   10  C   UNL     1      -6.866   8.047  65.132  1.00  0.00    -0.058 C  
BRANCH  10  11
HETATM   11  O   UNL     1      -7.871   7.360  65.894  1.00  0.00    -0.094 OA 
BRANCH  11  12
HETATM   12  C   UNL     1      -8.516   8.132  66.823  1.00  0.00    -0.123 A  
HETATM   13  C   UNL     1      -9.870   8.026  67.143  1.00  0.00    -0.274 A  
HETATM   14  C   UNL     1     -10.433   8.870  68.102  1.00  0.00    -0.254 A  
HETATM   15  C   UNL     1      -9.652   9.826  68.765  1.00  0.00    -0.155 A  
HETATM   16  C   UNL     1      -8.289   9.906  68.466  1.00  0.00    -0.108 A  
HETATM   17  C   UNL     1      -7.724   9.056  67.506  1.00  0.00    -0.096 A  
BRANCH  15  18
HETATM   18  C   UNL     1     -10.291  10.755  69.765  1.00  0.00    -0.027 C  
BRANCH  18  19
HETATM   19  O   UNL     1     -11.407  11.387  69.147  1.00  0.00    -0.238 OA 
BRANCH  19  20
HETATM   20  C   UNL     1     -11.838  12.540  69.867  1.00  0.00    -0.303 C  
BRANCH  20  21
HETATM   21  C   UNL     1     -11.930  13.707  68.891  1.00  0.00    -0.356 C  
BRANCH  21  22
HETATM   22  O   UNL     1     -11.519  13.290  67.590  1.00  0.00    -0.286 OA 
BRANCH  22  23
HETATM   23  C   UNL     1     -11.638  14.319  66.598  1.00  0.00    -0.383 C  
HETATM   24  C   UNL     1     -10.318  14.561  65.872  1.00  0.00    -0.332 C  
HETATM   25  C   UNL     1     -12.702  13.864  65.605  1.00  0.00    -0.534 C  
ENDBRANCH  22  23
ENDBRANCH  21  22
ENDBRANCH  20  21
ENDBRANCH  19  20
ENDBRANCH  18  19
ENDBRANCH  15  18
ENDBRANCH  11  12
ENDBRANCH  10  11
ENDBRANCH   7  10
ENDBRANCH   6   7
ENDBRANCH   4   6
ENDBRANCH   2   4
TORSDOF 12
ENDMDL
MODEL      248
REMARK 921   NORMALIZED FREE ENERGY PREDICTED BY IDOCK:   -3.28 KCAL/MOL
REMARK 922        TOTAL FREE ENERGY PREDICTED BY IDOCK:   -6.60 KCAL/MOL
REMARK 923 INTER-LIGAND FREE ENERGY PREDICTED BY IDOCK:   -5.11 KCAL/MOL
REMARK 924 INTRA-LIGAND FREE ENERGY PREDICTED BY IDOCK:   -1.49 KCAL/MOL
REMARK 927      BINDING AFFINITY PREDICTED BY RF-SCORE:    0.00 PKD
ROOT
HETATM    1  C   UNL     1     -12.348  12.678  64.199  1.00  0.00    -0.518 C  
HETATM    2  C   UNL     1     -10.870  12.628  64.597  1.00  0.00    -0.319 C  
HETATM    3  C   UNL     1     -10.432  14.004  65.105  1.00  0.00    -0.415 C  
ENDROOT
BRANCH   2   4
HETATM    4  N   UNL     1     -10.699  11.593  65.618  1.00  0.00    -0.273 NA 
HETATM    5  H   UNL     1     -11.037  10.692  65.279  1.00  0.00     0.000 HD 
BRANCH   4   6
HETATM    6  C   UNL     1      -9.320  11.480  66.111  1.00  0.00    -0.215 C  
BRANCH   6   7
HETATM    7  C   UNL     1      -8.518  10.515  65.219  1.00  0.00    -0.171 C  
HETATM    8  O   UNL     1      -7.174  11.002  65.075  1.00  0.00    -0.333 OA 
HETATM    9  H   UNL     1      -6.678  10.406  64.524  1.00  0.00     0.000 HD 
BRANCH   7  10
HETATM   10  C   UNL     1      -8.493   9.095  65.795  1.00  0.00    -0.141 C  
BRANCH  10  11
HETATM   11  O   UNL     1      -9.841   8.640  65.989  1.00  0.00    -0.235 OA 
BRANCH  11  12
HETATM   12  C   UNL     1     -10.049   7.938  67.147  1.00  0.00    -0.258 A  
HETATM   13  C   UNL     1     -10.927   6.861  67.276  1.00  0.00    -0.406 A  
HETATM   14  C   UNL     1     -11.071   6.218  68.507  1.00  0.00    -0.397 A  
HETATM   15  C   UNL     1     -10.335   6.631  69.626  1.00  0.00    -0.226 A  
HETATM   16  C   UNL     1      -9.432   7.688  69.482  1.00  0.00    -0.152 A  
HETATM   17  C   UNL     1      -9.284   8.332  68.245  1.00  0.00    -0.135 A  
BRANCH  15  18
HETATM   18  C   UNL     1     -10.539   5.949  70.953  1.00  0.00    -0.256 C  
BRANCH  18  19
HETATM   19  O   UNL     1     -10.276   4.558  70.793  1.00  0.00    -0.194 OA 
BRANCH  19  20
HETATM   20  C   UNL     1      -8.969   4.205  71.241  1.00  0.00    -0.114 C  
BRANCH  20  21
HETATM   21  C   UNL     1      -8.499   2.998  70.437  1.00  0.00    -0.060 C  
BRANCH  21  22
HETATM   22  O   UNL     1      -8.803   3.180  69.056  1.00  0.00    -0.085 OA 
BRANCH  22  23
HETATM   23  C   UNL     1      -7.862   4.015  68.370  1.00  0.00    -0.069 C  
HETATM   24  C   UNL     1      -6.465   3.399  68.353  1.00  0.00    -0.037 C  
HETATM   25  C   UNL     1      -8.371   4.188  66.943  1.00  0.00    -0.100 C  
ENDBRANCH  22  23
ENDBRANCH  21  22
ENDBRANCH  20  21
ENDBRANCH  19  20
ENDBRANCH  18  19
ENDBRANCH  15  18
ENDBRANCH  11  12
ENDBRANCH  10  11
ENDBRANCH   7  10
ENDBRANCH   6   7
ENDBRANCH   4   6
ENDBRANCH   2   4
TORSDOF 12
ENDMDL
MODEL      249
REMARK 921   NORMALIZED FREE ENERGY PREDICTED BY IDOCK:   -3.27 KCAL/MOL
REMARK 922        TOTAL FREE ENERGY PREDICTED BY IDOCK:   -6.58 KCAL/MOL
REMARK 923 INTER-LIGAND FREE ENERGY PREDICTED BY IDOCK:   -5.34 KCAL/MOL
REMARK 924 INTRA-LIGAND FREE ENERGY PREDICTED BY IDOCK:   -1.24 KCAL/MOL
REMARK 927      BINDING AFFINITY PREDICTED BY RF-SCORE:    0.00 PKD
ROOT
HETATM    1  C   UNL     1     -10.121   8.059  66.964  1.00  0.00    -0.350 C  
HETATM    2  C   UNL     1      -8.685   8.191  66.451  1.00  0.00    -0.149 C  
HETATM    3  C   UNL     1      -8.248   6.871  65.811  1.00  0.00    -0.132 C  
ENDROOT
BRANCH   2   4
HETATM    4  N   UNL     1      -8.633   9.300  65.497  1.00  0.00    -0.142 NA 
HETATM    5  H   UNL     1      -7.863   9.176  64.840  1.00  0.00     0.000 HD 
BRANCH   4   6
HETATM    6  C   UNL     1      -9.898   9.517  64.782  1.00  0.00     0.236 C  
BRANCH   6   7
HETATM    7  C   UNL     1      -9.964  10.960  64.250  1.00  0.00    -0.333 C  
HETATM    8  O   UNL     1     -11.334  11.327  64.029  1.00  0.00    -0.405 OA 
HETATM    9  H   UNL     1     -11.375  12.218  63.700  1.00  0.00     0.000 HD 
BRANCH   7  10
HETATM   10  C   UNL     1      -9.313  11.953  65.217  1.00  0.00     0.003 C  
BRANCH  10  11
HETATM   11  O   UNL     1     -10.322  12.505  66.079  1.00  0.00    -0.247 OA 
BRANCH  11  12
HETATM   12  C   UNL     1     -10.450  11.876  67.289  1.00  0.00    -0.222 A  
HETATM   13  C   UNL     1      -9.384  11.491  68.101  1.00  0.00    -0.185 A  
HETATM   14  C   UNL     1      -9.624  10.846  69.316  1.00  0.00    -0.067 A  
HETATM   15  C   UNL     1     -10.932  10.584  69.745  1.00  0.00    -0.350 A  
HETATM   16  C   UNL     1     -11.998  11.002  68.943  1.00  0.00    -0.332 A  
HETATM   17  C   UNL     1     -11.756  11.653  67.725  1.00  0.00    -0.315 A  
BRANCH  15  18
HETATM   18  C   UNL     1     -11.165   9.849  71.040  1.00  0.00    -0.364 C  
BRANCH  18  19
HETATM   19  O   UNL     1     -10.910   8.464  70.826  1.00  0.00    -0.215 OA 
BRANCH  19  20
HETATM   20  C   UNL     1     -11.986   7.644  71.275  1.00  0.00    -0.306 C  
BRANCH  20  21
HETATM   21  C   UNL     1     -11.446   6.680  72.325  1.00  0.00    -0.283 C  
BRANCH  21  22
HETATM   22  O   UNL     1     -11.002   7.402  73.472  1.00  0.00    -0.344 OA 
BRANCH  22  23
HETATM   23  C   UNL     1     -10.110   6.653  74.307  1.00  0.00    -0.351 C  
HETATM   24  C   UNL     1     -10.171   5.158  74.004  1.00  0.00    -0.270 C  
HETATM   25  C   UNL     1      -8.702   7.179  74.044  1.00  0.00    -0.220 C  
ENDBRANCH  22  23
ENDBRANCH  21  22
ENDBRANCH  20  21
ENDBRANCH  19  20
ENDBRANCH  18  19
ENDBRANCH  15  18
ENDBRANCH  11  12
ENDBRANCH  10  11
ENDBRANCH   7  10
ENDBRANCH   6   7
ENDBRANCH   4   6
ENDBRANCH   2   4
TORSDOF 12
ENDMDL
MODEL      250
REMARK 921   NORMALIZED FREE ENERGY PREDICTED BY IDOCK:   -3.27 KCAL/MOL
REMARK 922        TOTAL FREE ENERGY PREDICTED BY IDOCK:   -6.58 KCAL/MOL
REMARK 923 INTER-LIGAND FREE ENERGY PREDICTED BY IDOCK:   -5.76 KCAL/MOL
REMARK 924 INTRA-LIGAND FREE ENERGY PREDICTED BY IDOCK:   -0.82 KCAL/MOL
REMARK 927      BINDING AFFINITY PREDICTED BY RF-SCORE:    0.00 PKD
ROOT
HETATM    1  C   UNL     1      -8.017  16.452  67.018  1.00  0.00    -0.240 C  
HETATM    2  C   UNL     1      -8.483  15.023  66.724  1.00  0.00    -0.204 C  
HETATM    3  C   UNL     1      -9.177  14.449  67.961  1.00  0.00    -0.193 C  
ENDROOT
BRANCH   2   4
HETATM    4  N   UNL     1      -9.377  15.057  65.566  1.00  0.00    -0.403 NA 
HETATM    5  H   UNL     1      -8.985  14.522  64.791  1.00  0.00     0.000 HD 
BRANCH   4   6
HETATM    6  C   UNL     1     -10.744  14.608  65.868  1.00  0.00    -0.309 C  
BRANCH   6   7
HETATM    7  C   UNL     1     -11.165  13.499  64.887  1.00  0.00    -0.342 C  
HETATM    8  O   UNL     1     -10.037  13.115  64.085  1.00  0.00    -0.600 OA 
HETATM    9  H   UNL     1     -10.297  12.430  63.480  1.00  0.00     0.000 HD 
BRANCH   7  10
HETATM   10  C   UNL     1     -11.720  12.273  65.618  1.00  0.00    -0.382 C  
BRANCH  10  11
HETATM   11  O   UNL     1     -10.640  11.375  65.924  1.00  0.00    -0.255 OA 
BRANCH  11  12
HETATM   12  C   UNL     1     -10.699  10.809  67.169  1.00  0.00    -0.272 A  
HETATM   13  C   UNL     1     -11.219  11.434  68.302  1.00  0.00    -0.326 A  
HETATM   14  C   UNL     1     -11.224  10.769  69.531  1.00  0.00    -0.342 A  
HETATM   15  C   UNL     1     -10.719   9.467  69.646  1.00  0.00    -0.251 A  
HETATM   16  C   UNL     1     -10.229   8.833  68.500  1.00  0.00    -0.220 A  
HETATM   17  C   UNL     1     -10.228   9.499  67.267  1.00  0.00    -0.295 A  
BRANCH  15  18
HETATM   18  C   UNL     1     -10.695   8.787  70.990  1.00  0.00    -0.229 C  
BRANCH  18  19
HETATM   19  O   UNL     1      -9.620   7.852  71.005  1.00  0.00    -0.159 OA 
BRANCH  19  20
HETATM   20  C   UNL     1      -9.886   6.742  71.860  1.00  0.00    -0.165 C  
BRANCH  20  21
HETATM   21  C   UNL     1      -8.923   5.618  71.497  1.00  0.00    -0.140 C  
BRANCH  21  22
HETATM   22  O   UNL     1      -9.643   4.405  71.283  1.00  0.00    -0.150 OA 
BRANCH  22  23
HETATM   23  C   UNL     1      -9.085   3.281  71.977  1.00  0.00    -0.103 C  
HETATM   24  C   UNL     1      -8.681   2.167  71.016  1.00  0.00    -0.111 C  
HETATM   25  C   UNL     1      -7.860   3.785  72.733  1.00  0.00    -0.074 C  
ENDBRANCH  22  23
ENDBRANCH  21  22
ENDBRANCH  20  21
ENDBRANCH  19  20
ENDBRANCH  18  19
ENDBRANCH  15  18
ENDBRANCH  11  12
ENDBRANCH  10  11
ENDBRANCH   7  10
ENDBRANCH   6   7
ENDBRANCH   4   6
ENDBRANCH   2   4
TORSDOF 12
ENDMDL
MODEL      251
REMARK 921   NORMALIZED FREE ENERGY PREDICTED BY IDOCK:   -3.26 KCAL/MOL
REMARK 922        TOTAL FREE ENERGY PREDICTED BY IDOCK:   -6.57 KCAL/MOL
REMARK 923 INTER-LIGAND FREE ENERGY PREDICTED BY IDOCK:   -5.71 KCAL/MOL
REMARK 924 INTRA-LIGAND FREE ENERGY PREDICTED BY IDOCK:   -0.86 KCAL/MOL
REMARK 927      BINDING AFFINITY PREDICTED BY RF-SCORE:    0.00 PKD
ROOT
HETATM    1  C   UNL     1     -11.569  15.458  72.403  1.00  0.00    -0.545 C  
HETATM    2  C   UNL     1     -12.931  14.908  71.972  1.00  0.00    -0.333 C  
HETATM    3  C   UNL     1     -14.031  15.538  72.830  1.00  0.00    -0.545 C  
ENDROOT
BRANCH   2   4
HETATM    4  N   UNL     1     -13.119  15.199  70.549  1.00  0.00    -0.646 NA 
HETATM    5  H   UNL     1     -14.052  15.572  70.377  1.00  0.00     0.000 HD 
BRANCH   4   6
HETATM    6  C   UNL     1     -12.092  16.092  69.994  1.00  0.00    -0.120 C  
BRANCH   6   7
HETATM    7  C   UNL     1     -11.895  15.803  68.494  1.00  0.00    -0.221 C  
HETATM    8  O   UNL     1     -10.592  16.249  68.087  1.00  0.00    -0.281 OA 
HETATM    9  H   UNL     1     -10.471  16.071  67.162  1.00  0.00     0.000 HD 
BRANCH   7  10
HETATM   10  C   UNL     1     -12.052  14.312  68.177  1.00  0.00    -0.240 C  
BRANCH  10  11
HETATM   11  O   UNL     1     -10.996  13.578  68.817  1.00  0.00    -0.248 OA 
BRANCH  11  12
HETATM   12  C   UNL     1     -10.606  12.442  68.159  1.00  0.00    -0.216 A  
HETATM   13  C   UNL     1      -9.986  12.420  66.910  1.00  0.00    -0.223 A  
HETATM   14  C   UNL     1      -9.635  11.203  66.321  1.00  0.00    -0.234 A  
HETATM   15  C   UNL     1      -9.888   9.989  66.974  1.00  0.00    -0.238 A  
HETATM   16  C   UNL     1     -10.479  10.018  68.241  1.00  0.00    -0.246 A  
HETATM   17  C   UNL     1     -10.827  11.240  68.833  1.00  0.00    -0.253 A  
BRANCH  15  18
HETATM   18  C   UNL     1      -9.539   8.687  66.301  1.00  0.00    -0.252 C  
BRANCH  18  19
HETATM   19  O   UNL     1     -10.648   7.802  66.426  1.00  0.00    -0.021 OA 
BRANCH  19  20
HETATM   20  C   UNL     1     -10.319   6.632  67.172  1.00  0.00    -0.252 C  
BRANCH  20  21
HETATM   21  C   UNL     1      -9.033   6.047  66.600  1.00  0.00    -0.128 C  
BRANCH  21  22
HETATM   22  O   UNL     1      -9.322   5.268  65.441  1.00  0.00    -0.133 OA 
BRANCH  22  23
HETATM   23  C   UNL     1     -10.246   4.200  65.688  1.00  0.00    -0.139 C  
HETATM   24  C   UNL     1     -10.785   3.605  64.390  1.00  0.00    -0.127 C  
HETATM   25  C   UNL     1      -9.496   3.132  66.477  1.00  0.00    -0.067 C  
ENDBRANCH  22  23
ENDBRANCH  21  22
ENDBRANCH  20  21
ENDBRANCH  19  20
ENDBRANCH  18  19
ENDBRANCH  15  18
ENDBRANCH  11  12
ENDBRANCH  10  11
ENDBRANCH   7  10
ENDBRANCH   6   7
ENDBRANCH   4   6
ENDBRANCH   2   4
TORSDOF 12
ENDMDL
MODEL      252
REMARK 921   NORMALIZED FREE ENERGY PREDICTED BY IDOCK:   -3.25 KCAL/MOL
REMARK 922        TOTAL FREE ENERGY PREDICTED BY IDOCK:   -6.55 KCAL/MOL
REMARK 923 INTER-LIGAND FREE ENERGY PREDICTED BY IDOCK:   -5.77 KCAL/MOL
REMARK 924 INTRA-LIGAND FREE ENERGY PREDICTED BY IDOCK:   -0.78 KCAL/MOL
REMARK 927      BINDING AFFINITY PREDICTED BY RF-SCORE:    0.00 PKD
ROOT
HETATM    1  C   UNL     1     -10.476  10.759  65.913  1.00  0.00    -0.270 C  
HETATM    2  C   UNL     1      -9.473   9.937  65.100  1.00  0.00    -0.275 C  
HETATM    3  C   UNL     1      -8.063  10.490  65.320  1.00  0.00    -0.131 C  
ENDROOT
BRANCH   2   4
HETATM    4  N   UNL     1      -9.578   8.537  65.515  1.00  0.00    -0.415 NA 
HETATM    5  H   UNL     1     -10.420   8.109  65.132  1.00  0.00     0.000 HD 
BRANCH   4   6
HETATM    6  C   UNL     1      -8.391   7.737  65.182  1.00  0.00    -0.106 C  
BRANCH   6   7
HETATM    7  C   UNL     1      -8.414   6.409  65.959  1.00  0.00    -0.144 C  
HETATM    8  O   UNL     1      -7.448   5.507  65.396  1.00  0.00    -0.071 OA 
HETATM    9  H   UNL     1      -7.462   4.687  65.876  1.00  0.00     0.000 HD 
BRANCH   7  10
HETATM   10  C   UNL     1      -8.118   6.616  67.449  1.00  0.00    -0.121 C  
BRANCH  10  11
HETATM   11  O   UNL     1      -9.048   5.845  68.227  1.00  0.00    -0.119 OA 
BRANCH  11  12
HETATM   12  C   UNL     1      -9.843   6.580  69.066  1.00  0.00    -0.143 A  
HETATM   13  C   UNL     1     -11.144   6.235  69.430  1.00  0.00    -0.477 A  
HETATM   14  C   UNL     1     -11.875   7.061  70.288  1.00  0.00    -0.243 A  
HETATM   15  C   UNL     1     -11.315   8.238  70.803  1.00  0.00    -0.285 A  
HETATM   16  C   UNL     1      -9.999   8.562  70.461  1.00  0.00    -0.214 A  
HETATM   17  C   UNL     1      -9.264   7.730  69.603  1.00  0.00    -0.153 A  
BRANCH  15  18
HETATM   18  C   UNL     1     -12.137   9.135  71.691  1.00  0.00    -0.362 C  
BRANCH  18  19
HETATM   19  O   UNL     1     -11.833  10.489  71.372  1.00  0.00    -0.298 OA 
BRANCH  19  20
HETATM   20  C   UNL     1     -12.737  11.030  70.410  1.00  0.00    -0.218 C  
BRANCH  20  21
HETATM   21  C   UNL     1     -12.437  12.517  70.257  1.00  0.00    -0.084 C  
BRANCH  21  22
HETATM   22  O   UNL     1     -12.295  13.123  71.540  1.00  0.00    -0.178 OA 
BRANCH  22  23
HETATM   23  C   UNL     1     -12.833  14.450  71.606  1.00  0.00    -0.343 C  
HETATM   24  C   UNL     1     -14.307  14.445  72.001  1.00  0.00    -0.636 C  
HETATM   25  C   UNL     1     -12.019  15.213  72.646  1.00  0.00    -0.486 C  
ENDBRANCH  22  23
ENDBRANCH  21  22
ENDBRANCH  20  21
ENDBRANCH  19  20
ENDBRANCH  18  19
ENDBRANCH  15  18
ENDBRANCH  11  12
ENDBRANCH  10  11
ENDBRANCH   7  10
ENDBRANCH   6   7
ENDBRANCH   4   6
ENDBRANCH   2   4
TORSDOF 12
ENDMDL
MODEL      253
REMARK 921   NORMALIZED FREE ENERGY PREDICTED BY IDOCK:   -3.25 KCAL/MOL
REMARK 922        TOTAL FREE ENERGY PREDICTED BY IDOCK:   -6.55 KCAL/MOL
REMARK 923 INTER-LIGAND FREE ENERGY PREDICTED BY IDOCK:   -5.01 KCAL/MOL
REMARK 924 INTRA-LIGAND FREE ENERGY PREDICTED BY IDOCK:   -1.54 KCAL/MOL
REMARK 927      BINDING AFFINITY PREDICTED BY RF-SCORE:    0.00 PKD
ROOT
HETATM    1  C   UNL     1      -6.582   7.443  65.140  1.00  0.00    -0.044 C  
HETATM    2  C   UNL     1      -7.712   7.523  64.110  1.00  0.00    -0.132 C  
HETATM    3  C   UNL     1      -7.150   7.247  62.713  1.00  0.00    -0.072 C  
ENDROOT
BRANCH   2   4
HETATM    4  N   UNL     1      -8.746   6.555  64.480  1.00  0.00    -0.311 NA 
HETATM    5  H   UNL     1      -9.636   6.792  64.043  1.00  0.00     0.000 HD 
BRANCH   4   6
HETATM    6  C   UNL     1      -8.376   5.163  64.188  1.00  0.00    -0.137 C  
BRANCH   6   7
HETATM    7  C   UNL     1      -9.623   4.262  64.244  1.00  0.00    -0.123 C  
HETATM    8  O   UNL     1      -9.241   2.899  64.002  1.00  0.00    -0.103 OA 
HETATM    9  H   UNL     1     -10.011   2.343  64.037  1.00  0.00     0.000 HD 
BRANCH   7  10
HETATM   10  C   UNL     1     -10.339   4.365  65.595  1.00  0.00    -0.225 C  
BRANCH  10  11
HETATM   11  O   UNL     1      -9.383   4.703  66.613  1.00  0.00    -0.131 OA 
BRANCH  11  12
HETATM   12  C   UNL     1      -9.928   5.087  67.809  1.00  0.00    -0.147 A  
HETATM   13  C   UNL     1     -10.797   6.166  67.976  1.00  0.00    -0.398 A  
HETATM   14  C   UNL     1     -11.291   6.479  69.243  1.00  0.00    -0.359 A  
HETATM   15  C   UNL     1     -10.935   5.715  70.363  1.00  0.00    -0.278 A  
HETATM   16  C   UNL     1     -10.091   4.615  70.185  1.00  0.00    -0.283 A  
HETATM   17  C   UNL     1      -9.598   4.299  68.911  1.00  0.00    -0.227 A  
BRANCH  15  18
HETATM   18  C   UNL     1     -11.447   6.098  71.727  1.00  0.00    -0.285 C  
BRANCH  18  19
HETATM   19  O   UNL     1     -10.354   6.584  72.501  1.00  0.00    -0.188 OA 
BRANCH  19  20
HETATM   20  C   UNL     1     -10.553   7.930  72.925  1.00  0.00    -0.368 C  
BRANCH  20  21
HETATM   21  C   UNL     1     -10.212   8.854  71.762  1.00  0.00    -0.344 C  
BRANCH  21  22
HETATM   22  O   UNL     1      -8.809   9.111  71.735  1.00  0.00    -0.341 OA 
BRANCH  22  23
HETATM   23  C   UNL     1      -8.255   9.115  70.413  1.00  0.00    -0.171 C  
HETATM   24  C   UNL     1      -7.916   7.706  69.936  1.00  0.00    -0.115 C  
HETATM   25  C   UNL     1      -9.298   9.739  69.492  1.00  0.00    -0.226 C  
ENDBRANCH  22  23
ENDBRANCH  21  22
ENDBRANCH  20  21
ENDBRANCH  19  20
ENDBRANCH  18  19
ENDBRANCH  15  18
ENDBRANCH  11  12
ENDBRANCH  10  11
ENDBRANCH   7  10
ENDBRANCH   6   7
ENDBRANCH   4   6
ENDBRANCH   2   4
TORSDOF 12
ENDMDL
MODEL      254
REMARK 921   NORMALIZED FREE ENERGY PREDICTED BY IDOCK:   -3.25 KCAL/MOL
REMARK 922        TOTAL FREE ENERGY PREDICTED BY IDOCK:   -6.54 KCAL/MOL
REMARK 923 INTER-LIGAND FREE ENERGY PREDICTED BY IDOCK:   -5.71 KCAL/MOL
REMARK 924 INTRA-LIGAND FREE ENERGY PREDICTED BY IDOCK:   -0.83 KCAL/MOL
REMARK 927      BINDING AFFINITY PREDICTED BY RF-SCORE:    0.00 PKD
ROOT
HETATM    1  C   UNL     1     -11.342  15.530  68.288  1.00  0.00    -0.360 C  
HETATM    2  C   UNL     1     -11.279  14.177  67.576  1.00  0.00    -0.306 C  
HETATM    3  C   UNL     1     -11.838  13.089  68.497  1.00  0.00    -0.360 C  
ENDROOT
BRANCH   2   4
HETATM    4  N   UNL     1     -12.039  14.275  66.328  1.00  0.00    -0.424 NA 
HETATM    5  H   UNL     1     -11.532  14.831  65.639  1.00  0.00     0.000 HD 
BRANCH   4   6
HETATM    6  C   UNL     1     -12.415  12.969  65.768  1.00  0.00    -0.329 C  
BRANCH   6   7
HETATM    7  C   UNL     1     -11.724  12.758  64.409  1.00  0.00    -0.368 C  
HETATM    8  O   UNL     1     -11.075  13.976  64.007  1.00  0.00    -0.570 OA 
HETATM    9  H   UNL     1     -10.649  13.846  63.168  1.00  0.00     0.000 HD 
BRANCH   7  10
HETATM   10  C   UNL     1     -10.698  11.622  64.463  1.00  0.00    -0.322 C  
BRANCH  10  11
HETATM   11  O   UNL     1     -10.162  11.530  65.793  1.00  0.00    -0.231 OA 
BRANCH  11  12
HETATM   12  C   UNL     1      -9.907  10.255  66.222  1.00  0.00    -0.219 A  
HETATM   13  C   UNL     1      -8.950   9.406  65.667  1.00  0.00    -0.236 A  
HETATM   14  C   UNL     1      -8.775   8.117  66.175  1.00  0.00    -0.179 A  
HETATM   15  C   UNL     1      -9.544   7.659  67.254  1.00  0.00    -0.201 A  
HETATM   16  C   UNL     1     -10.478   8.525  67.829  1.00  0.00    -0.287 A  
HETATM   17  C   UNL     1     -10.651   9.820  67.320  1.00  0.00    -0.320 A  
BRANCH  15  18
HETATM   18  C   UNL     1      -9.366   6.250  67.758  1.00  0.00    -0.113 C  
BRANCH  18  19
HETATM   19  O   UNL     1     -10.488   5.476  67.342  1.00  0.00    -0.218 OA 
BRANCH  19  20
HETATM   20  C   UNL     1     -10.098   4.219  66.793  1.00  0.00    -0.079 C  
BRANCH  20  21
HETATM   21  C   UNL     1     -10.349   4.257  65.290  1.00  0.00    -0.201 C  
BRANCH  21  22
HETATM   22  O   UNL     1      -9.506   3.315  64.629  1.00  0.00    -0.140 OA 
BRANCH  22  23
HETATM   23  C   UNL     1      -8.285   3.887  64.141  1.00  0.00    -0.091 C  
HETATM   24  C   UNL     1      -8.510   5.268  63.533  1.00  0.00    -0.087 C  
HETATM   25  C   UNL     1      -7.332   3.990  65.327  1.00  0.00    -0.072 C  
ENDBRANCH  22  23
ENDBRANCH  21  22
ENDBRANCH  20  21
ENDBRANCH  19  20
ENDBRANCH  18  19
ENDBRANCH  15  18
ENDBRANCH  11  12
ENDBRANCH  10  11
ENDBRANCH   7  10
ENDBRANCH   6   7
ENDBRANCH   4   6
ENDBRANCH   2   4
TORSDOF 12
ENDMDL
MODEL      255
REMARK 921   NORMALIZED FREE ENERGY PREDICTED BY IDOCK:   -3.24 KCAL/MOL
REMARK 922        TOTAL FREE ENERGY PREDICTED BY IDOCK:   -6.53 KCAL/MOL
REMARK 923 INTER-LIGAND FREE ENERGY PREDICTED BY IDOCK:   -5.73 KCAL/MOL
REMARK 924 INTRA-LIGAND FREE ENERGY PREDICTED BY IDOCK:   -0.80 KCAL/MOL
REMARK 927      BINDING AFFINITY PREDICTED BY RF-SCORE:    0.00 PKD
ROOT
HETATM    1  C   UNL     1      -7.159   8.524  64.927  1.00  0.00    -0.080 C  
HETATM    2  C   UNL     1      -8.028   7.304  65.245  1.00  0.00    -0.127 C  
HETATM    3  C   UNL     1      -7.407   6.057  64.611  1.00  0.00    -0.071 C  
ENDROOT
BRANCH   2   4
HETATM    4  N   UNL     1      -8.135   7.179  66.699  1.00  0.00    -0.107 NA 
HETATM    5  H   UNL     1      -8.044   8.090  67.148  1.00  0.00     0.000 HD 
BRANCH   4   6
HETATM    6  C   UNL     1      -9.362   6.501  67.140  1.00  0.00    -0.126 C  
BRANCH   6   7
HETATM    7  C   UNL     1     -10.435   7.541  67.511  1.00  0.00    -0.271 C  
HETATM    8  O   UNL     1     -11.400   6.940  68.390  1.00  0.00    -0.517 OA 
HETATM    9  H   UNL     1     -12.062   7.582  68.620  1.00  0.00     0.000 HD 
BRANCH   7  10
HETATM   10  C   UNL     1      -9.824   8.775  68.182  1.00  0.00    -0.168 C  
BRANCH  10  11
HETATM   11  O   UNL     1     -10.876   9.668  68.580  1.00  0.00    -0.215 OA 
BRANCH  11  12
HETATM   12  C   UNL     1     -10.953  10.825  67.852  1.00  0.00    -0.289 A  
HETATM   13  C   UNL     1     -10.426  10.995  66.571  1.00  0.00    -0.309 A  
HETATM   14  C   UNL     1     -10.551  12.223  65.917  1.00  0.00    -0.290 A  
HETATM   15  C   UNL     1     -11.214  13.297  66.526  1.00  0.00    -0.329 A  
HETATM   16  C   UNL     1     -11.769  13.112  67.796  1.00  0.00    -0.401 A  
HETATM   17  C   UNL     1     -11.646  11.878  68.450  1.00  0.00    -0.376 A  
BRANCH  15  18
HETATM   18  C   UNL     1     -11.299  14.625  65.819  1.00  0.00    -0.340 C  
BRANCH  18  19
HETATM   19  O   UNL     1     -10.951  15.652  66.742  1.00  0.00    -0.310 OA 
BRANCH  19  20
HETATM   20  C   UNL     1     -10.246  16.721  66.114  1.00  0.00    -0.351 C  
BRANCH  20  21
HETATM   21  C   UNL     1      -8.764  16.366  66.088  1.00  0.00    -0.312 C  
BRANCH  21  22
HETATM   22  O   UNL     1      -8.074  17.065  67.122  1.00  0.00    -0.178 OA 
BRANCH  22  23
HETATM   23  C   UNL     1      -7.020  16.300  67.722  1.00  0.00    -0.136 C  
HETATM   24  C   UNL     1      -7.197  14.804  67.480  1.00  0.00    -0.222 C  
HETATM   25  C   UNL     1      -5.711  16.776  67.101  1.00  0.00    -0.202 C  
ENDBRANCH  22  23
ENDBRANCH  21  22
ENDBRANCH  20  21
ENDBRANCH  19  20
ENDBRANCH  18  19
ENDBRANCH  15  18
ENDBRANCH  11  12
ENDBRANCH  10  11
ENDBRANCH   7  10
ENDBRANCH   6   7
ENDBRANCH   4   6
ENDBRANCH   2   4
TORSDOF 12
ENDMDL
MODEL      256
REMARK 921   NORMALIZED FREE ENERGY PREDICTED BY IDOCK:   -3.21 KCAL/MOL
REMARK 922        TOTAL FREE ENERGY PREDICTED BY IDOCK:   -6.49 KCAL/MOL
REMARK 923 INTER-LIGAND FREE ENERGY PREDICTED BY IDOCK:   -5.42 KCAL/MOL
REMARK 924 INTRA-LIGAND FREE ENERGY PREDICTED BY IDOCK:   -1.07 KCAL/MOL
REMARK 927      BINDING AFFINITY PREDICTED BY RF-SCORE:    0.00 PKD
ROOT
HETATM    1  C   UNL     1     -12.285  14.843  64.027  1.00  0.00    -0.151 C  
HETATM    2  C   UNL     1     -11.053  14.506  64.871  1.00  0.00    -0.394 C  
HETATM    3  C   UNL     1     -11.499  14.020  66.253  1.00  0.00    -0.358 C  
ENDROOT
BRANCH   2   4
HETATM    4  N   UNL     1     -10.272  13.489  64.165  1.00  0.00    -0.758 NA 
HETATM    5  H   UNL     1      -9.337  13.837  63.950  1.00  0.00     0.000 HD 
BRANCH   4   6
HETATM    6  C   UNL     1     -10.199  12.207  64.878  1.00  0.00    -0.280 C  
BRANCH   6   7
HETATM    7  C   UNL     1      -9.937  11.062  63.881  1.00  0.00    -0.341 C  
HETATM    8  O   UNL     1      -9.131  11.547  62.796  1.00  0.00    -0.492 OA 
HETATM    9  H   UNL     1      -8.970  10.841  62.181  1.00  0.00     0.000 HD 
BRANCH   7  10
HETATM   10  C   UNL     1      -9.240   9.874  64.551  1.00  0.00    -0.261 C  
BRANCH  10  11
HETATM   11  O   UNL     1      -9.008  10.179  65.935  1.00  0.00    -0.148 OA 
BRANCH  11  12
HETATM   12  C   UNL     1      -9.076   9.103  66.780  1.00  0.00    -0.144 A  
HETATM   13  C   UNL     1      -7.987   8.552  67.454  1.00  0.00    -0.102 A  
HETATM   14  C   UNL     1      -8.164   7.446  68.288  1.00  0.00    -0.125 A  
HETATM   15  C   UNL     1      -9.433   6.879  68.471  1.00  0.00    -0.133 A  
HETATM   16  C   UNL     1     -10.527   7.456  67.819  1.00  0.00    -0.298 A  
HETATM   17  C   UNL     1     -10.349   8.568  66.985  1.00  0.00    -0.379 A  
BRANCH  15  18
HETATM   18  C   UNL     1      -9.592   5.660  69.342  1.00  0.00    -0.143 C  
BRANCH  18  19
HETATM   19  O   UNL     1      -8.808   4.605  68.792  1.00  0.00    -0.095 OA 
BRANCH  19  20
HETATM   20  C   UNL     1      -9.608   3.493  68.397  1.00  0.00    -0.086 C  
BRANCH  20  21
HETATM   21  C   UNL     1      -9.182   3.074  66.994  1.00  0.00    -0.163 C  
BRANCH  21  22
HETATM   22  O   UNL     1      -9.594   4.054  66.043  1.00  0.00    -0.174 OA 
BRANCH  22  23
HETATM   23  C   UNL     1      -8.772   4.091  64.870  1.00  0.00    -0.118 C  
HETATM   24  C   UNL     1      -9.588   3.870  63.599  1.00  0.00    -0.155 C  
HETATM   25  C   UNL     1      -8.109   5.464  64.829  1.00  0.00    -0.123 C  
ENDBRANCH  22  23
ENDBRANCH  21  22
ENDBRANCH  20  21
ENDBRANCH  19  20
ENDBRANCH  18  19
ENDBRANCH  15  18
ENDBRANCH  11  12
ENDBRANCH  10  11
ENDBRANCH   7  10
ENDBRANCH   6   7
ENDBRANCH   4   6
ENDBRANCH   2   4
TORSDOF 12
ENDMDL
MODEL      257
REMARK 921   NORMALIZED FREE ENERGY PREDICTED BY IDOCK:   -3.17 KCAL/MOL
REMARK 922        TOTAL FREE ENERGY PREDICTED BY IDOCK:   -6.42 KCAL/MOL
REMARK 923 INTER-LIGAND FREE ENERGY PREDICTED BY IDOCK:   -5.59 KCAL/MOL
REMARK 924 INTRA-LIGAND FREE ENERGY PREDICTED BY IDOCK:   -0.83 KCAL/MOL
REMARK 927      BINDING AFFINITY PREDICTED BY RF-SCORE:    0.00 PKD
ROOT
HETATM    1  C   UNL     1      -8.792  10.289  63.680  1.00  0.00    -0.233 C  
HETATM    2  C   UNL     1      -8.803   9.737  65.108  1.00  0.00    -0.181 C  
HETATM    3  C   UNL     1      -9.942  10.387  65.898  1.00  0.00    -0.317 C  
ENDROOT
BRANCH   2   4
HETATM    4  N   UNL     1      -8.950   8.282  65.041  1.00  0.00    -0.398 NA 
HETATM    5  H   UNL     1      -8.038   7.830  64.972  1.00  0.00     0.000 HD 
BRANCH   4   6
HETATM    6  C   UNL     1      -9.726   7.720  66.155  1.00  0.00     0.014 C  
BRANCH   6   7
HETATM    7  C   UNL     1      -9.366   6.237  66.354  1.00  0.00    -0.151 C  
HETATM    8  O   UNL     1      -9.272   5.590  65.075  1.00  0.00    -0.358 OA 
HETATM    9  H   UNL     1      -9.050   4.675  65.198  1.00  0.00     0.000 HD 
BRANCH   7  10
HETATM   10  C   UNL     1      -8.047   6.069  67.115  1.00  0.00    -0.106 C  
BRANCH  10  11
HETATM   11  O   UNL     1      -8.239   5.146  68.199  1.00  0.00    -0.097 OA 
BRANCH  11  12
HETATM   12  C   UNL     1      -8.989   5.629  69.238  1.00  0.00    -0.113 A  
HETATM   13  C   UNL     1     -10.160   5.041  69.714  1.00  0.00    -0.337 A  
HETATM   14  C   UNL     1     -10.856   5.620  70.777  1.00  0.00    -0.294 A  
HETATM   15  C   UNL     1     -10.388   6.791  71.390  1.00  0.00    -0.223 A  
HETATM   16  C   UNL     1      -9.195   7.359  70.931  1.00  0.00    -0.154 A  
HETATM   17  C   UNL     1      -8.496   6.774  69.866  1.00  0.00    -0.140 A  
BRANCH  15  18
HETATM   18  C   UNL     1     -11.177   7.422  72.507  1.00  0.00    -0.317 C  
BRANCH  18  19
HETATM   19  O   UNL     1     -11.661   8.686  72.062  1.00  0.00    -0.323 OA 
BRANCH  19  20
HETATM   20  C   UNL     1     -12.961   8.973  72.573  1.00  0.00    -0.361 C  
BRANCH  20  21
HETATM   21  C   UNL     1     -13.483  10.223  71.873  1.00  0.00    -0.302 C  
BRANCH  21  22
HETATM   22  O   UNL     1     -12.544  10.665  70.894  1.00  0.00    -0.344 OA 
BRANCH  22  23
HETATM   23  C   UNL     1     -12.238  12.063  70.989  1.00  0.00    -0.141 C  
HETATM   24  C   UNL     1     -12.102  12.708  69.613  1.00  0.00    -0.277 C  
HETATM   25  C   UNL     1     -13.377  12.720  71.761  1.00  0.00    -0.436 C  
ENDBRANCH  22  23
ENDBRANCH  21  22
ENDBRANCH  20  21
ENDBRANCH  19  20
ENDBRANCH  18  19
ENDBRANCH  15  18
ENDBRANCH  11  12
ENDBRANCH  10  11
ENDBRANCH   7  10
ENDBRANCH   6   7
ENDBRANCH   4   6
ENDBRANCH   2   4
TORSDOF 12
ENDMDL
MODEL      258
REMARK 921   NORMALIZED FREE ENERGY PREDICTED BY IDOCK:   -3.17 KCAL/MOL
REMARK 922        TOTAL FREE ENERGY PREDICTED BY IDOCK:   -6.41 KCAL/MOL
REMARK 923 INTER-LIGAND FREE ENERGY PREDICTED BY IDOCK:   -5.36 KCAL/MOL
REMARK 924 INTRA-LIGAND FREE ENERGY PREDICTED BY IDOCK:   -1.05 KCAL/MOL
REMARK 927      BINDING AFFINITY PREDICTED BY RF-SCORE:    0.00 PKD
ROOT
HETATM    1  C   UNL     1      -7.932  19.523  68.970  1.00  0.00    -0.281 C  
HETATM    2  C   UNL     1      -8.546  19.714  67.581  1.00  0.00    -0.320 C  
HETATM    3  C   UNL     1      -9.958  20.287  67.722  1.00  0.00    -0.529 C  
ENDROOT
BRANCH   2   4
HETATM    4  N   UNL     1      -7.674  20.601  66.808  1.00  0.00    -0.524 NA 
HETATM    5  H   UNL     1      -6.878  20.903  67.369  1.00  0.00     0.000 HD 
BRANCH   4   6
HETATM    6  C   UNL     1      -7.224  20.016  65.537  1.00  0.00    -0.282 C  
BRANCH   6   7
HETATM    7  C   UNL     1      -5.738  19.625  65.632  1.00  0.00    -0.170 C  
HETATM    8  O   UNL     1      -5.135  20.302  66.746  1.00  0.00    -0.157 OA 
HETATM    9  H   UNL     1      -4.218  20.061  66.805  1.00  0.00     0.000 HD 
BRANCH   7  10
HETATM   10  C   UNL     1      -5.558  18.112  65.790  1.00  0.00    -0.199 C  
BRANCH  10  11
HETATM   11  O   UNL     1      -5.594  17.773  67.185  1.00  0.00    -0.128 OA 
BRANCH  11  12
HETATM   12  C   UNL     1      -6.446  16.749  67.506  1.00  0.00    -0.152 A  
HETATM   13  C   UNL     1      -6.442  16.063  68.720  1.00  0.00    -0.119 A  
HETATM   14  C   UNL     1      -7.349  15.025  68.943  1.00  0.00    -0.139 A  
HETATM   15  C   UNL     1      -8.282  14.663  67.962  1.00  0.00    -0.145 A  
HETATM   16  C   UNL     1      -8.304  15.375  66.760  1.00  0.00    -0.285 A  
HETATM   17  C   UNL     1      -7.395  16.420  66.538  1.00  0.00    -0.176 A  
BRANCH  15  18
HETATM   18  C   UNL     1      -9.223  13.512  68.209  1.00  0.00    -0.195 C  
BRANCH  18  19
HETATM   19  O   UNL     1      -8.453  12.324  68.368  1.00  0.00    -0.170 OA 
BRANCH  19  20
HETATM   20  C   UNL     1      -7.631  12.062  67.233  1.00  0.00    -0.157 C  
BRANCH  20  21
HETATM   21  C   UNL     1      -7.974  10.673  66.706  1.00  0.00    -0.132 C  
BRANCH  21  22
HETATM   22  O   UNL     1      -8.712  10.778  65.490  1.00  0.00    -0.184 OA 
BRANCH  22  23
HETATM   23  C   UNL     1     -10.079  10.365  65.616  1.00  0.00    -0.269 C  
HETATM   24  C   UNL     1     -10.346   9.690  66.958  1.00  0.00    -0.315 C  
HETATM   25  C   UNL     1     -10.940  11.617  65.484  1.00  0.00    -0.327 C  
ENDBRANCH  22  23
ENDBRANCH  21  22
ENDBRANCH  20  21
ENDBRANCH  19  20
ENDBRANCH  18  19
ENDBRANCH  15  18
ENDBRANCH  11  12
ENDBRANCH  10  11
ENDBRANCH   7  10
ENDBRANCH   6   7
ENDBRANCH   4   6
ENDBRANCH   2   4
TORSDOF 12
ENDMDL
MODEL      259
REMARK 921   NORMALIZED FREE ENERGY PREDICTED BY IDOCK:   -3.16 KCAL/MOL
REMARK 922        TOTAL FREE ENERGY PREDICTED BY IDOCK:   -6.40 KCAL/MOL
REMARK 923 INTER-LIGAND FREE ENERGY PREDICTED BY IDOCK:   -4.77 KCAL/MOL
REMARK 924 INTRA-LIGAND FREE ENERGY PREDICTED BY IDOCK:   -1.64 KCAL/MOL
REMARK 927      BINDING AFFINITY PREDICTED BY RF-SCORE:    0.00 PKD
ROOT
HETATM    1  C   UNL     1     -10.815  16.534  69.391  1.00  0.00    -0.311 C  
HETATM    2  C   UNL     1     -10.889  15.109  69.947  1.00  0.00    -0.270 C  
HETATM    3  C   UNL     1     -12.355  14.692  70.087  1.00  0.00    -0.390 C  
ENDROOT
BRANCH   2   4
HETATM    4  N   UNL     1     -10.155  14.221  69.044  1.00  0.00    -0.381 NA 
HETATM    5  H   UNL     1     -10.396  13.246  69.222  1.00  0.00     0.000 HD 
BRANCH   4   6
HETATM    6  C   UNL     1     -10.336  14.551  67.623  1.00  0.00    -0.237 C  
BRANCH   6   7
HETATM    7  C   UNL     1      -9.008  14.371  66.866  1.00  0.00    -0.243 C  
HETATM    8  O   UNL     1      -8.832  15.457  65.943  1.00  0.00    -0.425 OA 
HETATM    9  H   UNL     1      -8.012  15.346  65.476  1.00  0.00     0.000 HD 
BRANCH   7  10
HETATM   10  C   UNL     1      -7.812  14.307  67.822  1.00  0.00    -0.165 C  
BRANCH  10  11
HETATM   11  O   UNL     1      -6.766  13.528  67.220  1.00  0.00    -0.211 OA 
BRANCH  11  12
HETATM   12  C   UNL     1      -6.844  12.181  67.457  1.00  0.00    -0.127 A  
HETATM   13  C   UNL     1      -6.535  11.192  66.524  1.00  0.00    -0.129 A  
HETATM   14  C   UNL     1      -6.657   9.843  66.865  1.00  0.00    -0.067 A  
HETATM   15  C   UNL     1      -7.078   9.460  68.146  1.00  0.00    -0.076 A  
HETATM   16  C   UNL     1      -7.355  10.456  69.088  1.00  0.00    -0.102 A  
HETATM   17  C   UNL     1      -7.228  11.809  68.745  1.00  0.00    -0.113 A  
BRANCH  15  18
HETATM   18  C   UNL     1      -7.243   8.000  68.477  1.00  0.00    -0.085 C  
BRANCH  18  19
HETATM   19  O   UNL     1      -8.123   7.415  67.521  1.00  0.00    -0.111 OA 
BRANCH  19  20
HETATM   20  C   UNL     1      -9.328   6.943  68.120  1.00  0.00    -0.124 C  
BRANCH  20  21
HETATM   21  C   UNL     1     -10.505   7.527  67.348  1.00  0.00    -0.297 C  
BRANCH  21  22
HETATM   22  O   UNL     1     -10.128   8.759  66.737  1.00  0.00    -0.243 OA 
BRANCH  22  23
HETATM   23  C   UNL     1     -10.931   9.871  67.153  1.00  0.00    -0.076 C  
HETATM   24  C   UNL     1     -10.823  10.118  68.655  1.00  0.00    -0.272 C  
HETATM   25  C   UNL     1     -10.434  11.094  66.388  1.00  0.00    -0.311 C  
ENDBRANCH  22  23
ENDBRANCH  21  22
ENDBRANCH  20  21
ENDBRANCH  19  20
ENDBRANCH  18  19
ENDBRANCH  15  18
ENDBRANCH  11  12
ENDBRANCH  10  11
ENDBRANCH   7  10
ENDBRANCH   6   7
ENDBRANCH   4   6
ENDBRANCH   2   4
TORSDOF 12
ENDMDL
MODEL      260
REMARK 921   NORMALIZED FREE ENERGY PREDICTED BY IDOCK:   -3.16 KCAL/MOL
REMARK 922        TOTAL FREE ENERGY PREDICTED BY IDOCK:   -6.40 KCAL/MOL
REMARK 923 INTER-LIGAND FREE ENERGY PREDICTED BY IDOCK:   -5.34 KCAL/MOL
REMARK 924 INTRA-LIGAND FREE ENERGY PREDICTED BY IDOCK:   -1.06 KCAL/MOL
REMARK 927      BINDING AFFINITY PREDICTED BY RF-SCORE:    0.00 PKD
ROOT
HETATM    1  C   UNL     1      -8.812   4.475  65.614  1.00  0.00    -0.127 C  
HETATM    2  C   UNL     1      -9.276   4.375  67.069  1.00  0.00    -0.141 C  
HETATM    3  C   UNL     1      -9.382   2.902  67.471  1.00  0.00    -0.218 C  
ENDROOT
BRANCH   2   4
HETATM    4  N   UNL     1      -8.322   5.100  67.910  1.00  0.00    -0.098 NA 
HETATM    5  H   UNL     1      -7.512   5.396  67.365  1.00  0.00     0.000 HD 
BRANCH   4   6
HETATM    6  C   UNL     1      -8.916   6.242  68.619  1.00  0.00    -0.127 C  
BRANCH   6   7
HETATM    7  C   UNL     1      -9.855   7.018  67.678  1.00  0.00    -0.147 C  
HETATM    8  O   UNL     1     -11.118   7.232  68.329  1.00  0.00    -0.453 OA 
HETATM    9  H   UNL     1     -11.697   7.711  67.748  1.00  0.00     0.000 HD 
BRANCH   7  10
HETATM   10  C   UNL     1      -9.256   8.365  67.260  1.00  0.00    -0.138 C  
BRANCH  10  11
HETATM   11  O   UNL     1      -8.889   9.105  68.435  1.00  0.00    -0.129 OA 
BRANCH  11  12
HETATM   12  C   UNL     1      -8.895  10.466  68.282  1.00  0.00    -0.135 A  
HETATM   13  C   UNL     1      -7.766  11.280  68.368  1.00  0.00    -0.125 A  
HETATM   14  C   UNL     1      -7.883  12.662  68.204  1.00  0.00    -0.145 A  
HETATM   15  C   UNL     1      -9.126  13.252  67.942  1.00  0.00    -0.203 A  
HETATM   16  C   UNL     1     -10.250  12.429  67.824  1.00  0.00    -0.212 A  
HETATM   17  C   UNL     1     -10.131  11.041  67.984  1.00  0.00    -0.198 A  
BRANCH  15  18
HETATM   18  C   UNL     1      -9.234  14.749  67.812  1.00  0.00    -0.194 C  
BRANCH  18  19
HETATM   19  O   UNL     1      -8.779  15.125  66.515  1.00  0.00    -0.278 OA 
BRANCH  19  20
HETATM   20  C   UNL     1      -9.578  16.158  65.944  1.00  0.00    -0.324 C  
BRANCH  20  21
HETATM   21  C   UNL     1     -11.025  15.679  65.909  1.00  0.00    -0.231 C  
BRANCH  21  22
HETATM   22  O   UNL     1     -11.420  15.412  64.564  1.00  0.00    -0.394 OA 
BRANCH  22  23
HETATM   23  C   UNL     1     -11.883  14.070  64.362  1.00  0.00    -0.431 C  
HETATM   24  C   UNL     1     -10.728  13.076  64.298  1.00  0.00    -0.430 C  
HETATM   25  C   UNL     1     -12.798  13.730  65.534  1.00  0.00    -0.464 C  
ENDBRANCH  22  23
ENDBRANCH  21  22
ENDBRANCH  20  21
ENDBRANCH  19  20
ENDBRANCH  18  19
ENDBRANCH  15  18
ENDBRANCH  11  12
ENDBRANCH  10  11
ENDBRANCH   7  10
ENDBRANCH   6   7
ENDBRANCH   4   6
ENDBRANCH   2   4
TORSDOF 12
ENDMDL
MODEL      261
REMARK 921   NORMALIZED FREE ENERGY PREDICTED BY IDOCK:   -3.15 KCAL/MOL
REMARK 922        TOTAL FREE ENERGY PREDICTED BY IDOCK:   -6.39 KCAL/MOL
REMARK 923 INTER-LIGAND FREE ENERGY PREDICTED BY IDOCK:   -5.65 KCAL/MOL
REMARK 924 INTRA-LIGAND FREE ENERGY PREDICTED BY IDOCK:   -0.74 KCAL/MOL
REMARK 927      BINDING AFFINITY PREDICTED BY RF-SCORE:    0.00 PKD
ROOT
HETATM    1  C   UNL     1     -11.118   6.324  69.130  1.00  0.00    -0.457 C  
HETATM    2  C   UNL     1      -9.881   5.781  69.848  1.00  0.00    -0.179 C  
HETATM    3  C   UNL     1     -10.255   5.376  71.276  1.00  0.00    -0.287 C  
ENDROOT
BRANCH   2   4
HETATM    4  N   UNL     1      -9.361   4.647  69.081  1.00  0.00    -0.129 NA 
HETATM    5  H   UNL     1      -9.700   3.765  69.465  1.00  0.00     0.000 HD 
BRANCH   4   6
HETATM    6  C   UNL     1      -9.647   4.733  67.642  1.00  0.00    -0.155 C  
BRANCH   6   7
HETATM    7  C   UNL     1      -8.535   5.523  66.929  1.00  0.00    -0.110 C  
HETATM    8  O   UNL     1      -7.694   4.614  66.200  1.00  0.00    -0.089 OA 
HETATM    9  H   UNL     1      -7.008   5.102  65.759  1.00  0.00     0.000 HD 
BRANCH   7  10
HETATM   10  C   UNL     1      -9.108   6.575  65.973  1.00  0.00    -0.086 C  
BRANCH  10  11
HETATM   11  O   UNL     1      -8.158   7.642  65.820  1.00  0.00    -0.111 OA 
BRANCH  11  12
HETATM   12  C   UNL     1      -8.645   8.890  66.105  1.00  0.00    -0.140 A  
HETATM   13  C   UNL     1      -9.988   9.184  66.340  1.00  0.00    -0.358 A  
HETATM   14  C   UNL     1     -10.382  10.495  66.614  1.00  0.00    -0.295 A  
HETATM   15  C   UNL     1      -9.441  11.533  66.668  1.00  0.00    -0.208 A  
HETATM   16  C   UNL     1      -8.092  11.227  66.465  1.00  0.00    -0.160 A  
HETATM   17  C   UNL     1      -7.697   9.909  66.193  1.00  0.00    -0.107 A  
BRANCH  15  18
HETATM   18  C   UNL     1      -9.895  12.946  66.923  1.00  0.00    -0.235 C  
BRANCH  18  19
HETATM   19  O   UNL     1     -10.967  13.244  66.035  1.00  0.00    -0.278 OA 
BRANCH  19  20
HETATM   20  C   UNL     1     -10.544  14.041  64.931  1.00  0.00    -0.424 C  
BRANCH  20  21
HETATM   21  C   UNL     1     -10.837  15.501  65.256  1.00  0.00    -0.411 C  
BRANCH  21  22
HETATM   22  O   UNL     1      -9.617  16.220  65.427  1.00  0.00    -0.448 OA 
BRANCH  22  23
HETATM   23  C   UNL     1      -9.682  17.217  66.455  1.00  0.00    -0.292 C  
HETATM   24  C   UNL     1     -10.473  18.442  66.006  1.00  0.00    -0.400 C  
HETATM   25  C   UNL     1     -10.360  16.574  67.661  1.00  0.00    -0.291 C  
ENDBRANCH  22  23
ENDBRANCH  21  22
ENDBRANCH  20  21
ENDBRANCH  19  20
ENDBRANCH  18  19
ENDBRANCH  15  18
ENDBRANCH  11  12
ENDBRANCH  10  11
ENDBRANCH   7  10
ENDBRANCH   6   7
ENDBRANCH   4   6
ENDBRANCH   2   4
TORSDOF 12
ENDMDL
MODEL      262
REMARK 921   NORMALIZED FREE ENERGY PREDICTED BY IDOCK:   -3.14 KCAL/MOL
REMARK 922        TOTAL FREE ENERGY PREDICTED BY IDOCK:   -6.37 KCAL/MOL
REMARK 923 INTER-LIGAND FREE ENERGY PREDICTED BY IDOCK:   -5.25 KCAL/MOL
REMARK 924 INTRA-LIGAND FREE ENERGY PREDICTED BY IDOCK:   -1.12 KCAL/MOL
REMARK 927      BINDING AFFINITY PREDICTED BY RF-SCORE:    0.00 PKD
ROOT
HETATM    1  C   UNL     1     -11.013   9.916  70.618  1.00  0.00    -0.405 C  
HETATM    2  C   UNL     1     -12.177  10.862  70.307  1.00  0.00    -0.348 C  
HETATM    3  C   UNL     1     -12.923  11.194  71.601  1.00  0.00    -0.548 C  
ENDROOT
BRANCH   2   4
HETATM    4  N   UNL     1     -11.639  12.063  69.667  1.00  0.00    -0.391 NA 
HETATM    5  H   UNL     1     -10.624  12.102  69.765  1.00  0.00     0.000 HD 
BRANCH   4   6
HETATM    6  C   UNL     1     -12.031  12.201  68.257  1.00  0.00    -0.187 C  
BRANCH   6   7
HETATM    7  C   UNL     1     -11.502  13.530  67.689  1.00  0.00    -0.318 C  
HETATM    8  O   UNL     1     -12.341  14.608  68.134  1.00  0.00    -0.598 OA 
HETATM    9  H   UNL     1     -12.014  15.429  67.783  1.00  0.00     0.000 HD 
BRANCH   7  10
HETATM   10  C   UNL     1     -10.054  13.794  68.114  1.00  0.00    -0.245 C  
BRANCH  10  11
HETATM   11  O   UNL     1      -9.164  13.256  67.122  1.00  0.00    -0.218 OA 
BRANCH  11  12
HETATM   12  C   UNL     1      -8.861  11.930  67.282  1.00  0.00    -0.179 A  
HETATM   13  C   UNL     1      -9.133  10.934  66.344  1.00  0.00    -0.188 A  
HETATM   14  C   UNL     1      -8.790   9.607  66.609  1.00  0.00    -0.153 A  
HETATM   15  C   UNL     1      -8.159   9.254  67.810  1.00  0.00    -0.104 A  
HETATM   16  C   UNL     1      -7.859  10.260  68.733  1.00  0.00    -0.106 A  
HETATM   17  C   UNL     1      -8.201  11.593  68.464  1.00  0.00    -0.144 A  
BRANCH  15  18
HETATM   18  C   UNL     1      -7.837   7.809  68.092  1.00  0.00    -0.121 C  
BRANCH  18  19
HETATM   19  O   UNL     1      -8.140   7.536  69.457  1.00  0.00    -0.123 OA 
BRANCH  19  20
HETATM   20  C   UNL     1      -8.682   6.230  69.635  1.00  0.00    -0.136 C  
BRANCH  20  21
HETATM   21  C   UNL     1      -9.613   5.935  68.465  1.00  0.00    -0.123 C  
BRANCH  21  22
HETATM   22  O   UNL     1      -9.782   4.526  68.316  1.00  0.00    -0.153 OA 
BRANCH  22  23
HETATM   23  C   UNL     1      -9.630   4.074  66.964  1.00  0.00    -0.201 C  
HETATM   24  C   UNL     1      -9.536   5.240  65.984  1.00  0.00    -0.166 C  
HETATM   25  C   UNL     1      -8.352   3.245  66.909  1.00  0.00    -0.097 C  
ENDBRANCH  22  23
ENDBRANCH  21  22
ENDBRANCH  20  21
ENDBRANCH  19  20
ENDBRANCH  18  19
ENDBRANCH  15  18
ENDBRANCH  11  12
ENDBRANCH  10  11
ENDBRANCH   7  10
ENDBRANCH   6   7
ENDBRANCH   4   6
ENDBRANCH   2   4
TORSDOF 12
ENDMDL
MODEL      263
REMARK 921   NORMALIZED FREE ENERGY PREDICTED BY IDOCK:   -3.14 KCAL/MOL
REMARK 922        TOTAL FREE ENERGY PREDICTED BY IDOCK:   -6.36 KCAL/MOL
REMARK 923 INTER-LIGAND FREE ENERGY PREDICTED BY IDOCK:   -5.69 KCAL/MOL
REMARK 924 INTRA-LIGAND FREE ENERGY PREDICTED BY IDOCK:   -0.67 KCAL/MOL
REMARK 927      BINDING AFFINITY PREDICTED BY RF-SCORE:    0.00 PKD
ROOT
HETATM    1  C   UNL     1     -11.452  16.216  69.523  1.00  0.00    -0.292 C  
HETATM    2  C   UNL     1     -11.617  15.287  70.728  1.00  0.00    -0.333 C  
HETATM    3  C   UNL     1     -13.068  15.328  71.211  1.00  0.00    -0.540 C  
ENDROOT
BRANCH   2   4
HETATM    4  N   UNL     1     -11.215  13.936  70.330  1.00  0.00    -0.472 NA 
HETATM    5  H   UNL     1     -11.055  13.351  71.150  1.00  0.00     0.000 HD 
BRANCH   4   6
HETATM    6  C   UNL     1     -12.161  13.293  69.408  1.00  0.00    -0.248 C  
BRANCH   6   7
HETATM    7  C   UNL     1     -11.439  12.885  68.110  1.00  0.00    -0.315 C  
HETATM    8  O   UNL     1     -11.874  13.731  67.034  1.00  0.00    -0.365 OA 
HETATM    9  H   UNL     1     -11.429  13.479  66.233  1.00  0.00     0.000 HD 
BRANCH   7  10
HETATM   10  C   UNL     1      -9.916  12.976  68.254  1.00  0.00    -0.235 C  
BRANCH  10  11
HETATM   11  O   UNL     1      -9.295  12.247  67.183  1.00  0.00    -0.186 OA 
BRANCH  11  12
HETATM   12  C   UNL     1      -9.381  10.885  67.290  1.00  0.00    -0.155 A  
HETATM   13  C   UNL     1     -10.198  10.076  66.501  1.00  0.00    -0.291 A  
HETATM   14  C   UNL     1     -10.218   8.693  66.698  1.00  0.00    -0.343 A  
HETATM   15  C   UNL     1      -9.415   8.095  67.679  1.00  0.00    -0.172 A  
HETATM   16  C   UNL     1      -8.573   8.906  68.445  1.00  0.00    -0.134 A  
HETATM   17  C   UNL     1      -8.551  10.294  68.244  1.00  0.00    -0.122 A  
BRANCH  15  18
HETATM   18  C   UNL     1      -9.486   6.607  67.901  1.00  0.00    -0.117 C  
BRANCH  18  19
HETATM   19  O   UNL     1     -10.362   6.354  68.995  1.00  0.00    -0.169 OA 
BRANCH  19  20
HETATM   20  C   UNL     1      -9.739   5.573  70.013  1.00  0.00    -0.178 C  
BRANCH  20  21
HETATM   21  C   UNL     1     -10.070   6.198  71.364  1.00  0.00    -0.194 C  
BRANCH  21  22
HETATM   22  O   UNL     1      -9.243   5.634  72.380  1.00  0.00    -0.144 OA 
BRANCH  22  23
HETATM   23  C   UNL     1      -9.958   5.306  73.579  1.00  0.00    -0.169 C  
HETATM   24  C   UNL     1     -11.278   4.602  73.277  1.00  0.00    -0.411 C  
HETATM   25  C   UNL     1      -9.058   4.391  74.403  1.00  0.00    -0.109 C  
ENDBRANCH  22  23
ENDBRANCH  21  22
ENDBRANCH  20  21
ENDBRANCH  19  20
ENDBRANCH  18  19
ENDBRANCH  15  18
ENDBRANCH  11  12
ENDBRANCH  10  11
ENDBRANCH   7  10
ENDBRANCH   6   7
ENDBRANCH   4   6
ENDBRANCH   2   4
TORSDOF 12
ENDMDL
MODEL      264
REMARK 921   NORMALIZED FREE ENERGY PREDICTED BY IDOCK:   -3.14 KCAL/MOL
REMARK 922        TOTAL FREE ENERGY PREDICTED BY IDOCK:   -6.36 KCAL/MOL
REMARK 923 INTER-LIGAND FREE ENERGY PREDICTED BY IDOCK:   -4.88 KCAL/MOL
REMARK 924 INTRA-LIGAND FREE ENERGY PREDICTED BY IDOCK:   -1.48 KCAL/MOL
REMARK 927      BINDING AFFINITY PREDICTED BY RF-SCORE:    0.00 PKD
ROOT
HETATM    1  C   UNL     1     -11.229   9.868  70.930  1.00  0.00    -0.433 C  
HETATM    2  C   UNL     1     -12.354  10.732  70.355  1.00  0.00    -0.353 C  
HETATM    3  C   UNL     1     -12.953  11.597  71.466  1.00  0.00    -0.463 C  
ENDROOT
BRANCH   2   4
HETATM    4  N   UNL     1     -11.804  11.546  69.270  1.00  0.00    -0.329 NA 
HETATM    5  H   UNL     1     -10.935  11.995  69.560  1.00  0.00     0.000 HD 
BRANCH   4   6
HETATM    6  C   UNL     1     -11.613  10.802  68.017  1.00  0.00    -0.163 C  
BRANCH   6   7
HETATM    7  C   UNL     1     -11.172  11.759  66.896  1.00  0.00    -0.327 C  
HETATM    8  O   UNL     1     -12.331  12.263  66.213  1.00  0.00    -0.556 OA 
HETATM    9  H   UNL     1     -12.058  12.854  65.520  1.00  0.00     0.000 HD 
BRANCH   7  10
HETATM   10  C   UNL     1     -10.344  12.928  67.438  1.00  0.00    -0.233 C  
BRANCH  10  11
HETATM   11  O   UNL     1      -9.034  12.895  66.849  1.00  0.00    -0.215 OA 
BRANCH  11  12
HETATM   12  C   UNL     1      -8.240  11.863  67.273  1.00  0.00    -0.170 A  
HETATM   13  C   UNL     1      -7.593  10.960  66.430  1.00  0.00    -0.146 A  
HETATM   14  C   UNL     1      -6.810   9.935  66.966  1.00  0.00    -0.083 A  
HETATM   15  C   UNL     1      -6.652   9.802  68.352  1.00  0.00    -0.056 A  
HETATM   16  C   UNL     1      -7.276  10.729  69.192  1.00  0.00    -0.107 A  
HETATM   17  C   UNL     1      -8.058  11.760  68.653  1.00  0.00    -0.104 A  
BRANCH  15  18
HETATM   18  C   UNL     1      -5.838   8.663  68.909  1.00  0.00    -0.040 C  
BRANCH  18  19
HETATM   19  O   UNL     1      -6.479   8.181  70.086  1.00  0.00    -0.036 OA 
BRANCH  19  20
HETATM   20  C   UNL     1      -6.709   6.775  70.034  1.00  0.00    -0.049 C  
BRANCH  20  21
HETATM   21  C   UNL     1      -7.861   6.514  69.071  1.00  0.00    -0.110 C  
BRANCH  21  22
HETATM   22  O   UNL     1      -8.974   7.343  69.402  1.00  0.00    -0.140 OA 
BRANCH  22  23
HETATM   23  C   UNL     1      -9.969   7.399  68.372  1.00  0.00    -0.164 C  
HETATM   24  C   UNL     1      -9.360   7.211  66.986  1.00  0.00    -0.181 C  
HETATM   25  C   UNL     1     -10.972   6.285  68.655  1.00  0.00    -0.423 C  
ENDBRANCH  22  23
ENDBRANCH  21  22
ENDBRANCH  20  21
ENDBRANCH  19  20
ENDBRANCH  18  19
ENDBRANCH  15  18
ENDBRANCH  11  12
ENDBRANCH  10  11
ENDBRANCH   7  10
ENDBRANCH   6   7
ENDBRANCH   4   6
ENDBRANCH   2   4
TORSDOF 12
ENDMDL
MODEL      265
REMARK 921   NORMALIZED FREE ENERGY PREDICTED BY IDOCK:   -3.12 KCAL/MOL
REMARK 922        TOTAL FREE ENERGY PREDICTED BY IDOCK:   -6.33 KCAL/MOL
REMARK 923 INTER-LIGAND FREE ENERGY PREDICTED BY IDOCK:   -4.84 KCAL/MOL
REMARK 924 INTRA-LIGAND FREE ENERGY PREDICTED BY IDOCK:   -1.49 KCAL/MOL
REMARK 927      BINDING AFFINITY PREDICTED BY RF-SCORE:    0.00 PKD
ROOT
HETATM    1  C   UNL     1     -10.021  11.507  68.712  1.00  0.00    -0.169 C  
HETATM    2  C   UNL     1      -9.992  11.106  67.235  1.00  0.00    -0.184 C  
HETATM    3  C   UNL     1     -10.321  12.324  66.369  1.00  0.00    -0.250 C  
ENDROOT
BRANCH   2   4
HETATM    4  N   UNL     1      -8.667  10.564  66.929  1.00  0.00    -0.127 NA 
HETATM    5  H   UNL     1      -8.505   9.695  67.438  1.00  0.00     0.000 HD 
BRANCH   4   6
HETATM    6  C   UNL     1      -8.429  10.375  65.491  1.00  0.00    -0.167 C  
BRANCH   6   7
HETATM    7  C   UNL     1      -9.130   9.094  65.003  1.00  0.00    -0.156 C  
HETATM    8  O   UNL     1      -9.124   9.061  63.567  1.00  0.00    -0.415 OA 
HETATM    9  H   UNL     1      -9.556   8.271  63.266  1.00  0.00     0.000 HD 
BRANCH   7  10
HETATM   10  C   UNL     1      -8.454   7.833  65.550  1.00  0.00    -0.133 C  
BRANCH  10  11
HETATM   11  O   UNL     1      -9.431   7.029  66.231  1.00  0.00    -0.158 OA 
BRANCH  11  12
HETATM   12  C   UNL     1      -9.175   6.815  67.559  1.00  0.00    -0.122 A  
HETATM   13  C   UNL     1     -10.074   6.245  68.460  1.00  0.00    -0.182 A  
HETATM   14  C   UNL     1      -9.716   6.079  69.799  1.00  0.00    -0.194 A  
HETATM   15  C   UNL     1      -8.450   6.469  70.259  1.00  0.00    -0.135 A  
HETATM   16  C   UNL     1      -7.541   7.010  69.345  1.00  0.00    -0.099 A  
HETATM   17  C   UNL     1      -7.900   7.172  68.000  1.00  0.00    -0.118 A  
BRANCH  15  18
HETATM   18  C   UNL     1      -8.102   6.320  71.717  1.00  0.00    -0.103 C  
BRANCH  18  19
HETATM   19  O   UNL     1      -9.151   5.603  72.362  1.00  0.00    -0.141 OA 
BRANCH  19  20
HETATM   20  C   UNL     1      -9.514   6.191  73.609  1.00  0.00    -0.142 C  
BRANCH  20  21
HETATM   21  C   UNL     1      -9.987   7.616  73.347  1.00  0.00    -0.314 C  
BRANCH  21  22
HETATM   22  O   UNL     1     -11.409   7.684  73.437  1.00  0.00    -0.289 OA 
BRANCH  22  23
HETATM   23  C   UNL     1     -12.019   8.361  72.330  1.00  0.00    -0.384 C  
HETATM   24  C   UNL     1     -11.002   9.174  71.534  1.00  0.00    -0.434 C  
HETATM   25  C   UNL     1     -12.643   7.292  71.439  1.00  0.00    -0.423 C  
ENDBRANCH  22  23
ENDBRANCH  21  22
ENDBRANCH  20  21
ENDBRANCH  19  20
ENDBRANCH  18  19
ENDBRANCH  15  18
ENDBRANCH  11  12
ENDBRANCH  10  11
ENDBRANCH   7  10
ENDBRANCH   6   7
ENDBRANCH   4   6
ENDBRANCH   2   4
TORSDOF 12
ENDMDL
MODEL      266
REMARK 921   NORMALIZED FREE ENERGY PREDICTED BY IDOCK:   -3.10 KCAL/MOL
REMARK 922        TOTAL FREE ENERGY PREDICTED BY IDOCK:   -6.29 KCAL/MOL
REMARK 923 INTER-LIGAND FREE ENERGY PREDICTED BY IDOCK:   -4.76 KCAL/MOL
REMARK 924 INTRA-LIGAND FREE ENERGY PREDICTED BY IDOCK:   -1.53 KCAL/MOL
REMARK 927      BINDING AFFINITY PREDICTED BY RF-SCORE:    0.00 PKD
ROOT
HETATM    1  C   UNL     1     -11.815  13.744  64.071  1.00  0.00    -0.410 C  
HETATM    2  C   UNL     1     -11.361  13.114  65.390  1.00  0.00    -0.297 C  
HETATM    3  C   UNL     1     -12.204  13.671  66.540  1.00  0.00    -0.454 C  
ENDROOT
BRANCH   2   4
HETATM    4  N   UNL     1     -11.490  11.660  65.277  1.00  0.00    -0.175 NA 
HETATM    5  H   UNL     1     -11.390  11.363  64.306  1.00  0.00     0.000 HD 
BRANCH   4   6
HETATM    6  C   UNL     1     -10.564  10.921  66.146  1.00  0.00    -0.206 C  
BRANCH   6   7
HETATM    7  C   UNL     1      -9.756   9.907  65.315  1.00  0.00    -0.313 C  
HETATM    8  O   UNL     1     -10.040  10.096  63.920  1.00  0.00    -0.474 OA 
HETATM    9  H   UNL     1      -9.541   9.471  63.407  1.00  0.00     0.000 HD 
BRANCH   7  10
HETATM   10  C   UNL     1      -8.249  10.046  65.557  1.00  0.00    -0.146 C  
BRANCH  10  11
HETATM   11  O   UNL     1      -7.620   8.767  65.373  1.00  0.00    -0.084 OA 
BRANCH  11  12
HETATM   12  C   UNL     1      -7.440   8.045  66.523  1.00  0.00    -0.088 A  
HETATM   13  C   UNL     1      -7.391   6.652  66.587  1.00  0.00    -0.078 A  
HETATM   14  C   UNL     1      -7.211   6.012  67.815  1.00  0.00    -0.076 A  
HETATM   15  C   UNL     1      -7.066   6.751  68.997  1.00  0.00    -0.089 A  
HETATM   16  C   UNL     1      -7.082   8.147  68.923  1.00  0.00    -0.066 A  
HETATM   17  C   UNL     1      -7.259   8.789  67.689  1.00  0.00    -0.080 A  
BRANCH  15  18
HETATM   18  C   UNL     1      -6.915   6.037  70.315  1.00  0.00    -0.062 C  
BRANCH  18  19
HETATM   19  O   UNL     1      -8.163   6.086  71.001  1.00  0.00    -0.119 OA 
BRANCH  19  20
HETATM   20  C   UNL     1      -8.846   4.835  70.962  1.00  0.00    -0.117 C  
BRANCH  20  21
HETATM   21  C   UNL     1     -10.288   5.091  70.539  1.00  0.00    -0.215 C  
BRANCH  21  22
HETATM   22  O   UNL     1     -10.360   5.274  69.126  1.00  0.00    -0.220 OA 
BRANCH  22  23
HETATM   23  C   UNL     1     -11.160   6.398  68.737  1.00  0.00    -0.326 C  
HETATM   24  C   UNL     1     -10.706   7.682  69.424  1.00  0.00    -0.188 C  
HETATM   25  C   UNL     1     -11.026   6.542  67.225  1.00  0.00    -0.475 C  
ENDBRANCH  22  23
ENDBRANCH  21  22
ENDBRANCH  20  21
ENDBRANCH  19  20
ENDBRANCH  18  19
ENDBRANCH  15  18
ENDBRANCH  11  12
ENDBRANCH  10  11
ENDBRANCH   7  10
ENDBRANCH   6   7
ENDBRANCH   4   6
ENDBRANCH   2   4
TORSDOF 12
ENDMDL
MODEL      267
REMARK 921   NORMALIZED FREE ENERGY PREDICTED BY IDOCK:   -3.09 KCAL/MOL
REMARK 922        TOTAL FREE ENERGY PREDICTED BY IDOCK:   -6.28 KCAL/MOL
REMARK 923 INTER-LIGAND FREE ENERGY PREDICTED BY IDOCK:   -5.19 KCAL/MOL
REMARK 924 INTRA-LIGAND FREE ENERGY PREDICTED BY IDOCK:   -1.10 KCAL/MOL
REMARK 927      BINDING AFFINITY PREDICTED BY RF-SCORE:    0.00 PKD
ROOT
HETATM    1  C   UNL     1      -8.342  15.087  69.036  1.00  0.00    -0.194 C  
HETATM    2  C   UNL     1      -8.387  14.202  67.789  1.00  0.00    -0.174 C  
HETATM    3  C   UNL     1      -7.495  12.976  68.001  1.00  0.00    -0.134 C  
ENDROOT
BRANCH   2   4
HETATM    4  N   UNL     1      -9.779  13.824  67.538  1.00  0.00    -0.225 NA 
HETATM    5  H   UNL     1     -10.233  13.528  68.402  1.00  0.00     0.000 HD 
BRANCH   4   6
HETATM    6  C   UNL     1     -10.560  14.875  66.873  1.00  0.00    -0.300 C  
BRANCH   6   7
HETATM    7  C   UNL     1     -11.176  14.331  65.571  1.00  0.00    -0.320 C  
HETATM    8  O   UNL     1     -10.151  14.201  64.574  1.00  0.00    -0.645 OA 
HETATM    9  H   UNL     1     -10.531  13.866  63.770  1.00  0.00     0.000 HD 
BRANCH   7  10
HETATM   10  C   UNL     1     -11.860  12.977  65.787  1.00  0.00    -0.404 C  
BRANCH  10  11
HETATM   11  O   UNL     1     -11.078  11.947  65.161  1.00  0.00    -0.305 OA 
BRANCH  11  12
HETATM   12  C   UNL     1     -10.752  10.897  65.978  1.00  0.00    -0.140 A  
HETATM   13  C   UNL     1     -11.267  10.697  67.259  1.00  0.00    -0.237 A  
HETATM   14  C   UNL     1     -10.861   9.595  68.015  1.00  0.00    -0.250 A  
HETATM   15  C   UNL     1      -9.943   8.669  67.500  1.00  0.00    -0.256 A  
HETATM   16  C   UNL     1      -9.457   8.855  66.203  1.00  0.00    -0.318 A  
HETATM   17  C   UNL     1      -9.867   9.960  65.443  1.00  0.00    -0.384 A  
BRANCH  15  18
HETATM   18  C   UNL     1      -9.488   7.511  68.349  1.00  0.00    -0.148 C  
BRANCH  18  19
HETATM   19  O   UNL     1      -9.982   7.699  69.672  1.00  0.00    -0.180 OA 
BRANCH  19  20
HETATM   20  C   UNL     1      -9.469   6.726  70.580  1.00  0.00    -0.169 C  
BRANCH  20  21
HETATM   21  C   UNL     1      -9.353   7.371  71.956  1.00  0.00    -0.132 C  
BRANCH  21  22
HETATM   22  O   UNL     1      -8.225   8.244  71.995  1.00  0.00    -0.135 OA 
BRANCH  22  23
HETATM   23  C   UNL     1      -7.078   7.723  71.311  1.00  0.00    -0.057 C  
HETATM   24  C   UNL     1      -6.568   8.688  70.244  1.00  0.00    -0.039 C  
HETATM   25  C   UNL     1      -5.996   7.492  72.362  1.00  0.00    -0.040 C  
ENDBRANCH  22  23
ENDBRANCH  21  22
ENDBRANCH  20  21
ENDBRANCH  19  20
ENDBRANCH  18  19
ENDBRANCH  15  18
ENDBRANCH  11  12
ENDBRANCH  10  11
ENDBRANCH   7  10
ENDBRANCH   6   7
ENDBRANCH   4   6
ENDBRANCH   2   4
TORSDOF 12
ENDMDL
MODEL      268
REMARK 921   NORMALIZED FREE ENERGY PREDICTED BY IDOCK:   -3.09 KCAL/MOL
REMARK 922        TOTAL FREE ENERGY PREDICTED BY IDOCK:   -6.28 KCAL/MOL
REMARK 923 INTER-LIGAND FREE ENERGY PREDICTED BY IDOCK:   -5.47 KCAL/MOL
REMARK 924 INTRA-LIGAND FREE ENERGY PREDICTED BY IDOCK:   -0.81 KCAL/MOL
REMARK 927      BINDING AFFINITY PREDICTED BY RF-SCORE:    0.00 PKD
ROOT
HETATM    1  C   UNL     1      -7.880   7.013  69.055  1.00  0.00    -0.115 C  
HETATM    2  C   UNL     1      -8.360   5.905  68.115  1.00  0.00    -0.115 C  
HETATM    3  C   UNL     1      -9.884   5.975  67.981  1.00  0.00    -0.137 C  
ENDROOT
BRANCH   2   4
HETATM    4  N   UNL     1      -7.693   6.072  66.823  1.00  0.00    -0.099 NA 
HETATM    5  H   UNL     1      -7.234   5.206  66.539  1.00  0.00     0.000 HD 
BRANCH   4   6
HETATM    6  C   UNL     1      -8.585   6.560  65.762  1.00  0.00    -0.144 C  
BRANCH   6   7
HETATM    7  C   UNL     1      -8.148   7.965  65.309  1.00  0.00    -0.135 C  
HETATM    8  O   UNL     1      -8.404   8.116  63.904  1.00  0.00    -0.342 OA 
HETATM    9  H   UNL     1      -8.134   8.983  63.624  1.00  0.00     0.000 HD 
BRANCH   7  10
HETATM   10  C   UNL     1      -8.877   9.065  66.087  1.00  0.00    -0.164 C  
BRANCH  10  11
HETATM   11  O   UNL     1      -9.975   9.554  65.300  1.00  0.00    -0.247 OA 
BRANCH  11  12
HETATM   12  C   UNL     1     -10.530  10.722  65.750  1.00  0.00    -0.188 A  
HETATM   13  C   UNL     1     -11.104  11.696  64.933  1.00  0.00    -0.317 A  
HETATM   14  C   UNL     1     -11.636  12.859  65.494  1.00  0.00    -0.395 A  
HETATM   15  C   UNL     1     -11.613  13.064  66.880  1.00  0.00    -0.419 A  
HETATM   16  C   UNL     1     -11.067  12.070  67.698  1.00  0.00    -0.319 A  
HETATM   17  C   UNL     1     -10.537  10.901  67.134  1.00  0.00    -0.302 A  
BRANCH  15  18
HETATM   18  C   UNL     1     -12.155  14.345  67.459  1.00  0.00    -0.292 C  
BRANCH  18  19
HETATM   19  O   UNL     1     -11.360  14.704  68.585  1.00  0.00    -0.257 OA 
BRANCH  19  20
HETATM   20  C   UNL     1     -11.198  16.116  68.700  1.00  0.00    -0.369 C  
BRANCH  20  21
HETATM   21  C   UNL     1      -9.783  16.397  69.192  1.00  0.00    -0.260 C  
BRANCH  21  22
HETATM   22  O   UNL     1      -9.194  17.442  68.420  1.00  0.00    -0.262 OA 
BRANCH  22  23
HETATM   23  C   UNL     1      -8.244  16.972  67.455  1.00  0.00    -0.183 C  
HETATM   24  C   UNL     1      -7.824  15.531  67.729  1.00  0.00    -0.158 C  
HETATM   25  C   UNL     1      -8.910  17.067  66.086  1.00  0.00    -0.251 C  
ENDBRANCH  22  23
ENDBRANCH  21  22
ENDBRANCH  20  21
ENDBRANCH  19  20
ENDBRANCH  18  19
ENDBRANCH  15  18
ENDBRANCH  11  12
ENDBRANCH  10  11
ENDBRANCH   7  10
ENDBRANCH   6   7
ENDBRANCH   4   6
ENDBRANCH   2   4
TORSDOF 12
ENDMDL
MODEL      269
REMARK 921   NORMALIZED FREE ENERGY PREDICTED BY IDOCK:   -3.09 KCAL/MOL
REMARK 922        TOTAL FREE ENERGY PREDICTED BY IDOCK:   -6.27 KCAL/MOL
REMARK 923 INTER-LIGAND FREE ENERGY PREDICTED BY IDOCK:   -5.51 KCAL/MOL
REMARK 924 INTRA-LIGAND FREE ENERGY PREDICTED BY IDOCK:   -0.76 KCAL/MOL
REMARK 927      BINDING AFFINITY PREDICTED BY RF-SCORE:    0.00 PKD
ROOT
HETATM    1  C   UNL     1      -7.346   1.949  65.257  1.00  0.00    -0.058 C  
HETATM    2  C   UNL     1      -7.363   3.082  64.227  1.00  0.00    -0.066 C  
HETATM    3  C   UNL     1      -7.056   2.514  62.839  1.00  0.00    -0.032 C  
ENDROOT
BRANCH   2   4
HETATM    4  N   UNL     1      -8.676   3.728  64.271  1.00  0.00    -0.105 NA 
HETATM    5  H   UNL     1      -9.370   3.109  64.691  1.00  0.00     0.000 HD 
BRANCH   4   6
HETATM    6  C   UNL     1      -8.665   5.032  64.948  1.00  0.00    -0.150 C  
BRANCH   6   7
HETATM    7  C   UNL     1      -9.579   4.993  66.186  1.00  0.00    -0.168 C  
HETATM    8  O   UNL     1     -10.294   3.747  66.214  1.00  0.00    -0.322 OA 
HETATM    9  H   UNL     1     -10.859   3.723  66.978  1.00  0.00     0.000 HD 
BRANCH   7  10
HETATM   10  C   UNL     1      -8.785   5.161  67.486  1.00  0.00    -0.103 C  
BRANCH  10  11
HETATM   11  O   UNL     1      -9.666   4.978  68.606  1.00  0.00    -0.139 OA 
BRANCH  11  12
HETATM   12  C   UNL     1     -10.178   6.136  69.128  1.00  0.00    -0.194 A  
HETATM   13  C   UNL     1     -11.362   6.222  69.860  1.00  0.00    -0.504 A  
HETATM   14  C   UNL     1     -11.801   7.457  70.343  1.00  0.00    -0.114 A  
HETATM   15  C   UNL     1     -11.060   8.624  70.112  1.00  0.00    -0.199 A  
HETATM   16  C   UNL     1      -9.857   8.527  69.407  1.00  0.00    -0.185 A  
HETATM   17  C   UNL     1      -9.415   7.287  68.926  1.00  0.00    -0.143 A  
BRANCH  15  18
HETATM   18  C   UNL     1     -11.575   9.951  70.606  1.00  0.00    -0.335 C  
BRANCH  18  19
HETATM   19  O   UNL     1     -12.052  10.695  69.489  1.00  0.00    -0.283 OA 
BRANCH  19  20
HETATM   20  C   UNL     1     -11.576  12.039  69.497  1.00  0.00    -0.321 C  
BRANCH  20  21
HETATM   21  C   UNL     1     -11.068  12.373  68.099  1.00  0.00    -0.247 C  
BRANCH  21  22
HETATM   22  O   UNL     1     -11.916  11.783  67.115  1.00  0.00    -0.617 OA 
BRANCH  22  23
HETATM   23  C   UNL     1     -12.016  12.555  65.912  1.00  0.00    -0.409 C  
HETATM   24  C   UNL     1     -12.268  14.031  66.205  1.00  0.00    -0.494 C  
HETATM   25  C   UNL     1     -10.697  12.392  65.163  1.00  0.00    -0.327 C  
ENDBRANCH  22  23
ENDBRANCH  21  22
ENDBRANCH  20  21
ENDBRANCH  19  20
ENDBRANCH  18  19
ENDBRANCH  15  18
ENDBRANCH  11  12
ENDBRANCH  10  11
ENDBRANCH   7  10
ENDBRANCH   6   7
ENDBRANCH   4   6
ENDBRANCH   2   4
TORSDOF 12
ENDMDL
MODEL      270
REMARK 921   NORMALIZED FREE ENERGY PREDICTED BY IDOCK:   -3.06 KCAL/MOL
REMARK 922        TOTAL FREE ENERGY PREDICTED BY IDOCK:   -6.23 KCAL/MOL
REMARK 923 INTER-LIGAND FREE ENERGY PREDICTED BY IDOCK:   -5.26 KCAL/MOL
REMARK 924 INTRA-LIGAND FREE ENERGY PREDICTED BY IDOCK:   -0.97 KCAL/MOL
REMARK 927      BINDING AFFINITY PREDICTED BY RF-SCORE:    0.00 PKD
ROOT
HETATM    1  C   UNL     1      -6.243   3.049  69.877  1.00  0.00    -0.028 C  
HETATM    2  C   UNL     1      -6.312   3.639  71.288  1.00  0.00    -0.018 C  
HETATM    3  C   UNL     1      -5.152   4.616  71.491  1.00  0.00    -0.004 C  
ENDROOT
BRANCH   2   4
HETATM    4  N   UNL     1      -7.610   4.295  71.452  1.00  0.00    -0.062 NA 
HETATM    5  H   UNL     1      -7.509   5.173  71.962  1.00  0.00     0.000 HD 
BRANCH   4   6
HETATM    6  C   UNL     1      -8.323   4.508  70.185  1.00  0.00    -0.070 C  
BRANCH   6   7
HETATM    7  C   UNL     1      -9.226   5.750  70.289  1.00  0.00    -0.152 C  
HETATM    8  O   UNL     1      -9.153   6.286  71.620  1.00  0.00    -0.145 OA 
HETATM    9  H   UNL     1      -9.710   7.053  71.685  1.00  0.00     0.000 HD 
BRANCH   7  10
HETATM   10  C   UNL     1      -8.829   6.829  69.277  1.00  0.00    -0.137 C  
BRANCH  10  11
HETATM   11  O   UNL     1      -9.949   7.113  68.423  1.00  0.00    -0.149 OA 
BRANCH  11  12
HETATM   12  C   UNL     1     -10.312   8.432  68.372  1.00  0.00    -0.200 A  
HETATM   13  C   UNL     1     -10.314   9.212  67.216  1.00  0.00    -0.338 A  
HETATM   14  C   UNL     1     -10.696  10.554  67.274  1.00  0.00    -0.333 A  
HETATM   15  C   UNL     1     -11.092  11.137  68.486  1.00  0.00    -0.298 A  
HETATM   16  C   UNL     1     -11.120  10.343  69.636  1.00  0.00    -0.328 A  
HETATM   17  C   UNL     1     -10.741   8.994  69.575  1.00  0.00    -0.215 A  
BRANCH  15  18
HETATM   18  C   UNL     1     -11.459  12.597  68.532  1.00  0.00    -0.311 C  
BRANCH  18  19
HETATM   19  O   UNL     1     -10.259  13.365  68.522  1.00  0.00    -0.237 OA 
BRANCH  19  20
HETATM   20  C   UNL     1     -10.294  14.402  67.543  1.00  0.00    -0.251 C  
BRANCH  20  21
HETATM   21  C   UNL     1     -11.547  14.217  66.696  1.00  0.00    -0.384 C  
BRANCH  21  22
HETATM   22  O   UNL     1     -11.305  14.657  65.360  1.00  0.00    -0.327 OA 
BRANCH  22  23
HETATM   23  C   UNL     1     -11.558  13.648  64.373  1.00  0.00    -0.393 C  
HETATM   24  C   UNL     1     -10.335  12.768  64.135  1.00  0.00    -0.401 C  
HETATM   25  C   UNL     1     -12.717  12.799  64.887  1.00  0.00    -0.479 C  
ENDBRANCH  22  23
ENDBRANCH  21  22
ENDBRANCH  20  21
ENDBRANCH  19  20
ENDBRANCH  18  19
ENDBRANCH  15  18
ENDBRANCH  11  12
ENDBRANCH  10  11
ENDBRANCH   7  10
ENDBRANCH   6   7
ENDBRANCH   4   6
ENDBRANCH   2   4
TORSDOF 12
ENDMDL
MODEL      271
REMARK 921   NORMALIZED FREE ENERGY PREDICTED BY IDOCK:   -3.06 KCAL/MOL
REMARK 922        TOTAL FREE ENERGY PREDICTED BY IDOCK:   -6.23 KCAL/MOL
REMARK 923 INTER-LIGAND FREE ENERGY PREDICTED BY IDOCK:   -4.80 KCAL/MOL
REMARK 924 INTRA-LIGAND FREE ENERGY PREDICTED BY IDOCK:   -1.43 KCAL/MOL
REMARK 927      BINDING AFFINITY PREDICTED BY RF-SCORE:    0.00 PKD
ROOT
HETATM    1  C   UNL     1      -6.846  12.884  67.380  1.00  0.00    -0.133 C  
HETATM    2  C   UNL     1      -8.291  13.219  67.759  1.00  0.00    -0.171 C  
HETATM    3  C   UNL     1      -8.329  14.561  68.494  1.00  0.00    -0.160 C  
ENDROOT
BRANCH   2   4
HETATM    4  N   UNL     1      -9.096  13.247  66.536  1.00  0.00    -0.428 NA 
HETATM    5  H   UNL     1      -9.184  12.311  66.140  1.00  0.00     0.000 HD 
BRANCH   4   6
HETATM    6  C   UNL     1     -10.418  13.861  66.718  1.00  0.00    -0.270 C  
BRANCH   6   7
HETATM    7  C   UNL     1     -11.522  12.806  66.524  1.00  0.00    -0.355 C  
HETATM    8  O   UNL     1     -11.206  11.985  65.389  1.00  0.00    -0.316 OA 
HETATM    9  H   UNL     1     -11.887  11.334  65.269  1.00  0.00     0.000 HD 
BRANCH   7  10
HETATM   10  C   UNL     1     -11.692  11.925  67.766  1.00  0.00    -0.292 C  
BRANCH  10  11
HETATM   11  O   UNL     1     -11.296  10.580  67.450  1.00  0.00    -0.381 OA 
BRANCH  11  12
HETATM   12  C   UNL     1     -10.255  10.097  68.197  1.00  0.00    -0.171 A  
HETATM   13  C   UNL     1     -10.110  10.283  69.572  1.00  0.00    -0.260 A  
HETATM   14  C   UNL     1      -9.003   9.754  70.239  1.00  0.00    -0.198 A  
HETATM   15  C   UNL     1      -8.028   9.023  69.547  1.00  0.00    -0.099 A  
HETATM   16  C   UNL     1      -8.195   8.811  68.175  1.00  0.00    -0.114 A  
HETATM   17  C   UNL     1      -9.309   9.339  67.507  1.00  0.00    -0.148 A  
BRANCH  15  18
HETATM   18  C   UNL     1      -6.821   8.499  70.280  1.00  0.00    -0.039 C  
BRANCH  18  19
HETATM   19  O   UNL     1      -6.797   7.080  70.155  1.00  0.00    -0.057 OA 
BRANCH  19  20
HETATM   20  C   UNL     1      -7.305   6.430  71.318  1.00  0.00    -0.080 C  
BRANCH  20  21
HETATM   21  C   UNL     1      -8.420   5.484  70.888  1.00  0.00    -0.123 C  
BRANCH  21  22
HETATM   22  O   UNL     1      -8.902   5.850  69.596  1.00  0.00    -0.128 OA 
BRANCH  22  23
HETATM   23  C   UNL     1     -10.332   5.901  69.514  1.00  0.00    -0.248 C  
HETATM   24  C   UNL     1     -10.901   7.099  70.269  1.00  0.00    -0.271 C  
HETATM   25  C   UNL     1     -10.694   5.999  68.036  1.00  0.00    -0.359 C  
ENDBRANCH  22  23
ENDBRANCH  21  22
ENDBRANCH  20  21
ENDBRANCH  19  20
ENDBRANCH  18  19
ENDBRANCH  15  18
ENDBRANCH  11  12
ENDBRANCH  10  11
ENDBRANCH   7  10
ENDBRANCH   6   7
ENDBRANCH   4   6
ENDBRANCH   2   4
TORSDOF 12
ENDMDL
MODEL      272
REMARK 921   NORMALIZED FREE ENERGY PREDICTED BY IDOCK:   -3.06 KCAL/MOL
REMARK 922        TOTAL FREE ENERGY PREDICTED BY IDOCK:   -6.22 KCAL/MOL
REMARK 923 INTER-LIGAND FREE ENERGY PREDICTED BY IDOCK:   -5.16 KCAL/MOL
REMARK 924 INTRA-LIGAND FREE ENERGY PREDICTED BY IDOCK:   -1.06 KCAL/MOL
REMARK 927      BINDING AFFINITY PREDICTED BY RF-SCORE:    0.00 PKD
ROOT
HETATM    1  C   UNL     1     -10.490  16.088  68.969  1.00  0.00    -0.246 C  
HETATM    2  C   UNL     1      -9.912  16.280  67.564  1.00  0.00    -0.248 C  
HETATM    3  C   UNL     1     -10.217  17.698  67.077  1.00  0.00    -0.332 C  
ENDROOT
BRANCH   2   4
HETATM    4  N   UNL     1      -8.472  16.021  67.617  1.00  0.00    -0.156 NA 
HETATM    5  H   UNL     1      -7.976  16.821  68.009  1.00  0.00     0.000 HD 
BRANCH   4   6
HETATM    6  C   UNL     1      -8.125  14.788  68.336  1.00  0.00    -0.144 C  
BRANCH   6   7
HETATM    7  C   UNL     1      -8.224  13.578  67.390  1.00  0.00    -0.181 C  
HETATM    8  O   UNL     1      -6.904  13.161  67.005  1.00  0.00    -0.424 OA 
HETATM    9  H   UNL     1      -6.965  12.414  66.421  1.00  0.00     0.000 HD 
BRANCH   7  10
HETATM   10  C   UNL     1      -8.966  12.406  68.041  1.00  0.00    -0.194 C  
BRANCH  10  11
HETATM   11  O   UNL     1      -9.685  11.681  67.030  1.00  0.00    -0.184 OA 
BRANCH  11  12
HETATM   12  C   UNL     1      -9.569  10.319  67.108  1.00  0.00    -0.168 A  
HETATM   13  C   UNL     1     -10.627   9.422  66.963  1.00  0.00    -0.272 A  
HETATM   14  C   UNL     1     -10.402   8.047  67.068  1.00  0.00    -0.414 A  
HETATM   15  C   UNL     1      -9.116   7.546  67.310  1.00  0.00    -0.137 A  
HETATM   16  C   UNL     1      -8.053   8.448  67.421  1.00  0.00    -0.106 A  
HETATM   17  C   UNL     1      -8.279   9.827  67.311  1.00  0.00    -0.117 A  
BRANCH  15  18
HETATM   18  C   UNL     1      -8.904   6.062  67.462  1.00  0.00    -0.109 C  
BRANCH  18  19
HETATM   19  O   UNL     1      -8.882   5.749  68.852  1.00  0.00    -0.110 OA 
BRANCH  19  20
HETATM   20  C   UNL     1     -10.044   5.028  69.258  1.00  0.00    -0.200 C  
BRANCH  20  21
HETATM   21  C   UNL     1     -10.880   5.935  70.153  1.00  0.00    -0.332 C  
BRANCH  21  22
HETATM   22  O   UNL     1     -10.136   6.296  71.316  1.00  0.00    -0.186 OA 
BRANCH  22  23
HETATM   23  C   UNL     1     -10.364   7.646  71.743  1.00  0.00    -0.197 C  
HETATM   24  C   UNL     1     -11.177   8.433  70.720  1.00  0.00    -0.290 C  
HETATM   25  C   UNL     1     -11.120   7.577  73.066  1.00  0.00    -0.413 C  
ENDBRANCH  22  23
ENDBRANCH  21  22
ENDBRANCH  20  21
ENDBRANCH  19  20
ENDBRANCH  18  19
ENDBRANCH  15  18
ENDBRANCH  11  12
ENDBRANCH  10  11
ENDBRANCH   7  10
ENDBRANCH   6   7
ENDBRANCH   4   6
ENDBRANCH   2   4
TORSDOF 12
ENDMDL
MODEL      273
REMARK 921   NORMALIZED FREE ENERGY PREDICTED BY IDOCK:   -3.05 KCAL/MOL
REMARK 922        TOTAL FREE ENERGY PREDICTED BY IDOCK:   -6.20 KCAL/MOL
REMARK 923 INTER-LIGAND FREE ENERGY PREDICTED BY IDOCK:   -5.10 KCAL/MOL
REMARK 924 INTRA-LIGAND FREE ENERGY PREDICTED BY IDOCK:   -1.11 KCAL/MOL
REMARK 927      BINDING AFFINITY PREDICTED BY RF-SCORE:    0.00 PKD
ROOT
HETATM    1  C   UNL     1      -7.272   7.694  65.216  1.00  0.00    -0.065 C  
HETATM    2  C   UNL     1      -7.290   6.639  64.107  1.00  0.00    -0.078 C  
HETATM    3  C   UNL     1      -6.148   5.645  64.330  1.00  0.00    -0.025 C  
ENDROOT
BRANCH   2   4
HETATM    4  N   UNL     1      -8.596   5.977  64.120  1.00  0.00    -0.339 NA 
HETATM    5  H   UNL     1      -9.024   6.004  63.194  1.00  0.00     0.000 HD 
BRANCH   4   6
HETATM    6  C   UNL     1      -8.551   4.601  64.632  1.00  0.00    -0.144 C  
BRANCH   6   7
HETATM    7  C   UNL     1      -9.979   4.057  64.812  1.00  0.00    -0.205 C  
HETATM    8  O   UNL     1      -9.920   2.692  65.255  1.00  0.00    -0.348 OA 
HETATM    9  H   UNL     1     -10.801   2.355  65.366  1.00  0.00     0.000 HD 
BRANCH   7  10
HETATM   10  C   UNL     1     -10.784   4.890  65.815  1.00  0.00    -0.143 C  
BRANCH  10  11
HETATM   11  O   UNL     1      -9.989   5.115  66.990  1.00  0.00    -0.160 OA 
BRANCH  11  12
HETATM   12  C   UNL     1     -10.089   6.374  67.519  1.00  0.00    -0.155 A  
HETATM   13  C   UNL     1     -10.529   7.497  66.819  1.00  0.00    -0.319 A  
HETATM   14  C   UNL     1     -10.586   8.741  67.452  1.00  0.00    -0.304 A  
HETATM   15  C   UNL     1     -10.214   8.881  68.796  1.00  0.00    -0.224 A  
HETATM   16  C   UNL     1      -9.806   7.746  69.503  1.00  0.00    -0.179 A  
HETATM   17  C   UNL     1      -9.753   6.497  68.868  1.00  0.00    -0.134 A  
BRANCH  15  18
HETATM   18  C   UNL     1     -10.243  10.240  69.445  1.00  0.00    -0.235 C  
BRANCH  18  19
HETATM   19  O   UNL     1     -10.695  11.191  68.485  1.00  0.00    -0.178 OA 
BRANCH  19  20
HETATM   20  C   UNL     1      -9.691  12.153  68.170  1.00  0.00    -0.208 C  
BRANCH  20  21
HETATM   21  C   UNL     1      -9.937  12.653  66.751  1.00  0.00    -0.234 C  
BRANCH  21  22
HETATM   22  O   UNL     1     -11.325  12.927  66.562  1.00  0.00    -0.291 OA 
BRANCH  22  23
HETATM   23  C   UNL     1     -11.591  14.283  66.182  1.00  0.00    -0.369 C  
HETATM   24  C   UNL     1     -11.143  15.271  67.255  1.00  0.00    -0.325 C  
HETATM   25  C   UNL     1     -10.830  14.544  64.886  1.00  0.00    -0.436 C  
ENDBRANCH  22  23
ENDBRANCH  21  22
ENDBRANCH  20  21
ENDBRANCH  19  20
ENDBRANCH  18  19
ENDBRANCH  15  18
ENDBRANCH  11  12
ENDBRANCH  10  11
ENDBRANCH   7  10
ENDBRANCH   6   7
ENDBRANCH   4   6
ENDBRANCH   2   4
TORSDOF 12
ENDMDL
MODEL      274
REMARK 921   NORMALIZED FREE ENERGY PREDICTED BY IDOCK:   -3.04 KCAL/MOL
REMARK 922        TOTAL FREE ENERGY PREDICTED BY IDOCK:   -6.19 KCAL/MOL
REMARK 923 INTER-LIGAND FREE ENERGY PREDICTED BY IDOCK:   -5.35 KCAL/MOL
REMARK 924 INTRA-LIGAND FREE ENERGY PREDICTED BY IDOCK:   -0.84 KCAL/MOL
REMARK 927      BINDING AFFINITY PREDICTED BY RF-SCORE:    0.00 PKD
ROOT
HETATM    1  C   UNL     1     -12.284  14.843  64.038  1.00  0.00    -0.151 C  
HETATM    2  C   UNL     1     -11.057  14.485  64.880  1.00  0.00    -0.394 C  
HETATM    3  C   UNL     1     -11.510  13.927  66.231  1.00  0.00    -0.347 C  
ENDROOT
BRANCH   2   4
HETATM    4  N   UNL     1     -10.251  13.516  64.135  1.00  0.00    -0.758 NA 
HETATM    5  H   UNL     1      -9.312  13.877  63.971  1.00  0.00     0.000 HD 
BRANCH   4   6
HETATM    6  C   UNL     1     -10.196  12.191  64.768  1.00  0.00    -0.281 C  
BRANCH   6   7
HETATM    7  C   UNL     1      -9.878  11.115  63.714  1.00  0.00    -0.331 C  
HETATM    8  O   UNL     1      -9.018  11.671  62.706  1.00  0.00    -0.601 OA 
HETATM    9  H   UNL     1      -8.821  11.007  62.056  1.00  0.00     0.000 HD 
BRANCH   7  10
HETATM   10  C   UNL     1      -9.211   9.885  64.339  1.00  0.00    -0.264 C  
BRANCH  10  11
HETATM   11  O   UNL     1      -9.076  10.089  65.755  1.00  0.00    -0.148 OA 
BRANCH  11  12
HETATM   12  C   UNL     1      -9.187   8.953  66.512  1.00  0.00    -0.183 A  
HETATM   13  C   UNL     1      -8.140   8.365  67.221  1.00  0.00    -0.105 A  
HETATM   14  C   UNL     1      -8.358   7.199  67.958  1.00  0.00    -0.119 A  
HETATM   15  C   UNL     1      -9.628   6.606  68.007  1.00  0.00    -0.123 A  
HETATM   16  C   UNL     1     -10.682   7.218  67.321  1.00  0.00    -0.391 A  
HETATM   17  C   UNL     1     -10.462   8.391  66.585  1.00  0.00    -0.221 A  
BRANCH  15  18
HETATM   18  C   UNL     1      -9.829   5.325  68.773  1.00  0.00    -0.161 C  
BRANCH  18  19
HETATM   19  O   UNL     1      -9.821   5.624  70.165  1.00  0.00    -0.170 OA 
BRANCH  19  20
HETATM   20  C   UNL     1      -8.755   4.968  70.849  1.00  0.00    -0.122 C  
BRANCH  20  21
HETATM   21  C   UNL     1      -8.090   5.977  71.777  1.00  0.00    -0.114 C  
BRANCH  21  22
HETATM   22  O   UNL     1      -7.377   6.950  71.014  1.00  0.00    -0.075 OA 
BRANCH  22  23
HETATM   23  C   UNL     1      -7.237   8.209  71.685  1.00  0.00    -0.081 C  
HETATM   24  C   UNL     1      -5.773   8.618  71.822  1.00  0.00    -0.050 C  
HETATM   25  C   UNL     1      -7.991   9.245  70.856  1.00  0.00    -0.161 C  
ENDBRANCH  22  23
ENDBRANCH  21  22
ENDBRANCH  20  21
ENDBRANCH  19  20
ENDBRANCH  18  19
ENDBRANCH  15  18
ENDBRANCH  11  12
ENDBRANCH  10  11
ENDBRANCH   7  10
ENDBRANCH   6   7
ENDBRANCH   4   6
ENDBRANCH   2   4
TORSDOF 12
ENDMDL
MODEL      275
REMARK 921   NORMALIZED FREE ENERGY PREDICTED BY IDOCK:   -3.03 KCAL/MOL
REMARK 922        TOTAL FREE ENERGY PREDICTED BY IDOCK:   -6.18 KCAL/MOL
REMARK 923 INTER-LIGAND FREE ENERGY PREDICTED BY IDOCK:   -5.30 KCAL/MOL
REMARK 924 INTRA-LIGAND FREE ENERGY PREDICTED BY IDOCK:   -0.88 KCAL/MOL
REMARK 927      BINDING AFFINITY PREDICTED BY RF-SCORE:    0.00 PKD
ROOT
HETATM    1  C   UNL     1     -11.809  13.989  67.782  1.00  0.00    -0.419 C  
HETATM    2  C   UNL     1     -12.401  13.551  66.440  1.00  0.00    -0.357 C  
HETATM    3  C   UNL     1     -12.155  14.640  65.393  1.00  0.00    -0.250 C  
ENDROOT
BRANCH   2   4
HETATM    4  N   UNL     1     -11.785  12.279  66.056  1.00  0.00    -0.489 NA 
HETATM    5  H   UNL     1     -12.372  11.781  65.386  1.00  0.00     0.000 HD 
BRANCH   4   6
HETATM    6  C   UNL     1     -10.416  12.424  65.541  1.00  0.00    -0.275 C  
BRANCH   6   7
HETATM    7  C   UNL     1     -10.211  11.509  64.320  1.00  0.00    -0.311 C  
HETATM    8  O   UNL     1      -9.328  12.148  63.385  1.00  0.00    -0.651 OA 
HETATM    9  H   UNL     1      -9.202  11.584  62.631  1.00  0.00     0.000 HD 
BRANCH   7  10
HETATM   10  C   UNL     1      -9.639  10.145  64.720  1.00  0.00    -0.314 C  
BRANCH  10  11
HETATM   11  O   UNL     1      -9.982   9.871  66.088  1.00  0.00    -0.236 OA 
BRANCH  11  12
HETATM   12  C   UNL     1      -9.929   8.548  66.439  1.00  0.00    -0.244 A  
HETATM   13  C   UNL     1     -10.821   7.921  67.310  1.00  0.00    -0.189 A  
HETATM   14  C   UNL     1     -10.673   6.565  67.609  1.00  0.00    -0.381 A  
HETATM   15  C   UNL     1      -9.640   5.810  67.036  1.00  0.00    -0.145 A  
HETATM   16  C   UNL     1      -8.770   6.435  66.138  1.00  0.00    -0.151 A  
HETATM   17  C   UNL     1      -8.921   7.796  65.835  1.00  0.00    -0.155 A  
BRANCH  15  18
HETATM   18  C   UNL     1      -9.476   4.360  67.407  1.00  0.00    -0.171 C  
BRANCH  18  19
HETATM   19  O   UNL     1      -9.445   4.257  68.827  1.00  0.00    -0.146 OA 
BRANCH  19  20
HETATM   20  C   UNL     1      -8.120   4.354  69.344  1.00  0.00    -0.060 C  
BRANCH  20  21
HETATM   21  C   UNL     1      -8.096   5.459  70.394  1.00  0.00    -0.101 C  
BRANCH  21  22
HETATM   22  O   UNL     1      -6.995   5.269  71.280  1.00  0.00    -0.050 OA 
BRANCH  22  23
HETATM   23  C   UNL     1      -7.106   6.019  72.497  1.00  0.00    -0.084 C  
HETATM   24  C   UNL     1      -6.857   5.148  73.725  1.00  0.00    -0.080 C  
HETATM   25  C   UNL     1      -6.069   7.135  72.432  1.00  0.00    -0.041 C  
ENDBRANCH  22  23
ENDBRANCH  21  22
ENDBRANCH  20  21
ENDBRANCH  19  20
ENDBRANCH  18  19
ENDBRANCH  15  18
ENDBRANCH  11  12
ENDBRANCH  10  11
ENDBRANCH   7  10
ENDBRANCH   6   7
ENDBRANCH   4   6
ENDBRANCH   2   4
TORSDOF 12
ENDMDL
MODEL      276
REMARK 921   NORMALIZED FREE ENERGY PREDICTED BY IDOCK:   -3.02 KCAL/MOL
REMARK 922        TOTAL FREE ENERGY PREDICTED BY IDOCK:   -6.16 KCAL/MOL
REMARK 923 INTER-LIGAND FREE ENERGY PREDICTED BY IDOCK:   -5.64 KCAL/MOL
REMARK 924 INTRA-LIGAND FREE ENERGY PREDICTED BY IDOCK:   -0.53 KCAL/MOL
REMARK 927      BINDING AFFINITY PREDICTED BY RF-SCORE:    0.00 PKD
ROOT
HETATM    1  C   UNL     1      -7.722   1.997  65.219  1.00  0.00    -0.072 C  
HETATM    2  C   UNL     1      -7.618   3.001  64.068  1.00  0.00    -0.071 C  
HETATM    3  C   UNL     1      -7.396   2.248  62.753  1.00  0.00    -0.041 C  
ENDROOT
BRANCH   2   4
HETATM    4  N   UNL     1      -8.844   3.799  64.036  1.00  0.00    -0.103 NA 
HETATM    5  H   UNL     1      -9.633   3.265  64.401  1.00  0.00     0.000 HD 
BRANCH   4   6
HETATM    6  C   UNL     1      -8.722   5.088  64.732  1.00  0.00    -0.149 C  
BRANCH   6   7
HETATM    7  C   UNL     1      -9.870   5.252  65.744  1.00  0.00    -0.036 C  
HETATM    8  O   UNL     1     -10.717   4.093  65.702  1.00  0.00    -0.479 OA 
HETATM    9  H   UNL     1     -11.425   4.194  66.327  1.00  0.00     0.000 HD 
BRANCH   7  10
HETATM   10  C   UNL     1      -9.347   5.457  67.169  1.00  0.00    -0.117 C  
BRANCH  10  11
HETATM   11  O   UNL     1     -10.410   5.211  68.104  1.00  0.00    -0.146 OA 
BRANCH  11  12
HETATM   12  C   UNL     1     -10.722   6.273  68.911  1.00  0.00    -0.299 A  
HETATM   13  C   UNL     1     -11.413   6.177  70.118  1.00  0.00    -0.365 A  
HETATM   14  C   UNL     1     -11.689   7.326  70.863  1.00  0.00    -0.348 A  
HETATM   15  C   UNL     1     -11.270   8.588  70.420  1.00  0.00    -0.224 A  
HETATM   16  C   UNL     1     -10.549   8.675  69.225  1.00  0.00    -0.204 A  
HETATM   17  C   UNL     1     -10.269   7.520  68.480  1.00  0.00    -0.216 A  
BRANCH  15  18
HETATM   18  C   UNL     1     -11.616   9.817  71.218  1.00  0.00    -0.390 C  
BRANCH  18  19
HETATM   19  O   UNL     1     -12.350  10.708  70.383  1.00  0.00    -0.302 OA 
BRANCH  19  20
HETATM   20  C   UNL     1     -12.740  11.892  71.074  1.00  0.00    -0.258 C  
BRANCH  20  21
HETATM   21  C   UNL     1     -12.275  13.095  70.260  1.00  0.00    -0.306 C  
BRANCH  21  22
HETATM   22  O   UNL     1     -13.141  14.205  70.489  1.00  0.00    -0.265 OA 
BRANCH  22  23
HETATM   23  C   UNL     1     -12.472  15.472  70.423  1.00  0.00    -0.402 C  
HETATM   24  C   UNL     1     -11.357  15.578  71.459  1.00  0.00    -0.466 C  
HETATM   25  C   UNL     1     -11.891  15.600  69.019  1.00  0.00    -0.379 C  
ENDBRANCH  22  23
ENDBRANCH  21  22
ENDBRANCH  20  21
ENDBRANCH  19  20
ENDBRANCH  18  19
ENDBRANCH  15  18
ENDBRANCH  11  12
ENDBRANCH  10  11
ENDBRANCH   7  10
ENDBRANCH   6   7
ENDBRANCH   4   6
ENDBRANCH   2   4
TORSDOF 12
ENDMDL
MODEL      277
REMARK 921   NORMALIZED FREE ENERGY PREDICTED BY IDOCK:   -3.02 KCAL/MOL
REMARK 922        TOTAL FREE ENERGY PREDICTED BY IDOCK:   -6.16 KCAL/MOL
REMARK 923 INTER-LIGAND FREE ENERGY PREDICTED BY IDOCK:   -5.22 KCAL/MOL
REMARK 924 INTRA-LIGAND FREE ENERGY PREDICTED BY IDOCK:   -0.94 KCAL/MOL
REMARK 927      BINDING AFFINITY PREDICTED BY RF-SCORE:    0.00 PKD
ROOT
HETATM    1  C   UNL     1      -6.058  13.877  67.766  1.00  0.00    -0.139 C  
HETATM    2  C   UNL     1      -7.106  14.204  68.833  1.00  0.00    -0.110 C  
HETATM    3  C   UNL     1      -6.427  14.889  70.021  1.00  0.00    -0.167 C  
ENDROOT
BRANCH   2   4
HETATM    4  N   UNL     1      -8.132  15.056  68.229  1.00  0.00    -0.128 NA 
HETATM    5  H   UNL     1      -8.676  14.535  67.542  1.00  0.00     0.000 HD 
BRANCH   4   6
HETATM    6  C   UNL     1      -9.014  15.698  69.213  1.00  0.00    -0.267 C  
BRANCH   6   7
HETATM    7  C   UNL     1     -10.055  16.576  68.496  1.00  0.00    -0.255 C  
HETATM    8  O   UNL     1      -9.518  17.029  67.243  1.00  0.00    -0.234 OA 
HETATM    9  H   UNL     1     -10.161  17.571  66.800  1.00  0.00     0.000 HD 
BRANCH   7  10
HETATM   10  C   UNL     1     -11.366  15.821  68.252  1.00  0.00    -0.354 C  
BRANCH  10  11
HETATM   11  O   UNL     1     -11.380  15.319  66.906  1.00  0.00    -0.307 OA 
BRANCH  11  12
HETATM   12  C   UNL     1     -11.131  13.978  66.790  1.00  0.00    -0.306 A  
HETATM   13  C   UNL     1     -11.667  12.996  67.623  1.00  0.00    -0.415 A  
HETATM   14  C   UNL     1     -11.341  11.652  67.424  1.00  0.00    -0.367 A  
HETATM   15  C   UNL     1     -10.484  11.266  66.384  1.00  0.00    -0.306 A  
HETATM   16  C   UNL     1      -9.976  12.251  65.531  1.00  0.00    -0.264 A  
HETATM   17  C   UNL     1     -10.307  13.599  65.730  1.00  0.00    -0.304 A  
BRANCH  15  18
HETATM   18  C   UNL     1     -10.114   9.816  66.215  1.00  0.00    -0.243 C  
BRANCH  18  19
HETATM   19  O   UNL     1     -10.302   9.153  67.461  1.00  0.00    -0.228 OA 
BRANCH  19  20
HETATM   20  C   UNL     1     -10.710   7.797  67.292  1.00  0.00    -0.255 C  
BRANCH  20  21
HETATM   21  C   UNL     1      -9.471   6.912  67.362  1.00  0.00    -0.132 C  
BRANCH  21  22
HETATM   22  O   UNL     1      -9.345   6.150  66.163  1.00  0.00    -0.158 OA 
BRANCH  22  23
HETATM   23  C   UNL     1      -8.059   6.274  65.542  1.00  0.00    -0.129 C  
HETATM   24  C   UNL     1      -7.277   7.464  66.090  1.00  0.00    -0.077 C  
HETATM   25  C   UNL     1      -7.299   4.981  65.820  1.00  0.00    -0.077 C  
ENDBRANCH  22  23
ENDBRANCH  21  22
ENDBRANCH  20  21
ENDBRANCH  19  20
ENDBRANCH  18  19
ENDBRANCH  15  18
ENDBRANCH  11  12
ENDBRANCH  10  11
ENDBRANCH   7  10
ENDBRANCH   6   7
ENDBRANCH   4   6
ENDBRANCH   2   4
TORSDOF 12
ENDMDL
MODEL      278
REMARK 921   NORMALIZED FREE ENERGY PREDICTED BY IDOCK:   -3.01 KCAL/MOL
REMARK 922        TOTAL FREE ENERGY PREDICTED BY IDOCK:   -6.13 KCAL/MOL
REMARK 923 INTER-LIGAND FREE ENERGY PREDICTED BY IDOCK:   -4.84 KCAL/MOL
REMARK 924 INTRA-LIGAND FREE ENERGY PREDICTED BY IDOCK:   -1.30 KCAL/MOL
REMARK 927      BINDING AFFINITY PREDICTED BY RF-SCORE:    0.00 PKD
ROOT
HETATM    1  C   UNL     1      -7.175   8.962  68.943  1.00  0.00    -0.074 C  
HETATM    2  C   UNL     1      -8.554   8.699  68.333  1.00  0.00    -0.135 C  
HETATM    3  C   UNL     1      -9.638   9.243  69.266  1.00  0.00    -0.161 C  
ENDROOT
BRANCH   2   4
HETATM    4  N   UNL     1      -8.605   9.333  67.014  1.00  0.00    -0.123 NA 
HETATM    5  H   UNL     1      -8.927   8.671  66.307  1.00  0.00     0.000 HD 
BRANCH   4   6
HETATM    6  C   UNL     1      -9.413  10.560  66.985  1.00  0.00    -0.163 C  
BRANCH   6   7
HETATM    7  C   UNL     1      -8.620  11.699  66.319  1.00  0.00    -0.103 C  
HETATM    8  O   UNL     1      -9.534  12.675  65.793  1.00  0.00    -0.426 OA 
HETATM    9  H   UNL     1      -9.045  13.378  65.382  1.00  0.00     0.000 HD 
BRANCH   7  10
HETATM   10  C   UNL     1      -7.657  12.372  67.303  1.00  0.00    -0.141 C  
BRANCH  10  11
HETATM   11  O   UNL     1      -8.407  12.923  68.397  1.00  0.00    -0.157 OA 
BRANCH  11  12
HETATM   12  C   UNL     1      -8.300  14.281  68.541  1.00  0.00    -0.156 A  
HETATM   13  C   UNL     1      -9.353  15.129  68.885  1.00  0.00    -0.207 A  
HETATM   14  C   UNL     1      -9.139  16.504  68.997  1.00  0.00    -0.229 A  
HETATM   15  C   UNL     1      -7.868  17.054  68.779  1.00  0.00    -0.253 A  
HETATM   16  C   UNL     1      -6.809  16.197  68.468  1.00  0.00    -0.135 A  
HETATM   17  C   UNL     1      -7.024  14.815  68.359  1.00  0.00    -0.114 A  
BRANCH  15  18
HETATM   18  C   UNL     1      -7.671  18.545  68.865  1.00  0.00    -0.227 C  
BRANCH  18  19
HETATM   19  O   UNL     1      -6.642  18.918  67.952  1.00  0.00    -0.210 OA 
BRANCH  19  20
HETATM   20  C   UNL     1      -7.086  19.896  67.014  1.00  0.00    -0.217 C  
BRANCH  20  21
HETATM   21  C   UNL     1      -7.961  19.201  65.977  1.00  0.00    -0.217 C  
BRANCH  21  22
HETATM   22  O   UNL     1      -9.200  19.895  65.837  1.00  0.00    -0.343 OA 
BRANCH  22  23
HETATM   23  C   UNL     1     -10.347  19.047  65.979  1.00  0.00    -0.446 C  
HETATM   24  C   UNL     1      -9.984  17.572  65.835  1.00  0.00    -0.155 C  
HETATM   25  C   UNL     1     -10.927  19.307  67.366  1.00  0.00    -0.445 C  
ENDBRANCH  22  23
ENDBRANCH  21  22
ENDBRANCH  20  21
ENDBRANCH  19  20
ENDBRANCH  18  19
ENDBRANCH  15  18
ENDBRANCH  11  12
ENDBRANCH  10  11
ENDBRANCH   7  10
ENDBRANCH   6   7
ENDBRANCH   4   6
ENDBRANCH   2   4
TORSDOF 12
ENDMDL
MODEL      279
REMARK 921   NORMALIZED FREE ENERGY PREDICTED BY IDOCK:   -3.00 KCAL/MOL
REMARK 922        TOTAL FREE ENERGY PREDICTED BY IDOCK:   -6.13 KCAL/MOL
REMARK 923 INTER-LIGAND FREE ENERGY PREDICTED BY IDOCK:   -5.15 KCAL/MOL
REMARK 924 INTRA-LIGAND FREE ENERGY PREDICTED BY IDOCK:   -0.98 KCAL/MOL
REMARK 927      BINDING AFFINITY PREDICTED BY RF-SCORE:    0.00 PKD
ROOT
HETATM    1  C   UNL     1      -8.470   2.647  70.552  1.00  0.00    -0.090 C  
HETATM    2  C   UNL     1      -7.688   3.929  70.847  1.00  0.00    -0.051 C  
HETATM    3  C   UNL     1      -6.837   4.299  69.630  1.00  0.00    -0.042 C  
ENDROOT
BRANCH   2   4
HETATM    4  N   UNL     1      -8.643   4.987  71.183  1.00  0.00    -0.122 NA 
HETATM    5  H   UNL     1      -8.574   5.760  70.520  1.00  0.00     0.000 HD 
BRANCH   4   6
HETATM    6  C   UNL     1     -10.029   4.513  71.288  1.00  0.00    -0.188 C  
BRANCH   6   7
HETATM    7  C   UNL     1     -10.976   5.700  71.542  1.00  0.00    -0.200 C  
HETATM    8  O   UNL     1     -10.963   6.032  72.940  1.00  0.00    -0.246 OA 
HETATM    9  H   UNL     1     -11.547   6.765  73.097  1.00  0.00     0.000 HD 
BRANCH   7  10
HETATM   10  C   UNL     1     -10.582   6.929  70.717  1.00  0.00    -0.220 C  
BRANCH  10  11
HETATM   11  O   UNL     1     -10.264   6.518  69.378  1.00  0.00    -0.169 OA 
BRANCH  11  12
HETATM   12  C   UNL     1     -10.182   7.538  68.468  1.00  0.00    -0.197 A  
HETATM   13  C   UNL     1      -9.923   7.370  67.107  1.00  0.00    -0.281 A  
HETATM   14  C   UNL     1      -9.852   8.481  66.264  1.00  0.00    -0.285 A  
HETATM   15  C   UNL     1     -10.048   9.776  66.763  1.00  0.00    -0.295 A  
HETATM   16  C   UNL     1     -10.340   9.936  68.120  1.00  0.00    -0.232 A  
HETATM   17  C   UNL     1     -10.416   8.820  68.965  1.00  0.00    -0.220 A  
BRANCH  15  18
HETATM   18  C   UNL     1      -9.924  10.962  65.842  1.00  0.00    -0.243 C  
BRANCH  18  19
HETATM   19  O   UNL     1     -10.589  12.071  66.440  1.00  0.00    -0.230 OA 
BRANCH  19  20
HETATM   20  C   UNL     1     -10.890  13.092  65.491  1.00  0.00    -0.278 C  
BRANCH  20  21
HETATM   21  C   UNL     1     -11.542  14.254  66.230  1.00  0.00    -0.372 C  
BRANCH  21  22
HETATM   22  O   UNL     1     -10.882  14.475  67.476  1.00  0.00    -0.278 OA 
BRANCH  22  23
HETATM   23  C   UNL     1     -11.776  14.513  68.596  1.00  0.00    -0.329 C  
HETATM   24  C   UNL     1     -11.349  13.543  69.694  1.00  0.00    -0.219 C  
HETATM   25  C   UNL     1     -11.766  15.941  69.131  1.00  0.00    -0.369 C  
ENDBRANCH  22  23
ENDBRANCH  21  22
ENDBRANCH  20  21
ENDBRANCH  19  20
ENDBRANCH  18  19
ENDBRANCH  15  18
ENDBRANCH  11  12
ENDBRANCH  10  11
ENDBRANCH   7  10
ENDBRANCH   6   7
ENDBRANCH   4   6
ENDBRANCH   2   4
TORSDOF 12
ENDMDL
MODEL      280
REMARK 921   NORMALIZED FREE ENERGY PREDICTED BY IDOCK:   -2.99 KCAL/MOL
REMARK 922        TOTAL FREE ENERGY PREDICTED BY IDOCK:   -6.11 KCAL/MOL
REMARK 923 INTER-LIGAND FREE ENERGY PREDICTED BY IDOCK:   -4.86 KCAL/MOL
REMARK 924 INTRA-LIGAND FREE ENERGY PREDICTED BY IDOCK:   -1.25 KCAL/MOL
REMARK 927      BINDING AFFINITY PREDICTED BY RF-SCORE:    0.00 PKD
ROOT
HETATM    1  C   UNL     1     -10.463   8.346  66.940  1.00  0.00    -0.359 C  
HETATM    2  C   UNL     1      -9.784   6.976  66.859  1.00  0.00    -0.175 C  
HETATM    3  C   UNL     1     -10.850   5.878  66.860  1.00  0.00    -0.376 C  
ENDROOT
BRANCH   2   4
HETATM    4  N   UNL     1      -8.965   6.937  65.646  1.00  0.00    -0.361 NA 
HETATM    5  H   UNL     1      -9.455   6.451  64.895  1.00  0.00     0.000 HD 
BRANCH   4   6
HETATM    6  C   UNL     1      -8.513   8.262  65.201  1.00  0.00    -0.146 C  
BRANCH   6   7
HETATM    7  C   UNL     1      -6.981   8.275  65.049  1.00  0.00    -0.074 C  
HETATM    8  O   UNL     1      -6.565   9.532  64.492  1.00  0.00    -0.086 OA 
HETATM    9  H   UNL     1      -5.620   9.539  64.398  1.00  0.00     0.000 HD 
BRANCH   7  10
HETATM   10  C   UNL     1      -6.274   8.045  66.389  1.00  0.00    -0.046 C  
BRANCH  10  11
HETATM   11  O   UNL     1      -6.443   9.206  67.218  1.00  0.00    -0.059 OA 
BRANCH  11  12
HETATM   12  C   UNL     1      -7.204   9.006  68.338  1.00  0.00    -0.077 A  
HETATM   13  C   UNL     1      -7.201   7.840  69.104  1.00  0.00    -0.082 A  
HETATM   14  C   UNL     1      -8.025   7.735  70.227  1.00  0.00    -0.100 A  
HETATM   15  C   UNL     1      -8.857   8.796  70.609  1.00  0.00    -0.212 A  
HETATM   16  C   UNL     1      -8.832   9.975  69.858  1.00  0.00    -0.177 A  
HETATM   17  C   UNL     1      -8.002  10.081  68.733  1.00  0.00    -0.096 A  
BRANCH  15  18
HETATM   18  C   UNL     1      -9.769   8.644  71.799  1.00  0.00    -0.291 C  
BRANCH  18  19
HETATM   19  O   UNL     1     -11.013   8.116  71.351  1.00  0.00    -0.228 OA 
BRANCH  19  20
HETATM   20  C   UNL     1     -12.111   8.952  71.713  1.00  0.00    -0.362 C  
BRANCH  20  21
HETATM   21  C   UNL     1     -12.195  10.092  70.705  1.00  0.00    -0.338 C  
BRANCH  21  22
HETATM   22  O   UNL     1     -12.541  11.307  71.368  1.00  0.00    -0.377 OA 
BRANCH  22  23
HETATM   23  C   UNL     1     -12.629  12.433  70.485  1.00  0.00    -0.089 C  
HETATM   24  C   UNL     1     -12.191  13.725  71.169  1.00  0.00    -0.362 C  
HETATM   25  C   UNL     1     -11.722  12.142  69.294  1.00  0.00    -0.386 C  
ENDBRANCH  22  23
ENDBRANCH  21  22
ENDBRANCH  20  21
ENDBRANCH  19  20
ENDBRANCH  18  19
ENDBRANCH  15  18
ENDBRANCH  11  12
ENDBRANCH  10  11
ENDBRANCH   7  10
ENDBRANCH   6   7
ENDBRANCH   4   6
ENDBRANCH   2   4
TORSDOF 12
ENDMDL
MODEL      281
REMARK 921   NORMALIZED FREE ENERGY PREDICTED BY IDOCK:   -2.99 KCAL/MOL
REMARK 922        TOTAL FREE ENERGY PREDICTED BY IDOCK:   -6.11 KCAL/MOL
REMARK 923 INTER-LIGAND FREE ENERGY PREDICTED BY IDOCK:   -5.10 KCAL/MOL
REMARK 924 INTRA-LIGAND FREE ENERGY PREDICTED BY IDOCK:   -1.00 KCAL/MOL
REMARK 927      BINDING AFFINITY PREDICTED BY RF-SCORE:    0.00 PKD
ROOT
HETATM    1  C   UNL     1     -10.711  12.033  68.549  1.00  0.00    -0.261 C  
HETATM    2  C   UNL     1     -10.007  11.869  67.200  1.00  0.00    -0.194 C  
HETATM    3  C   UNL     1      -9.554  13.239  66.691  1.00  0.00    -0.262 C  
ENDROOT
BRANCH   2   4
HETATM    4  N   UNL     1      -8.877  10.954  67.376  1.00  0.00    -0.133 NA 
HETATM    5  H   UNL     1      -9.164   9.989  67.212  1.00  0.00     0.000 HD 
BRANCH   4   6
HETATM    6  C   UNL     1      -7.712  11.298  66.549  1.00  0.00    -0.125 C  
BRANCH   6   7
HETATM    7  C   UNL     1      -7.607  10.331  65.356  1.00  0.00    -0.146 C  
HETATM    8  O   UNL     1      -6.475  10.689  64.547  1.00  0.00    -0.354 OA 
HETATM    9  H   UNL     1      -6.410  10.093  63.810  1.00  0.00     0.000 HD 
BRANCH   7  10
HETATM   10  C   UNL     1      -7.473   8.875  65.813  1.00  0.00    -0.089 C  
BRANCH  10  11
HETATM   11  O   UNL     1      -8.699   8.178  65.540  1.00  0.00    -0.161 OA 
BRANCH  11  12
HETATM   12  C   UNL     1      -9.237   7.520  66.613  1.00  0.00    -0.162 A  
HETATM   13  C   UNL     1     -10.603   7.342  66.833  1.00  0.00    -0.375 A  
HETATM   14  C   UNL     1     -11.049   6.660  67.967  1.00  0.00    -0.296 A  
HETATM   15  C   UNL     1     -10.138   6.135  68.895  1.00  0.00    -0.211 A  
HETATM   16  C   UNL     1      -8.770   6.287  68.653  1.00  0.00    -0.120 A  
HETATM   17  C   UNL     1      -8.323   6.969  67.512  1.00  0.00    -0.119 A  
BRANCH  15  18
HETATM   18  C   UNL     1     -10.644   5.441  70.133  1.00  0.00    -0.274 C  
BRANCH  18  19
HETATM   19  O   UNL     1     -11.643   6.258  70.734  1.00  0.00    -0.344 OA 
BRANCH  19  20
HETATM   20  C   UNL     1     -11.607   6.189  72.158  1.00  0.00    -0.317 C  
BRANCH  20  21
HETATM   21  C   UNL     1     -11.195   7.556  72.692  1.00  0.00    -0.348 C  
BRANCH  21  22
HETATM   22  O   UNL     1      -9.966   7.966  72.095  1.00  0.00    -0.181 OA 
BRANCH  22  23
HETATM   23  C   UNL     1      -8.917   8.192  73.046  1.00  0.00    -0.266 C  
HETATM   24  C   UNL     1      -9.078   7.318  74.286  1.00  0.00    -0.245 C  
HETATM   25  C   UNL     1      -7.601   7.867  72.348  1.00  0.00    -0.121 C  
ENDBRANCH  22  23
ENDBRANCH  21  22
ENDBRANCH  20  21
ENDBRANCH  19  20
ENDBRANCH  18  19
ENDBRANCH  15  18
ENDBRANCH  11  12
ENDBRANCH  10  11
ENDBRANCH   7  10
ENDBRANCH   6   7
ENDBRANCH   4   6
ENDBRANCH   2   4
TORSDOF 12
ENDMDL
MODEL      282
REMARK 921   NORMALIZED FREE ENERGY PREDICTED BY IDOCK:   -2.98 KCAL/MOL
REMARK 922        TOTAL FREE ENERGY PREDICTED BY IDOCK:   -6.10 KCAL/MOL
REMARK 923 INTER-LIGAND FREE ENERGY PREDICTED BY IDOCK:   -5.28 KCAL/MOL
REMARK 924 INTRA-LIGAND FREE ENERGY PREDICTED BY IDOCK:   -0.81 KCAL/MOL
REMARK 927      BINDING AFFINITY PREDICTED BY RF-SCORE:    0.00 PKD
ROOT
HETATM    1  C   UNL     1     -12.140  12.530  63.113  1.00  0.00    -0.360 C  
HETATM    2  C   UNL     1     -11.264  13.308  64.098  1.00  0.00    -0.379 C  
HETATM    3  C   UNL     1     -11.877  14.689  64.346  1.00  0.00    -0.405 C  
ENDROOT
BRANCH   2   4
HETATM    4  N   UNL     1     -11.156  12.532  65.335  1.00  0.00    -0.293 NA 
HETATM    5  H   UNL     1     -10.181  12.441  65.621  1.00  0.00     0.000 HD 
BRANCH   4   6
HETATM    6  C   UNL     1     -11.973  13.066  66.434  1.00  0.00    -0.402 C  
BRANCH   6   7
HETATM    7  C   UNL     1     -11.230  12.902  67.772  1.00  0.00    -0.280 C  
HETATM    8  O   UNL     1     -11.997  13.510  68.824  1.00  0.00    -0.338 OA 
HETATM    9  H   UNL     1     -11.538  13.409  69.649  1.00  0.00     0.000 HD 
BRANCH   7  10
HETATM   10  C   UNL     1     -10.976  11.428  68.105  1.00  0.00    -0.232 C  
BRANCH  10  11
HETATM   11  O   UNL     1     -11.279  11.197  69.491  1.00  0.00    -0.244 OA 
BRANCH  11  12
HETATM   12  C   UNL     1     -10.689  10.085  70.030  1.00  0.00    -0.299 A  
HETATM   13  C   UNL     1     -11.047   9.508  71.248  1.00  0.00    -0.449 A  
HETATM   14  C   UNL     1     -10.374   8.376  71.713  1.00  0.00    -0.333 A  
HETATM   15  C   UNL     1      -9.340   7.795  70.964  1.00  0.00    -0.160 A  
HETATM   16  C   UNL     1      -9.008   8.358  69.728  1.00  0.00    -0.146 A  
HETATM   17  C   UNL     1      -9.687   9.492  69.261  1.00  0.00    -0.180 A  
BRANCH  15  18
HETATM   18  C   UNL     1      -8.601   6.600  71.506  1.00  0.00    -0.124 C  
BRANCH  18  19
HETATM   19  O   UNL     1      -8.835   5.493  70.641  1.00  0.00    -0.129 OA 
BRANCH  19  20
HETATM   20  C   UNL     1      -7.645   4.751  70.385  1.00  0.00    -0.054 C  
BRANCH  20  21
HETATM   21  C   UNL     1      -7.352   4.821  68.890  1.00  0.00    -0.057 C  
BRANCH  21  22
HETATM   22  O   UNL     1      -8.450   5.418  68.203  1.00  0.00    -0.098 OA 
BRANCH  22  23
HETATM   23  C   UNL     1      -8.108   5.905  66.898  1.00  0.00    -0.102 C  
HETATM   24  C   UNL     1      -7.091   5.003  66.205  1.00  0.00    -0.072 C  
HETATM   25  C   UNL     1      -9.398   5.954  66.086  1.00  0.00    -0.150 C  
ENDBRANCH  22  23
ENDBRANCH  21  22
ENDBRANCH  20  21
ENDBRANCH  19  20
ENDBRANCH  18  19
ENDBRANCH  15  18
ENDBRANCH  11  12
ENDBRANCH  10  11
ENDBRANCH   7  10
ENDBRANCH   6   7
ENDBRANCH   4   6
ENDBRANCH   2   4
TORSDOF 12
ENDMDL
MODEL      283
REMARK 921   NORMALIZED FREE ENERGY PREDICTED BY IDOCK:   -2.98 KCAL/MOL
REMARK 922        TOTAL FREE ENERGY PREDICTED BY IDOCK:   -6.09 KCAL/MOL
REMARK 923 INTER-LIGAND FREE ENERGY PREDICTED BY IDOCK:   -5.02 KCAL/MOL
REMARK 924 INTRA-LIGAND FREE ENERGY PREDICTED BY IDOCK:   -1.07 KCAL/MOL
REMARK 927      BINDING AFFINITY PREDICTED BY RF-SCORE:    0.00 PKD
ROOT
HETATM    1  C   UNL     1     -10.156  10.434  65.464  1.00  0.00    -0.352 C  
HETATM    2  C   UNL     1      -8.941  10.104  64.593  1.00  0.00    -0.209 C  
HETATM    3  C   UNL     1      -7.659  10.460  65.350  1.00  0.00    -0.131 C  
ENDROOT
BRANCH   2   4
HETATM    4  N   UNL     1      -8.991   8.682  64.249  1.00  0.00    -0.381 NA 
HETATM    5  H   UNL     1      -9.862   8.457  63.769  1.00  0.00     0.000 HD 
BRANCH   4   6
HETATM    6  C   UNL     1      -7.833   8.228  63.466  1.00  0.00    -0.152 C  
BRANCH   6   7
HETATM    7  C   UNL     1      -7.775   6.690  63.452  1.00  0.00    -0.109 C  
HETATM    8  O   UNL     1      -6.726   6.258  62.570  1.00  0.00    -0.036 OA 
HETATM    9  H   UNL     1      -6.690   5.309  62.561  1.00  0.00     0.000 HD 
BRANCH   7  10
HETATM   10  C   UNL     1      -7.540   6.116  64.853  1.00  0.00    -0.090 C  
BRANCH  10  11
HETATM   11  O   UNL     1      -8.753   5.509  65.325  1.00  0.00    -0.153 OA 
BRANCH  11  12
HETATM   12  C   UNL     1      -9.275   6.074  66.458  1.00  0.00    -0.148 A  
HETATM   13  C   UNL     1     -10.604   5.955  66.866  1.00  0.00    -0.384 A  
HETATM   14  C   UNL     1     -11.038   6.580  68.037  1.00  0.00    -0.332 A  
HETATM   15  C   UNL     1     -10.150   7.325  68.826  1.00  0.00    -0.179 A  
HETATM   16  C   UNL     1      -8.812   7.413  68.431  1.00  0.00    -0.121 A  
HETATM   17  C   UNL     1      -8.376   6.782  67.257  1.00  0.00    -0.121 A  
BRANCH  15  18
HETATM   18  C   UNL     1     -10.650   8.025  70.062  1.00  0.00    -0.242 C  
BRANCH  18  19
HETATM   19  O   UNL     1     -10.430   9.424  69.910  1.00  0.00    -0.206 OA 
BRANCH  19  20
HETATM   20  C   UNL     1     -11.193   9.973  68.838  1.00  0.00    -0.131 C  
BRANCH  20  21
HETATM   21  C   UNL     1     -11.895  11.228  69.345  1.00  0.00    -0.355 C  
BRANCH  21  22
HETATM   22  O   UNL     1     -12.271  12.057  68.247  1.00  0.00    -0.398 OA 
BRANCH  22  23
HETATM   23  C   UNL     1     -12.012  13.450  68.470  1.00  0.00    -0.328 C  
HETATM   24  C   UNL     1     -10.548  13.706  68.813  1.00  0.00    -0.247 C  
HETATM   25  C   UNL     1     -12.381  14.186  67.186  1.00  0.00    -0.213 C  
ENDBRANCH  22  23
ENDBRANCH  21  22
ENDBRANCH  20  21
ENDBRANCH  19  20
ENDBRANCH  18  19
ENDBRANCH  15  18
ENDBRANCH  11  12
ENDBRANCH  10  11
ENDBRANCH   7  10
ENDBRANCH   6   7
ENDBRANCH   4   6
ENDBRANCH   2   4
TORSDOF 12
ENDMDL
MODEL      284
REMARK 921   NORMALIZED FREE ENERGY PREDICTED BY IDOCK:   -2.94 KCAL/MOL
REMARK 922        TOTAL FREE ENERGY PREDICTED BY IDOCK:   -6.02 KCAL/MOL
REMARK 923 INTER-LIGAND FREE ENERGY PREDICTED BY IDOCK:   -4.52 KCAL/MOL
REMARK 924 INTRA-LIGAND FREE ENERGY PREDICTED BY IDOCK:   -1.49 KCAL/MOL
REMARK 927      BINDING AFFINITY PREDICTED BY RF-SCORE:    0.00 PKD
ROOT
HETATM    1  C   UNL     1     -10.974   6.368  66.888  1.00  0.00    -0.413 C  
HETATM    2  C   UNL     1     -10.190   5.125  66.458  1.00  0.00    -0.264 C  
HETATM    3  C   UNL     1      -8.771   5.532  66.054  1.00  0.00    -0.141 C  
ENDROOT
BRANCH   2   4
HETATM    4  N   UNL     1     -10.187   4.172  67.568  1.00  0.00     0.000 NA 
HETATM    5  H   UNL     1     -10.987   3.542  67.506  1.00  0.00     0.000 HD 
BRANCH   4   6
HETATM    6  C   UNL     1      -8.935   3.412  67.685  1.00  0.00    -0.146 C  
BRANCH   6   7
HETATM    7  C   UNL     1      -8.579   3.204  69.168  1.00  0.00    -0.072 C  
HETATM    8  O   UNL     1      -7.193   3.520  69.377  1.00  0.00    -0.048 OA 
HETATM    9  H   UNL     1      -6.974   3.392  70.293  1.00  0.00     0.000 HD 
BRANCH   7  10
HETATM   10  C   UNL     1      -9.449   4.067  70.088  1.00  0.00    -0.188 C  
BRANCH  10  11
HETATM   11  O   UNL     1      -8.643   5.107  70.664  1.00  0.00    -0.115 OA 
BRANCH  11  12
HETATM   12  C   UNL     1      -8.958   6.374  70.250  1.00  0.00    -0.154 A  
HETATM   13  C   UNL     1      -8.188   7.138  69.374  1.00  0.00    -0.132 A  
HETATM   14  C   UNL     1      -8.595   8.426  69.021  1.00  0.00    -0.131 A  
HETATM   15  C   UNL     1      -9.784   8.968  69.529  1.00  0.00    -0.171 A  
HETATM   16  C   UNL     1     -10.569   8.186  70.381  1.00  0.00    -0.226 A  
HETATM   17  C   UNL     1     -10.161   6.891  70.731  1.00  0.00    -0.212 A  
BRANCH  15  18
HETATM   18  C   UNL     1     -10.182  10.376  69.169  1.00  0.00    -0.222 C  
BRANCH  18  19
HETATM   19  O   UNL     1     -11.272  10.318  68.254  1.00  0.00    -0.276 OA 
BRANCH  19  20
HETATM   20  C   UNL     1     -11.067  11.159  67.121  1.00  0.00    -0.287 C  
BRANCH  20  21
HETATM   21  C   UNL     1     -10.043  12.224  67.496  1.00  0.00    -0.201 C  
BRANCH  21  22
HETATM   22  O   UNL     1      -9.810  13.092  66.388  1.00  0.00    -0.259 OA 
BRANCH  22  23
HETATM   23  C   UNL     1      -9.320  14.384  66.769  1.00  0.00    -0.268 C  
HETATM   24  C   UNL     1      -9.906  15.492  65.899  1.00  0.00    -0.385 C  
HETATM   25  C   UNL     1      -9.716  14.602  68.225  1.00  0.00    -0.215 C  
ENDBRANCH  22  23
ENDBRANCH  21  22
ENDBRANCH  20  21
ENDBRANCH  19  20
ENDBRANCH  18  19
ENDBRANCH  15  18
ENDBRANCH  11  12
ENDBRANCH  10  11
ENDBRANCH   7  10
ENDBRANCH   6   7
ENDBRANCH   4   6
ENDBRANCH   2   4
TORSDOF 12
ENDMDL
MODEL      285
REMARK 921   NORMALIZED FREE ENERGY PREDICTED BY IDOCK:   -2.93 KCAL/MOL
REMARK 922        TOTAL FREE ENERGY PREDICTED BY IDOCK:   -6.01 KCAL/MOL
REMARK 923 INTER-LIGAND FREE ENERGY PREDICTED BY IDOCK:   -5.17 KCAL/MOL
REMARK 924 INTRA-LIGAND FREE ENERGY PREDICTED BY IDOCK:   -0.83 KCAL/MOL
REMARK 927      BINDING AFFINITY PREDICTED BY RF-SCORE:    0.00 PKD
ROOT
HETATM    1  C   UNL     1     -11.054   9.605  70.911  1.00  0.00    -0.422 C  
HETATM    2  C   UNL     1     -12.170  10.603  70.592  1.00  0.00    -0.365 C  
HETATM    3  C   UNL     1     -13.185  10.616  71.737  1.00  0.00    -0.526 C  
ENDROOT
BRANCH   2   4
HETATM    4  N   UNL     1     -11.567  11.921  70.386  1.00  0.00    -0.503 NA 
HETATM    5  H   UNL     1     -10.552  11.847  70.314  1.00  0.00     0.000 HD 
BRANCH   4   6
HETATM    6  C   UNL     1     -12.119  12.644  69.232  1.00  0.00    -0.166 C  
BRANCH   6   7
HETATM    7  C   UNL     1     -11.256  13.879  68.920  1.00  0.00    -0.271 C  
HETATM    8  O   UNL     1     -11.034  14.626  70.127  1.00  0.00    -0.424 OA 
HETATM    9  H   UNL     1     -10.501  15.389  69.934  1.00  0.00     0.000 HD 
BRANCH   7  10
HETATM   10  C   UNL     1      -9.909  13.491  68.300  1.00  0.00    -0.233 C  
BRANCH  10  11
HETATM   11  O   UNL     1     -10.131  12.952  66.987  1.00  0.00    -0.239 OA 
BRANCH  11  12
HETATM   12  C   UNL     1      -9.706  11.662  66.816  1.00  0.00    -0.201 A  
HETATM   13  C   UNL     1     -10.068  10.841  65.748  1.00  0.00    -0.320 A  
HETATM   14  C   UNL     1      -9.584   9.533  65.672  1.00  0.00    -0.346 A  
HETATM   15  C   UNL     1      -8.723   9.027  66.655  1.00  0.00    -0.140 A  
HETATM   16  C   UNL     1      -8.336   9.864  67.705  1.00  0.00    -0.114 A  
HETATM   17  C   UNL     1      -8.819  11.179  67.779  1.00  0.00    -0.135 A  
BRANCH  15  18
HETATM   18  C   UNL     1      -8.248   7.599  66.575  1.00  0.00    -0.125 C  
BRANCH  18  19
HETATM   19  O   UNL     1      -8.755   7.020  65.377  1.00  0.00    -0.094 OA 
BRANCH  19  20
HETATM   20  C   UNL     1      -7.748   6.319  64.651  1.00  0.00    -0.105 C  
BRANCH  20  21
HETATM   21  C   UNL     1      -6.924   5.505  65.643  1.00  0.00    -0.065 C  
BRANCH  21  22
HETATM   22  O   UNL     1      -7.062   4.112  65.367  1.00  0.00    -0.060 OA 
BRANCH  22  23
HETATM   23  C   UNL     1      -8.184   3.509  66.024  1.00  0.00    -0.097 C  
HETATM   24  C   UNL     1      -9.302   3.173  65.042  1.00  0.00    -0.148 C  
HETATM   25  C   UNL     1      -7.681   2.235  66.694  1.00  0.00    -0.071 C  
ENDBRANCH  22  23
ENDBRANCH  21  22
ENDBRANCH  20  21
ENDBRANCH  19  20
ENDBRANCH  18  19
ENDBRANCH  15  18
ENDBRANCH  11  12
ENDBRANCH  10  11
ENDBRANCH   7  10
ENDBRANCH   6   7
ENDBRANCH   4   6
ENDBRANCH   2   4
TORSDOF 12
ENDMDL
MODEL      286
REMARK 921   NORMALIZED FREE ENERGY PREDICTED BY IDOCK:   -2.93 KCAL/MOL
REMARK 922        TOTAL FREE ENERGY PREDICTED BY IDOCK:   -6.00 KCAL/MOL
REMARK 923 INTER-LIGAND FREE ENERGY PREDICTED BY IDOCK:   -5.43 KCAL/MOL
REMARK 924 INTRA-LIGAND FREE ENERGY PREDICTED BY IDOCK:   -0.57 KCAL/MOL
REMARK 927      BINDING AFFINITY PREDICTED BY RF-SCORE:    0.00 PKD
ROOT
HETATM    1  C   UNL     1      -6.766   7.761  72.081  1.00  0.00    -0.059 C  
HETATM    2  C   UNL     1      -8.289   7.649  71.972  1.00  0.00    -0.110 C  
HETATM    3  C   UNL     1      -8.899   7.599  73.374  1.00  0.00    -0.269 C  
ENDROOT
BRANCH   2   4
HETATM    4  N   UNL     1      -8.784   8.794  71.205  1.00  0.00    -0.194 NA 
HETATM    5  H   UNL     1      -8.115   9.061  70.483  1.00  0.00     0.000 HD 
BRANCH   4   6
HETATM    6  C   UNL     1     -10.117   8.578  70.625  1.00  0.00    -0.192 C  
BRANCH   6   7
HETATM    7  C   UNL     1      -9.990   8.184  69.142  1.00  0.00    -0.192 C  
HETATM    8  O   UNL     1     -11.267   7.743  68.653  1.00  0.00    -0.374 OA 
HETATM    9  H   UNL     1     -11.189   7.500  67.738  1.00  0.00     0.000 HD 
BRANCH   7  10
HETATM   10  C   UNL     1      -9.486   9.350  68.285  1.00  0.00    -0.137 C  
BRANCH  10  11
HETATM   11  O   UNL     1     -10.435   9.614  67.239  1.00  0.00    -0.239 OA 
BRANCH  11  12
HETATM   12  C   UNL     1     -10.504  10.924  66.844  1.00  0.00    -0.249 A  
HETATM   13  C   UNL     1     -11.144  11.372  65.689  1.00  0.00    -0.207 A  
HETATM   14  C   UNL     1     -11.150  12.732  65.372  1.00  0.00    -0.317 A  
HETATM   15  C   UNL     1     -10.527  13.668  66.209  1.00  0.00    -0.291 A  
HETATM   16  C   UNL     1      -9.916  13.218  67.383  1.00  0.00    -0.233 A  
HETATM   17  C   UNL     1      -9.914  11.852  67.702  1.00  0.00    -0.197 A  
BRANCH  15  18
HETATM   18  C   UNL     1     -10.509  15.125  65.825  1.00  0.00    -0.339 C  
BRANCH  18  19
HETATM   19  O   UNL     1     -10.838  15.899  66.974  1.00  0.00    -0.316 OA 
BRANCH  19  20
HETATM   20  C   UNL     1     -10.169  17.159  66.981  1.00  0.00    -0.313 C  
BRANCH  20  21
HETATM   21  C   UNL     1      -9.094  17.123  68.061  1.00  0.00    -0.240 C  
BRANCH  21  22
HETATM   22  O   UNL     1      -7.974  17.912  67.663  1.00  0.00    -0.214 OA 
BRANCH  22  23
HETATM   23  C   UNL     1      -7.693  18.996  68.558  1.00  0.00    -0.333 C  
HETATM   24  C   UNL     1      -6.224  19.405  68.509  1.00  0.00    -0.270 C  
HETATM   25  C   UNL     1      -8.573  20.167  68.134  1.00  0.00    -0.146 C  
ENDBRANCH  22  23
ENDBRANCH  21  22
ENDBRANCH  20  21
ENDBRANCH  19  20
ENDBRANCH  18  19
ENDBRANCH  15  18
ENDBRANCH  11  12
ENDBRANCH  10  11
ENDBRANCH   7  10
ENDBRANCH   6   7
ENDBRANCH   4   6
ENDBRANCH   2   4
TORSDOF 12
ENDMDL
MODEL      287
REMARK 921   NORMALIZED FREE ENERGY PREDICTED BY IDOCK:   -2.89 KCAL/MOL
REMARK 922        TOTAL FREE ENERGY PREDICTED BY IDOCK:   -5.93 KCAL/MOL
REMARK 923 INTER-LIGAND FREE ENERGY PREDICTED BY IDOCK:   -4.25 KCAL/MOL
REMARK 924 INTRA-LIGAND FREE ENERGY PREDICTED BY IDOCK:   -1.68 KCAL/MOL
REMARK 927      BINDING AFFINITY PREDICTED BY RF-SCORE:    0.00 PKD
ROOT
HETATM    1  C   UNL     1     -10.775   9.013  67.444  1.00  0.00    -0.231 C  
HETATM    2  C   UNL     1      -9.809   8.055  66.742  1.00  0.00    -0.257 C  
HETATM    3  C   UNL     1     -10.453   6.671  66.632  1.00  0.00    -0.222 C  
ENDROOT
BRANCH   2   4
HETATM    4  N   UNL     1      -9.483   8.609  65.427  1.00  0.00    -0.436 NA 
HETATM    5  H   UNL     1     -10.328   8.738  64.870  1.00  0.00     0.000 HD 
BRANCH   4   6
HETATM    6  C   UNL     1      -8.706   9.854  65.491  1.00  0.00    -0.151 C  
BRANCH   6   7
HETATM    7  C   UNL     1      -7.407   9.710  64.678  1.00  0.00    -0.123 C  
HETATM    8  O   UNL     1      -6.475  10.727  65.078  1.00  0.00    -0.354 OA 
HETATM    9  H   UNL     1      -5.674  10.638  64.576  1.00  0.00     0.000 HD 
BRANCH   7  10
HETATM   10  C   UNL     1      -6.771   8.328  64.863  1.00  0.00    -0.067 C  
BRANCH  10  11
HETATM   11  O   UNL     1      -5.898   8.357  66.004  1.00  0.00    -0.042 OA 
BRANCH  11  12
HETATM   12  C   UNL     1      -6.358   7.671  67.096  1.00  0.00    -0.054 A  
HETATM   13  C   UNL     1      -6.553   6.291  67.143  1.00  0.00    -0.058 A  
HETATM   14  C   UNL     1      -7.036   5.689  68.308  1.00  0.00    -0.074 A  
HETATM   15  C   UNL     1      -7.321   6.454  69.447  1.00  0.00    -0.092 A  
HETATM   16  C   UNL     1      -7.092   7.833  69.406  1.00  0.00    -0.071 A  
HETATM   17  C   UNL     1      -6.604   8.435  68.237  1.00  0.00    -0.060 A  
BRANCH  15  18
HETATM   18  C   UNL     1      -7.881   5.789  70.677  1.00  0.00    -0.101 C  
BRANCH  18  19
HETATM   19  O   UNL     1      -9.190   5.313  70.378  1.00  0.00    -0.140 OA 
BRANCH  19  20
HETATM   20  C   UNL     1      -9.954   5.067  71.557  1.00  0.00    -0.190 C  
BRANCH  20  21
HETATM   21  C   UNL     1     -10.520   6.395  72.046  1.00  0.00    -0.208 C  
BRANCH  21  22
HETATM   22  O   UNL     1     -11.532   6.855  71.152  1.00  0.00    -0.272 OA 
BRANCH  22  23
HETATM   23  C   UNL     1     -11.591   8.283  71.043  1.00  0.00    -0.275 C  
HETATM   24  C   UNL     1     -12.453   8.900  72.140  1.00  0.00    -0.459 C  
HETATM   25  C   UNL     1     -10.160   8.801  71.154  1.00  0.00    -0.317 C  
ENDBRANCH  22  23
ENDBRANCH  21  22
ENDBRANCH  20  21
ENDBRANCH  19  20
ENDBRANCH  18  19
ENDBRANCH  15  18
ENDBRANCH  11  12
ENDBRANCH  10  11
ENDBRANCH   7  10
ENDBRANCH   6   7
ENDBRANCH   4   6
ENDBRANCH   2   4
TORSDOF 12
ENDMDL
MODEL      288
REMARK 921   NORMALIZED FREE ENERGY PREDICTED BY IDOCK:   -2.86 KCAL/MOL
REMARK 922        TOTAL FREE ENERGY PREDICTED BY IDOCK:   -5.88 KCAL/MOL
REMARK 923 INTER-LIGAND FREE ENERGY PREDICTED BY IDOCK:   -5.65 KCAL/MOL
REMARK 924 INTRA-LIGAND FREE ENERGY PREDICTED BY IDOCK:   -0.24 KCAL/MOL
REMARK 927      BINDING AFFINITY PREDICTED BY RF-SCORE:    0.00 PKD
ROOT
HETATM    1  C   UNL     1      -9.922  18.540  68.837  1.00  0.00    -0.383 C  
HETATM    2  C   UNL     1     -10.217  17.338  67.936  1.00  0.00    -0.332 C  
HETATM    3  C   UNL     1     -10.328  17.805  66.483  1.00  0.00    -0.345 C  
ENDROOT
BRANCH   2   4
HETATM    4  N   UNL     1      -9.146  16.355  68.110  1.00  0.00    -0.198 NA 
HETATM    5  H   UNL     1      -8.588  16.571  68.936  1.00  0.00     0.000 HD 
BRANCH   4   6
HETATM    6  C   UNL     1      -9.627  14.967  68.156  1.00  0.00    -0.207 C  
BRANCH   6   7
HETATM    7  C   UNL     1     -10.233  14.573  66.796  1.00  0.00    -0.266 C  
HETATM    8  O   UNL     1      -9.177  14.319  65.856  1.00  0.00    -0.517 OA 
HETATM    9  H   UNL     1      -9.550  14.076  65.018  1.00  0.00     0.000 HD 
BRANCH   7  10
HETATM   10  C   UNL     1     -11.130  13.336  66.910  1.00  0.00    -0.289 C  
BRANCH  10  11
HETATM   11  O   UNL     1     -10.811  12.421  65.849  1.00  0.00    -0.257 OA 
BRANCH  11  12
HETATM   12  C   UNL     1     -10.593  11.130  66.250  1.00  0.00    -0.253 A  
HETATM   13  C   UNL     1     -10.958  10.611  67.493  1.00  0.00    -0.371 A  
HETATM   14  C   UNL     1     -10.681   9.279  67.806  1.00  0.00    -0.270 A  
HETATM   15  C   UNL     1     -10.046   8.439  66.881  1.00  0.00    -0.364 A  
HETATM   16  C   UNL     1      -9.712   8.955  65.625  1.00  0.00    -0.107 A  
HETATM   17  C   UNL     1      -9.994  10.291  65.310  1.00  0.00    -0.387 A  
BRANCH  15  18
HETATM   18  C   UNL     1      -9.719   7.018  67.257  1.00  0.00    -0.149 C  
BRANCH  18  19
HETATM   19  O   UNL     1      -8.988   7.030  68.479  1.00  0.00    -0.125 OA 
BRANCH  19  20
HETATM   20  C   UNL     1      -7.709   6.414  68.345  1.00  0.00    -0.104 C  
BRANCH  20  21
HETATM   21  C   UNL     1      -7.676   5.180  69.240  1.00  0.00    -0.076 C  
BRANCH  21  22
HETATM   22  O   UNL     1      -8.002   5.540  70.581  1.00  0.00    -0.098 OA 
BRANCH  22  23
HETATM   23  C   UNL     1      -9.320   5.135  70.975  1.00  0.00    -0.151 C  
HETATM   24  C   UNL     1      -9.425   3.621  71.130  1.00  0.00    -0.234 C  
HETATM   25  C   UNL     1      -9.620   5.816  72.306  1.00  0.00    -0.164 C  
ENDBRANCH  22  23
ENDBRANCH  21  22
ENDBRANCH  20  21
ENDBRANCH  19  20
ENDBRANCH  18  19
ENDBRANCH  15  18
ENDBRANCH  11  12
ENDBRANCH  10  11
ENDBRANCH   7  10
ENDBRANCH   6   7
ENDBRANCH   4   6
ENDBRANCH   2   4
TORSDOF 12
ENDMDL
MODEL      289
REMARK 921   NORMALIZED FREE ENERGY PREDICTED BY IDOCK:   -2.84 KCAL/MOL
REMARK 922        TOTAL FREE ENERGY PREDICTED BY IDOCK:   -5.85 KCAL/MOL
REMARK 923 INTER-LIGAND FREE ENERGY PREDICTED BY IDOCK:   -4.69 KCAL/MOL
REMARK 924 INTRA-LIGAND FREE ENERGY PREDICTED BY IDOCK:   -1.16 KCAL/MOL
REMARK 927      BINDING AFFINITY PREDICTED BY RF-SCORE:    0.00 PKD
ROOT
HETATM    1  C   UNL     1     -10.630   6.952  72.140  1.00  0.00    -0.241 C  
HETATM    2  C   UNL     1      -9.814   6.307  71.017  1.00  0.00    -0.181 C  
HETATM    3  C   UNL     1     -10.762   5.737  69.960  1.00  0.00    -0.400 C  
ENDROOT
BRANCH   2   4
HETATM    4  N   UNL     1      -8.919   7.321  70.454  1.00  0.00    -0.150 NA 
HETATM    5  H   UNL     1      -7.969   7.200  70.806  1.00  0.00     0.000 HD 
BRANCH   4   6
HETATM    6  C   UNL     1      -8.929   7.359  68.986  1.00  0.00    -0.131 C  
BRANCH   6   7
HETATM    7  C   UNL     1      -7.494   7.226  68.444  1.00  0.00    -0.106 C  
HETATM    8  O   UNL     1      -7.083   5.851  68.509  1.00  0.00    -0.076 OA 
HETATM    9  H   UNL     1      -6.197   5.769  68.175  1.00  0.00     0.000 HD 
BRANCH   7  10
HETATM   10  C   UNL     1      -7.381   7.731  67.002  1.00  0.00    -0.091 C  
BRANCH  10  11
HETATM   11  O   UNL     1      -6.495   8.860  66.964  1.00  0.00    -0.059 OA 
BRANCH  11  12
HETATM   12  C   UNL     1      -7.115  10.080  67.029  1.00  0.00    -0.089 A  
HETATM   13  C   UNL     1      -8.295  10.407  66.363  1.00  0.00    -0.139 A  
HETATM   14  C   UNL     1      -8.842  11.686  66.491  1.00  0.00    -0.188 A  
HETATM   15  C   UNL     1      -8.225  12.655  67.294  1.00  0.00    -0.184 A  
HETATM   16  C   UNL     1      -7.061  12.311  67.987  1.00  0.00    -0.099 A  
HETATM   17  C   UNL     1      -6.514  11.026  67.861  1.00  0.00    -0.062 A  
BRANCH  15  18
HETATM   18  C   UNL     1      -8.810  14.040  67.383  1.00  0.00    -0.206 C  
BRANCH  18  19
HETATM   19  O   UNL     1      -9.205  14.449  66.077  1.00  0.00    -0.190 OA 
BRANCH  19  20
HETATM   20  C   UNL     1     -10.261  15.407  66.111  1.00  0.00    -0.308 C  
BRANCH  20  21
HETATM   21  C   UNL     1     -11.582  14.668  65.928  1.00  0.00    -0.327 C  
BRANCH  21  22
HETATM   22  O   UNL     1     -11.823  14.432  64.542  1.00  0.00    -0.422 OA 
BRANCH  22  23
HETATM   23  C   UNL     1     -12.179  13.074  64.249  1.00  0.00    -0.396 C  
HETATM   24  C   UNL     1     -11.104  12.373  63.423  1.00  0.00    -0.465 C  
HETATM   25  C   UNL     1     -12.358  12.359  65.584  1.00  0.00    -0.182 C  
ENDBRANCH  22  23
ENDBRANCH  21  22
ENDBRANCH  20  21
ENDBRANCH  19  20
ENDBRANCH  18  19
ENDBRANCH  15  18
ENDBRANCH  11  12
ENDBRANCH  10  11
ENDBRANCH   7  10
ENDBRANCH   6   7
ENDBRANCH   4   6
ENDBRANCH   2   4
TORSDOF 12
ENDMDL
MODEL      290
REMARK 921   NORMALIZED FREE ENERGY PREDICTED BY IDOCK:   -2.83 KCAL/MOL
REMARK 922        TOTAL FREE ENERGY PREDICTED BY IDOCK:   -5.84 KCAL/MOL
REMARK 923 INTER-LIGAND FREE ENERGY PREDICTED BY IDOCK:   -5.23 KCAL/MOL
REMARK 924 INTRA-LIGAND FREE ENERGY PREDICTED BY IDOCK:   -0.61 KCAL/MOL
REMARK 927      BINDING AFFINITY PREDICTED BY RF-SCORE:    0.00 PKD
ROOT
HETATM    1  C   UNL     1      -7.684   5.373  72.179  1.00  0.00    -0.101 C  
HETATM    2  C   UNL     1      -8.877   5.679  73.087  1.00  0.00    -0.122 C  
HETATM    3  C   UNL     1      -8.429   5.639  74.550  1.00  0.00    -0.107 C  
ENDROOT
BRANCH   2   4
HETATM    4  N   UNL     1      -9.415   6.991  72.719  1.00  0.00    -0.144 NA 
HETATM    5  H   UNL     1      -9.179   7.220  71.753  1.00  0.00     0.000 HD 
BRANCH   4   6
HETATM    6  C   UNL     1     -10.861   7.115  72.946  1.00  0.00    -0.323 C  
BRANCH   6   7
HETATM    7  C   UNL     1     -11.500   7.960  71.829  1.00  0.00    -0.269 C  
HETATM    8  O   UNL     1     -12.483   8.840  72.397  1.00  0.00    -0.379 OA 
HETATM    9  H   UNL     1     -12.878   9.362  71.707  1.00  0.00     0.000 HD 
BRANCH   7  10
HETATM   10  C   UNL     1     -10.454   8.779  71.066  1.00  0.00    -0.230 C  
BRANCH  10  11
HETATM   11  O   UNL     1     -10.340   8.272  69.727  1.00  0.00    -0.207 OA 
BRANCH  11  12
HETATM   12  C   UNL     1     -10.272   9.232  68.753  1.00  0.00    -0.205 A  
HETATM   13  C   UNL     1     -10.875   9.135  67.499  1.00  0.00    -0.151 A  
HETATM   14  C   UNL     1     -10.737  10.171  66.571  1.00  0.00    -0.118 A  
HETATM   15  C   UNL     1     -10.003  11.323  66.885  1.00  0.00    -0.238 A  
HETATM   16  C   UNL     1      -9.428  11.429  68.155  1.00  0.00    -0.181 A  
HETATM   17  C   UNL     1      -9.571  10.391  69.086  1.00  0.00    -0.226 A  
BRANCH  15  18
HETATM   18  C   UNL     1      -9.831  12.407  65.853  1.00  0.00    -0.252 C  
BRANCH  18  19
HETATM   19  O   UNL     1     -10.668  13.505  66.207  1.00  0.00    -0.284 OA 
BRANCH  19  20
HETATM   20  C   UNL     1      -9.917  14.688  66.473  1.00  0.00    -0.281 C  
BRANCH  20  21
HETATM   21  C   UNL     1     -10.817  15.667  67.217  1.00  0.00    -0.298 C  
BRANCH  21  22
HETATM   22  O   UNL     1     -10.100  16.273  68.291  1.00  0.00    -0.233 OA 
BRANCH  22  23
HETATM   23  C   UNL     1      -9.311  17.399  67.886  1.00  0.00    -0.267 C  
HETATM   24  C   UNL     1      -9.725  18.673  68.617  1.00  0.00    -0.418 C  
HETATM   25  C   UNL     1      -7.857  17.066  68.204  1.00  0.00    -0.196 C  
ENDBRANCH  22  23
ENDBRANCH  21  22
ENDBRANCH  20  21
ENDBRANCH  19  20
ENDBRANCH  18  19
ENDBRANCH  15  18
ENDBRANCH  11  12
ENDBRANCH  10  11
ENDBRANCH   7  10
ENDBRANCH   6   7
ENDBRANCH   4   6
ENDBRANCH   2   4
TORSDOF 12
ENDMDL
MODEL      291
REMARK 921   NORMALIZED FREE ENERGY PREDICTED BY IDOCK:   -2.83 KCAL/MOL
REMARK 922        TOTAL FREE ENERGY PREDICTED BY IDOCK:   -5.84 KCAL/MOL
REMARK 923 INTER-LIGAND FREE ENERGY PREDICTED BY IDOCK:   -5.06 KCAL/MOL
REMARK 924 INTRA-LIGAND FREE ENERGY PREDICTED BY IDOCK:   -0.77 KCAL/MOL
REMARK 927      BINDING AFFINITY PREDICTED BY RF-SCORE:    0.00 PKD
ROOT
HETATM    1  C   UNL     1     -11.089   6.176  70.668  1.00  0.00    -0.384 C  
HETATM    2  C   UNL     1      -9.853   5.428  70.165  1.00  0.00    -0.207 C  
HETATM    3  C   UNL     1      -9.742   4.083  70.888  1.00  0.00    -0.257 C  
ENDROOT
BRANCH   2   4
HETATM    4  N   UNL     1      -9.972   5.257  68.716  1.00  0.00    -0.165 NA 
HETATM    5  H   UNL     1     -10.811   4.726  68.482  1.00  0.00     0.000 HD 
BRANCH   4   6
HETATM    6  C   UNL     1      -9.935   6.524  67.972  1.00  0.00    -0.134 C  
BRANCH   6   7
HETATM    7  C   UNL     1      -8.513   6.784  67.443  1.00  0.00    -0.121 C  
HETATM    8  O   UNL     1      -7.868   5.531  67.166  1.00  0.00    -0.099 OA 
HETATM    9  H   UNL     1      -6.990   5.691  66.839  1.00  0.00     0.000 HD 
BRANCH   7  10
HETATM   10  C   UNL     1      -8.526   7.647  66.177  1.00  0.00    -0.143 C  
BRANCH  10  11
HETATM   11  O   UNL     1      -7.662   8.779  66.366  1.00  0.00    -0.096 OA 
BRANCH  11  12
HETATM   12  C   UNL     1      -8.305   9.949  66.669  1.00  0.00    -0.125 A  
HETATM   13  C   UNL     1      -7.788  10.950  67.492  1.00  0.00    -0.114 A  
HETATM   14  C   UNL     1      -8.532  12.105  67.744  1.00  0.00    -0.160 A  
HETATM   15  C   UNL     1      -9.798  12.285  67.170  1.00  0.00    -0.207 A  
HETATM   16  C   UNL     1     -10.297  11.294  66.320  1.00  0.00    -0.294 A  
HETATM   17  C   UNL     1      -9.549  10.136  66.064  1.00  0.00    -0.265 A  
BRANCH  15  18
HETATM   18  C   UNL     1     -10.600  13.520  67.491  1.00  0.00    -0.244 C  
BRANCH  18  19
HETATM   19  O   UNL     1     -10.736  13.616  68.905  1.00  0.00    -0.245 OA 
BRANCH  19  20
HETATM   20  C   UNL     1     -11.932  12.997  69.373  1.00  0.00    -0.281 C  
BRANCH  20  21
HETATM   21  C   UNL     1     -12.217  13.509  70.780  1.00  0.00    -0.338 C  
BRANCH  21  22
HETATM   22  O   UNL     1     -13.184  14.557  70.734  1.00  0.00    -0.364 OA 
BRANCH  22  23
HETATM   23  C   UNL     1     -12.938  15.602  71.684  1.00  0.00    -0.476 C  
HETATM   24  C   UNL     1     -12.421  15.052  73.010  1.00  0.00    -0.514 C  
HETATM   25  C   UNL     1     -11.899  16.533  71.067  1.00  0.00     0.171 C  
ENDBRANCH  22  23
ENDBRANCH  21  22
ENDBRANCH  20  21
ENDBRANCH  19  20
ENDBRANCH  18  19
ENDBRANCH  15  18
ENDBRANCH  11  12
ENDBRANCH  10  11
ENDBRANCH   7  10
ENDBRANCH   6   7
ENDBRANCH   4   6
ENDBRANCH   2   4
TORSDOF 12
ENDMDL
MODEL      292
REMARK 921   NORMALIZED FREE ENERGY PREDICTED BY IDOCK:   -2.82 KCAL/MOL
REMARK 922        TOTAL FREE ENERGY PREDICTED BY IDOCK:   -5.82 KCAL/MOL
REMARK 923 INTER-LIGAND FREE ENERGY PREDICTED BY IDOCK:   -5.07 KCAL/MOL
REMARK 924 INTRA-LIGAND FREE ENERGY PREDICTED BY IDOCK:   -0.75 KCAL/MOL
REMARK 927      BINDING AFFINITY PREDICTED BY RF-SCORE:    0.00 PKD
ROOT
HETATM    1  C   UNL     1      -7.084  17.561  67.002  1.00  0.00    -0.210 C  
HETATM    2  C   UNL     1      -8.068  17.702  68.166  1.00  0.00    -0.252 C  
HETATM    3  C   UNL     1      -9.272  18.533  67.719  1.00  0.00    -0.295 C  
ENDROOT
BRANCH   2   4
HETATM    4  N   UNL     1      -8.464  16.362  68.603  1.00  0.00    -0.217 NA 
HETATM    5  H   UNL     1      -9.442  16.351  68.893  1.00  0.00     0.000 HD 
BRANCH   4   6
HETATM    6  C   UNL     1      -8.208  15.320  67.599  1.00  0.00    -0.161 C  
BRANCH   6   7
HETATM    7  C   UNL     1      -9.525  14.908  66.917  1.00  0.00    -0.237 C  
HETATM    8  O   UNL     1      -9.251  14.447  65.585  1.00  0.00    -0.497 OA 
HETATM    9  H   UNL     1     -10.063  14.192  65.163  1.00  0.00     0.000 HD 
BRANCH   7  10
HETATM   10  C   UNL     1     -10.253  13.811  67.702  1.00  0.00    -0.242 C  
BRANCH  10  11
HETATM   11  O   UNL     1      -9.287  12.903  68.255  1.00  0.00    -0.209 OA 
BRANCH  11  12
HETATM   12  C   UNL     1      -9.818  11.778  68.826  1.00  0.00    -0.087 A  
HETATM   13  C   UNL     1     -11.152  11.634  69.207  1.00  0.00    -0.291 A  
HETATM   14  C   UNL     1     -11.591  10.444  69.792  1.00  0.00    -0.339 A  
HETATM   15  C   UNL     1     -10.708   9.374  69.996  1.00  0.00    -0.270 A  
HETATM   16  C   UNL     1      -9.380   9.512  69.582  1.00  0.00    -0.213 A  
HETATM   17  C   UNL     1      -8.941  10.705  68.992  1.00  0.00    -0.165 A  
BRANCH  15  18
HETATM   18  C   UNL     1     -11.194   8.117  70.667  1.00  0.00    -0.260 C  
BRANCH  18  19
HETATM   19  O   UNL     1     -11.594   7.192  69.660  1.00  0.00    -0.075 OA 
BRANCH  19  20
HETATM   20  C   UNL     1     -11.206   5.856  69.973  1.00  0.00    -0.270 C  
BRANCH  20  21
HETATM   21  C   UNL     1      -9.989   5.502  69.127  1.00  0.00    -0.190 C  
BRANCH  21  22
HETATM   22  O   UNL     1     -10.372   4.644  68.053  1.00  0.00    -0.005 OA 
BRANCH  22  23
HETATM   23  C   UNL     1      -9.841   5.048  66.784  1.00  0.00    -0.192 C  
HETATM   24  C   UNL     1     -10.772   4.672  65.635  1.00  0.00    -0.193 C  
HETATM   25  C   UNL     1      -9.663   6.562  66.834  1.00  0.00    -0.199 C  
ENDBRANCH  22  23
ENDBRANCH  21  22
ENDBRANCH  20  21
ENDBRANCH  19  20
ENDBRANCH  18  19
ENDBRANCH  15  18
ENDBRANCH  11  12
ENDBRANCH  10  11
ENDBRANCH   7  10
ENDBRANCH   6   7
ENDBRANCH   4   6
ENDBRANCH   2   4
TORSDOF 12
ENDMDL
MODEL      293
REMARK 921   NORMALIZED FREE ENERGY PREDICTED BY IDOCK:   -2.79 KCAL/MOL
REMARK 922        TOTAL FREE ENERGY PREDICTED BY IDOCK:   -5.78 KCAL/MOL
REMARK 923 INTER-LIGAND FREE ENERGY PREDICTED BY IDOCK:   -4.84 KCAL/MOL
REMARK 924 INTRA-LIGAND FREE ENERGY PREDICTED BY IDOCK:   -0.93 KCAL/MOL
REMARK 927      BINDING AFFINITY PREDICTED BY RF-SCORE:    0.00 PKD
ROOT
HETATM    1  C   UNL     1      -9.579   8.785  70.360  1.00  0.00    -0.210 C  
HETATM    2  C   UNL     1      -8.399   9.319  69.544  1.00  0.00    -0.131 C  
HETATM    3  C   UNL     1      -8.725   9.221  68.052  1.00  0.00    -0.125 C  
ENDROOT
BRANCH   2   4
HETATM    4  N   UNL     1      -8.140  10.700  69.954  1.00  0.00    -0.330 NA 
HETATM    5  H   UNL     1      -7.636  10.726  70.841  1.00  0.00     0.000 HD 
BRANCH   4   6
HETATM    6  C   UNL     1      -7.440  11.492  68.934  1.00  0.00    -0.106 C  
BRANCH   6   7
HETATM    7  C   UNL     1      -6.408  12.420  69.602  1.00  0.00    -0.107 C  
HETATM    8  O   UNL     1      -5.743  11.713  70.661  1.00  0.00    -0.172 OA 
HETATM    9  H   UNL     1      -5.107  12.286  71.073  1.00  0.00     0.000 HD 
BRANCH   7  10
HETATM   10  C   UNL     1      -5.373  12.936  68.597  1.00  0.00    -0.065 C  
BRANCH  10  11
HETATM   11  O   UNL     1      -5.280  14.365  68.705  1.00  0.00    -0.086 OA 
BRANCH  11  12
HETATM   12  C   UNL     1      -6.459  15.034  68.510  1.00  0.00    -0.094 A  
HETATM   13  C   UNL     1      -6.960  16.024  69.355  1.00  0.00    -0.216 A  
HETATM   14  C   UNL     1      -8.180  16.639  69.069  1.00  0.00    -0.190 A  
HETATM   15  C   UNL     1      -8.915  16.285  67.929  1.00  0.00    -0.187 A  
HETATM   16  C   UNL     1      -8.392  15.316  67.067  1.00  0.00    -0.267 A  
HETATM   17  C   UNL     1      -7.165  14.701  67.353  1.00  0.00    -0.182 A  
BRANCH  15  18
HETATM   18  C   UNL     1     -10.249  16.932  67.664  1.00  0.00    -0.306 C  
BRANCH  18  19
HETATM   19  O   UNL     1     -11.266  15.944  67.798  1.00  0.00    -0.326 OA 
BRANCH  19  20
HETATM   20  C   UNL     1     -11.738  15.840  69.140  1.00  0.00    -0.388 C  
BRANCH  20  21
HETATM   21  C   UNL     1     -11.181  14.557  69.744  1.00  0.00    -0.234 C  
BRANCH  21  22
HETATM   22  O   UNL     1     -12.236  13.788  70.321  1.00  0.00    -0.326 OA 
BRANCH  22  23
HETATM   23  C   UNL     1     -12.397  12.498  69.717  1.00  0.00    -0.020 C  
HETATM   24  C   UNL     1     -11.281  12.195  68.722  1.00  0.00    -0.314 C  
HETATM   25  C   UNL     1     -12.383  11.470  70.844  1.00  0.00    -0.460 C  
ENDBRANCH  22  23
ENDBRANCH  21  22
ENDBRANCH  20  21
ENDBRANCH  19  20
ENDBRANCH  18  19
ENDBRANCH  15  18
ENDBRANCH  11  12
ENDBRANCH  10  11
ENDBRANCH   7  10
ENDBRANCH   6   7
ENDBRANCH   4   6
ENDBRANCH   2   4
TORSDOF 12
ENDMDL
MODEL      294
REMARK 921   NORMALIZED FREE ENERGY PREDICTED BY IDOCK:   -2.79 KCAL/MOL
REMARK 922        TOTAL FREE ENERGY PREDICTED BY IDOCK:   -5.77 KCAL/MOL
REMARK 923 INTER-LIGAND FREE ENERGY PREDICTED BY IDOCK:   -5.02 KCAL/MOL
REMARK 924 INTRA-LIGAND FREE ENERGY PREDICTED BY IDOCK:   -0.76 KCAL/MOL
REMARK 927      BINDING AFFINITY PREDICTED BY RF-SCORE:    0.00 PKD
ROOT
HETATM    1  C   UNL     1     -10.147   7.514  70.824  1.00  0.00    -0.192 C  
HETATM    2  C   UNL     1      -8.948   7.904  69.956  1.00  0.00    -0.145 C  
HETATM    3  C   UNL     1      -9.212   7.493  68.506  1.00  0.00    -0.143 C  
ENDROOT
BRANCH   2   4
HETATM    4  N   UNL     1      -8.737   9.348  70.081  1.00  0.00    -0.202 NA 
HETATM    5  H   UNL     1      -7.920   9.545  70.659  1.00  0.00     0.000 HD 
BRANCH   4   6
HETATM    6  C   UNL     1      -8.638  10.039  68.788  1.00  0.00    -0.131 C  
BRANCH   6   7
HETATM    7  C   UNL     1      -7.359  10.894  68.742  1.00  0.00    -0.104 C  
HETATM    8  O   UNL     1      -6.213  10.054  68.952  1.00  0.00    -0.044 OA 
HETATM    9  H   UNL     1      -5.423  10.581  68.923  1.00  0.00     0.000 HD 
BRANCH   7  10
HETATM   10  C   UNL     1      -7.217  11.635  67.409  1.00  0.00    -0.128 C  
BRANCH  10  11
HETATM   11  O   UNL     1      -6.760  12.974  67.658  1.00  0.00    -0.130 OA 
BRANCH  11  12
HETATM   12  C   UNL     1      -7.756  13.896  67.846  1.00  0.00    -0.160 A  
HETATM   13  C   UNL     1      -8.807  14.122  66.957  1.00  0.00    -0.237 A  
HETATM   14  C   UNL     1      -9.768  15.094  67.240  1.00  0.00    -0.210 A  
HETATM   15  C   UNL     1      -9.702  15.849  68.419  1.00  0.00    -0.214 A  
HETATM   16  C   UNL     1      -8.666  15.596  69.322  1.00  0.00    -0.267 A  
HETATM   17  C   UNL     1      -7.703  14.616  69.039  1.00  0.00    -0.134 A  
BRANCH  15  18
HETATM   18  C   UNL     1     -10.727  16.922  68.683  1.00  0.00    -0.345 C  
BRANCH  18  19
HETATM   19  O   UNL     1     -10.052  18.169  68.815  1.00  0.00    -0.375 OA 
BRANCH  19  20
HETATM   20  C   UNL     1     -10.296  19.031  67.705  1.00  0.00    -0.417 C  
BRANCH  20  21
HETATM   21  C   UNL     1      -9.164  18.849  66.701  1.00  0.00    -0.330 C  
BRANCH  21  22
HETATM   22  O   UNL     1      -8.512  20.096  66.465  1.00  0.00    -0.306 OA 
BRANCH  22  23
HETATM   23  C   UNL     1      -7.082  19.999  66.458  1.00  0.00    -0.251 C  
HETATM   24  C   UNL     1      -6.530  19.667  67.841  1.00  0.00    -0.257 C  
HETATM   25  C   UNL     1      -6.712  18.895  65.472  1.00  0.00    -0.292 C  
ENDBRANCH  22  23
ENDBRANCH  21  22
ENDBRANCH  20  21
ENDBRANCH  19  20
ENDBRANCH  18  19
ENDBRANCH  15  18
ENDBRANCH  11  12
ENDBRANCH  10  11
ENDBRANCH   7  10
ENDBRANCH   6   7
ENDBRANCH   4   6
ENDBRANCH   2   4
TORSDOF 12
ENDMDL
MODEL      295
REMARK 921   NORMALIZED FREE ENERGY PREDICTED BY IDOCK:   -2.79 KCAL/MOL
REMARK 922        TOTAL FREE ENERGY PREDICTED BY IDOCK:   -5.77 KCAL/MOL
REMARK 923 INTER-LIGAND FREE ENERGY PREDICTED BY IDOCK:   -5.00 KCAL/MOL
REMARK 924 INTRA-LIGAND FREE ENERGY PREDICTED BY IDOCK:   -0.77 KCAL/MOL
REMARK 927      BINDING AFFINITY PREDICTED BY RF-SCORE:    0.00 PKD
ROOT
HETATM    1  C   UNL     1     -10.799   9.739  70.859  1.00  0.00    -0.399 C  
HETATM    2  C   UNL     1     -11.996  10.624  70.501  1.00  0.00    -0.352 C  
HETATM    3  C   UNL     1     -12.883  10.806  71.735  1.00  0.00    -0.528 C  
ENDROOT
BRANCH   2   4
HETATM    4  N   UNL     1     -11.491  11.904  70.001  1.00  0.00    -0.516 NA 
HETATM    5  H   UNL     1     -10.472  11.920  70.012  1.00  0.00     0.000 HD 
BRANCH   4   6
HETATM    6  C   UNL     1     -12.003  12.255  68.669  1.00  0.00    -0.227 C  
BRANCH   6   7
HETATM    7  C   UNL     1     -11.786  13.755  68.398  1.00  0.00    -0.376 C  
HETATM    8  O   UNL     1     -12.458  14.526  69.407  1.00  0.00    -0.543 OA 
HETATM    9  H   UNL     1     -12.324  15.452  69.240  1.00  0.00     0.000 HD 
BRANCH   7  10
HETATM   10  C   UNL     1     -10.298  14.120  68.376  1.00  0.00    -0.249 C  
BRANCH  10  11
HETATM   11  O   UNL     1      -9.819  14.071  67.022  1.00  0.00    -0.248 OA 
BRANCH  11  12
HETATM   12  C   UNL     1      -9.179  12.910  66.681  1.00  0.00    -0.221 A  
HETATM   13  C   UNL     1      -9.702  11.935  65.832  1.00  0.00    -0.258 A  
HETATM   14  C   UNL     1      -8.969  10.779  65.554  1.00  0.00    -0.210 A  
HETATM   15  C   UNL     1      -7.698  10.583  66.111  1.00  0.00    -0.142 A  
HETATM   16  C   UNL     1      -7.164  11.578  66.934  1.00  0.00    -0.137 A  
HETATM   17  C   UNL     1      -7.899  12.740  67.209  1.00  0.00    -0.148 A  
BRANCH  15  18
HETATM   18  C   UNL     1      -6.944   9.309  65.831  1.00  0.00    -0.089 C  
BRANCH  18  19
HETATM   19  O   UNL     1      -5.678   9.381  66.479  1.00  0.00    -0.052 OA 
BRANCH  19  20
HETATM   20  C   UNL     1      -5.281   8.123  67.022  1.00  0.00    -0.032 C  
BRANCH  20  21
HETATM   21  C   UNL     1      -6.536   7.366  67.439  1.00  0.00    -0.061 C  
BRANCH  21  22
HETATM   22  O   UNL     1      -6.274   5.964  67.472  1.00  0.00    -0.030 OA 
BRANCH  22  23
HETATM   23  C   UNL     1      -6.915   5.289  68.563  1.00  0.00    -0.057 C  
HETATM   24  C   UNL     1      -5.939   4.994  69.698  1.00  0.00    -0.021 C  
HETATM   25  C   UNL     1      -8.031   6.202  69.061  1.00  0.00    -0.108 C  
ENDBRANCH  22  23
ENDBRANCH  21  22
ENDBRANCH  20  21
ENDBRANCH  19  20
ENDBRANCH  18  19
ENDBRANCH  15  18
ENDBRANCH  11  12
ENDBRANCH  10  11
ENDBRANCH   7  10
ENDBRANCH   6   7
ENDBRANCH   4   6
ENDBRANCH   2   4
TORSDOF 12
ENDMDL
MODEL      296
REMARK 921   NORMALIZED FREE ENERGY PREDICTED BY IDOCK:   -2.77 KCAL/MOL
REMARK 922        TOTAL FREE ENERGY PREDICTED BY IDOCK:   -5.73 KCAL/MOL
REMARK 923 INTER-LIGAND FREE ENERGY PREDICTED BY IDOCK:   -4.32 KCAL/MOL
REMARK 924 INTRA-LIGAND FREE ENERGY PREDICTED BY IDOCK:   -1.41 KCAL/MOL
REMARK 927      BINDING AFFINITY PREDICTED BY RF-SCORE:    0.00 PKD
ROOT
HETATM    1  C   UNL     1      -7.903  10.348  62.773  1.00  0.00    -0.153 C  
HETATM    2  C   UNL     1      -6.731   9.459  63.194  1.00  0.00    -0.099 C  
HETATM    3  C   UNL     1      -5.909  10.173  64.270  1.00  0.00    -0.139 C  
ENDROOT
BRANCH   2   4
HETATM    4  N   UNL     1      -7.266   8.184  63.676  1.00  0.00    -0.085 NA 
HETATM    5  H   UNL     1      -7.246   7.482  62.937  1.00  0.00     0.000 HD 
BRANCH   4   6
HETATM    6  C   UNL     1      -6.594   7.687  64.885  1.00  0.00    -0.047 C  
BRANCH   6   7
HETATM    7  C   UNL     1      -7.551   6.788  65.688  1.00  0.00    -0.090 C  
HETATM    8  O   UNL     1      -6.878   6.298  66.859  1.00  0.00    -0.059 OA 
HETATM    9  H   UNL     1      -7.469   5.743  67.355  1.00  0.00     0.000 HD 
BRANCH   7  10
HETATM   10  C   UNL     1      -8.824   7.535  66.100  1.00  0.00    -0.159 C  
BRANCH  10  11
HETATM   11  O   UNL     1      -8.484   8.566  67.041  1.00  0.00    -0.112 OA 
BRANCH  11  12
HETATM   12  C   UNL     1      -8.859   9.829  66.669  1.00  0.00    -0.138 A  
HETATM   13  C   UNL     1      -8.241  11.001  67.105  1.00  0.00    -0.133 A  
HETATM   14  C   UNL     1      -8.708  12.244  66.671  1.00  0.00    -0.132 A  
HETATM   15  C   UNL     1      -9.792  12.336  65.786  1.00  0.00    -0.260 A  
HETATM   16  C   UNL     1     -10.386  11.158  65.327  1.00  0.00    -0.336 A  
HETATM   17  C   UNL     1      -9.914   9.910  65.760  1.00  0.00    -0.347 A  
BRANCH  15  18
HETATM   18  C   UNL     1     -10.304  13.689  65.365  1.00  0.00    -0.332 C  
BRANCH  18  19
HETATM   19  O   UNL     1     -11.219  14.153  66.353  1.00  0.00    -0.315 OA 
BRANCH  19  20
HETATM   20  C   UNL     1     -11.008  15.526  66.677  1.00  0.00    -0.248 C  
BRANCH  20  21
HETATM   21  C   UNL     1      -9.964  15.600  67.785  1.00  0.00    -0.223 C  
BRANCH  21  22
HETATM   22  O   UNL     1      -8.768  16.203  67.292  1.00  0.00    -0.175 OA 
BRANCH  22  23
HETATM   23  C   UNL     1      -8.455  17.450  67.926  1.00  0.00    -0.228 C  
HETATM   24  C   UNL     1      -7.278  17.317  68.888  1.00  0.00    -0.243 C  
HETATM   25  C   UNL     1      -8.113  18.443  66.820  1.00  0.00    -0.266 C  
ENDBRANCH  22  23
ENDBRANCH  21  22
ENDBRANCH  20  21
ENDBRANCH  19  20
ENDBRANCH  18  19
ENDBRANCH  15  18
ENDBRANCH  11  12
ENDBRANCH  10  11
ENDBRANCH   7  10
ENDBRANCH   6   7
ENDBRANCH   4   6
ENDBRANCH   2   4
TORSDOF 12
ENDMDL
MODEL      297
REMARK 921   NORMALIZED FREE ENERGY PREDICTED BY IDOCK:   -2.75 KCAL/MOL
REMARK 922        TOTAL FREE ENERGY PREDICTED BY IDOCK:   -5.69 KCAL/MOL
REMARK 923 INTER-LIGAND FREE ENERGY PREDICTED BY IDOCK:   -5.49 KCAL/MOL
REMARK 924 INTRA-LIGAND FREE ENERGY PREDICTED BY IDOCK:   -0.20 KCAL/MOL
REMARK 927      BINDING AFFINITY PREDICTED BY RF-SCORE:    0.00 PKD
ROOT
HETATM    1  C   UNL     1      -8.649   9.401  63.320  1.00  0.00    -0.218 C  
HETATM    2  C   UNL     1      -9.095   9.647  64.763  1.00  0.00    -0.231 C  
HETATM    3  C   UNL     1     -10.253  10.648  64.777  1.00  0.00    -0.401 C  
ENDROOT
BRANCH   2   4
HETATM    4  N   UNL     1      -9.480   8.364  65.354  1.00  0.00    -0.385 NA 
HETATM    5  H   UNL     1      -8.657   7.790  65.539  1.00  0.00     0.000 HD 
BRANCH   4   6
HETATM    6  C   UNL     1     -10.302   8.500  66.564  1.00  0.00    -0.145 C  
BRANCH   6   7
HETATM    7  C   UNL     1     -10.319   7.172  67.344  1.00  0.00    -0.254 C  
HETATM    8  O   UNL     1     -11.228   6.257  66.712  1.00  0.00    -0.683 OA 
HETATM    9  H   UNL     1     -11.238   5.438  67.193  1.00  0.00     0.000 HD 
BRANCH   7  10
HETATM   10  C   UNL     1      -8.925   6.541  67.422  1.00  0.00    -0.110 C  
BRANCH  10  11
HETATM   11  O   UNL     1      -8.263   7.002  68.611  1.00  0.00    -0.119 OA 
BRANCH  11  12
HETATM   12  C   UNL     1      -8.052   8.354  68.664  1.00  0.00    -0.122 A  
HETATM   13  C   UNL     1      -8.605   9.207  69.618  1.00  0.00    -0.143 A  
HETATM   14  C   UNL     1      -8.332  10.576  69.578  1.00  0.00    -0.075 A  
HETATM   15  C   UNL     1      -7.494  11.114  68.592  1.00  0.00    -0.119 A  
HETATM   16  C   UNL     1      -6.915  10.249  67.658  1.00  0.00    -0.084 A  
HETATM   17  C   UNL     1      -7.187   8.875  67.701  1.00  0.00    -0.080 A  
BRANCH  15  18
HETATM   18  C   UNL     1      -7.249  12.599  68.543  1.00  0.00    -0.113 C  
BRANCH  18  19
HETATM   19  O   UNL     1      -8.187  13.184  67.644  1.00  0.00    -0.149 OA 
BRANCH  19  20
HETATM   20  C   UNL     1      -9.421  13.497  68.286  1.00  0.00    -0.212 C  
BRANCH  20  21
HETATM   21  C   UNL     1     -10.422  13.919  67.217  1.00  0.00    -0.271 C  
BRANCH  21  22
HETATM   22  O   UNL     1      -9.873  13.700  65.918  1.00  0.00    -0.289 OA 
BRANCH  22  23
HETATM   23  C   UNL     1     -10.452  14.534  64.907  1.00  0.00    -0.409 C  
HETATM   24  C   UNL     1     -11.877  14.106  64.567  1.00  0.00    -0.451 C  
HETATM   25  C   UNL     1     -10.453  15.960  65.447  1.00  0.00    -0.429 C  
ENDBRANCH  22  23
ENDBRANCH  21  22
ENDBRANCH  20  21
ENDBRANCH  19  20
ENDBRANCH  18  19
ENDBRANCH  15  18
ENDBRANCH  11  12
ENDBRANCH  10  11
ENDBRANCH   7  10
ENDBRANCH   6   7
ENDBRANCH   4   6
ENDBRANCH   2   4
TORSDOF 12
ENDMDL
MODEL      298
REMARK 921   NORMALIZED FREE ENERGY PREDICTED BY IDOCK:   -2.70 KCAL/MOL
REMARK 922        TOTAL FREE ENERGY PREDICTED BY IDOCK:   -5.62 KCAL/MOL
REMARK 923 INTER-LIGAND FREE ENERGY PREDICTED BY IDOCK:   -5.15 KCAL/MOL
REMARK 924 INTRA-LIGAND FREE ENERGY PREDICTED BY IDOCK:   -0.47 KCAL/MOL
REMARK 927      BINDING AFFINITY PREDICTED BY RF-SCORE:    0.00 PKD
ROOT
HETATM    1  C   UNL     1      -9.875  10.310  67.002  1.00  0.00    -0.238 C  
HETATM    2  C   UNL     1      -9.699  11.163  65.743  1.00  0.00    -0.225 C  
HETATM    3  C   UNL     1      -8.622  10.540  64.851  1.00  0.00    -0.179 C  
ENDROOT
BRANCH   2   4
HETATM    4  N   UNL     1     -10.989  11.248  65.057  1.00  0.00    -0.208 NA 
HETATM    5  H   UNL     1     -11.558  10.424  65.253  1.00  0.00     0.000 HD 
BRANCH   4   6
HETATM    6  C   UNL     1     -11.734  12.478  65.361  1.00  0.00    -0.398 C  
BRANCH   6   7
HETATM    7  C   UNL     1     -11.277  13.616  64.430  1.00  0.00    -0.367 C  
HETATM    8  O   UNL     1     -11.169  13.121  63.086  1.00  0.00    -0.545 OA 
HETATM    9  H   UNL     1     -10.887  13.823  62.512  1.00  0.00     0.000 HD 
BRANCH   7  10
HETATM   10  C   UNL     1     -12.244  14.804  64.466  1.00  0.00    -0.428 C  
BRANCH  10  11
HETATM   11  O   UNL     1     -11.499  16.015  64.671  1.00  0.00    -0.379 OA 
BRANCH  11  12
HETATM   12  C   UNL     1     -10.590  15.964  65.694  1.00  0.00    -0.378 A  
HETATM   13  C   UNL     1      -9.246  16.318  65.580  1.00  0.00     0.012 A  
HETATM   14  C   UNL     1      -8.398  16.222  66.686  1.00  0.00    -0.315 A  
HETATM   15  C   UNL     1      -8.881  15.780  67.926  1.00  0.00    -0.175 A  
HETATM   16  C   UNL     1     -10.236  15.458  68.043  1.00  0.00    -0.235 A  
HETATM   17  C   UNL     1     -11.087  15.559  66.933  1.00  0.00    -0.221 A  
BRANCH  15  18
HETATM   18  C   UNL     1      -7.939  15.643  69.093  1.00  0.00    -0.227 C  
BRANCH  18  19
HETATM   19  O   UNL     1      -7.826  14.262  69.424  1.00  0.00     0.010 OA 
BRANCH  19  20
HETATM   20  C   UNL     1      -6.668  13.664  68.844  1.00  0.00    -0.108 C  
BRANCH  20  21
HETATM   21  C   UNL     1      -6.171  12.574  69.787  1.00  0.00    -0.113 C  
BRANCH  21  22
HETATM   22  O   UNL     1      -6.806  11.334  69.480  1.00  0.00    -0.118 OA 
BRANCH  22  23
HETATM   23  C   UNL     1      -6.198  10.208  70.127  1.00  0.00    -0.090 C  
HETATM   24  C   UNL     1      -5.260  10.638  71.251  1.00  0.00    -0.085 C  
HETATM   25  C   UNL     1      -7.327   9.352  70.692  1.00  0.00    -0.140 C  
ENDBRANCH  22  23
ENDBRANCH  21  22
ENDBRANCH  20  21
ENDBRANCH  19  20
ENDBRANCH  18  19
ENDBRANCH  15  18
ENDBRANCH  11  12
ENDBRANCH  10  11
ENDBRANCH   7  10
ENDBRANCH   6   7
ENDBRANCH   4   6
ENDBRANCH   2   4
TORSDOF 12
ENDMDL
MODEL      299
REMARK 921   NORMALIZED FREE ENERGY PREDICTED BY IDOCK:   -2.65 KCAL/MOL
REMARK 922        TOTAL FREE ENERGY PREDICTED BY IDOCK:   -5.54 KCAL/MOL
REMARK 923 INTER-LIGAND FREE ENERGY PREDICTED BY IDOCK:   -4.84 KCAL/MOL
REMARK 924 INTRA-LIGAND FREE ENERGY PREDICTED BY IDOCK:   -0.70 KCAL/MOL
REMARK 927      BINDING AFFINITY PREDICTED BY RF-SCORE:    0.00 PKD
ROOT
HETATM    1  C   UNL     1      -5.582  17.406  66.871  1.00  0.00    -0.201 C  
HETATM    2  C   UNL     1      -6.986  17.865  67.273  1.00  0.00    -0.186 C  
HETATM    3  C   UNL     1      -7.827  18.096  66.015  1.00  0.00    -0.174 C  
ENDROOT
BRANCH   2   4
HETATM    4  N   UNL     1      -7.576  16.845  68.141  1.00  0.00    -0.181 NA 
HETATM    5  H   UNL     1      -8.564  16.712  67.922  1.00  0.00     0.000 HD 
BRANCH   4   6
HETATM    6  C   UNL     1      -6.859  15.564  68.111  1.00  0.00    -0.124 C  
BRANCH   6   7
HETATM    7  C   UNL     1      -7.574  14.579  67.168  1.00  0.00    -0.012 C  
HETATM    8  O   UNL     1      -6.700  13.479  66.872  1.00  0.00    -0.349 OA 
HETATM    9  H   UNL     1      -7.142  12.871  66.290  1.00  0.00     0.000 HD 
BRANCH   7  10
HETATM   10  C   UNL     1      -8.878  14.053  67.778  1.00  0.00    -0.187 C  
BRANCH  10  11
HETATM   11  O   UNL     1      -8.579  12.959  68.661  1.00  0.00    -0.083 OA 
BRANCH  11  12
HETATM   12  C   UNL     1      -9.116  11.756  68.286  1.00  0.00    -0.187 A  
HETATM   13  C   UNL     1      -9.990  11.575  67.215  1.00  0.00    -0.212 A  
HETATM   14  C   UNL     1     -10.488  10.304  66.922  1.00  0.00    -0.291 A  
HETATM   15  C   UNL     1     -10.114   9.191  67.687  1.00  0.00    -0.273 A  
HETATM   16  C   UNL     1      -9.212   9.372  68.740  1.00  0.00    -0.132 A  
HETATM   17  C   UNL     1      -8.709  10.648  69.031  1.00  0.00    -0.152 A  
BRANCH  15  18
HETATM   18  C   UNL     1     -10.697   7.837  67.379  1.00  0.00    -0.230 C  
BRANCH  18  19
HETATM   19  O   UNL     1     -10.012   6.861  68.158  1.00  0.00    -0.147 OA 
BRANCH  19  20
HETATM   20  C   UNL     1     -10.845   5.750  68.482  1.00  0.00    -0.184 C  
BRANCH  20  21
HETATM   21  C   UNL     1     -10.983   5.682  69.998  1.00  0.00    -0.241 C  
BRANCH  21  22
HETATM   22  O   UNL     1     -10.505   6.890  70.588  1.00  0.00    -0.206 OA 
BRANCH  22  23
HETATM   23  C   UNL     1     -11.214   7.262  71.777  1.00  0.00    -0.247 C  
HETATM   24  C   UNL     1     -11.118   8.761  72.048  1.00  0.00    -0.441 C  
HETATM   25  C   UNL     1     -12.672   6.864  71.573  1.00  0.00    -0.396 C  
ENDBRANCH  22  23
ENDBRANCH  21  22
ENDBRANCH  20  21
ENDBRANCH  19  20
ENDBRANCH  18  19
ENDBRANCH  15  18
ENDBRANCH  11  12
ENDBRANCH  10  11
ENDBRANCH   7  10
ENDBRANCH   6   7
ENDBRANCH   4   6
ENDBRANCH   2   4
TORSDOF 12
ENDMDL
MODEL      300
REMARK 921   NORMALIZED FREE ENERGY PREDICTED BY IDOCK:   -2.64 KCAL/MOL
REMARK 922        TOTAL FREE ENERGY PREDICTED BY IDOCK:   -5.51 KCAL/MOL
REMARK 923 INTER-LIGAND FREE ENERGY PREDICTED BY IDOCK:   -4.34 KCAL/MOL
REMARK 924 INTRA-LIGAND FREE ENERGY PREDICTED BY IDOCK:   -1.16 KCAL/MOL
REMARK 927      BINDING AFFINITY PREDICTED BY RF-SCORE:    0.00 PKD
ROOT
HETATM    1  C   UNL     1     -10.025  10.315  65.839  1.00  0.00    -0.321 C  
HETATM    2  C   UNL     1      -8.723   9.511  65.818  1.00  0.00    -0.147 C  
HETATM    3  C   UNL     1      -8.193   9.361  67.246  1.00  0.00    -0.117 C  
ENDROOT
BRANCH   2   4
HETATM    4  N   UNL     1      -8.991   8.212  65.198  1.00  0.00    -0.391 NA 
HETATM    5  H   UNL     1      -9.905   8.210  64.745  1.00  0.00     0.000 HD 
BRANCH   4   6
HETATM    6  C   UNL     1      -7.944   7.783  64.261  1.00  0.00    -0.120 C  
BRANCH   6   7
HETATM    7  C   UNL     1      -7.769   6.255  64.327  1.00  0.00    -0.107 C  
HETATM    8  O   UNL     1      -6.477   5.898  63.810  1.00  0.00    -0.028 OA 
HETATM    9  H   UNL     1      -6.370   4.955  63.851  1.00  0.00     0.000 HD 
BRANCH   7  10
HETATM   10  C   UNL     1      -7.916   5.727  65.757  1.00  0.00    -0.110 C  
BRANCH  10  11
HETATM   11  O   UNL     1      -9.259   5.255  65.952  1.00  0.00    -0.155 OA 
BRANCH  11  12
HETATM   12  C   UNL     1      -9.743   5.408  67.224  1.00  0.00    -0.144 A  
HETATM   13  C   UNL     1     -10.892   6.127  67.555  1.00  0.00    -0.422 A  
HETATM   14  C   UNL     1     -11.296   6.229  68.889  1.00  0.00    -0.269 A  
HETATM   15  C   UNL     1     -10.566   5.607  69.911  1.00  0.00    -0.399 A  
HETATM   16  C   UNL     1      -9.434   4.860  69.570  1.00  0.00    -0.216 A  
HETATM   17  C   UNL     1      -9.032   4.755  68.231  1.00  0.00    -0.132 A  
BRANCH  15  18
HETATM   18  C   UNL     1     -10.996   5.767  71.345  1.00  0.00    -0.237 C  
BRANCH  18  19
HETATM   19  O   UNL     1      -9.873   6.195  72.110  1.00  0.00    -0.159 OA 
BRANCH  19  20
HETATM   20  C   UNL     1      -9.709   7.611  72.076  1.00  0.00    -0.166 C  
BRANCH  20  21
HETATM   21  C   UNL     1      -9.026   8.043  73.369  1.00  0.00    -0.274 C  
BRANCH  21  22
HETATM   22  O   UNL     1      -7.677   8.427  73.106  1.00  0.00    -0.265 OA 
BRANCH  22  23
HETATM   23  C   UNL     1      -6.889   7.378  72.529  1.00  0.00    -0.067 C  
HETATM   24  C   UNL     1      -5.911   7.912  71.486  1.00  0.00    -0.035 C  
HETATM   25  C   UNL     1      -6.123   6.714  73.668  1.00  0.00    -0.063 C  
ENDBRANCH  22  23
ENDBRANCH  21  22
ENDBRANCH  20  21
ENDBRANCH  19  20
ENDBRANCH  18  19
ENDBRANCH  15  18
ENDBRANCH  11  12
ENDBRANCH  10  11
ENDBRANCH   7  10
ENDBRANCH   6   7
ENDBRANCH   4   6
ENDBRANCH   2   4
TORSDOF 12
ENDMDL
MODEL      301
REMARK 921   NORMALIZED FREE ENERGY PREDICTED BY IDOCK:   -2.64 KCAL/MOL
REMARK 922        TOTAL FREE ENERGY PREDICTED BY IDOCK:   -5.50 KCAL/MOL
REMARK 923 INTER-LIGAND FREE ENERGY PREDICTED BY IDOCK:   -4.90 KCAL/MOL
REMARK 924 INTRA-LIGAND FREE ENERGY PREDICTED BY IDOCK:   -0.61 KCAL/MOL
REMARK 927      BINDING AFFINITY PREDICTED BY RF-SCORE:    0.00 PKD
ROOT
HETATM    1  C   UNL     1      -6.302   8.875  73.988  1.00  0.00    -0.026 C  
HETATM    2  C   UNL     1      -6.529   7.408  73.615  1.00  0.00    -0.065 C  
HETATM    3  C   UNL     1      -7.671   6.837  74.460  1.00  0.00    -0.125 C  
ENDROOT
BRANCH   2   4
HETATM    4  N   UNL     1      -6.825   7.334  72.183  1.00  0.00    -0.059 NA 
HETATM    5  H   UNL     1      -7.030   6.374  71.905  1.00  0.00     0.000 HD 
BRANCH   4   6
HETATM    6  C   UNL     1      -7.901   8.240  71.759  1.00  0.00    -0.118 C  
BRANCH   6   7
HETATM    7  C   UNL     1      -7.687   8.667  70.296  1.00  0.00    -0.083 C  
HETATM    8  O   UNL     1      -6.882   7.686  69.623  1.00  0.00    -0.043 OA 
HETATM    9  H   UNL     1      -6.750   7.950  68.720  1.00  0.00     0.000 HD 
BRANCH   7  10
HETATM   10  C   UNL     1      -9.017   8.840  69.554  1.00  0.00    -0.145 C  
BRANCH  10  11
HETATM   11  O   UNL     1      -8.803   8.638  68.147  1.00  0.00    -0.140 OA 
BRANCH  11  12
HETATM   12  C   UNL     1      -9.305   9.626  67.343  1.00  0.00    -0.134 A  
HETATM   13  C   UNL     1      -9.579  10.929  67.760  1.00  0.00    -0.176 A  
HETATM   14  C   UNL     1     -10.099  11.860  66.859  1.00  0.00    -0.229 A  
HETATM   15  C   UNL     1     -10.345  11.510  65.524  1.00  0.00    -0.322 A  
HETATM   16  C   UNL     1     -10.038  10.213  65.102  1.00  0.00    -0.329 A  
HETATM   17  C   UNL     1      -9.512   9.279  66.007  1.00  0.00    -0.311 A  
BRANCH  15  18
HETATM   18  C   UNL     1     -10.946  12.519  64.581  1.00  0.00    -0.310 C  
BRANCH  18  19
HETATM   19  O   UNL     1     -10.207  13.732  64.685  1.00  0.00    -0.412 OA 
BRANCH  19  20
HETATM   20  C   UNL     1     -11.043  14.845  64.996  1.00  0.00    -0.414 C  
BRANCH  20  21
HETATM   21  C   UNL     1     -10.199  15.889  65.718  1.00  0.00    -0.365 C  
BRANCH  21  22
HETATM   22  O   UNL     1     -10.910  16.400  66.844  1.00  0.00    -0.249 OA 
BRANCH  22  23
HETATM   23  C   UNL     1     -10.065  16.695  67.965  1.00  0.00    -0.262 C  
HETATM   24  C   UNL     1     -10.340  18.085  68.532  1.00  0.00    -0.359 C  
HETATM   25  C   UNL     1     -10.343  15.636  69.027  1.00  0.00    -0.225 C  
ENDBRANCH  22  23
ENDBRANCH  21  22
ENDBRANCH  20  21
ENDBRANCH  19  20
ENDBRANCH  18  19
ENDBRANCH  15  18
ENDBRANCH  11  12
ENDBRANCH  10  11
ENDBRANCH   7  10
ENDBRANCH   6   7
ENDBRANCH   4   6
ENDBRANCH   2   4
TORSDOF 12
ENDMDL
MODEL      302
REMARK 921   NORMALIZED FREE ENERGY PREDICTED BY IDOCK:   -2.58 KCAL/MOL
REMARK 922        TOTAL FREE ENERGY PREDICTED BY IDOCK:   -5.42 KCAL/MOL
REMARK 923 INTER-LIGAND FREE ENERGY PREDICTED BY IDOCK:   -4.64 KCAL/MOL
REMARK 924 INTRA-LIGAND FREE ENERGY PREDICTED BY IDOCK:   -0.78 KCAL/MOL
REMARK 927      BINDING AFFINITY PREDICTED BY RF-SCORE:    0.00 PKD
ROOT
HETATM    1  C   UNL     1      -6.823   1.470  68.851  1.00  0.00    -0.029 C  
HETATM    2  C   UNL     1      -7.861   1.498  69.976  1.00  0.00    -0.042 C  
HETATM    3  C   UNL     1      -7.350   2.377  71.120  1.00  0.00    -0.033 C  
ENDROOT
BRANCH   2   4
HETATM    4  N   UNL     1      -9.123   2.000  69.428  1.00  0.00    -0.099 NA 
HETATM    5  H   UNL     1      -9.457   2.801  69.964  1.00  0.00     0.000 HD 
BRANCH   4   6
HETATM    6  C   UNL     1      -9.052   2.324  67.997  1.00  0.00    -0.180 C  
BRANCH   6   7
HETATM    7  C   UNL     1      -9.465   3.789  67.766  1.00  0.00    -0.179 C  
HETATM    8  O   UNL     1      -9.876   4.373  69.013  1.00  0.00    -0.173 OA 
HETATM    9  H   UNL     1     -10.131   5.277  68.870  1.00  0.00     0.000 HD 
BRANCH   7  10
HETATM   10  C   UNL     1      -8.324   4.614  67.162  1.00  0.00    -0.105 C  
BRANCH  10  11
HETATM   11  O   UNL     1      -8.876   5.658  66.343  1.00  0.00    -0.121 OA 
BRANCH  11  12
HETATM   12  C   UNL     1      -9.060   6.854  66.984  1.00  0.00    -0.136 A  
HETATM   13  C   UNL     1      -8.099   7.489  67.771  1.00  0.00    -0.119 A  
HETATM   14  C   UNL     1      -8.391   8.707  68.389  1.00  0.00    -0.127 A  
HETATM   15  C   UNL     1      -9.643   9.316  68.223  1.00  0.00    -0.160 A  
HETATM   16  C   UNL     1     -10.590   8.692  67.406  1.00  0.00    -0.298 A  
HETATM   17  C   UNL     1     -10.295   7.471  66.783  1.00  0.00    -0.332 A  
BRANCH  15  18
HETATM   18  C   UNL     1      -9.950  10.608  68.934  1.00  0.00    -0.204 C  
BRANCH  18  19
HETATM   19  O   UNL     1     -10.999  10.372  69.868  1.00  0.00    -0.266 OA 
BRANCH  19  20
HETATM   20  C   UNL     1     -11.835  11.515  70.036  1.00  0.00    -0.355 C  
BRANCH  20  21
HETATM   21  C   UNL     1     -11.704  12.389  68.794  1.00  0.00    -0.332 C  
BRANCH  21  22
HETATM   22  O   UNL     1     -11.695  13.767  69.163  1.00  0.00    -0.286 OA 
BRANCH  22  23
HETATM   23  C   UNL     1     -11.693  14.658  68.040  1.00  0.00    -0.342 C  
HETATM   24  C   UNL     1     -10.313  15.260  67.796  1.00  0.00    -0.244 C  
HETATM   25  C   UNL     1     -12.128  13.847  66.823  1.00  0.00    -0.476 C  
ENDBRANCH  22  23
ENDBRANCH  21  22
ENDBRANCH  20  21
ENDBRANCH  19  20
ENDBRANCH  18  19
ENDBRANCH  15  18
ENDBRANCH  11  12
ENDBRANCH  10  11
ENDBRANCH   7  10
ENDBRANCH   6   7
ENDBRANCH   4   6
ENDBRANCH   2   4
TORSDOF 12
ENDMDL
MODEL      303
REMARK 921   NORMALIZED FREE ENERGY PREDICTED BY IDOCK:   -2.53 KCAL/MOL
REMARK 922        TOTAL FREE ENERGY PREDICTED BY IDOCK:   -5.32 KCAL/MOL
REMARK 923 INTER-LIGAND FREE ENERGY PREDICTED BY IDOCK:   -4.60 KCAL/MOL
REMARK 924 INTRA-LIGAND FREE ENERGY PREDICTED BY IDOCK:   -0.72 KCAL/MOL
REMARK 927      BINDING AFFINITY PREDICTED BY RF-SCORE:    0.00 PKD
ROOT
HETATM    1  C   UNL     1      -7.630  13.908  68.583  1.00  0.00    -0.130 C  
HETATM    2  C   UNL     1      -6.285  14.001  67.860  1.00  0.00    -0.156 C  
HETATM    3  C   UNL     1      -5.958  15.469  67.577  1.00  0.00    -0.099 C  
ENDROOT
BRANCH   2   4
HETATM    4  N   UNL     1      -5.264  13.370  68.698  1.00  0.00    -0.069 NA 
HETATM    5  H   UNL     1      -5.391  13.627  69.677  1.00  0.00     0.000 HD 
BRANCH   4   6
HETATM    6  C   UNL     1      -5.203  11.909  68.547  1.00  0.00    -0.045 C  
BRANCH   6   7
HETATM    7  C   UNL     1      -5.243  11.233  69.930  1.00  0.00    -0.058 C  
HETATM    8  O   UNL     1      -6.029  12.029  70.830  1.00  0.00    -0.480 OA 
HETATM    9  H   UNL     1      -6.053  11.612  71.684  1.00  0.00     0.000 HD 
BRANCH   7  10
HETATM   10  C   UNL     1      -5.822   9.817  69.854  1.00  0.00    -0.042 C  
BRANCH  10  11
HETATM   11  O   UNL     1      -6.531   9.661  68.615  1.00  0.00    -0.047 OA 
BRANCH  11  12
HETATM   12  C   UNL     1      -7.874   9.922  68.685  1.00  0.00    -0.086 A  
HETATM   13  C   UNL     1      -8.629  10.485  67.656  1.00  0.00    -0.118 A  
HETATM   14  C   UNL     1      -9.994  10.719  67.833  1.00  0.00    -0.196 A  
HETATM   15  C   UNL     1     -10.631  10.384  69.037  1.00  0.00    -0.247 A  
HETATM   16  C   UNL     1      -9.877   9.789  70.053  1.00  0.00    -0.295 A  
HETATM   17  C   UNL     1      -8.507   9.552  69.872  1.00  0.00    -0.198 A  
BRANCH  15  18
HETATM   18  C   UNL     1     -12.095  10.685  69.221  1.00  0.00    -0.134 C  
BRANCH  18  19
HETATM   19  O   UNL     1     -12.514  10.148  70.472  1.00  0.00    -0.277 OA 
BRANCH  19  20
HETATM   20  C   UNL     1     -12.668  11.160  71.465  1.00  0.00    -0.394 C  
BRANCH  20  21
HETATM   21  C   UNL     1     -12.772  12.508  70.761  1.00  0.00    -0.125 C  
BRANCH  21  22
HETATM   22  O   UNL     1     -11.955  13.471  71.424  1.00  0.00    -0.040 OA 
BRANCH  22  23
HETATM   23  C   UNL     1     -12.642  14.695  71.718  1.00  0.00    -0.340 C  
HETATM   24  C   UNL     1     -12.688  15.624  70.509  1.00  0.00    -0.391 C  
HETATM   25  C   UNL     1     -14.060  14.323  72.142  1.00  0.00    -0.634 C  
ENDBRANCH  22  23
ENDBRANCH  21  22
ENDBRANCH  20  21
ENDBRANCH  19  20
ENDBRANCH  18  19
ENDBRANCH  15  18
ENDBRANCH  11  12
ENDBRANCH  10  11
ENDBRANCH   7  10
ENDBRANCH   6   7
ENDBRANCH   4   6
ENDBRANCH   2   4
TORSDOF 12
ENDMDL
MODEL      304
REMARK 921   NORMALIZED FREE ENERGY PREDICTED BY IDOCK:   -2.52 KCAL/MOL
REMARK 922        TOTAL FREE ENERGY PREDICTED BY IDOCK:   -5.30 KCAL/MOL
REMARK 923 INTER-LIGAND FREE ENERGY PREDICTED BY IDOCK:   -4.49 KCAL/MOL
REMARK 924 INTRA-LIGAND FREE ENERGY PREDICTED BY IDOCK:   -0.81 KCAL/MOL
REMARK 927      BINDING AFFINITY PREDICTED BY RF-SCORE:    0.00 PKD
ROOT
HETATM    1  C   UNL     1      -8.636  15.668  69.370  1.00  0.00    -0.248 C  
HETATM    2  C   UNL     1      -7.431  16.158  68.563  1.00  0.00    -0.167 C  
HETATM    3  C   UNL     1      -7.402  17.688  68.567  1.00  0.00    -0.256 C  
ENDROOT
BRANCH   2   4
HETATM    4  N   UNL     1      -6.217  15.590  69.152  1.00  0.00    -0.111 NA 
HETATM    5  H   UNL     1      -6.201  15.740  70.160  1.00  0.00     0.000 HD 
BRANCH   4   6
HETATM    6  C   UNL     1      -6.021  14.169  68.833  1.00  0.00    -0.087 C  
BRANCH   6   7
HETATM    7  C   UNL     1      -5.624  13.393  70.102  1.00  0.00    -0.126 C  
HETATM    8  O   UNL     1      -6.286  13.965  71.241  1.00  0.00    -0.503 OA 
HETATM    9  H   UNL     1      -6.041  13.487  72.024  1.00  0.00     0.000 HD 
BRANCH   7  10
HETATM   10  C   UNL     1      -5.977  11.906  69.994  1.00  0.00    -0.159 C  
BRANCH  10  11
HETATM   11  O   UNL     1      -6.090  11.546  68.608  1.00  0.00    -0.046 OA 
BRANCH  11  12
HETATM   12  C   UNL     1      -7.161  10.748  68.307  1.00  0.00    -0.084 A  
HETATM   13  C   UNL     1      -8.080  10.268  69.239  1.00  0.00    -0.156 A  
HETATM   14  C   UNL     1      -9.136   9.451  68.828  1.00  0.00    -0.132 A  
HETATM   15  C   UNL     1      -9.297   9.109  67.479  1.00  0.00    -0.157 A  
HETATM   16  C   UNL     1      -8.392   9.620  66.543  1.00  0.00    -0.120 A  
HETATM   17  C   UNL     1      -7.335  10.443  66.957  1.00  0.00    -0.097 A  
BRANCH  15  18
HETATM   18  C   UNL     1     -10.418   8.191  67.065  1.00  0.00    -0.326 C  
BRANCH  18  19
HETATM   19  O   UNL     1      -9.879   6.894  66.832  1.00  0.00    -0.163 OA 
BRANCH  19  20
HETATM   20  C   UNL     1     -10.678   5.868  67.416  1.00  0.00    -0.287 C  
BRANCH  20  21
HETATM   21  C   UNL     1     -11.089   6.318  68.813  1.00  0.00    -0.346 C  
BRANCH  21  22
HETATM   22  O   UNL     1     -10.183   5.794  69.783  1.00  0.00    -0.194 OA 
BRANCH  22  23
HETATM   23  C   UNL     1     -10.664   5.904  71.129  1.00  0.00    -0.265 C  
HETATM   24  C   UNL     1     -10.260   4.700  71.975  1.00  0.00    -0.258 C  
HETATM   25  C   UNL     1     -10.065   7.177  71.717  1.00  0.00    -0.197 C  
ENDBRANCH  22  23
ENDBRANCH  21  22
ENDBRANCH  20  21
ENDBRANCH  19  20
ENDBRANCH  18  19
ENDBRANCH  15  18
ENDBRANCH  11  12
ENDBRANCH  10  11
ENDBRANCH   7  10
ENDBRANCH   6   7
ENDBRANCH   4   6
ENDBRANCH   2   4
TORSDOF 12
ENDMDL
MODEL      305
REMARK 921   NORMALIZED FREE ENERGY PREDICTED BY IDOCK:   -2.49 KCAL/MOL
REMARK 922        TOTAL FREE ENERGY PREDICTED BY IDOCK:   -5.25 KCAL/MOL
REMARK 923 INTER-LIGAND FREE ENERGY PREDICTED BY IDOCK:   -4.19 KCAL/MOL
REMARK 924 INTRA-LIGAND FREE ENERGY PREDICTED BY IDOCK:   -1.07 KCAL/MOL
REMARK 927      BINDING AFFINITY PREDICTED BY RF-SCORE:    0.00 PKD
ROOT
HETATM    1  C   UNL     1     -10.313  10.869  65.522  1.00  0.00    -0.316 C  
HETATM    2  C   UNL     1      -9.906   9.681  64.648  1.00  0.00     0.164 C  
HETATM    3  C   UNL     1      -8.782  10.105  63.700  1.00  0.00    -0.218 C  
ENDROOT
BRANCH   2   4
HETATM    4  N   UNL     1      -9.494   8.582  65.522  1.00  0.00    -0.438 NA 
HETATM    5  H   UNL     1     -10.183   7.830  65.508  1.00  0.00     0.000 HD 
BRANCH   4   6
HETATM    6  C   UNL     1      -8.152   8.064  65.219  1.00  0.00    -0.138 C  
BRANCH   6   7
HETATM    7  C   UNL     1      -7.665   7.157  66.364  1.00  0.00    -0.100 C  
HETATM    8  O   UNL     1      -6.826   6.121  65.830  1.00  0.00    -0.053 OA 
HETATM    9  H   UNL     1      -6.525   5.561  66.536  1.00  0.00     0.000 HD 
BRANCH   7  10
HETATM   10  C   UNL     1      -6.895   7.947  67.427  1.00  0.00    -0.070 C  
BRANCH  10  11
HETATM   11  O   UNL     1      -7.827   8.531  68.351  1.00  0.00    -0.103 OA 
BRANCH  11  12
HETATM   12  C   UNL     1      -7.948   9.893  68.261  1.00  0.00    -0.100 A  
HETATM   13  C   UNL     1      -8.780  10.671  69.066  1.00  0.00    -0.152 A  
HETATM   14  C   UNL     1      -8.836  12.055  68.887  1.00  0.00     0.202 A  
HETATM   15  C   UNL     1      -8.055  12.685  67.908  1.00  0.00    -0.165 A  
HETATM   16  C   UNL     1      -7.198  11.905  67.127  1.00  0.00    -0.144 A  
HETATM   17  C   UNL     1      -7.140  10.516  67.310  1.00  0.00    -0.088 A  
BRANCH  15  18
HETATM   18  C   UNL     1      -8.164  14.174  67.705  1.00  0.00    -0.186 C  
BRANCH  18  19
HETATM   19  O   UNL     1      -9.118  14.421  66.676  1.00  0.00    -0.260 OA 
BRANCH  19  20
HETATM   20  C   UNL     1      -9.948  15.542  66.971  1.00  0.00    -0.239 C  
BRANCH  20  21
HETATM   21  C   UNL     1      -9.502  16.710  66.099  1.00  0.00    -0.287 C  
BRANCH  21  22
HETATM   22  O   UNL     1      -8.849  17.696  66.896  1.00  0.00    -0.232 OA 
BRANCH  22  23
HETATM   23  C   UNL     1      -9.702  18.787  67.266  1.00  0.00    -0.302 C  
HETATM   24  C   UNL     1      -8.908  19.962  67.829  1.00  0.00    -0.390 C  
HETATM   25  C   UNL     1     -10.449  19.219  66.008  1.00  0.00    -0.573 C  
ENDBRANCH  22  23
ENDBRANCH  21  22
ENDBRANCH  20  21
ENDBRANCH  19  20
ENDBRANCH  18  19
ENDBRANCH  15  18
ENDBRANCH  11  12
ENDBRANCH  10  11
ENDBRANCH   7  10
ENDBRANCH   6   7
ENDBRANCH   4   6
ENDBRANCH   2   4
TORSDOF 12
ENDMDL
MODEL      306
REMARK 921   NORMALIZED FREE ENERGY PREDICTED BY IDOCK:   -2.44 KCAL/MOL
REMARK 922        TOTAL FREE ENERGY PREDICTED BY IDOCK:   -5.18 KCAL/MOL
REMARK 923 INTER-LIGAND FREE ENERGY PREDICTED BY IDOCK:   -4.65 KCAL/MOL
REMARK 924 INTRA-LIGAND FREE ENERGY PREDICTED BY IDOCK:   -0.53 KCAL/MOL
REMARK 927      BINDING AFFINITY PREDICTED BY RF-SCORE:    0.00 PKD
ROOT
HETATM    1  C   UNL     1      -6.762   9.728  62.842  1.00  0.00    -0.110 C  
HETATM    2  C   UNL     1      -6.540   8.372  63.516  1.00  0.00    -0.084 C  
HETATM    3  C   UNL     1      -5.137   7.860  63.182  1.00  0.00    -0.046 C  
ENDROOT
BRANCH   2   4
HETATM    4  N   UNL     1      -6.730   8.535  64.958  1.00  0.00    -0.064 NA 
HETATM    5  H   UNL     1      -7.574   9.074  65.153  1.00  0.00     0.000 HD 
BRANCH   4   6
HETATM    6  C   UNL     1      -6.743   7.264  65.695  1.00  0.00    -0.052 C  
BRANCH   6   7
HETATM    7  C   UNL     1      -7.922   7.238  66.684  1.00  0.00    -0.114 C  
HETATM    8  O   UNL     1      -8.906   6.294  66.231  1.00  0.00    -0.139 OA 
HETATM    9  H   UNL     1      -9.634   6.278  66.842  1.00  0.00     0.000 HD 
BRANCH   7  10
HETATM   10  C   UNL     1      -7.469   6.871  68.100  1.00  0.00    -0.099 C  
BRANCH  10  11
HETATM   11  O   UNL     1      -7.298   8.073  68.869  1.00  0.00    -0.077 OA 
BRANCH  11  12
HETATM   12  C   UNL     1      -8.378   8.915  68.866  1.00  0.00    -0.122 A  
HETATM   13  C   UNL     1      -8.443  10.122  68.170  1.00  0.00    -0.118 A  
HETATM   14  C   UNL     1      -9.592  10.913  68.241  1.00  0.00    -0.169 A  
HETATM   15  C   UNL     1     -10.699  10.507  68.999  1.00  0.00    -0.259 A  
HETATM   16  C   UNL     1     -10.642   9.280  69.667  1.00  0.00    -0.241 A  
HETATM   17  C   UNL     1      -9.490   8.485  69.592  1.00  0.00    -0.165 A  
BRANCH  15  18
HETATM   18  C   UNL     1     -11.910  11.397  69.095  1.00  0.00    -0.345 C  
BRANCH  18  19
HETATM   19  O   UNL     1     -11.560  12.559  69.840  1.00  0.00    -0.255 OA 
BRANCH  19  20
HETATM   20  C   UNL     1     -11.622  13.743  69.047  1.00  0.00    -0.313 C  
BRANCH  20  21
HETATM   21  C   UNL     1     -12.175  13.372  67.676  1.00  0.00    -0.159 C  
BRANCH  21  22
HETATM   22  O   UNL     1     -12.249  14.531  66.847  1.00  0.00    -0.375 OA 
BRANCH  22  23
HETATM   23  C   UNL     1     -11.976  14.262  65.466  1.00  0.00    -0.385 C  
HETATM   24  C   UNL     1     -10.598  14.767  65.051  1.00  0.00    -0.452 C  
HETATM   25  C   UNL     1     -12.053  12.750  65.279  1.00  0.00    -0.505 C  
ENDBRANCH  22  23
ENDBRANCH  21  22
ENDBRANCH  20  21
ENDBRANCH  19  20
ENDBRANCH  18  19
ENDBRANCH  15  18
ENDBRANCH  11  12
ENDBRANCH  10  11
ENDBRANCH   7  10
ENDBRANCH   6   7
ENDBRANCH   4   6
ENDBRANCH   2   4
TORSDOF 12
ENDMDL
MODEL      307
REMARK 921   NORMALIZED FREE ENERGY PREDICTED BY IDOCK:   -2.43 KCAL/MOL
REMARK 922        TOTAL FREE ENERGY PREDICTED BY IDOCK:   -5.16 KCAL/MOL
REMARK 923 INTER-LIGAND FREE ENERGY PREDICTED BY IDOCK:   -4.49 KCAL/MOL
REMARK 924 INTRA-LIGAND FREE ENERGY PREDICTED BY IDOCK:   -0.66 KCAL/MOL
REMARK 927      BINDING AFFINITY PREDICTED BY RF-SCORE:    0.00 PKD
ROOT
HETATM    1  C   UNL     1     -11.414  16.042  64.630  1.00  0.00    -0.252 C  
HETATM    2  C   UNL     1     -10.310  15.441  65.505  1.00  0.00    -0.387 C  
HETATM    3  C   UNL     1     -10.283  16.159  66.857  1.00  0.00    -0.283 C  
ENDROOT
BRANCH   2   4
HETATM    4  N   UNL     1     -10.568  14.008  65.656  1.00  0.00    -0.295 NA 
HETATM    5  H   UNL     1     -10.003  13.469  65.000  1.00  0.00     0.000 HD 
BRANCH   4   6
HETATM    6  C   UNL     1     -10.379  13.521  67.029  1.00  0.00    -0.252 C  
BRANCH   6   7
HETATM    7  C   UNL     1      -9.299  12.425  67.057  1.00  0.00    -0.204 C  
HETATM    8  O   UNL     1      -8.000  13.028  66.945  1.00  0.00    -0.388 OA 
HETATM    9  H   UNL     1      -7.334  12.352  66.962  1.00  0.00     0.000 HD 
BRANCH   7  10
HETATM   10  C   UNL     1      -9.370  11.589  68.339  1.00  0.00    -0.194 C  
BRANCH  10  11
HETATM   11  O   UNL     1      -8.038  11.251  68.758  1.00  0.00    -0.145 OA 
BRANCH  11  12
HETATM   12  C   UNL     1      -7.848   9.929  69.062  1.00  0.00    -0.095 A  
HETATM   13  C   UNL     1      -7.797   9.411  70.355  1.00  0.00    -0.179 A  
HETATM   14  C   UNL     1      -7.590   8.044  70.556  1.00  0.00    -0.076 A  
HETATM   15  C   UNL     1      -7.442   7.172  69.469  1.00  0.00    -0.095 A  
HETATM   16  C   UNL     1      -7.527   7.692  68.174  1.00  0.00    -0.108 A  
HETATM   17  C   UNL     1      -7.739   9.063  67.973  1.00  0.00    -0.097 A  
BRANCH  15  18
HETATM   18  C   UNL     1      -7.177   5.709  69.711  1.00  0.00    -0.069 C  
BRANCH  18  19
HETATM   19  O   UNL     1      -8.196   5.200  70.566  1.00  0.00    -0.098 OA 
BRANCH  19  20
HETATM   20  C   UNL     1      -9.477   5.208  69.938  1.00  0.00    -0.160 C  
BRANCH  20  21
HETATM   21  C   UNL     1      -9.503   4.100  68.892  1.00  0.00    -0.169 C  
BRANCH  21  22
HETATM   22  O   UNL     1      -9.296   4.648  67.592  1.00  0.00    -0.129 OA 
BRANCH  22  23
HETATM   23  C   UNL     1     -10.514   4.882  66.872  1.00  0.00    -0.144 C  
HETATM   24  C   UNL     1     -10.909   6.356  66.889  1.00  0.00    -0.428 C  
HETATM   25  C   UNL     1     -10.281   4.423  65.436  1.00  0.00    -0.247 C  
ENDBRANCH  22  23
ENDBRANCH  21  22
ENDBRANCH  20  21
ENDBRANCH  19  20
ENDBRANCH  18  19
ENDBRANCH  15  18
ENDBRANCH  11  12
ENDBRANCH  10  11
ENDBRANCH   7  10
ENDBRANCH   6   7
ENDBRANCH   4   6
ENDBRANCH   2   4
TORSDOF 12
ENDMDL
MODEL      308
REMARK 921   NORMALIZED FREE ENERGY PREDICTED BY IDOCK:   -2.37 KCAL/MOL
REMARK 922        TOTAL FREE ENERGY PREDICTED BY IDOCK:   -5.05 KCAL/MOL
REMARK 923 INTER-LIGAND FREE ENERGY PREDICTED BY IDOCK:   -4.17 KCAL/MOL
REMARK 924 INTRA-LIGAND FREE ENERGY PREDICTED BY IDOCK:   -0.88 KCAL/MOL
REMARK 927      BINDING AFFINITY PREDICTED BY RF-SCORE:    0.00 PKD
ROOT
HETATM    1  C   UNL     1      -9.579  11.292  67.435  1.00  0.00    -0.182 C  
HETATM    2  C   UNL     1      -9.534  10.894  65.958  1.00  0.00    -0.203 C  
HETATM    3  C   UNL     1     -10.428  11.836  65.148  1.00  0.00    -0.330 C  
ENDROOT
BRANCH   2   4
HETATM    4  N   UNL     1      -8.143  10.943  65.506  1.00  0.00    -0.335 NA 
HETATM    5  H   UNL     1      -7.522  10.531  66.203  1.00  0.00     0.000 HD 
BRANCH   4   6
HETATM    6  C   UNL     1      -7.931  10.324  64.191  1.00  0.00    -0.126 C  
BRANCH   6   7
HETATM    7  C   UNL     1      -8.368   8.848  64.225  1.00  0.00    -0.169 C  
HETATM    8  O   UNL     1      -9.187   8.564  63.080  1.00  0.00    -0.157 OA 
HETATM    9  H   UNL     1      -9.457   7.654  63.101  1.00  0.00     0.000 HD 
BRANCH   7  10
HETATM   10  C   UNL     1      -7.165   7.900  64.245  1.00  0.00    -0.082 C  
BRANCH  10  11
HETATM   11  O   UNL     1      -7.633   6.542  64.258  1.00  0.00    -0.085 OA 
BRANCH  11  12
HETATM   12  C   UNL     1      -7.966   6.060  65.496  1.00  0.00    -0.115 A  
HETATM   13  C   UNL     1      -9.071   5.254  65.764  1.00  0.00    -0.161 A  
HETATM   14  C   UNL     1      -9.327   4.822  67.068  1.00  0.00    -0.144 A  
HETATM   15  C   UNL     1      -8.477   5.181  68.123  1.00  0.00    -0.099 A  
HETATM   16  C   UNL     1      -7.351   5.962  67.844  1.00  0.00    -0.077 A  
HETATM   17  C   UNL     1      -7.094   6.391  66.534  1.00  0.00    -0.068 A  
BRANCH  15  18
HETATM   18  C   UNL     1      -8.796   4.739  69.528  1.00  0.00    -0.087 C  
BRANCH  18  19
HETATM   19  O   UNL     1     -10.158   5.054  69.802  1.00  0.00    -0.231 OA 
BRANCH  19  20
HETATM   20  C   UNL     1     -10.318   5.673  71.077  1.00  0.00    -0.233 C  
BRANCH  20  21
HETATM   21  C   UNL     1      -9.096   6.543  71.343  1.00  0.00    -0.148 C  
BRANCH  21  22
HETATM   22  O   UNL     1      -9.498   7.802  71.882  1.00  0.00    -0.145 OA 
BRANCH  22  23
HETATM   23  C   UNL     1     -10.623   8.377  71.206  1.00  0.00    -0.222 C  
HETATM   24  C   UNL     1     -11.783   8.644  72.161  1.00  0.00    -0.442 C  
HETATM   25  C   UNL     1     -10.151   9.687  70.583  1.00  0.00    -0.324 C  
ENDBRANCH  22  23
ENDBRANCH  21  22
ENDBRANCH  20  21
ENDBRANCH  19  20
ENDBRANCH  18  19
ENDBRANCH  15  18
ENDBRANCH  11  12
ENDBRANCH  10  11
ENDBRANCH   7  10
ENDBRANCH   6   7
ENDBRANCH   4   6
ENDBRANCH   2   4
TORSDOF 12
ENDMDL
MODEL      309
REMARK 921   NORMALIZED FREE ENERGY PREDICTED BY IDOCK:   -2.36 KCAL/MOL
REMARK 922        TOTAL FREE ENERGY PREDICTED BY IDOCK:   -5.03 KCAL/MOL
REMARK 923 INTER-LIGAND FREE ENERGY PREDICTED BY IDOCK:   -5.06 KCAL/MOL
REMARK 924 INTRA-LIGAND FREE ENERGY PREDICTED BY IDOCK:    0.03 KCAL/MOL
REMARK 927      BINDING AFFINITY PREDICTED BY RF-SCORE:    0.00 PKD
ROOT
HETATM    1  C   UNL     1     -11.460  14.422  71.381  1.00  0.00     0.180 C  
HETATM    2  C   UNL     1     -12.890  14.312  70.846  1.00  0.00    -0.347 C  
HETATM    3  C   UNL     1     -13.668  15.580  71.205  1.00  0.00    -0.482 C  
ENDROOT
BRANCH   2   4
HETATM    4  N   UNL     1     -12.828  14.105  69.398  1.00  0.00    -0.229 NA 
HETATM    5  H   UNL     1     -13.705  14.379  68.956  1.00  0.00     0.000 HD 
BRANCH   4   6
HETATM    6  C   UNL     1     -11.690  14.779  68.758  1.00  0.00    -0.323 C  
BRANCH   6   7
HETATM    7  C   UNL     1     -10.772  13.743  68.085  1.00  0.00    -0.248 C  
HETATM    8  O   UNL     1      -9.556  13.619  68.840  1.00  0.00    -0.405 OA 
HETATM    9  H   UNL     1      -8.989  12.979  68.425  1.00  0.00     0.000 HD 
BRANCH   7  10
HETATM   10  C   UNL     1     -11.449  12.373  67.970  1.00  0.00    -0.322 C  
BRANCH  10  11
HETATM   11  O   UNL     1     -11.838  11.926  69.278  1.00  0.00    -0.296 OA 
BRANCH  11  12
HETATM   12  C   UNL     1     -11.501  10.630  69.566  1.00  0.00    -0.291 A  
HETATM   13  C   UNL     1     -11.763   9.991  70.778  1.00  0.00    -0.437 A  
HETATM   14  C   UNL     1     -11.368   8.666  70.973  1.00  0.00    -0.322 A  
HETATM   15  C   UNL     1     -10.715   7.953  69.957  1.00  0.00    -0.244 A  
HETATM   16  C   UNL     1     -10.485   8.587  68.733  1.00  0.00    -0.208 A  
HETATM   17  C   UNL     1     -10.885   9.917  68.537  1.00  0.00    -0.257 A  
BRANCH  15  18
HETATM   18  C   UNL     1     -10.261   6.538  70.206  1.00  0.00    -0.192 C  
BRANCH  18  19
HETATM   19  O   UNL     1      -9.268   6.555  71.227  1.00  0.00    -0.155 OA 
BRANCH  19  20
HETATM   20  C   UNL     1      -7.948   6.482  70.693  1.00  0.00    -0.111 C  
BRANCH  20  21
HETATM   21  C   UNL     1      -7.419   7.903  70.532  1.00  0.00    -0.073 C  
BRANCH  21  22
HETATM   22  O   UNL     1      -6.534   7.973  69.416  1.00  0.00    -0.034 OA 
BRANCH  22  23
HETATM   23  C   UNL     1      -6.723   9.143  68.610  1.00  0.00    -0.058 C  
HETATM   24  C   UNL     1      -7.363   8.808  67.266  1.00  0.00    -0.081 C  
HETATM   25  C   UNL     1      -7.628  10.087  69.395  1.00  0.00    -0.123 C  
ENDBRANCH  22  23
ENDBRANCH  21  22
ENDBRANCH  20  21
ENDBRANCH  19  20
ENDBRANCH  18  19
ENDBRANCH  15  18
ENDBRANCH  11  12
ENDBRANCH  10  11
ENDBRANCH   7  10
ENDBRANCH   6   7
ENDBRANCH   4   6
ENDBRANCH   2   4
TORSDOF 12
ENDMDL
MODEL      310
REMARK 921   NORMALIZED FREE ENERGY PREDICTED BY IDOCK:   -2.34 KCAL/MOL
REMARK 922        TOTAL FREE ENERGY PREDICTED BY IDOCK:   -4.99 KCAL/MOL
REMARK 923 INTER-LIGAND FREE ENERGY PREDICTED BY IDOCK:   -4.13 KCAL/MOL
REMARK 924 INTRA-LIGAND FREE ENERGY PREDICTED BY IDOCK:   -0.86 KCAL/MOL
REMARK 927      BINDING AFFINITY PREDICTED BY RF-SCORE:    0.00 PKD
ROOT
HETATM    1  C   UNL     1      -7.965   1.687  65.311  1.00  0.00    -0.073 C  
HETATM    2  C   UNL     1      -8.938   2.717  64.731  1.00  0.00    -0.126 C  
HETATM    3  C   UNL     1      -9.672   2.109  63.534  1.00  0.00    -0.116 C  
ENDROOT
BRANCH   2   4
HETATM    4  N   UNL     1      -9.866   3.124  65.787  1.00  0.00    -0.388 NA 
HETATM    5  H   UNL     1      -9.536   2.809  66.700  1.00  0.00     0.000 HD 
BRANCH   4   6
HETATM    6  C   UNL     1     -10.140   4.567  65.803  1.00  0.00    -0.255 C  
BRANCH   6   7
HETATM    7  C   UNL     1      -9.927   5.130  67.220  1.00  0.00    -0.186 C  
HETATM    8  O   UNL     1      -9.695   4.048  68.136  1.00  0.00    -0.149 OA 
HETATM    9  H   UNL     1      -9.563   4.395  69.010  1.00  0.00     0.000 HD 
BRANCH   7  10
HETATM   10  C   UNL     1      -8.751   6.110  67.272  1.00  0.00    -0.108 C  
BRANCH  10  11
HETATM   11  O   UNL     1      -8.810   6.856  68.499  1.00  0.00    -0.125 OA 
BRANCH  11  12
HETATM   12  C   UNL     1      -8.447   8.172  68.389  1.00  0.00    -0.126 A  
HETATM   13  C   UNL     1      -8.303   9.049  69.464  1.00  0.00    -0.117 A  
HETATM   14  C   UNL     1      -7.936  10.378  69.242  1.00  0.00    -0.157 A  
HETATM   15  C   UNL     1      -7.697  10.851  67.944  1.00  0.00    -0.104 A  
HETATM   16  C   UNL     1      -7.810   9.960  66.873  1.00  0.00    -0.102 A  
HETATM   17  C   UNL     1      -8.175   8.625  67.097  1.00  0.00    -0.107 A  
BRANCH  15  18
HETATM   18  C   UNL     1      -7.344  12.299  67.726  1.00  0.00    -0.118 C  
BRANCH  18  19
HETATM   19  O   UNL     1      -8.551  13.040  67.569  1.00  0.00    -0.169 OA 
BRANCH  19  20
HETATM   20  C   UNL     1      -8.596  14.178  68.426  1.00  0.00    -0.176 C  
BRANCH  20  21
HETATM   21  C   UNL     1     -10.043  14.648  68.519  1.00  0.00    -0.238 C  
BRANCH  21  22
HETATM   22  O   UNL     1     -10.860  13.900  67.620  1.00  0.00    -0.250 OA 
BRANCH  22  23
HETATM   23  C   UNL     1     -12.024  13.338  68.242  1.00  0.00    -0.302 C  
HETATM   24  C   UNL     1     -11.819  11.871  68.607  1.00  0.00    -0.365 C  
HETATM   25  C   UNL     1     -12.299  14.154  69.501  1.00  0.00    -0.275 C  
ENDBRANCH  22  23
ENDBRANCH  21  22
ENDBRANCH  20  21
ENDBRANCH  19  20
ENDBRANCH  18  19
ENDBRANCH  15  18
ENDBRANCH  11  12
ENDBRANCH  10  11
ENDBRANCH   7  10
ENDBRANCH   6   7
ENDBRANCH   4   6
ENDBRANCH   2   4
TORSDOF 12
ENDMDL
MODEL      311
REMARK 921   NORMALIZED FREE ENERGY PREDICTED BY IDOCK:   -2.33 KCAL/MOL
REMARK 922        TOTAL FREE ENERGY PREDICTED BY IDOCK:   -4.99 KCAL/MOL
REMARK 923 INTER-LIGAND FREE ENERGY PREDICTED BY IDOCK:   -4.35 KCAL/MOL
REMARK 924 INTRA-LIGAND FREE ENERGY PREDICTED BY IDOCK:   -0.64 KCAL/MOL
REMARK 927      BINDING AFFINITY PREDICTED BY RF-SCORE:    0.00 PKD
ROOT
HETATM    1  C   UNL     1      -6.693  17.278  67.415  1.00  0.00    -0.175 C  
HETATM    2  C   UNL     1      -8.084  17.895  67.580  1.00  0.00    -0.224 C  
HETATM    3  C   UNL     1      -8.596  18.372  66.219  1.00  0.00    -0.215 C  
ENDROOT
BRANCH   2   4
HETATM    4  N   UNL     1      -8.969  16.889  68.171  1.00  0.00    -0.221 NA 
HETATM    5  H   UNL     1      -9.856  16.849  67.668  1.00  0.00     0.000 HD 
BRANCH   4   6
HETATM    6  C   UNL     1      -8.361  15.555  68.262  1.00  0.00    -0.147 C  
BRANCH   6   7
HETATM    7  C   UNL     1      -8.871  14.662  67.116  1.00  0.00    -0.221 C  
HETATM    8  O   UNL     1      -7.896  13.648  66.829  1.00  0.00    -0.332 OA 
HETATM    9  H   UNL     1      -8.210  13.097  66.122  1.00  0.00     0.000 HD 
BRANCH   7  10
HETATM   10  C   UNL     1     -10.212  14.005  67.461  1.00  0.00    -0.244 C  
BRANCH  10  11
HETATM   11  O   UNL     1     -10.012  13.043  68.508  1.00  0.00    -0.227 OA 
BRANCH  11  12
HETATM   12  C   UNL     1     -10.183  11.738  68.130  1.00  0.00    -0.203 A  
HETATM   13  C   UNL     1     -10.447  11.317  66.827  1.00  0.00    -0.291 A  
HETATM   14  C   UNL     1     -10.614   9.959  66.548  1.00  0.00    -0.156 A  
HETATM   15  C   UNL     1     -10.509   8.998  67.563  1.00  0.00    -0.338 A  
HETATM   16  C   UNL     1     -10.211   9.422  68.861  1.00  0.00    -0.215 A  
HETATM   17  C   UNL     1     -10.040  10.786  69.140  1.00  0.00    -0.224 A  
BRANCH  15  18
HETATM   18  C   UNL     1     -10.735   7.543  67.246  1.00  0.00    -0.295 C  
BRANCH  18  19
HETATM   19  O   UNL     1      -9.548   6.821  67.563  1.00  0.00    -0.125 OA 
BRANCH  19  20
HETATM   20  C   UNL     1      -9.816   5.679  68.375  1.00  0.00    -0.139 C  
BRANCH  20  21
HETATM   21  C   UNL     1      -8.736   5.592  69.448  1.00  0.00    -0.109 C  
BRANCH  21  22
HETATM   22  O   UNL     1      -7.547   6.239  68.999  1.00  0.00    -0.091 OA 
BRANCH  22  23
HETATM   23  C   UNL     1      -6.683   6.649  70.068  1.00  0.00    -0.049 C  
HETATM   24  C   UNL     1      -5.945   7.942  69.737  1.00  0.00    -0.023 C  
HETATM   25  C   UNL     1      -7.560   6.852  71.300  1.00  0.00    -0.087 C  
ENDBRANCH  22  23
ENDBRANCH  21  22
ENDBRANCH  20  21
ENDBRANCH  19  20
ENDBRANCH  18  19
ENDBRANCH  15  18
ENDBRANCH  11  12
ENDBRANCH  10  11
ENDBRANCH   7  10
ENDBRANCH   6   7
ENDBRANCH   4   6
ENDBRANCH   2   4
TORSDOF 12
ENDMDL
MODEL      312
REMARK 921   NORMALIZED FREE ENERGY PREDICTED BY IDOCK:   -2.31 KCAL/MOL
REMARK 922        TOTAL FREE ENERGY PREDICTED BY IDOCK:   -4.95 KCAL/MOL
REMARK 923 INTER-LIGAND FREE ENERGY PREDICTED BY IDOCK:   -4.95 KCAL/MOL
REMARK 924 INTRA-LIGAND FREE ENERGY PREDICTED BY IDOCK:    0.00 KCAL/MOL
REMARK 927      BINDING AFFINITY PREDICTED BY RF-SCORE:    0.00 PKD
ROOT
HETATM    1  C   UNL     1     -11.461  14.423  71.381  1.00  0.00     0.180 C  
HETATM    2  C   UNL     1     -12.885  14.316  70.832  1.00  0.00    -0.347 C  
HETATM    3  C   UNL     1     -13.668  15.581  71.193  1.00  0.00    -0.411 C  
ENDROOT
BRANCH   2   4
HETATM    4  N   UNL     1     -12.809  14.119  69.383  1.00  0.00    -0.229 NA 
HETATM    5  H   UNL     1     -13.682  14.398  68.934  1.00  0.00     0.000 HD 
BRANCH   4   6
HETATM    6  C   UNL     1     -11.664  14.796  68.759  1.00  0.00    -0.323 C  
BRANCH   6   7
HETATM    7  C   UNL     1     -10.743  13.763  68.085  1.00  0.00    -0.248 C  
HETATM    8  O   UNL     1      -9.535  13.627  68.849  1.00  0.00    -0.403 OA 
HETATM    9  H   UNL     1      -8.966  12.990  68.433  1.00  0.00     0.000 HD 
BRANCH   7  10
HETATM   10  C   UNL     1     -11.424  12.397  67.949  1.00  0.00    -0.328 C  
BRANCH  10  11
HETATM   11  O   UNL     1     -11.826  11.937  69.249  1.00  0.00    -0.296 OA 
BRANCH  11  12
HETATM   12  C   UNL     1     -11.496  10.637  69.526  1.00  0.00    -0.291 A  
HETATM   13  C   UNL     1     -11.771   9.987  70.728  1.00  0.00    -0.437 A  
HETATM   14  C   UNL     1     -11.383   8.658  70.913  1.00  0.00    -0.314 A  
HETATM   15  C   UNL     1     -10.723   7.954  69.896  1.00  0.00    -0.244 A  
HETATM   16  C   UNL     1     -10.480   8.600  68.680  1.00  0.00    -0.208 A  
HETATM   17  C   UNL     1     -10.873   9.933  68.495  1.00  0.00    -0.257 A  
BRANCH  15  18
HETATM   18  C   UNL     1     -10.276   6.535  70.133  1.00  0.00    -0.192 C  
BRANCH  18  19
HETATM   19  O   UNL     1      -9.293   6.537  71.164  1.00  0.00    -0.163 OA 
BRANCH  19  20
HETATM   20  C   UNL     1      -7.968   6.466  70.642  1.00  0.00    -0.112 C  
BRANCH  20  21
HETATM   21  C   UNL     1      -8.008   5.666  69.344  1.00  0.00    -0.099 C  
BRANCH  21  22
HETATM   22  O   UNL     1      -6.786   4.950  69.172  1.00  0.00    -0.046 OA 
BRANCH  22  23
HETATM   23  C   UNL     1      -6.972   3.610  68.699  1.00  0.00    -0.050 C  
HETATM   24  C   UNL     1      -6.677   2.580  69.786  1.00  0.00    -0.033 C  
HETATM   25  C   UNL     1      -8.425   3.491  68.250  1.00  0.00    -0.106 C  
ENDBRANCH  22  23
ENDBRANCH  21  22
ENDBRANCH  20  21
ENDBRANCH  19  20
ENDBRANCH  18  19
ENDBRANCH  15  18
ENDBRANCH  11  12
ENDBRANCH  10  11
ENDBRANCH   7  10
ENDBRANCH   6   7
ENDBRANCH   4   6
ENDBRANCH   2   4
TORSDOF 12
ENDMDL
MODEL      313
REMARK 921   NORMALIZED FREE ENERGY PREDICTED BY IDOCK:   -2.29 KCAL/MOL
REMARK 922        TOTAL FREE ENERGY PREDICTED BY IDOCK:   -4.92 KCAL/MOL
REMARK 923 INTER-LIGAND FREE ENERGY PREDICTED BY IDOCK:   -4.96 KCAL/MOL
REMARK 924 INTRA-LIGAND FREE ENERGY PREDICTED BY IDOCK:    0.04 KCAL/MOL
REMARK 927      BINDING AFFINITY PREDICTED BY RF-SCORE:    0.00 PKD
ROOT
HETATM    1  C   UNL     1     -11.461  14.423  71.381  1.00  0.00     0.180 C  
HETATM    2  C   UNL     1     -12.891  14.314  70.846  1.00  0.00    -0.347 C  
HETATM    3  C   UNL     1     -13.668  15.582  71.206  1.00  0.00    -0.482 C  
ENDROOT
BRANCH   2   4
HETATM    4  N   UNL     1     -12.829  14.108  69.398  1.00  0.00    -0.229 NA 
HETATM    5  H   UNL     1     -13.705  14.385  68.956  1.00  0.00     0.000 HD 
BRANCH   4   6
HETATM    6  C   UNL     1     -11.689  14.780  68.759  1.00  0.00    -0.323 C  
BRANCH   6   7
HETATM    7  C   UNL     1     -10.775  13.741  68.082  1.00  0.00    -0.248 C  
HETATM    8  O   UNL     1      -9.560  13.609  68.836  1.00  0.00    -0.405 OA 
HETATM    9  H   UNL     1      -8.996  12.968  68.419  1.00  0.00     0.000 HD 
BRANCH   7  10
HETATM   10  C   UNL     1     -11.459  12.375  67.962  1.00  0.00    -0.322 C  
BRANCH  10  11
HETATM   11  O   UNL     1     -11.849  11.924  69.269  1.00  0.00    -0.296 OA 
BRANCH  11  12
HETATM   12  C   UNL     1     -11.518  10.625  69.551  1.00  0.00    -0.291 A  
HETATM   13  C   UNL     1     -11.782   9.983  70.760  1.00  0.00    -0.437 A  
HETATM   14  C   UNL     1     -11.393   8.655  70.949  1.00  0.00    -0.314 A  
HETATM   15  C   UNL     1     -10.744   7.943  69.931  1.00  0.00    -0.244 A  
HETATM   16  C   UNL     1     -10.512   8.582  68.709  1.00  0.00    -0.208 A  
HETATM   17  C   UNL     1     -10.905   9.914  68.518  1.00  0.00    -0.257 A  
BRANCH  15  18
HETATM   18  C   UNL     1     -10.297   6.526  70.173  1.00  0.00    -0.201 C  
BRANCH  18  19
HETATM   19  O   UNL     1      -9.304   6.533  71.194  1.00  0.00    -0.163 OA 
BRANCH  19  20
HETATM   20  C   UNL     1      -7.984   6.457  70.660  1.00  0.00    -0.112 C  
BRANCH  20  21
HETATM   21  C   UNL     1      -7.032   6.085  71.791  1.00  0.00    -0.073 C  
BRANCH  21  22
HETATM   22  O   UNL     1      -5.753   6.678  71.570  1.00  0.00    -0.034 OA 
BRANCH  22  23
HETATM   23  C   UNL     1      -5.170   7.231  72.757  1.00  0.00    -0.037 C  
HETATM   24  C   UNL     1      -5.170   8.757  72.732  1.00  0.00    -0.054 C  
HETATM   25  C   UNL     1      -5.995   6.730  73.938  1.00  0.00    -0.063 C  
ENDBRANCH  22  23
ENDBRANCH  21  22
ENDBRANCH  20  21
ENDBRANCH  19  20
ENDBRANCH  18  19
ENDBRANCH  15  18
ENDBRANCH  11  12
ENDBRANCH  10  11
ENDBRANCH   7  10
ENDBRANCH   6   7
ENDBRANCH   4   6
ENDBRANCH   2   4
TORSDOF 12
ENDMDL
MODEL      314
REMARK 921   NORMALIZED FREE ENERGY PREDICTED BY IDOCK:   -2.29 KCAL/MOL
REMARK 922        TOTAL FREE ENERGY PREDICTED BY IDOCK:   -4.91 KCAL/MOL
REMARK 923 INTER-LIGAND FREE ENERGY PREDICTED BY IDOCK:   -4.30 KCAL/MOL
REMARK 924 INTRA-LIGAND FREE ENERGY PREDICTED BY IDOCK:   -0.62 KCAL/MOL
REMARK 927      BINDING AFFINITY PREDICTED BY RF-SCORE:    0.00 PKD
ROOT
HETATM    1  C   UNL     1      -8.042   2.514  65.018  1.00  0.00    -0.082 C  
HETATM    2  C   UNL     1      -7.630   3.531  63.950  1.00  0.00    -0.074 C  
HETATM    3  C   UNL     1      -7.439   2.816  62.610  1.00  0.00    -0.049 C  
ENDROOT
BRANCH   2   4
HETATM    4  N   UNL     1      -8.663   4.565  63.872  1.00  0.00    -0.136 NA 
HETATM    5  H   UNL     1      -9.464   4.320  64.455  1.00  0.00     0.000 HD 
BRANCH   4   6
HETATM    6  C   UNL     1      -8.172   5.910  64.201  1.00  0.00    -0.075 C  
BRANCH   6   7
HETATM    7  C   UNL     1      -8.894   6.445  65.451  1.00  0.00     0.041 C  
HETATM    8  O   UNL     1      -9.959   5.551  65.809  1.00  0.00    -0.366 OA 
HETATM    9  H   UNL     1     -10.404   5.881  66.581  1.00  0.00     0.000 HD 
BRANCH   7  10
HETATM   10  C   UNL     1      -7.935   6.606  66.636  1.00  0.00    -0.105 C  
BRANCH  10  11
HETATM   11  O   UNL     1      -8.698   6.781  67.841  1.00  0.00    -0.121 OA 
BRANCH  11  12
HETATM   12  C   UNL     1      -9.095   8.068  68.088  1.00  0.00    -0.134 A  
HETATM   13  C   UNL     1     -10.245   8.424  68.791  1.00  0.00    -0.223 A  
HETATM   14  C   UNL     1     -10.564   9.771  68.980  1.00  0.00    -0.238 A  
HETATM   15  C   UNL     1      -9.734  10.784  68.480  1.00  0.00    -0.184 A  
HETATM   16  C   UNL     1      -8.565  10.422  67.805  1.00  0.00    -0.122 A  
HETATM   17  C   UNL     1      -8.243   9.070  67.619  1.00  0.00    -0.109 A  
BRANCH  15  18
HETATM   18  C   UNL     1     -10.121  12.229  68.659  1.00  0.00    -0.144 C  
BRANCH  18  19
HETATM   19  O   UNL     1     -10.332  12.803  67.373  1.00  0.00    -0.220 OA 
BRANCH  19  20
HETATM   20  C   UNL     1     -11.478  13.651  67.346  1.00  0.00    -0.336 C  
BRANCH  20  21
HETATM   21  C   UNL     1     -11.104  14.937  66.618  1.00  0.00    -0.329 C  
BRANCH  21  22
HETATM   22  O   UNL     1     -10.968  16.007  67.552  1.00  0.00    -0.321 OA 
BRANCH  22  23
HETATM   23  C   UNL     1      -9.719  16.703  67.444  1.00  0.00    -0.251 C  
HETATM   24  C   UNL     1      -8.906  16.224  66.245  1.00  0.00    -0.367 C  
HETATM   25  C   UNL     1     -10.043  18.186  67.294  1.00  0.00    -0.354 C  
ENDBRANCH  22  23
ENDBRANCH  21  22
ENDBRANCH  20  21
ENDBRANCH  19  20
ENDBRANCH  18  19
ENDBRANCH  15  18
ENDBRANCH  11  12
ENDBRANCH  10  11
ENDBRANCH   7  10
ENDBRANCH   6   7
ENDBRANCH   4   6
ENDBRANCH   2   4
TORSDOF 12
ENDMDL
MODEL      315
REMARK 921   NORMALIZED FREE ENERGY PREDICTED BY IDOCK:   -2.26 KCAL/MOL
REMARK 922        TOTAL FREE ENERGY PREDICTED BY IDOCK:   -4.86 KCAL/MOL
REMARK 923 INTER-LIGAND FREE ENERGY PREDICTED BY IDOCK:   -4.44 KCAL/MOL
REMARK 924 INTRA-LIGAND FREE ENERGY PREDICTED BY IDOCK:   -0.42 KCAL/MOL
REMARK 927      BINDING AFFINITY PREDICTED BY RF-SCORE:    0.00 PKD
ROOT
HETATM    1  C   UNL     1      -5.749  17.515  67.188  1.00  0.00    -0.163 C  
HETATM    2  C   UNL     1      -7.124  18.159  67.390  1.00  0.00    -0.198 C  
HETATM    3  C   UNL     1      -7.726  18.513  66.028  1.00  0.00    -0.206 C  
ENDROOT
BRANCH   2   4
HETATM    4  N   UNL     1      -7.970  17.222  68.132  1.00  0.00    -0.215 NA 
HETATM    5  H   UNL     1      -8.901  17.171  67.718  1.00  0.00     0.000 HD 
BRANCH   4   6
HETATM    6  C   UNL     1      -7.383  15.881  68.262  1.00  0.00    -0.123 C  
BRANCH   6   7
HETATM    7  C   UNL     1      -8.022  14.924  67.239  1.00  0.00    -0.209 C  
HETATM    8  O   UNL     1      -7.115  13.845  66.961  1.00  0.00    -0.378 OA 
HETATM    9  H   UNL     1      -7.509  13.254  66.330  1.00  0.00     0.000 HD 
BRANCH   7  10
HETATM   10  C   UNL     1      -9.355  14.360  67.741  1.00  0.00    -0.200 C  
BRANCH  10  11
HETATM   11  O   UNL     1      -9.099  13.258  68.626  1.00  0.00    -0.109 OA 
BRANCH  11  12
HETATM   12  C   UNL     1      -9.463  12.032  68.136  1.00  0.00    -0.200 A  
HETATM   13  C   UNL     1     -10.234  11.831  66.992  1.00  0.00    -0.240 A  
HETATM   14  C   UNL     1     -10.557  10.535  66.581  1.00  0.00    -0.263 A  
HETATM   15  C   UNL     1     -10.106   9.420  67.301  1.00  0.00    -0.285 A  
HETATM   16  C   UNL     1      -9.306   9.626  68.428  1.00  0.00    -0.136 A  
HETATM   17  C   UNL     1      -8.979  10.926  68.837  1.00  0.00    -0.146 A  
BRANCH  15  18
HETATM   18  C   UNL     1     -10.503   8.034  66.863  1.00  0.00    -0.317 C  
BRANCH  18  19
HETATM   19  O   UNL     1      -9.351   7.197  66.912  1.00  0.00    -0.142 OA 
BRANCH  19  20
HETATM   20  C   UNL     1      -8.500   7.388  65.784  1.00  0.00    -0.143 C  
BRANCH  20  21
HETATM   21  C   UNL     1      -8.170   6.021  65.198  1.00  0.00    -0.142 C  
BRANCH  21  22
HETATM   22  O   UNL     1      -9.282   5.140  65.352  1.00  0.00    -0.159 OA 
BRANCH  22  23
HETATM   23  C   UNL     1      -9.232   4.003  64.481  1.00  0.00    -0.151 C  
HETATM   24  C   UNL     1     -10.629   3.520  64.100  1.00  0.00    -0.207 C  
HETATM   25  C   UNL     1      -8.471   4.428  63.229  1.00  0.00    -0.108 C  
ENDBRANCH  22  23
ENDBRANCH  21  22
ENDBRANCH  20  21
ENDBRANCH  19  20
ENDBRANCH  18  19
ENDBRANCH  15  18
ENDBRANCH  11  12
ENDBRANCH  10  11
ENDBRANCH   7  10
ENDBRANCH   6   7
ENDBRANCH   4   6
ENDBRANCH   2   4
TORSDOF 12
ENDMDL
MODEL      316
REMARK 921   NORMALIZED FREE ENERGY PREDICTED BY IDOCK:   -2.24 KCAL/MOL
REMARK 922        TOTAL FREE ENERGY PREDICTED BY IDOCK:   -4.83 KCAL/MOL
REMARK 923 INTER-LIGAND FREE ENERGY PREDICTED BY IDOCK:   -4.65 KCAL/MOL
REMARK 924 INTRA-LIGAND FREE ENERGY PREDICTED BY IDOCK:   -0.18 KCAL/MOL
REMARK 927      BINDING AFFINITY PREDICTED BY RF-SCORE:    0.00 PKD
ROOT
HETATM    1  C   UNL     1     -14.408  15.101  72.218  1.00  0.00    -0.559 C  
HETATM    2  C   UNL     1     -13.028  14.440  72.225  1.00  0.00    -0.374 C  
HETATM    3  C   UNL     1     -12.347  14.693  73.572  1.00  0.00    -0.378 C  
ENDROOT
BRANCH   2   4
HETATM    4  N   UNL     1     -13.198  13.009  71.963  1.00  0.00    -0.449 NA 
HETATM    5  H   UNL     1     -14.173  12.793  71.758  1.00  0.00     0.000 HD 
BRANCH   4   6
HETATM    6  C   UNL     1     -12.317  12.500  70.903  1.00  0.00    -0.255 C  
BRANCH   6   7
HETATM    7  C   UNL     1     -11.977  13.627  69.912  1.00  0.00    -0.348 C  
HETATM    8  O   UNL     1     -10.786  14.303  70.345  1.00  0.00    -0.449 OA 
HETATM    9  H   UNL     1     -10.576  14.999  69.733  1.00  0.00     0.000 HD 
BRANCH   7  10
HETATM   10  C   UNL     1     -11.777  13.093  68.489  1.00  0.00    -0.352 C  
BRANCH  10  11
HETATM   11  O   UNL     1     -12.097  14.128  67.546  1.00  0.00    -0.395 OA 
BRANCH  11  12
HETATM   12  C   UNL     1     -11.026  14.867  67.119  1.00  0.00    -0.323 A  
HETATM   13  C   UNL     1      -9.974  14.371  66.350  1.00  0.00    -0.305 A  
HETATM   14  C   UNL     1      -8.922  15.209  65.974  1.00  0.00    -0.091 A  
HETATM   15  C   UNL     1      -8.909  16.559  66.351  1.00  0.00    -0.345 A  
HETATM   16  C   UNL     1      -9.982  17.060  67.094  1.00  0.00    -0.281 A  
HETATM   17  C   UNL     1     -11.039  16.218  67.467  1.00  0.00    -0.140 A  
BRANCH  15  18
HETATM   18  C   UNL     1      -7.743  17.434  65.970  1.00  0.00    -0.198 C  
BRANCH  18  19
HETATM   19  O   UNL     1      -6.538  16.717  66.221  1.00  0.00    -0.170 OA 
BRANCH  19  20
HETATM   20  C   UNL     1      -6.219  16.674  67.610  1.00  0.00    -0.148 C  
BRANCH  20  21
HETATM   21  C   UNL     1      -6.102  15.212  68.028  1.00  0.00    -0.148 C  
BRANCH  21  22
HETATM   22  O   UNL     1      -5.553  15.121  69.342  1.00  0.00    -0.095 OA 
BRANCH  22  23
HETATM   23  C   UNL     1      -6.534  15.248  70.379  1.00  0.00     0.045 C  
HETATM   24  C   UNL     1      -7.701  14.287  70.175  1.00  0.00     0.859 C  
HETATM   25  C   UNL     1      -5.833  14.941  71.699  1.00  0.00     0.252 C  
ENDBRANCH  22  23
ENDBRANCH  21  22
ENDBRANCH  20  21
ENDBRANCH  19  20
ENDBRANCH  18  19
ENDBRANCH  15  18
ENDBRANCH  11  12
ENDBRANCH  10  11
ENDBRANCH   7  10
ENDBRANCH   6   7
ENDBRANCH   4   6
ENDBRANCH   2   4
TORSDOF 12
ENDMDL
MODEL      317
REMARK 921   NORMALIZED FREE ENERGY PREDICTED BY IDOCK:   -2.20 KCAL/MOL
REMARK 922        TOTAL FREE ENERGY PREDICTED BY IDOCK:   -4.76 KCAL/MOL
REMARK 923 INTER-LIGAND FREE ENERGY PREDICTED BY IDOCK:   -4.37 KCAL/MOL
REMARK 924 INTRA-LIGAND FREE ENERGY PREDICTED BY IDOCK:   -0.40 KCAL/MOL
REMARK 927      BINDING AFFINITY PREDICTED BY RF-SCORE:    0.00 PKD
ROOT
HETATM    1  C   UNL     1      -9.429  13.655  66.241  1.00  0.00    -0.209 C  
HETATM    2  C   UNL     1     -10.726  12.991  66.707  1.00  0.00    -0.262 C  
HETATM    3  C   UNL     1     -11.354  12.224  65.541  1.00  0.00    -0.394 C  
ENDROOT
BRANCH   2   4
HETATM    4  N   UNL     1     -10.417  12.109  67.833  1.00  0.00    -0.203 NA 
HETATM    5  H   UNL     1      -9.636  11.493  67.606  1.00  0.00     0.000 HD 
BRANCH   4   6
HETATM    6  C   UNL     1     -10.162  12.830  69.088  1.00  0.00     0.260 C  
BRANCH   6   7
HETATM    7  C   UNL     1     -11.305  13.823  69.368  1.00  0.00    -0.250 C  
HETATM    8  O   UNL     1     -12.466  13.105  69.815  1.00  0.00    -0.148 OA 
HETATM    9  H   UNL     1     -13.171  13.718  69.987  1.00  0.00     0.000 HD 
BRANCH   7  10
HETATM   10  C   UNL     1     -10.908  14.866  70.418  1.00  0.00    -0.076 C  
BRANCH  10  11
HETATM   11  O   UNL     1     -11.587  16.100  70.140  1.00  0.00    -0.324 OA 
BRANCH  11  12
HETATM   12  C   UNL     1     -10.951  16.916  69.243  1.00  0.00    -0.112 A  
HETATM   13  C   UNL     1     -10.265  18.083  69.578  1.00  0.00     0.228 A  
HETATM   14  C   UNL     1      -9.656  18.851  68.582  1.00  0.00    -0.443 A  
HETATM   15  C   UNL     1      -9.714  18.460  67.237  1.00  0.00    -0.304 A  
HETATM   16  C   UNL     1     -10.374  17.272  66.910  1.00  0.00    -0.310 A  
HETATM   17  C   UNL     1     -10.982  16.500  67.911  1.00  0.00    -0.288 A  
BRANCH  15  18
HETATM   18  C   UNL     1      -9.086  19.326  66.176  1.00  0.00    -0.256 C  
BRANCH  18  19
HETATM   19  O   UNL     1      -7.772  19.677  66.598  1.00  0.00    -0.252 OA 
BRANCH  19  20
HETATM   20  C   UNL     1      -6.768  19.082  65.777  1.00  0.00    -0.269 C  
BRANCH  20  21
HETATM   21  C   UNL     1      -6.942  17.569  65.832  1.00  0.00    -0.181 C  
BRANCH  21  22
HETATM   22  O   UNL     1      -6.814  17.109  67.176  1.00  0.00    -0.150 OA 
BRANCH  22  23
HETATM   23  C   UNL     1      -5.454  17.032  67.625  1.00  0.00    -0.124 C  
HETATM   24  C   UNL     1      -5.213  17.902  68.854  1.00  0.00    -0.169 C  
HETATM   25  C   UNL     1      -5.175  15.570  67.960  1.00  0.00    -0.133 C  
ENDBRANCH  22  23
ENDBRANCH  21  22
ENDBRANCH  20  21
ENDBRANCH  19  20
ENDBRANCH  18  19
ENDBRANCH  15  18
ENDBRANCH  11  12
ENDBRANCH  10  11
ENDBRANCH   7  10
ENDBRANCH   6   7
ENDBRANCH   4   6
ENDBRANCH   2   4
TORSDOF 12
ENDMDL
MODEL      318
REMARK 921   NORMALIZED FREE ENERGY PREDICTED BY IDOCK:   -2.05 KCAL/MOL
REMARK 922        TOTAL FREE ENERGY PREDICTED BY IDOCK:   -4.52 KCAL/MOL
REMARK 923 INTER-LIGAND FREE ENERGY PREDICTED BY IDOCK:   -4.57 KCAL/MOL
REMARK 924 INTRA-LIGAND FREE ENERGY PREDICTED BY IDOCK:    0.05 KCAL/MOL
REMARK 927      BINDING AFFINITY PREDICTED BY RF-SCORE:    0.00 PKD
ROOT
HETATM    1  C   UNL     1     -11.472  14.440  71.379  1.00  0.00     0.180 C  
HETATM    2  C   UNL     1     -12.837  14.250  70.714  1.00  0.00    -0.337 C  
HETATM    3  C   UNL     1     -13.767  15.396  71.120  1.00  0.00    -0.497 C  
ENDROOT
BRANCH   2   4
HETATM    4  N   UNL     1     -12.642  14.197  69.264  1.00  0.00    -0.440 NA 
HETATM    5  H   UNL     1     -13.517  14.389  68.775  1.00  0.00     0.000 HD 
BRANCH   4   6
HETATM    6  C   UNL     1     -11.572  15.083  68.784  1.00  0.00    -0.335 C  
BRANCH   6   7
HETATM    7  C   UNL     1     -10.517  14.268  68.014  1.00  0.00    -0.235 C  
HETATM    8  O   UNL     1      -9.360  14.078  68.844  1.00  0.00    -0.372 OA 
HETATM    9  H   UNL     1      -8.709  13.575  68.369  1.00  0.00     0.000 HD 
BRANCH   7  10
HETATM   10  C   UNL     1     -11.062  12.906  67.571  1.00  0.00    -0.269 C  
BRANCH  10  11
HETATM   11  O   UNL     1     -11.477  12.162  68.728  1.00  0.00    -0.256 OA 
BRANCH  11  12
HETATM   12  C   UNL     1     -10.944  10.904  68.823  1.00  0.00    -0.237 A  
HETATM   13  C   UNL     1     -11.274   9.974  69.808  1.00  0.00    -0.307 A  
HETATM   14  C   UNL     1     -10.664   8.718  69.820  1.00  0.00    -0.220 A  
HETATM   15  C   UNL     1      -9.723   8.366  68.843  1.00  0.00    -0.168 A  
HETATM   16  C   UNL     1      -9.419   9.290  67.839  1.00  0.00    -0.154 A  
HETATM   17  C   UNL     1     -10.035  10.549  67.825  1.00  0.00    -0.198 A  
BRANCH  15  18
HETATM   18  C   UNL     1      -9.046   7.021  68.902  1.00  0.00    -0.134 C  
BRANCH  18  19
HETATM   19  O   UNL     1      -7.642   7.226  69.025  1.00  0.00    -0.095 OA 
BRANCH  19  20
HETATM   20  C   UNL     1      -6.967   7.076  67.777  1.00  0.00    -0.083 C  
BRANCH  20  21
HETATM   21  C   UNL     1      -7.712   6.032  66.953  1.00  0.00    -0.100 C  
BRANCH  21  22
HETATM   22  O   UNL     1      -6.795   5.312  66.131  1.00  0.00    -0.055 OA 
BRANCH  22  23
HETATM   23  C   UNL     1      -7.208   5.223  64.761  1.00  0.00    -0.059 C  
HETATM   24  C   UNL     1      -6.432   4.150  64.003  1.00  0.00    -0.041 C  
HETATM   25  C   UNL     1      -8.696   4.885  64.762  1.00  0.00    -0.154 C  
ENDBRANCH  22  23
ENDBRANCH  21  22
ENDBRANCH  20  21
ENDBRANCH  19  20
ENDBRANCH  18  19
ENDBRANCH  15  18
ENDBRANCH  11  12
ENDBRANCH  10  11
ENDBRANCH   7  10
ENDBRANCH   6   7
ENDBRANCH   4   6
ENDBRANCH   2   4
TORSDOF 12
ENDMDL
MODEL      319
REMARK 921   NORMALIZED FREE ENERGY PREDICTED BY IDOCK:   -1.98 KCAL/MOL
REMARK 922        TOTAL FREE ENERGY PREDICTED BY IDOCK:   -4.39 KCAL/MOL
REMARK 923 INTER-LIGAND FREE ENERGY PREDICTED BY IDOCK:   -3.66 KCAL/MOL
REMARK 924 INTRA-LIGAND FREE ENERGY PREDICTED BY IDOCK:   -0.73 KCAL/MOL
REMARK 927      BINDING AFFINITY PREDICTED BY RF-SCORE:    0.00 PKD
ROOT
HETATM    1  C   UNL     1      -9.938  11.724  68.051  1.00  0.00    -0.191 C  
HETATM    2  C   UNL     1     -11.193  12.599  68.073  1.00  0.00    -0.265 C  
HETATM    3  C   UNL     1     -10.994  13.752  69.060  1.00  0.00    -0.277 C  
ENDROOT
BRANCH   2   4
HETATM    4  N   UNL     1     -11.443  13.084  66.714  1.00  0.00    -0.327 NA 
HETATM    5  H   UNL     1     -11.440  14.104  66.689  1.00  0.00     0.000 HD 
BRANCH   4   6
HETATM    6  C   UNL     1     -10.515  12.535  65.716  1.00  0.00    -0.271 C  
BRANCH   6   7
HETATM    7  C   UNL     1     -11.300  11.813  64.606  1.00  0.00    -0.256 C  
HETATM    8  O   UNL     1     -12.179  12.746  63.957  1.00  0.00    -0.399 OA 
HETATM    9  H   UNL     1     -12.664  12.300  63.271  1.00  0.00     0.000 HD 
BRANCH   7  10
HETATM   10  C   UNL     1     -10.366  11.178  63.570  1.00  0.00    -0.387 C  
BRANCH  10  11
HETATM   11  O   UNL     1      -9.044  11.080  64.122  1.00  0.00    -0.176 OA 
BRANCH  11  12
HETATM   12  C   UNL     1      -8.640   9.807  64.424  1.00  0.00    -0.188 A  
HETATM   13  C   UNL     1      -9.391   8.888  65.156  1.00  0.00    -0.012 A  
HETATM   14  C   UNL     1      -8.882   7.613  65.416  1.00  0.00     0.036 A  
HETATM   15  C   UNL     1      -7.620   7.233  64.941  1.00  0.00    -0.102 A  
HETATM   16  C   UNL     1      -6.885   8.146  64.179  1.00  0.00    -0.066 A  
HETATM   17  C   UNL     1      -7.398   9.424  63.915  1.00  0.00    -0.105 A  
BRANCH  15  18
HETATM   18  C   UNL     1      -7.073   5.868  65.270  1.00  0.00    -0.065 C  
BRANCH  18  19
HETATM   19  O   UNL     1      -7.995   5.208  66.132  1.00  0.00    -0.102 OA 
BRANCH  19  20
HETATM   20  C   UNL     1      -7.374   4.171  66.889  1.00  0.00    -0.073 C  
BRANCH  20  21
HETATM   21  C   UNL     1      -7.096   4.703  68.290  1.00  0.00    -0.057 C  
BRANCH  21  22
HETATM   22  O   UNL     1      -8.220   5.443  68.765  1.00  0.00    -0.093 OA 
BRANCH  22  23
HETATM   23  C   UNL     1      -8.698   4.997  70.041  1.00  0.00    -0.098 C  
HETATM   24  C   UNL     1      -7.772   3.954  70.659  1.00  0.00    -0.047 C  
HETATM   25  C   UNL     1      -8.776   6.224  70.944  1.00  0.00    -0.136 C  
ENDBRANCH  22  23
ENDBRANCH  21  22
ENDBRANCH  20  21
ENDBRANCH  19  20
ENDBRANCH  18  19
ENDBRANCH  15  18
ENDBRANCH  11  12
ENDBRANCH  10  11
ENDBRANCH   7  10
ENDBRANCH   6   7
ENDBRANCH   4   6
ENDBRANCH   2   4
TORSDOF 12
ENDMDL
MODEL      320
REMARK 921   NORMALIZED FREE ENERGY PREDICTED BY IDOCK:   -1.91 KCAL/MOL
REMARK 922        TOTAL FREE ENERGY PREDICTED BY IDOCK:   -4.27 KCAL/MOL
REMARK 923 INTER-LIGAND FREE ENERGY PREDICTED BY IDOCK:   -3.32 KCAL/MOL
REMARK 924 INTRA-LIGAND FREE ENERGY PREDICTED BY IDOCK:   -0.95 KCAL/MOL
REMARK 927      BINDING AFFINITY PREDICTED BY RF-SCORE:    0.00 PKD
ROOT
HETATM    1  C   UNL     1     -11.151  13.177  67.710  1.00  0.00    -0.287 C  
HETATM    2  C   UNL     1     -11.375  12.304  66.473  1.00  0.00    -0.351 C  
HETATM    3  C   UNL     1     -10.820  13.017  65.238  1.00  0.00    -0.311 C  
ENDROOT
BRANCH   2   4
HETATM    4  N   UNL     1     -10.724  11.012  66.693  1.00  0.00    -0.260 NA 
HETATM    5  H   UNL     1     -11.163  10.285  66.129  1.00  0.00     0.000 HD 
BRANCH   4   6
HETATM    6  C   UNL     1      -9.272  11.042  66.466  1.00  0.00    -0.171 C  
BRANCH   6   7
HETATM    7  C   UNL     1      -8.834   9.788  65.688  1.00  0.00    -0.154 C  
HETATM    8  O   UNL     1      -7.816  10.144  64.740  1.00  0.00    -0.142 OA 
HETATM    9  H   UNL     1      -7.545   9.370  64.260  1.00  0.00     0.000 HD 
BRANCH   7  10
HETATM   10  C   UNL     1      -8.307   8.694  66.623  1.00  0.00    -0.108 C  
BRANCH  10  11
HETATM   11  O   UNL     1      -9.345   7.729  66.855  1.00  0.00    -0.150 OA 
BRANCH  11  12
HETATM   12  C   UNL     1      -8.905   6.496  67.258  1.00  0.00    -0.112 A  
HETATM   13  C   UNL     1      -9.727   5.390  67.474  1.00  0.00    -0.153 A  
HETATM   14  C   UNL     1      -9.176   4.177  67.893  1.00  0.00    -0.191 A  
HETATM   15  C   UNL     1      -7.795   4.046  68.094  1.00  0.00    -0.073 A  
HETATM   16  C   UNL     1      -6.972   5.148  67.844  1.00  0.00    -0.062 A  
HETATM   17  C   UNL     1      -7.525   6.364  67.419  1.00  0.00    -0.088 A  
BRANCH  15  18
HETATM   18  C   UNL     1      -7.228   2.740  68.587  1.00  0.00    -0.048 C  
BRANCH  18  19
HETATM   19  O   UNL     1      -7.787   2.460  69.867  1.00  0.00    -0.043 OA 
BRANCH  19  20
HETATM   20  C   UNL     1      -6.803   2.482  70.899  1.00  0.00    -0.032 C  
BRANCH  20  21
HETATM   21  C   UNL     1      -7.277   3.437  71.989  1.00  0.00    -0.050 C  
BRANCH  21  22
HETATM   22  O   UNL     1      -8.659   3.741  71.808  1.00  0.00    -0.090 OA 
BRANCH  22  23
HETATM   23  C   UNL     1      -8.934   5.148  71.789  1.00  0.00    -0.134 C  
HETATM   24  C   UNL     1     -10.047   5.521  72.764  1.00  0.00    -0.208 C  
HETATM   25  C   UNL     1      -7.643   5.863  72.175  1.00  0.00    -0.101 C  
ENDBRANCH  22  23
ENDBRANCH  21  22
ENDBRANCH  20  21
ENDBRANCH  19  20
ENDBRANCH  18  19
ENDBRANCH  15  18
ENDBRANCH  11  12
ENDBRANCH  10  11
ENDBRANCH   7  10
ENDBRANCH   6   7
ENDBRANCH   4   6
ENDBRANCH   2   4
TORSDOF 12
ENDMDL
MODEL      321
REMARK 921   NORMALIZED FREE ENERGY PREDICTED BY IDOCK:   -1.36 KCAL/MOL
REMARK 922        TOTAL FREE ENERGY PREDICTED BY IDOCK:   -3.33 KCAL/MOL
REMARK 923 INTER-LIGAND FREE ENERGY PREDICTED BY IDOCK:   -3.20 KCAL/MOL
REMARK 924 INTRA-LIGAND FREE ENERGY PREDICTED BY IDOCK:   -0.13 KCAL/MOL
REMARK 927      BINDING AFFINITY PREDICTED BY RF-SCORE:    0.00 PKD
ROOT
HETATM    1  C   UNL     1     -11.503  14.508  71.388  1.00  0.00     0.019 C  
HETATM    2  C   UNL     1     -12.832  14.311  70.655  1.00  0.00    -0.314 C  
HETATM    3  C   UNL     1     -13.886  15.248  71.251  1.00  0.00    -0.562 C  
ENDROOT
BRANCH   2   4
HETATM    4  N   UNL     1     -12.618  14.570  69.230  1.00  0.00    -0.547 NA 
HETATM    5  H   UNL     1     -13.509  14.642  68.739  1.00  0.00     0.000 HD 
BRANCH   4   6
HETATM    6  C   UNL     1     -11.782  15.750  68.969  1.00  0.00    -0.396 C  
BRANCH   6   7
HETATM    7  C   UNL     1     -10.598  15.368  68.063  1.00  0.00    -0.263 C  
HETATM    8  O   UNL     1      -9.365  15.709  68.717  1.00  0.00    -0.190 OA 
HETATM    9  H   UNL     1      -8.634  15.473  68.158  1.00  0.00     0.000 HD 
BRANCH   7  10
HETATM   10  C   UNL     1     -10.603  13.874  67.719  1.00  0.00    -0.246 C  
BRANCH  10  11
HETATM   11  O   UNL     1     -10.411  13.111  68.921  1.00  0.00    -0.197 OA 
BRANCH  11  12
HETATM   12  C   UNL     1      -9.326  12.276  68.905  1.00  0.00     0.243 A  
HETATM   13  C   UNL     1      -8.007  12.691  68.724  1.00  0.00     0.068 A  
HETATM   14  C   UNL     1      -6.971  11.755  68.716  1.00  0.00    -0.103 A  
HETATM   15  C   UNL     1      -7.234  10.390  68.898  1.00  0.00    -0.082 A  
HETATM   16  C   UNL     1      -8.554   9.983  69.113  1.00  0.00    -0.158 A  
HETATM   17  C   UNL     1      -9.593  10.924  69.125  1.00  0.00    -0.125 A  
BRANCH  15  18
HETATM   18  C   UNL     1      -6.105   9.394  68.842  1.00  0.00    -0.043 C  
BRANCH  18  19
HETATM   19  O   UNL     1      -6.307   8.544  67.717  1.00  0.00    -0.055 OA 
BRANCH  19  20
HETATM   20  C   UNL     1      -6.868   7.287  68.088  1.00  0.00    -0.070 C  
BRANCH  20  21
HETATM   21  C   UNL     1      -6.334   6.914  69.467  1.00  0.00    -0.039 C  
BRANCH  21  22
HETATM   22  O   UNL     1      -6.209   5.497  69.577  1.00  0.00    -0.026 OA 
BRANCH  22  23
HETATM   23  C   UNL     1      -6.816   4.962  70.760  1.00  0.00    -0.040 C  
HETATM   24  C   UNL     1      -6.346   3.538  71.044  1.00  0.00    -0.019 C  
HETATM   25  C   UNL     1      -6.428   5.877  71.917  1.00  0.00    -0.053 C  
ENDBRANCH  22  23
ENDBRANCH  21  22
ENDBRANCH  20  21
ENDBRANCH  19  20
ENDBRANCH  18  19
ENDBRANCH  15  18
ENDBRANCH  11  12
ENDBRANCH  10  11
ENDBRANCH   7  10
ENDBRANCH   6   7
ENDBRANCH   4   6
ENDBRANCH   2   4
TORSDOF 12
ENDMDL
MODEL      322
REMARK 921   NORMALIZED FREE ENERGY PREDICTED BY IDOCK:   16.95 KCAL/MOL
REMARK 922        TOTAL FREE ENERGY PREDICTED BY IDOCK:   27.81 KCAL/MOL
REMARK 923 INTER-LIGAND FREE ENERGY PREDICTED BY IDOCK:   25.97 KCAL/MOL
REMARK 924 INTRA-LIGAND FREE ENERGY PREDICTED BY IDOCK:    1.85 KCAL/MOL
REMARK 927      BINDING AFFINITY PREDICTED BY RF-SCORE:    0.00 PKD
ROOT
HETATM    1  C   UNL     1      -9.502  14.532  73.861  1.00  0.00     9.238 C  
HETATM    2  C   UNL     1     -10.315  14.380  72.572  1.00  0.00     4.641 C  
HETATM    3  C   UNL     1     -11.566  15.259  72.651  1.00  0.00    -0.478 C  
ENDROOT
BRANCH   2   4
HETATM    4  N   UNL     1      -9.463  14.750  71.441  1.00  0.00     2.285 NA 
HETATM    5  H   UNL     1     -10.026  14.948  70.614  1.00  0.00     0.000 HD 
BRANCH   4   6
HETATM    6  C   UNL     1      -8.554  15.867  71.732  1.00  0.00     7.220 C  
BRANCH   6   7
HETATM    7  C   UNL     1      -7.099  15.452  71.449  1.00  0.00     2.338 C  
HETATM    8  O   UNL     1      -6.689  14.460  72.404  1.00  0.00     0.409 OA 
HETATM    9  H   UNL     1      -5.791  14.204  72.229  1.00  0.00     0.000 HD 
BRANCH   7  10
HETATM   10  C   UNL     1      -6.930  14.901  70.029  1.00  0.00    -0.095 C  
BRANCH  10  11
HETATM   11  O   UNL     1      -8.109  15.198  69.263  1.00  0.00    -0.199 OA 
BRANCH  11  12
HETATM   12  C   UNL     1      -8.982  14.152  69.124  1.00  0.00     0.234 A  
HETATM   13  C   UNL     1     -10.343  14.285  68.851  1.00  0.00    -0.218 A  
HETATM   14  C   UNL     1     -11.150  13.150  68.736  1.00  0.00    -0.309 A  
HETATM   15  C   UNL     1     -10.609  11.866  68.882  1.00  0.00    -0.205 A  
HETATM   16  C   UNL     1      -9.238  11.737  69.122  1.00  0.00     0.372 A  
HETATM   17  C   UNL     1      -8.428  12.876  69.234  1.00  0.00     0.871 A  
BRANCH  15  18
HETATM   18  C   UNL     1     -11.506  10.659  68.796  1.00  0.00    -0.262 C  
BRANCH  18  19
HETATM   19  O   UNL     1     -12.091  10.438  70.077  1.00  0.00    -0.267 OA 
BRANCH  19  20
HETATM   20  C   UNL     1     -11.684   9.195  70.645  1.00  0.00    -0.209 C  
BRANCH  20  21
HETATM   21  C   UNL     1     -10.292   9.374  71.239  1.00  0.00    -0.292 C  
BRANCH  21  22
HETATM   22  O   UNL     1      -9.634   8.111  71.335  1.00  0.00    -0.152 OA 
BRANCH  22  23
HETATM   23  C   UNL     1      -8.225   8.220  71.576  1.00  0.00    -0.132 C  
HETATM   24  C   UNL     1      -7.468   8.656  70.325  1.00  0.00    -0.066 C  
HETATM   25  C   UNL     1      -8.038   9.253  72.683  1.00  0.00     1.248 C  
ENDBRANCH  22  23
ENDBRANCH  21  22
ENDBRANCH  20  21
ENDBRANCH  19  20
ENDBRANCH  18  19
ENDBRANCH  15  18
ENDBRANCH  11  12
ENDBRANCH  10  11
ENDBRANCH   7  10
ENDBRANCH   6   7
ENDBRANCH   4   6
ENDBRANCH   2   4
TORSDOF 12
ENDMDL
