MODEL        1
REMARK 921   NORMALIZED FREE ENERGY PREDICTED BY IDOCK:   -7.68 KCAL/MOL
REMARK 922        TOTAL FREE ENERGY PREDICTED BY IDOCK:   -9.33 KCAL/MOL
REMARK 923 INTER-LIGAND FREE ENERGY PREDICTED BY IDOCK:   -8.57 KCAL/MOL
REMARK 924 INTRA-LIGAND FREE ENERGY PREDICTED BY IDOCK:   -0.76 KCAL/MOL
REMARK 927      BINDING AFFINITY PREDICTED BY RF-SCORE:    0.00 PKD
ROOT
HETATM    1  O   UNL     1     -13.823  13.179  72.601  1.00  0.00    -0.691 OA 
HETATM    2  C   UNL     1     -13.142  13.719  71.550  1.00  0.00    -0.357 A  
HETATM    3  H   UNL     1     -14.358  13.710  73.179  1.00  0.00     0.000 HD 
HETATM    4  C   UNL     1     -12.361  12.942  70.704  1.00  0.00    -0.385 A  
HETATM    5  C   UNL     1     -11.647  13.553  69.662  1.00  0.00    -0.340 A  
HETATM    6  C   UNL     1     -11.699  14.948  69.454  1.00  0.00    -0.349 A  
HETATM    7  C   UNL     1     -12.505  15.695  70.337  1.00  0.00    -0.409 A  
HETATM    8  C   UNL     1     -13.232  15.087  71.364  1.00  0.00    -0.497 A  
ENDROOT
BRANCH   6   9
HETATM    9  C   UNL     1     -10.747  15.642  68.432  1.00  0.00    -0.271 C  
HETATM   10  O   UNL     1      -8.694  14.820  69.643  1.00  0.00     0.025 OA 
HETATM   11  O   UNL     1     -11.156  17.039  68.302  1.00  0.00    -0.337 OA 
HETATM   12  C   UNL     1      -9.221  15.598  68.849  1.00  0.00    -0.226 C  
HETATM   13  C   UNL     1     -10.287  17.835  67.594  1.00  0.00    -0.373 A  
HETATM   14  H   UNL     1      -7.400  16.280  68.121  1.00  0.00     0.000 HD 
HETATM   15  C   UNL     1     -10.784  19.015  67.044  1.00  0.00    -0.516 A  
HETATM   16  C   UNL     1      -9.939  19.848  66.303  1.00  0.00    -0.596 A  
HETATM   17  N   UNL     1      -8.406  16.448  68.140  1.00  0.00    -0.181 N  
HETATM   18  C   UNL     1      -8.932  17.531  67.449  1.00  0.00    -0.230 A  
HETATM   19  C   UNL     1      -8.089  18.347  66.698  1.00  0.00    -0.282 A  
HETATM   20  C   UNL     1      -8.599  19.503  66.112  1.00  0.00    -0.326 A  
BRANCH   9  21
HETATM   21  C   UNL     1     -10.956  14.905  67.071  1.00  0.00    -0.327 A  
HETATM   22  C   UNL     1     -10.083  13.515  65.267  1.00  0.00    -0.277 A  
HETATM   23  H   UNL     1     -10.751  12.300  63.143  1.00  0.00     0.000 HD 
HETATM   24  O   UNL     1     -11.488  12.746  63.545  1.00  0.00    -0.463 OA 
HETATM   25  C   UNL     1     -11.343  13.469  64.692  1.00  0.00    -0.356 A  
HETATM   26  C   UNL     1     -12.420  14.122  65.279  1.00  0.00    -0.474 A  
HETATM   27  C   UNL     1     -12.228  14.833  66.468  1.00  0.00    -0.026 A  
HETATM   28  C   UNL     1      -9.887  14.222  66.453  1.00  0.00    -0.309 A  
ENDBRANCH   9  21
ENDBRANCH   6   9
TORSDOF 2
ENDMDL
MODEL        2
REMARK 921   NORMALIZED FREE ENERGY PREDICTED BY IDOCK:   -7.67 KCAL/MOL
REMARK 922        TOTAL FREE ENERGY PREDICTED BY IDOCK:   -9.32 KCAL/MOL
REMARK 923 INTER-LIGAND FREE ENERGY PREDICTED BY IDOCK:   -8.51 KCAL/MOL
REMARK 924 INTRA-LIGAND FREE ENERGY PREDICTED BY IDOCK:   -0.81 KCAL/MOL
REMARK 927      BINDING AFFINITY PREDICTED BY RF-SCORE:    0.00 PKD
ROOT
HETATM    1  O   UNL     1     -13.218  11.402  71.706  1.00  0.00    -0.458 OA 
HETATM    2  C   UNL     1     -12.514  12.280  70.938  1.00  0.00    -0.276 A  
HETATM    3  H   UNL     1     -13.205  10.466  71.541  1.00  0.00     0.000 HD 
HETATM    4  C   UNL     1     -12.534  13.648  71.179  1.00  0.00    -0.442 A  
HETATM    5  C   UNL     1     -11.824  14.513  70.332  1.00  0.00    -0.378 A  
HETATM    6  C   UNL     1     -11.091  14.025  69.230  1.00  0.00    -0.271 A  
HETATM    7  C   UNL     1     -11.099  12.631  69.024  1.00  0.00    -0.291 A  
HETATM    8  C   UNL     1     -11.789  11.764  69.877  1.00  0.00    -0.423 A  
ENDROOT
BRANCH   6   9
HETATM    9  C   UNL     1     -10.480  15.002  68.179  1.00  0.00    -0.245 C  
HETATM   10  O   UNL     1      -8.143  14.160  68.615  1.00  0.00    -0.140 OA 
HETATM   11  O   UNL     1     -10.966  16.349  68.469  1.00  0.00    -0.320 OA 
HETATM   12  C   UNL     1      -8.897  15.026  68.173  1.00  0.00    -0.167 C  
HETATM   13  C   UNL     1     -10.355  17.354  67.757  1.00  0.00    -0.358 A  
HETATM   14  H   UNL     1      -7.371  16.018  67.175  1.00  0.00     0.000 HD 
HETATM   15  C   UNL     1     -11.031  18.565  67.627  1.00  0.00    -0.185 A  
HETATM   16  C   UNL     1     -10.453  19.610  66.898  1.00  0.00    -0.606 A  
HETATM   17  N   UNL     1      -8.340  16.078  67.486  1.00  0.00    -0.156 N  
HETATM   18  C   UNL     1      -9.078  17.221  67.209  1.00  0.00    -0.228 A  
HETATM   19  C   UNL     1      -8.503  18.251  66.467  1.00  0.00    -0.287 A  
HETATM   20  C   UNL     1      -9.201  19.446  66.301  1.00  0.00    -0.388 A  
BRANCH   9  21
HETATM   21  C   UNL     1     -11.017  14.538  66.788  1.00  0.00    -0.316 A  
HETATM   22  C   UNL     1     -10.606  13.636  64.560  1.00  0.00    -0.428 A  
HETATM   23  H   UNL     1     -11.771  12.814  62.462  1.00  0.00     0.000 HD 
HETATM   24  O   UNL     1     -12.390  13.094  63.127  1.00  0.00    -0.677 OA 
HETATM   25  C   UNL     1     -11.972  13.581  64.329  1.00  0.00    -0.432 A  
HETATM   26  C   UNL     1     -12.876  13.991  65.302  1.00  0.00    -0.418 A  
HETATM   27  C   UNL     1     -12.401  14.462  66.528  1.00  0.00    -0.272 A  
HETATM   28  C   UNL     1     -10.127  14.104  65.783  1.00  0.00    -0.352 A  
ENDBRANCH   9  21
ENDBRANCH   6   9
TORSDOF 2
ENDMDL
MODEL        3
REMARK 921   NORMALIZED FREE ENERGY PREDICTED BY IDOCK:   -7.59 KCAL/MOL
REMARK 922        TOTAL FREE ENERGY PREDICTED BY IDOCK:   -9.24 KCAL/MOL
REMARK 923 INTER-LIGAND FREE ENERGY PREDICTED BY IDOCK:   -8.55 KCAL/MOL
REMARK 924 INTRA-LIGAND FREE ENERGY PREDICTED BY IDOCK:   -0.68 KCAL/MOL
REMARK 927      BINDING AFFINITY PREDICTED BY RF-SCORE:    0.00 PKD
ROOT
HETATM    1  O   UNL     1     -13.823  12.979  72.444  1.00  0.00    -0.564 OA 
HETATM    2  C   UNL     1     -12.972  13.644  71.612  1.00  0.00    -0.362 A  
HETATM    3  H   UNL     1     -13.949  12.039  72.387  1.00  0.00     0.000 HD 
HETATM    4  C   UNL     1     -12.788  15.018  71.695  1.00  0.00    -0.420 A  
HETATM    5  C   UNL     1     -11.931  15.661  70.788  1.00  0.00    -0.438 A  
HETATM    6  C   UNL     1     -11.251  14.941  69.782  1.00  0.00    -0.308 A  
HETATM    7  C   UNL     1     -11.469  13.548  69.737  1.00  0.00    -0.246 A  
HETATM    8  C   UNL     1     -12.306  12.903  70.651  1.00  0.00    -0.385 A  
ENDROOT
BRANCH   6   9
HETATM    9  C   UNL     1     -10.469  15.682  68.655  1.00  0.00    -0.231 C  
HETATM   10  O   UNL     1      -8.242  14.986  69.612  1.00  0.00    -0.167 OA 
HETATM   11  O   UNL     1     -10.971  17.053  68.577  1.00  0.00    -0.335 OA 
HETATM   12  C   UNL     1      -8.904  15.729  68.888  1.00  0.00    -0.220 C  
HETATM   13  C   UNL     1     -10.240  17.894  67.772  1.00  0.00    -0.368 A  
HETATM   14  H   UNL     1      -7.226  16.510  67.949  1.00  0.00     0.000 HD 
HETATM   15  C   UNL     1     -10.866  19.040  67.287  1.00  0.00    -0.494 A  
HETATM   16  C   UNL     1     -10.165  19.916  66.451  1.00  0.00    -0.617 A  
HETATM   17  N   UNL     1      -8.230  16.620  68.088  1.00  0.00    -0.186 N  
HETATM   18  C   UNL     1      -8.896  17.667  67.466  1.00  0.00    -0.231 A  
HETATM   19  C   UNL     1      -8.197  18.526  66.621  1.00  0.00    -0.288 A  
HETATM   20  C   UNL     1      -8.839  19.648  66.101  1.00  0.00    -0.367 A  
BRANCH   9  21
HETATM   21  C   UNL     1     -10.796  14.928  67.328  1.00  0.00    -0.306 A  
HETATM   22  C   UNL     1     -12.413  14.214  65.648  1.00  0.00    -0.490 A  
HETATM   23  H   UNL     1     -12.620  13.052  63.402  1.00  0.00     0.000 HD 
HETATM   24  O   UNL     1     -11.717  13.108  63.693  1.00  0.00    -0.458 OA 
HETATM   25  C   UNL     1     -11.385  13.687  64.882  1.00  0.00    -0.344 A  
HETATM   26  C   UNL     1     -10.065  13.767  65.307  1.00  0.00    -0.312 A  
HETATM   27  C   UNL     1      -9.771  14.390  66.523  1.00  0.00    -0.305 A  
HETATM   28  C   UNL     1     -12.124  14.838  66.861  1.00  0.00    -0.114 A  
ENDBRANCH   9  21
ENDBRANCH   6   9
TORSDOF 2
ENDMDL
MODEL        4
REMARK 921   NORMALIZED FREE ENERGY PREDICTED BY IDOCK:   -7.52 KCAL/MOL
REMARK 922        TOTAL FREE ENERGY PREDICTED BY IDOCK:   -9.16 KCAL/MOL
REMARK 923 INTER-LIGAND FREE ENERGY PREDICTED BY IDOCK:   -8.37 KCAL/MOL
REMARK 924 INTRA-LIGAND FREE ENERGY PREDICTED BY IDOCK:   -0.79 KCAL/MOL
REMARK 927      BINDING AFFINITY PREDICTED BY RF-SCORE:    0.00 PKD
ROOT
HETATM    1  O   UNL     1     -13.378  10.718  72.316  1.00  0.00    -0.623 OA 
HETATM    2  C   UNL     1     -12.822  11.389  71.268  1.00  0.00    -0.379 A  
HETATM    3  H   UNL     1     -13.730  11.172  73.073  1.00  0.00     0.000 HD 
HETATM    4  C   UNL     1     -12.307  10.725  70.161  1.00  0.00    -0.401 A  
HETATM    5  C   UNL     1     -11.707  11.461  69.127  1.00  0.00    -0.410 A  
HETATM    6  C   UNL     1     -11.608  12.867  69.187  1.00  0.00    -0.375 A  
HETATM    7  C   UNL     1     -12.144  13.497  70.329  1.00  0.00    -0.425 A  
HETATM    8  C   UNL     1     -12.759  12.769  71.351  1.00  0.00    -0.353 A  
ENDROOT
BRANCH   6   9
HETATM    9  C   UNL     1     -10.761  13.656  68.141  1.00  0.00    -0.248 C  
HETATM   10  O   UNL     1      -8.676  12.357  68.711  1.00  0.00    -0.015 OA 
HETATM   11  O   UNL     1     -10.963  15.085  68.373  1.00  0.00    -0.246 OA 
HETATM   12  C   UNL     1      -9.210  13.347  68.212  1.00  0.00    -0.198 C  
HETATM   13  C   UNL     1     -10.124  15.913  67.666  1.00  0.00    -0.242 A  
HETATM   14  H   UNL     1      -7.469  13.960  67.262  1.00  0.00     0.000 HD 
HETATM   15  C   UNL     1     -10.523  17.233  67.472  1.00  0.00    -0.356 A  
HETATM   16  C   UNL     1      -9.707  18.107  66.744  1.00  0.00    -0.324 A  
HETATM   17  N   UNL     1      -8.415  14.233  67.525  1.00  0.00    -0.174 N  
HETATM   18  C   UNL     1      -8.883  15.495  67.183  1.00  0.00    -0.212 A  
HETATM   19  C   UNL     1      -8.073  16.354  66.443  1.00  0.00    -0.357 A  
HETATM   20  C   UNL     1      -8.495  17.662  66.213  1.00  0.00    -0.237 A  
BRANCH   9  21
HETATM   21  C   UNL     1     -11.326  13.266  66.739  1.00  0.00    -0.359 A  
HETATM   22  C   UNL     1     -11.257  11.851  64.754  1.00  0.00    -0.356 A  
HETATM   23  H   UNL     1     -12.472  11.345  62.585  1.00  0.00     0.000 HD 
HETATM   24  O   UNL     1     -12.900  12.033  63.081  1.00  0.00    -0.661 OA 
HETATM   25  C   UNL     1     -12.404  12.466  64.275  1.00  0.00    -0.455 A  
HETATM   26  C   UNL     1     -13.030  13.472  65.000  1.00  0.00    -0.215 A  
HETATM   27  C   UNL     1     -12.496  13.867  66.230  1.00  0.00    -0.454 A  
HETATM   28  C   UNL     1     -10.722  12.240  65.981  1.00  0.00    -0.296 A  
ENDBRANCH   9  21
ENDBRANCH   6   9
TORSDOF 2
ENDMDL
MODEL        5
REMARK 921   NORMALIZED FREE ENERGY PREDICTED BY IDOCK:   -7.48 KCAL/MOL
REMARK 922        TOTAL FREE ENERGY PREDICTED BY IDOCK:   -9.11 KCAL/MOL
REMARK 923 INTER-LIGAND FREE ENERGY PREDICTED BY IDOCK:   -8.17 KCAL/MOL
REMARK 924 INTRA-LIGAND FREE ENERGY PREDICTED BY IDOCK:   -0.94 KCAL/MOL
REMARK 927      BINDING AFFINITY PREDICTED BY RF-SCORE:    0.00 PKD
ROOT
HETATM    1  O   UNL     1     -12.822  13.982  72.233  1.00  0.00    -0.342 OA 
HETATM    2  C   UNL     1     -12.507  13.737  70.930  1.00  0.00    -0.377 A  
HETATM    3  H   UNL     1     -12.988  14.861  72.553  1.00  0.00     0.000 HD 
HETATM    4  C   UNL     1     -12.264  12.452  70.462  1.00  0.00    -0.382 A  
HETATM    5  C   UNL     1     -11.903  12.258  69.120  1.00  0.00    -0.355 A  
HETATM    6  C   UNL     1     -11.774  13.345  68.228  1.00  0.00    -0.391 A  
HETATM    7  C   UNL     1     -12.030  14.630  68.748  1.00  0.00    -0.301 A  
HETATM    8  C   UNL     1     -12.409  14.825  70.079  1.00  0.00    -0.365 A  
ENDROOT
BRANCH   6   9
HETATM    9  C   UNL     1     -11.174  13.145  66.803  1.00  0.00    -0.299 C  
HETATM   10  O   UNL     1     -13.241  14.081  65.700  1.00  0.00    -0.634 OA 
HETATM   11  O   UNL     1     -10.703  11.766  66.694  1.00  0.00    -0.241 OA 
HETATM   12  C   UNL     1     -12.204  13.421  65.632  1.00  0.00    -0.463 C  
HETATM   13  C   UNL     1     -10.336  11.375  65.428  1.00  0.00    -0.279 A  
HETATM   14  H   UNL     1     -12.239  13.352  63.558  1.00  0.00     0.000 HD 
HETATM   15  C   UNL     1      -9.479  10.283  65.305  1.00  0.00    -0.296 A  
HETATM   16  C   UNL     1      -9.067   9.861  64.036  1.00  0.00    -0.300 A  
HETATM   17  N   UNL     1     -11.806  12.968  64.397  1.00  0.00    -0.364 N  
HETATM   18  C   UNL     1     -10.823  11.995  64.276  1.00  0.00    -0.339 A  
HETATM   19  C   UNL     1     -10.404  11.591  63.010  1.00  0.00    -0.293 A  
HETATM   20  C   UNL     1      -9.512  10.527  62.893  1.00  0.00    -0.360 A  
BRANCH   9  21
HETATM   21  C   UNL     1      -9.963  14.124  66.697  1.00  0.00    -0.280 A  
HETATM   22  C   UNL     1      -9.025  16.251  65.961  1.00  0.00    -0.325 A  
HETATM   23  H   UNL     1      -6.940  17.692  66.074  1.00  0.00     0.000 HD 
HETATM   24  O   UNL     1      -6.836  16.877  66.550  1.00  0.00    -0.222 OA 
HETATM   25  C   UNL     1      -7.836  15.952  66.607  1.00  0.00    -0.201 A  
HETATM   26  C   UNL     1      -7.683  14.759  67.303  1.00  0.00    -0.214 A  
HETATM   27  C   UNL     1      -8.745  13.851  67.353  1.00  0.00    -0.208 A  
HETATM   28  C   UNL     1     -10.087  15.349  66.009  1.00  0.00    -0.346 A  
ENDBRANCH   9  21
ENDBRANCH   6   9
TORSDOF 2
ENDMDL
MODEL        6
REMARK 921   NORMALIZED FREE ENERGY PREDICTED BY IDOCK:   -7.38 KCAL/MOL
REMARK 922        TOTAL FREE ENERGY PREDICTED BY IDOCK:   -9.00 KCAL/MOL
REMARK 923 INTER-LIGAND FREE ENERGY PREDICTED BY IDOCK:   -8.29 KCAL/MOL
REMARK 924 INTRA-LIGAND FREE ENERGY PREDICTED BY IDOCK:   -0.71 KCAL/MOL
REMARK 927      BINDING AFFINITY PREDICTED BY RF-SCORE:    0.00 PKD
ROOT
HETATM    1  O   UNL     1     -12.753  11.220  62.827  1.00  0.00    -0.876 OA 
HETATM    2  C   UNL     1     -12.122  12.135  63.616  1.00  0.00    -0.551 A  
HETATM    3  H   UNL     1     -13.698  11.113  62.838  1.00  0.00     0.000 HD 
HETATM    4  C   UNL     1     -10.742  12.291  63.600  1.00  0.00    -0.513 A  
HETATM    5  C   UNL     1     -10.137  13.218  64.463  1.00  0.00    -0.241 A  
HETATM    6  C   UNL     1     -10.902  13.998  65.357  1.00  0.00    -0.331 A  
HETATM    7  C   UNL     1     -12.299  13.805  65.338  1.00  0.00    -0.504 A  
HETATM    8  C   UNL     1     -12.905  12.896  64.467  1.00  0.00    -0.273 A  
ENDROOT
BRANCH   6   9
HETATM    9  C   UNL     1     -10.213  14.870  66.451  1.00  0.00    -0.284 C  
HETATM   10  O   UNL     1     -10.889  17.012  65.304  1.00  0.00    -0.545 OA 
HETATM   11  O   UNL     1      -8.842  14.392  66.620  1.00  0.00    -0.232 OA 
HETATM   12  C   UNL     1     -10.171  16.414  66.104  1.00  0.00    -0.348 C  
HETATM   13  C   UNL     1      -8.040  15.190  67.401  1.00  0.00    -0.186 A  
HETATM   14  H   UNL     1      -9.442  18.166  66.946  1.00  0.00     0.000 HD 
HETATM   15  C   UNL     1      -6.909  14.615  67.975  1.00  0.00    -0.152 A  
HETATM   16  C   UNL     1      -6.073  15.387  68.790  1.00  0.00    -0.098 A  
HETATM   17  N   UNL     1      -9.318  17.156  66.886  1.00  0.00    -0.241 N  
HETATM   18  C   UNL     1      -8.290  16.550  67.596  1.00  0.00    -0.165 A  
HETATM   19  C   UNL     1      -7.472  17.320  68.420  1.00  0.00    -0.234 A  
HETATM   20  C   UNL     1      -6.366  16.731  69.029  1.00  0.00    -0.187 A  
BRANCH   9  21
HETATM   21  C   UNL     1     -11.017  14.634  67.768  1.00  0.00    -0.291 A  
HETATM   22  C   UNL     1     -11.780  13.138  69.537  1.00  0.00    -0.382 A  
HETATM   23  H   UNL     1     -13.030  13.084  71.744  1.00  0.00     0.000 HD 
HETATM   24  O   UNL     1     -12.972  13.964  71.388  1.00  0.00    -0.329 OA 
HETATM   25  C   UNL     1     -12.349  14.213  70.201  1.00  0.00    -0.351 A  
HETATM   26  C   UNL     1     -12.266  15.499  69.681  1.00  0.00    -0.297 A  
HETATM   27  C   UNL     1     -11.598  15.709  68.471  1.00  0.00    -0.378 A  
HETATM   28  C   UNL     1     -11.111  13.343  68.331  1.00  0.00    -0.301 A  
ENDBRANCH   9  21
ENDBRANCH   6   9
TORSDOF 2
ENDMDL
MODEL        7
REMARK 921   NORMALIZED FREE ENERGY PREDICTED BY IDOCK:   -7.21 KCAL/MOL
REMARK 922        TOTAL FREE ENERGY PREDICTED BY IDOCK:   -8.81 KCAL/MOL
REMARK 923 INTER-LIGAND FREE ENERGY PREDICTED BY IDOCK:   -8.66 KCAL/MOL
REMARK 924 INTRA-LIGAND FREE ENERGY PREDICTED BY IDOCK:   -0.15 KCAL/MOL
REMARK 927      BINDING AFFINITY PREDICTED BY RF-SCORE:    0.00 PKD
ROOT
HETATM    1  O   UNL     1     -12.474  14.015  62.980  1.00  0.00    -1.101 OA 
HETATM    2  C   UNL     1     -12.263  13.535  64.239  1.00  0.00    -0.396 A  
HETATM    3  H   UNL     1     -12.303  13.490  62.207  1.00  0.00     0.000 HD 
HETATM    4  C   UNL     1     -12.513  14.303  65.369  1.00  0.00    -0.434 A  
HETATM    5  C   UNL     1     -12.240  13.776  66.641  1.00  0.00    -0.454 A  
HETATM    6  C   UNL     1     -11.709  12.478  66.801  1.00  0.00    -0.453 A  
HETATM    7  C   UNL     1     -11.472  11.736  65.625  1.00  0.00    -0.249 A  
HETATM    8  C   UNL     1     -11.761  12.251  64.358  1.00  0.00    -0.437 A  
ENDROOT
BRANCH   6   9
HETATM    9  C   UNL     1     -11.216  11.980  68.194  1.00  0.00    -0.260 C  
HETATM   10  O   UNL     1      -8.861  11.659  67.351  1.00  0.00    -0.152 OA 
HETATM   11  O   UNL     1     -12.112  10.915  68.642  1.00  0.00    -0.527 OA 
HETATM   12  C   UNL     1      -9.735  11.424  68.186  1.00  0.00    -0.192 C  
HETATM   13  C   UNL     1     -11.690  10.232  69.758  1.00  0.00    -0.191 A  
HETATM   14  H   UNL     1      -8.395  10.576  69.527  1.00  0.00     0.000 HD 
HETATM   15  C   UNL     1     -12.646   9.542  70.500  1.00  0.00     0.050 A  
HETATM   16  C   UNL     1     -12.264   8.846  71.653  1.00  0.00    -0.409 A  
HETATM   17  N   UNL     1      -9.382  10.709  69.306  1.00  0.00    -0.162 N  
HETATM   18  C   UNL     1     -10.349  10.166  70.141  1.00  0.00    -0.224 A  
HETATM   19  C   UNL     1      -9.964   9.490  71.296  1.00  0.00    -0.152 A  
HETATM   20  C   UNL     1     -10.929   8.838  72.061  1.00  0.00    -0.438 A  
BRANCH   9  21
HETATM   21  C   UNL     1     -11.329  13.201  69.160  1.00  0.00    -0.335 A  
HETATM   22  C   UNL     1     -12.339  14.267  71.107  1.00  0.00    -0.440 A  
HETATM   23  H   UNL     1     -12.198  16.318  72.593  1.00  0.00     0.000 HD 
HETATM   24  O   UNL     1     -11.549  16.335  71.899  1.00  0.00    -0.456 OA 
HETATM   25  C   UNL     1     -11.459  15.331  70.982  1.00  0.00    -0.356 A  
HETATM   26  C   UNL     1     -10.510  15.356  69.967  1.00  0.00    -0.301 A  
HETATM   27  C   UNL     1     -10.442  14.293  69.062  1.00  0.00    -0.212 A  
HETATM   28  C   UNL     1     -12.273  13.203  70.208  1.00  0.00    -0.376 A  
ENDBRANCH   9  21
ENDBRANCH   6   9
TORSDOF 2
ENDMDL
MODEL        8
REMARK 921   NORMALIZED FREE ENERGY PREDICTED BY IDOCK:   -7.15 KCAL/MOL
REMARK 922        TOTAL FREE ENERGY PREDICTED BY IDOCK:   -8.74 KCAL/MOL
REMARK 923 INTER-LIGAND FREE ENERGY PREDICTED BY IDOCK:   -8.53 KCAL/MOL
REMARK 924 INTRA-LIGAND FREE ENERGY PREDICTED BY IDOCK:   -0.22 KCAL/MOL
REMARK 927      BINDING AFFINITY PREDICTED BY RF-SCORE:    0.00 PKD
ROOT
HETATM    1  O   UNL     1     -12.522  13.760  63.067  1.00  0.00    -1.068 OA 
HETATM    2  C   UNL     1     -12.118  13.357  64.305  1.00  0.00    -0.424 A  
HETATM    3  H   UNL     1     -13.083  14.517  62.943  1.00  0.00     0.000 HD 
HETATM    4  C   UNL     1     -11.298  12.251  64.486  1.00  0.00    -0.385 A  
HETATM    5  C   UNL     1     -10.944  11.853  65.784  1.00  0.00    -0.359 A  
HETATM    6  C   UNL     1     -11.409  12.551  66.919  1.00  0.00    -0.383 A  
HETATM    7  C   UNL     1     -12.238  13.667  66.687  1.00  0.00    -0.437 A  
HETATM    8  C   UNL     1     -12.577  14.077  65.394  1.00  0.00    -0.529 A  
ENDROOT
BRANCH   6   9
HETATM    9  C   UNL     1     -11.184  11.985  68.355  1.00  0.00    -0.262 C  
HETATM   10  O   UNL     1      -8.788  11.385  67.846  1.00  0.00    -0.139 OA 
HETATM   11  O   UNL     1     -12.256  11.034  68.644  1.00  0.00    -0.571 OA 
HETATM   12  C   UNL     1      -9.794  11.252  68.542  1.00  0.00    -0.197 C  
HETATM   13  C   UNL     1     -12.084  10.296  69.791  1.00  0.00    -0.056 A  
HETATM   14  H   UNL     1      -8.772  10.236  70.038  1.00  0.00     0.000 HD 
HETATM   15  C   UNL     1     -13.212   9.722  70.373  1.00  0.00     0.205 A  
HETATM   16  C   UNL     1     -13.086   8.976  71.550  1.00  0.00    -0.389 A  
HETATM   17  N   UNL     1      -9.694  10.491  69.682  1.00  0.00    -0.128 N  
HETATM   18  C   UNL     1     -10.829  10.063  70.358  1.00  0.00    -0.318 A  
HETATM   19  C   UNL     1     -10.697   9.335  71.538  1.00  0.00    -0.425 A  
HETATM   20  C   UNL     1     -11.834   8.801  72.143  1.00  0.00    -0.436 A  
BRANCH   9  21
HETATM   21  C   UNL     1     -11.287  13.203  69.326  1.00  0.00    -0.312 A  
HETATM   22  C   UNL     1     -10.477  15.377  70.079  1.00  0.00    -0.301 A  
HETATM   23  H   UNL     1     -10.975  17.278  71.682  1.00  0.00     0.000 HD 
HETATM   24  O   UNL     1     -11.619  16.583  71.744  1.00  0.00    -0.415 OA 
HETATM   25  C   UNL     1     -11.531  15.460  70.975  1.00  0.00    -0.364 A  
HETATM   26  C   UNL     1     -12.473  14.442  71.065  1.00  0.00    -0.425 A  
HETATM   27  C   UNL     1     -12.354  13.320  70.240  1.00  0.00    -0.334 A  
HETATM   28  C   UNL     1     -10.356  14.260  69.252  1.00  0.00    -0.072 A  
ENDBRANCH   9  21
ENDBRANCH   6   9
TORSDOF 2
ENDMDL
MODEL        9
REMARK 921   NORMALIZED FREE ENERGY PREDICTED BY IDOCK:   -7.12 KCAL/MOL
REMARK 922        TOTAL FREE ENERGY PREDICTED BY IDOCK:   -8.71 KCAL/MOL
REMARK 923 INTER-LIGAND FREE ENERGY PREDICTED BY IDOCK:   -7.86 KCAL/MOL
REMARK 924 INTRA-LIGAND FREE ENERGY PREDICTED BY IDOCK:   -0.85 KCAL/MOL
REMARK 927      BINDING AFFINITY PREDICTED BY RF-SCORE:    0.00 PKD
ROOT
HETATM    1  O   UNL     1     -13.429  13.125  72.333  1.00  0.00    -0.558 OA 
HETATM    2  C   UNL     1     -12.764  13.103  71.144  1.00  0.00    -0.300 A  
HETATM    3  H   UNL     1     -13.628  12.329  72.812  1.00  0.00     0.000 HD 
HETATM    4  C   UNL     1     -12.474  14.267  70.442  1.00  0.00    -0.426 A  
HETATM    5  C   UNL     1     -11.822  14.187  69.202  1.00  0.00    -0.380 A  
HETATM    6  C   UNL     1     -11.457  12.944  68.642  1.00  0.00    -0.346 A  
HETATM    7  C   UNL     1     -11.772  11.790  69.389  1.00  0.00    -0.405 A  
HETATM    8  C   UNL     1     -12.403  11.868  70.634  1.00  0.00    -0.405 A  
ENDROOT
BRANCH   6   9
HETATM    9  C   UNL     1     -10.925  12.849  67.179  1.00  0.00    -0.262 C  
HETATM   10  O   UNL     1     -12.990  13.965  66.257  1.00  0.00    -0.219 OA 
HETATM   11  O   UNL     1     -10.521  11.467  66.928  1.00  0.00    -0.221 OA 
HETATM   12  C   UNL     1     -11.987  13.272  66.085  1.00  0.00    -0.418 C  
HETATM   13  C   UNL     1     -10.223  11.178  65.617  1.00  0.00    -0.256 A  
HETATM   14  H   UNL     1     -12.109  13.393  64.016  1.00  0.00     0.000 HD 
HETATM   15  C   UNL     1      -9.422  10.067  65.361  1.00  0.00    -0.310 A  
HETATM   16  C   UNL     1      -9.081   9.745  64.042  1.00  0.00    -0.280 A  
HETATM   17  N   UNL     1     -11.661  12.917  64.798  1.00  0.00    -0.317 N  
HETATM   18  C   UNL     1     -10.728  11.919  64.548  1.00  0.00    -0.312 A  
HETATM   19  C   UNL     1     -10.379  11.614  63.234  1.00  0.00    -0.444 A  
HETATM   20  C   UNL     1      -9.541  10.529  62.983  1.00  0.00    -0.369 A  
BRANCH   9  21
HETATM   21  C   UNL     1      -9.676  13.782  67.108  1.00  0.00    -0.244 A  
HETATM   22  C   UNL     1      -8.662  15.908  66.472  1.00  0.00    -0.350 A  
HETATM   23  H   UNL     1      -6.518  17.255  66.629  1.00  0.00     0.000 HD 
HETATM   24  O   UNL     1      -6.441  16.411  67.059  1.00  0.00    -0.180 OA 
HETATM   25  C   UNL     1      -7.477  15.525  67.082  1.00  0.00    -0.209 A  
HETATM   26  C   UNL     1      -7.364  14.291  67.711  1.00  0.00    -0.185 A  
HETATM   27  C   UNL     1      -8.461  13.425  67.728  1.00  0.00    -0.181 A  
HETATM   28  C   UNL     1      -9.759  15.048  66.489  1.00  0.00    -0.285 A  
ENDBRANCH   9  21
ENDBRANCH   6   9
TORSDOF 2
ENDMDL
MODEL       10
REMARK 921   NORMALIZED FREE ENERGY PREDICTED BY IDOCK:   -7.00 KCAL/MOL
REMARK 922        TOTAL FREE ENERGY PREDICTED BY IDOCK:   -8.58 KCAL/MOL
REMARK 923 INTER-LIGAND FREE ENERGY PREDICTED BY IDOCK:   -7.85 KCAL/MOL
REMARK 924 INTRA-LIGAND FREE ENERGY PREDICTED BY IDOCK:   -0.73 KCAL/MOL
REMARK 927      BINDING AFFINITY PREDICTED BY RF-SCORE:    0.00 PKD
ROOT
HETATM    1  O   UNL     1     -12.764   9.718  71.549  1.00  0.00    -0.346 OA 
HETATM    2  C   UNL     1     -12.272  10.681  70.719  1.00  0.00    -0.375 A  
HETATM    3  H   UNL     1     -13.271   9.934  72.324  1.00  0.00     0.000 HD 
HETATM    4  C   UNL     1     -11.530  10.366  69.588  1.00  0.00    -0.326 A  
HETATM    5  C   UNL     1     -11.010  11.396  68.789  1.00  0.00    -0.272 A  
HETATM    6  C   UNL     1     -11.219  12.754  69.112  1.00  0.00    -0.294 A  
HETATM    7  C   UNL     1     -11.977  13.025  70.269  1.00  0.00    -0.360 A  
HETATM    8  C   UNL     1     -12.512  12.001  71.056  1.00  0.00    -0.376 A  
ENDROOT
BRANCH   6   9
HETATM    9  C   UNL     1     -10.470  13.885  68.343  1.00  0.00    -0.247 C  
HETATM   10  O   UNL     1      -8.253  12.704  68.576  1.00  0.00    -0.145 OA 
HETATM   11  O   UNL     1     -10.820  15.165  68.956  1.00  0.00    -0.224 OA 
HETATM   12  C   UNL     1      -8.894  13.731  68.358  1.00  0.00    -0.165 C  
HETATM   13  C   UNL     1     -10.079  16.239  68.523  1.00  0.00    -0.239 A  
HETATM   14  H   UNL     1      -7.235  14.761  67.652  1.00  0.00     0.000 HD 
HETATM   15  C   UNL     1     -10.617  17.512  68.693  1.00  0.00    -0.288 A  
HETATM   16  C   UNL     1      -9.905  18.633  68.253  1.00  0.00    -0.410 A  
HETATM   17  N   UNL     1      -8.203  14.851  67.960  1.00  0.00    -0.133 N  
HETATM   18  C   UNL     1      -8.805  16.103  67.970  1.00  0.00    -0.181 A  
HETATM   19  C   UNL     1      -8.097  17.212  67.514  1.00  0.00    -0.196 A  
HETATM   20  C   UNL     1      -8.657  18.482  67.645  1.00  0.00    -0.276 A  
BRANCH   9  21
HETATM   21  C   UNL     1     -11.002  13.842  66.876  1.00  0.00    -0.300 A  
HETATM   22  C   UNL     1     -10.624  13.419  64.504  1.00  0.00    -0.441 A  
HETATM   23  H   UNL     1     -11.796  13.294  62.258  1.00  0.00     0.000 HD 
HETATM   24  O   UNL     1     -12.397  13.509  62.962  1.00  0.00    -0.661 OA 
HETATM   25  C   UNL     1     -11.969  13.636  64.250  1.00  0.00    -0.445 A  
HETATM   26  C   UNL     1     -12.848  13.951  65.280  1.00  0.00    -0.437 A  
HETATM   27  C   UNL     1     -12.367  14.048  66.588  1.00  0.00    -0.408 A  
HETATM   28  C   UNL     1     -10.140  13.514  65.808  1.00  0.00    -0.298 A  
ENDBRANCH   9  21
ENDBRANCH   6   9
TORSDOF 2
ENDMDL
MODEL       11
REMARK 921   NORMALIZED FREE ENERGY PREDICTED BY IDOCK:   -6.92 KCAL/MOL
REMARK 922        TOTAL FREE ENERGY PREDICTED BY IDOCK:   -8.49 KCAL/MOL
REMARK 923 INTER-LIGAND FREE ENERGY PREDICTED BY IDOCK:   -7.58 KCAL/MOL
REMARK 924 INTRA-LIGAND FREE ENERGY PREDICTED BY IDOCK:   -0.91 KCAL/MOL
REMARK 927      BINDING AFFINITY PREDICTED BY RF-SCORE:    0.00 PKD
ROOT
HETATM    1  O   UNL     1      -8.518  19.576  68.314  1.00  0.00    -0.325 OA 
HETATM    2  C   UNL     1      -8.953  18.287  68.403  1.00  0.00    -0.309 A  
HETATM    3  H   UNL     1      -9.103  20.290  68.088  1.00  0.00     0.000 HD 
HETATM    4  C   UNL     1      -8.098  17.244  68.734  1.00  0.00    -0.242 A  
HETATM    5  C   UNL     1      -8.587  15.929  68.771  1.00  0.00    -0.212 A  
HETATM    6  C   UNL     1      -9.935  15.638  68.473  1.00  0.00    -0.211 A  
HETATM    7  C   UNL     1     -10.766  16.728  68.142  1.00  0.00    -0.361 A  
HETATM    8  C   UNL     1     -10.286  18.041  68.123  1.00  0.00    -0.398 A  
ENDROOT
BRANCH   6   9
HETATM    9  C   UNL     1     -10.420  14.164  68.313  1.00  0.00    -0.249 C  
HETATM   10  O   UNL     1     -12.234  14.476  70.037  1.00  0.00    -0.312 OA 
HETATM   11  O   UNL     1      -9.261  13.284  68.448  1.00  0.00    -0.196 OA 
HETATM   12  C   UNL     1     -11.509  13.732  69.377  1.00  0.00    -0.286 C  
HETATM   13  C   UNL     1      -9.555  11.944  68.538  1.00  0.00    -0.157 A  
HETATM   14  H   UNL     1     -12.594  12.033  69.874  1.00  0.00     0.000 HD 
HETATM   15  C   UNL     1      -8.551  11.033  68.218  1.00  0.00    -0.143 A  
HETATM   16  C   UNL     1      -8.812   9.660  68.280  1.00  0.00    -0.120 A  
HETATM   17  N   UNL     1     -11.730  12.377  69.457  1.00  0.00    -0.315 N  
HETATM   18  C   UNL     1     -10.793  11.472  68.978  1.00  0.00    -0.212 A  
HETATM   19  C   UNL     1     -11.065  10.106  69.026  1.00  0.00    -0.249 A  
HETATM   20  C   UNL     1     -10.073   9.198  68.662  1.00  0.00    -0.212 A  
BRANCH   9  21
HETATM   21  C   UNL     1     -11.001  14.049  66.869  1.00  0.00    -0.301 A  
HETATM   22  C   UNL     1     -10.661  13.721  64.476  1.00  0.00    -0.405 A  
HETATM   23  H   UNL     1     -11.893  13.426  62.278  1.00  0.00     0.000 HD 
HETATM   24  O   UNL     1     -12.490  13.530  63.010  1.00  0.00    -0.709 OA 
HETATM   25  C   UNL     1     -12.034  13.713  64.282  1.00  0.00    -0.445 A  
HETATM   26  C   UNL     1     -12.907  13.866  65.352  1.00  0.00    -0.466 A  
HETATM   27  C   UNL     1     -12.392  14.028  66.641  1.00  0.00    -0.408 A  
HETATM   28  C   UNL     1     -10.144  13.880  65.761  1.00  0.00    -0.336 A  
ENDBRANCH   9  21
ENDBRANCH   6   9
TORSDOF 2
ENDMDL
MODEL       12
REMARK 921   NORMALIZED FREE ENERGY PREDICTED BY IDOCK:   -6.82 KCAL/MOL
REMARK 922        TOTAL FREE ENERGY PREDICTED BY IDOCK:   -8.37 KCAL/MOL
REMARK 923 INTER-LIGAND FREE ENERGY PREDICTED BY IDOCK:   -7.62 KCAL/MOL
REMARK 924 INTRA-LIGAND FREE ENERGY PREDICTED BY IDOCK:   -0.75 KCAL/MOL
REMARK 927      BINDING AFFINITY PREDICTED BY RF-SCORE:    0.00 PKD
ROOT
HETATM    1  O   UNL     1     -11.089   8.362  69.492  1.00  0.00    -0.429 OA 
HETATM    2  C   UNL     1     -11.045   9.724  69.482  1.00  0.00    -0.192 A  
HETATM    3  H   UNL     1     -10.457   7.836  69.016  1.00  0.00     0.000 HD 
HETATM    4  C   UNL     1     -11.970  10.494  70.177  1.00  0.00    -0.398 A  
HETATM    5  C   UNL     1     -11.906  11.894  70.101  1.00  0.00    -0.390 A  
HETATM    6  C   UNL     1     -10.922  12.544  69.325  1.00  0.00    -0.138 A  
HETATM    7  C   UNL     1     -10.006  11.723  68.637  1.00  0.00    -0.181 A  
HETATM    8  C   UNL     1     -10.055  10.328  68.727  1.00  0.00    -0.198 A  
ENDROOT
BRANCH   6   9
HETATM    9  C   UNL     1     -10.984  14.083  69.079  1.00  0.00    -0.259 C  
HETATM   10  O   UNL     1     -12.477  13.796  67.066  1.00  0.00    -0.315 OA 
HETATM   11  O   UNL     1      -9.616  14.597  69.056  1.00  0.00    -0.207 OA 
HETATM   12  C   UNL     1     -11.697  14.484  67.724  1.00  0.00    -0.374 C  
HETATM   13  C   UNL     1      -9.493  15.903  68.644  1.00  0.00    -0.214 A  
HETATM   14  H   UNL     1     -12.144  16.215  66.667  1.00  0.00     0.000 HD 
HETATM   15  C   UNL     1      -8.343  16.597  69.011  1.00  0.00    -0.182 A  
HETATM   16  C   UNL     1      -8.183  17.933  68.626  1.00  0.00    -0.281 A  
HETATM   17  N   UNL     1     -11.502  15.788  67.336  1.00  0.00    -0.110 N  
HETATM   18  C   UNL     1     -10.445  16.533  67.840  1.00  0.00    -0.313 A  
HETATM   19  C   UNL     1     -10.301  17.868  67.467  1.00  0.00    -0.383 A  
HETATM   20  C   UNL     1      -9.170  18.573  67.874  1.00  0.00    -0.306 A  
BRANCH   9  21
HETATM   21  C   UNL     1     -11.753  14.689  70.294  1.00  0.00    -0.355 A  
HETATM   22  C   UNL     1     -13.851  15.353  71.347  1.00  0.00    -0.577 A  
HETATM   23  H   UNL     1     -14.841  16.227  73.513  1.00  0.00     0.000 HD 
HETATM   24  O   UNL     1     -13.900  16.110  73.573  1.00  0.00    -0.509 OA 
HETATM   25  C   UNL     1     -13.169  15.658  72.515  1.00  0.00    -0.497 A  
HETATM   26  C   UNL     1     -11.792  15.487  72.603  1.00  0.00    -0.575 A  
HETATM   27  C   UNL     1     -11.088  14.999  71.498  1.00  0.00    -0.128 A  
HETATM   28  C   UNL     1     -13.153  14.864  70.243  1.00  0.00    -0.112 A  
ENDBRANCH   9  21
ENDBRANCH   6   9
TORSDOF 2
ENDMDL
MODEL       13
REMARK 921   NORMALIZED FREE ENERGY PREDICTED BY IDOCK:   -6.80 KCAL/MOL
REMARK 922        TOTAL FREE ENERGY PREDICTED BY IDOCK:   -8.35 KCAL/MOL
REMARK 923 INTER-LIGAND FREE ENERGY PREDICTED BY IDOCK:   -8.02 KCAL/MOL
REMARK 924 INTRA-LIGAND FREE ENERGY PREDICTED BY IDOCK:   -0.34 KCAL/MOL
REMARK 927      BINDING AFFINITY PREDICTED BY RF-SCORE:    0.00 PKD
ROOT
HETATM    1  O   UNL     1     -12.139  11.381  62.977  1.00  0.00    -0.934 OA 
HETATM    2  C   UNL     1     -11.611  12.339  63.790  1.00  0.00    -0.471 A  
HETATM    3  H   UNL     1     -12.814  11.580  62.338  1.00  0.00     0.000 HD 
HETATM    4  C   UNL     1     -10.625  12.047  64.724  1.00  0.00    -0.340 A  
HETATM    5  C   UNL     1     -10.144  13.062  65.567  1.00  0.00    -0.270 A  
HETATM    6  C   UNL     1     -10.645  14.379  65.492  1.00  0.00    -0.360 A  
HETATM    7  C   UNL     1     -11.645  14.628  64.530  1.00  0.00    -0.377 A  
HETATM    8  C   UNL     1     -12.112  13.624  63.676  1.00  0.00    -0.397 A  
ENDROOT
BRANCH   6   9
HETATM    9  C   UNL     1     -10.260  15.445  66.563  1.00  0.00    -0.280 C  
HETATM   10  O   UNL     1     -12.153  14.747  68.076  1.00  0.00    -0.272 OA 
HETATM   11  O   UNL     1     -10.137  16.740  65.896  1.00  0.00    -0.405 OA 
HETATM   12  C   UNL     1     -11.312  15.579  67.738  1.00  0.00    -0.286 C  
HETATM   13  C   UNL     1     -10.004  17.817  66.739  1.00  0.00    -0.333 A  
HETATM   14  H   UNL     1     -11.576  16.722  69.451  1.00  0.00     0.000 HD 
HETATM   15  C   UNL     1      -9.443  18.983  66.223  1.00  0.00    -0.341 A  
HETATM   16  C   UNL     1      -9.274  20.100  67.049  1.00  0.00    -0.503 A  
HETATM   17  N   UNL     1     -11.160  16.699  68.520  1.00  0.00    -0.339 N  
HETATM   18  C   UNL     1     -10.449  17.800  68.062  1.00  0.00    -0.394 A  
HETATM   19  C   UNL     1     -10.269  18.902  68.896  1.00  0.00    -0.267 A  
HETATM   20  C   UNL     1      -9.667  20.052  68.389  1.00  0.00    -0.393 A  
BRANCH   9  21
HETATM   21  C   UNL     1      -8.871  15.012  67.129  1.00  0.00    -0.233 A  
HETATM   22  C   UNL     1      -6.471  15.387  67.350  1.00  0.00    -0.115 A  
HETATM   23  H   UNL     1      -4.388  14.537  68.523  1.00  0.00     0.000 HD 
HETATM   24  O   UNL     1      -5.161  14.041  68.765  1.00  0.00    -0.078 OA 
HETATM   25  C   UNL     1      -6.386  14.327  68.239  1.00  0.00    -0.118 A  
HETATM   26  C   UNL     1      -7.517  13.600  68.592  1.00  0.00    -0.113 A  
HETATM   27  C   UNL     1      -8.755  13.945  68.043  1.00  0.00    -0.183 A  
HETATM   28  C   UNL     1      -7.704  15.736  66.801  1.00  0.00    -0.216 A  
ENDBRANCH   9  21
ENDBRANCH   6   9
TORSDOF 2
ENDMDL
MODEL       14
REMARK 921   NORMALIZED FREE ENERGY PREDICTED BY IDOCK:   -6.79 KCAL/MOL
REMARK 922        TOTAL FREE ENERGY PREDICTED BY IDOCK:   -8.34 KCAL/MOL
REMARK 923 INTER-LIGAND FREE ENERGY PREDICTED BY IDOCK:   -8.28 KCAL/MOL
REMARK 924 INTRA-LIGAND FREE ENERGY PREDICTED BY IDOCK:   -0.06 KCAL/MOL
REMARK 927      BINDING AFFINITY PREDICTED BY RF-SCORE:    0.00 PKD
ROOT
HETATM    1  O   UNL     1     -12.460  13.897  63.211  1.00  0.00    -1.113 OA 
HETATM    2  C   UNL     1     -12.121  13.275  64.375  1.00  0.00    -0.415 A  
HETATM    3  H   UNL     1     -12.213  13.545  62.363  1.00  0.00     0.000 HD 
HETATM    4  C   UNL     1     -12.482  13.789  65.615  1.00  0.00    -0.541 A  
HETATM    5  C   UNL     1     -12.073  13.132  66.785  1.00  0.00    -0.389 A  
HETATM    6  C   UNL     1     -11.293  11.957  66.735  1.00  0.00    -0.393 A  
HETATM    7  C   UNL     1     -10.950  11.473  65.456  1.00  0.00    -0.290 A  
HETATM    8  C   UNL     1     -11.373  12.114  64.288  1.00  0.00    -0.426 A  
ENDROOT
BRANCH   6   9
HETATM    9  C   UNL     1     -10.670  11.353  68.031  1.00  0.00    -0.200 C  
HETATM   10  O   UNL     1      -8.527  12.645  67.715  1.00  0.00    -0.149 OA 
HETATM   11  O   UNL     1     -10.804   9.899  67.967  1.00  0.00    -0.248 OA 
HETATM   12  C   UNL     1      -9.141  11.712  68.232  1.00  0.00    -0.187 C  
HETATM   13  C   UNL     1     -10.118   9.209  68.939  1.00  0.00    -0.197 A  
HETATM   14  H   UNL     1      -7.625  11.304  69.590  1.00  0.00     0.000 HD 
HETATM   15  C   UNL     1     -10.533   7.912  69.233  1.00  0.00    -0.221 A  
HETATM   16  C   UNL     1      -9.874   7.179  70.226  1.00  0.00    -0.177 A  
HETATM   17  N   UNL     1      -8.494  10.960  69.183  1.00  0.00    -0.105 N  
HETATM   18  C   UNL     1      -9.007   9.738  69.598  1.00  0.00    -0.215 A  
HETATM   19  C   UNL     1      -8.357   9.021  70.600  1.00  0.00    -0.214 A  
HETATM   20  C   UNL     1      -8.802   7.740  70.923  1.00  0.00    -0.142 A  
BRANCH   9  21
HETATM   21  C   UNL     1     -11.515  11.906  69.221  1.00  0.00    -0.366 A  
HETATM   22  C   UNL     1     -12.997  11.518  71.118  1.00  0.00    -0.329 A  
HETATM   23  H   UNL     1     -14.151  12.678  73.056  1.00  0.00     0.000 HD 
HETATM   24  O   UNL     1     -13.633  13.282  72.538  1.00  0.00    -0.583 OA 
HETATM   25  C   UNL     1     -12.938  12.865  71.441  1.00  0.00    -0.270 A  
HETATM   26  C   UNL     1     -12.180  13.748  70.682  1.00  0.00    -0.434 A  
HETATM   27  C   UNL     1     -11.467  13.269  69.579  1.00  0.00    -0.299 A  
HETATM   28  C   UNL     1     -12.286  11.036  70.020  1.00  0.00    -0.377 A  
ENDBRANCH   9  21
ENDBRANCH   6   9
TORSDOF 2
ENDMDL
MODEL       15
REMARK 921   NORMALIZED FREE ENERGY PREDICTED BY IDOCK:   -6.73 KCAL/MOL
REMARK 922        TOTAL FREE ENERGY PREDICTED BY IDOCK:   -8.27 KCAL/MOL
REMARK 923 INTER-LIGAND FREE ENERGY PREDICTED BY IDOCK:   -7.95 KCAL/MOL
REMARK 924 INTRA-LIGAND FREE ENERGY PREDICTED BY IDOCK:   -0.32 KCAL/MOL
REMARK 927      BINDING AFFINITY PREDICTED BY RF-SCORE:    0.00 PKD
ROOT
HETATM    1  O   UNL     1     -12.009   8.429  72.525  1.00  0.00    -0.393 OA 
HETATM    2  C   UNL     1     -11.813   9.402  71.591  1.00  0.00    -0.394 A  
HETATM    3  H   UNL     1     -11.382   7.727  72.659  1.00  0.00     0.000 HD 
HETATM    4  C   UNL     1     -12.730  10.427  71.394  1.00  0.00    -0.551 A  
HETATM    5  C   UNL     1     -12.500  11.381  70.391  1.00  0.00    -0.345 A  
HETATM    6  C   UNL     1     -11.355  11.322  69.568  1.00  0.00    -0.362 A  
HETATM    7  C   UNL     1     -10.453  10.265  69.804  1.00  0.00    -0.300 A  
HETATM    8  C   UNL     1     -10.669   9.324  70.815  1.00  0.00    -0.350 A  
ENDROOT
BRANCH   6   9
HETATM    9  C   UNL     1     -11.211  12.257  68.328  1.00  0.00    -0.267 C  
HETATM   10  O   UNL     1     -12.276  14.192  69.545  1.00  0.00    -0.326 OA 
HETATM   11  O   UNL     1     -11.774  11.568  67.168  1.00  0.00    -0.567 OA 
HETATM   12  C   UNL     1     -11.942  13.651  68.491  1.00  0.00    -0.361 C  
HETATM   13  C   UNL     1     -11.909  12.343  66.041  1.00  0.00    -0.395 A  
HETATM   14  H   UNL     1     -12.265  15.367  67.367  1.00  0.00     0.000 HD 
HETATM   15  C   UNL     1     -11.998  11.695  64.811  1.00  0.00     0.011 A  
HETATM   16  C   UNL     1     -12.121  12.445  63.636  1.00  0.00    -0.648 A  
HETATM   17  N   UNL     1     -12.091  14.363  67.324  1.00  0.00    -0.385 N  
HETATM   18  C   UNL     1     -12.007  13.735  66.089  1.00  0.00    -0.418 A  
HETATM   19  C   UNL     1     -12.113  14.489  64.923  1.00  0.00    -0.421 A  
HETATM   20  C   UNL     1     -12.156  13.840  63.690  1.00  0.00    -0.330 A  
BRANCH   9  21
HETATM   21  C   UNL     1      -9.679  12.471  68.118  1.00  0.00    -0.222 A  
HETATM   22  C   UNL     1      -7.580  11.814  67.066  1.00  0.00    -0.147 A  
HETATM   23  H   UNL     1      -5.149  12.489  66.801  1.00  0.00     0.000 HD 
HETATM   24  O   UNL     1      -5.631  13.099  67.348  1.00  0.00    -0.320 OA 
HETATM   25  C   UNL     1      -6.953  12.915  67.628  1.00  0.00    -0.152 A  
HETATM   26  C   UNL     1      -7.657  13.806  68.428  1.00  0.00    -0.135 A  
HETATM   27  C   UNL     1      -9.017  13.587  68.668  1.00  0.00    -0.002 A  
HETATM   28  C   UNL     1      -8.936  11.593  67.301  1.00  0.00    -0.169 A  
ENDBRANCH   9  21
ENDBRANCH   6   9
TORSDOF 2
ENDMDL
MODEL       16
REMARK 921   NORMALIZED FREE ENERGY PREDICTED BY IDOCK:   -6.67 KCAL/MOL
REMARK 922        TOTAL FREE ENERGY PREDICTED BY IDOCK:   -8.21 KCAL/MOL
REMARK 923 INTER-LIGAND FREE ENERGY PREDICTED BY IDOCK:   -7.47 KCAL/MOL
REMARK 924 INTRA-LIGAND FREE ENERGY PREDICTED BY IDOCK:   -0.74 KCAL/MOL
REMARK 927      BINDING AFFINITY PREDICTED BY RF-SCORE:    0.00 PKD
ROOT
HETATM    1  O   UNL     1      -8.497  20.451  65.643  1.00  0.00    -0.498 OA 
HETATM    2  C   UNL     1      -9.051  19.381  66.281  1.00  0.00    -0.346 A  
HETATM    3  H   UNL     1      -7.678  20.384  65.166  1.00  0.00     0.000 HD 
HETATM    4  C   UNL     1     -10.248  19.480  66.979  1.00  0.00    -0.540 A  
HETATM    5  C   UNL     1     -10.754  18.357  67.652  1.00  0.00    -0.390 A  
HETATM    6  C   UNL     1     -10.069  17.124  67.644  1.00  0.00    -0.305 A  
HETATM    7  C   UNL     1      -8.858  17.071  66.923  1.00  0.00    -0.251 A  
HETATM    8  C   UNL     1      -8.362  18.181  66.235  1.00  0.00    -0.228 A  
ENDROOT
BRANCH   6   9
HETATM    9  C   UNL     1     -10.526  15.947  68.560  1.00  0.00    -0.241 C  
HETATM   10  O   UNL     1     -11.907  14.923  66.715  1.00  0.00    -0.304 OA 
HETATM   11  O   UNL     1     -11.050  16.512  69.802  1.00  0.00    -0.337 OA 
HETATM   12  C   UNL     1     -11.640  15.029  67.911  1.00  0.00    -0.333 C  
HETATM   13  C   UNL     1     -11.683  15.612  70.627  1.00  0.00    -0.369 A  
HETATM   14  H   UNL     1     -12.769  13.367  68.435  1.00  0.00     0.000 HD 
HETATM   15  C   UNL     1     -11.803  15.938  71.976  1.00  0.00    -0.609 A  
HETATM   16  C   UNL     1     -12.426  15.045  72.855  1.00  0.00    -0.491 A  
HETATM   17  N   UNL     1     -12.272  14.183  68.791  1.00  0.00    -0.280 N  
HETATM   18  C   UNL     1     -12.243  14.422  70.158  1.00  0.00    -0.341 A  
HETATM   19  C   UNL     1     -12.849  13.521  71.030  1.00  0.00    -0.343 A  
HETATM   20  C   UNL     1     -12.929  13.830  72.387  1.00  0.00    -0.440 A  
BRANCH   9  21
HETATM   21  C   UNL     1      -9.245  15.108  68.864  1.00  0.00    -0.209 A  
HETATM   22  C   UNL     1      -7.882  13.122  68.482  1.00  0.00    -0.105 A  
HETATM   23  H   UNL     1      -5.653  12.055  69.055  1.00  0.00     0.000 HD 
HETATM   24  O   UNL     1      -5.758  12.904  69.469  1.00  0.00    -0.083 OA 
HETATM   25  C   UNL     1      -6.891  13.644  69.299  1.00  0.00    -0.063 A  
HETATM   26  C   UNL     1      -7.046  14.885  69.904  1.00  0.00    -0.109 A  
HETATM   27  C   UNL     1      -8.216  15.617  69.683  1.00  0.00    -0.068 A  
HETATM   28  C   UNL     1      -9.050  13.849  68.257  1.00  0.00    -0.191 A  
ENDBRANCH   9  21
ENDBRANCH   6   9
TORSDOF 2
ENDMDL
MODEL       17
REMARK 921   NORMALIZED FREE ENERGY PREDICTED BY IDOCK:   -6.65 KCAL/MOL
REMARK 922        TOTAL FREE ENERGY PREDICTED BY IDOCK:   -8.18 KCAL/MOL
REMARK 923 INTER-LIGAND FREE ENERGY PREDICTED BY IDOCK:   -7.94 KCAL/MOL
REMARK 924 INTRA-LIGAND FREE ENERGY PREDICTED BY IDOCK:   -0.24 KCAL/MOL
REMARK 927      BINDING AFFINITY PREDICTED BY RF-SCORE:    0.00 PKD
ROOT
HETATM    1  O   UNL     1     -14.085  15.324  72.338  1.00  0.00    -0.504 OA 
HETATM    2  C   UNL     1     -13.228  14.830  71.401  1.00  0.00    -0.371 A  
HETATM    3  H   UNL     1     -14.518  14.762  72.970  1.00  0.00     0.000 HD 
HETATM    4  C   UNL     1     -12.595  15.652  70.477  1.00  0.00    -0.423 A  
HETATM    5  C   UNL     1     -11.753  15.087  69.507  1.00  0.00    -0.350 A  
HETATM    6  C   UNL     1     -11.536  13.694  69.442  1.00  0.00    -0.368 A  
HETATM    7  C   UNL     1     -12.199  12.899  70.400  1.00  0.00    -0.381 A  
HETATM    8  C   UNL     1     -13.023  13.461  71.379  1.00  0.00    -0.412 A  
ENDROOT
BRANCH   6   9
HETATM    9  C   UNL     1     -10.771  13.057  68.241  1.00  0.00    -0.245 C  
HETATM   10  O   UNL     1     -12.289  11.043  68.221  1.00  0.00    -0.479 OA 
HETATM   11  O   UNL     1      -9.345  13.044  68.563  1.00  0.00    -0.176 OA 
HETATM   12  C   UNL     1     -11.227  11.579  67.906  1.00  0.00    -0.279 C  
HETATM   13  C   UNL     1      -8.560  12.326  67.693  1.00  0.00    -0.169 A  
HETATM   14  H   UNL     1     -10.726  10.074  66.565  1.00  0.00     0.000 HD 
HETATM   15  C   UNL     1      -7.199  12.619  67.649  1.00  0.00    -0.142 A  
HETATM   16  C   UNL     1      -6.365  11.924  66.767  1.00  0.00    -0.039 A  
HETATM   17  N   UNL     1     -10.381  10.892  67.068  1.00  0.00    -0.221 N  
HETATM   18  C   UNL     1      -9.063  11.295  66.897  1.00  0.00    -0.167 A  
HETATM   19  C   UNL     1      -8.242  10.610  66.004  1.00  0.00    -0.158 A  
HETATM   20  C   UNL     1      -6.889  10.936  65.931  1.00  0.00    -0.032 A  
BRANCH   9  21
HETATM   21  C   UNL     1     -11.025  13.991  67.017  1.00  0.00    -0.302 A  
HETATM   22  C   UNL     1     -10.327  15.848  65.597  1.00  0.00    -0.413 A  
HETATM   23  H   UNL     1     -10.917  17.107  63.475  1.00  0.00     0.000 HD 
HETATM   24  O   UNL     1     -11.524  16.397  63.649  1.00  0.00    -0.858 OA 
HETATM   25  C   UNL     1     -11.394  15.600  64.748  1.00  0.00    -0.343 A  
HETATM   26  C   UNL     1     -12.283  14.562  65.002  1.00  0.00    -0.376 A  
HETATM   27  C   UNL     1     -12.095  13.757  66.129  1.00  0.00    -0.477 A  
HETATM   28  C   UNL     1     -10.136  15.046  66.722  1.00  0.00    -0.257 A  
ENDBRANCH   9  21
ENDBRANCH   6   9
TORSDOF 2
ENDMDL
MODEL       18
REMARK 921   NORMALIZED FREE ENERGY PREDICTED BY IDOCK:   -6.65 KCAL/MOL
REMARK 922        TOTAL FREE ENERGY PREDICTED BY IDOCK:   -8.18 KCAL/MOL
REMARK 923 INTER-LIGAND FREE ENERGY PREDICTED BY IDOCK:   -7.89 KCAL/MOL
REMARK 924 INTRA-LIGAND FREE ENERGY PREDICTED BY IDOCK:   -0.29 KCAL/MOL
REMARK 927      BINDING AFFINITY PREDICTED BY RF-SCORE:    0.00 PKD
ROOT
HETATM    1  O   UNL     1     -12.432  13.565  62.537  1.00  0.00    -0.581 OA 
HETATM    2  C   UNL     1     -12.137  13.476  63.865  1.00  0.00    -0.438 A  
HETATM    3  H   UNL     1     -12.481  14.401  62.088  1.00  0.00     0.000 HD 
HETATM    4  C   UNL     1     -12.066  12.254  64.521  1.00  0.00    -0.462 A  
HETATM    5  C   UNL     1     -11.800  12.219  65.899  1.00  0.00    -0.420 A  
HETATM    6  C   UNL     1     -11.609  13.405  66.640  1.00  0.00    -0.399 A  
HETATM    7  C   UNL     1     -11.691  14.621  65.932  1.00  0.00    -0.301 A  
HETATM    8  C   UNL     1     -11.936  14.657  64.556  1.00  0.00    -0.473 A  
ENDROOT
BRANCH   6   9
HETATM    9  C   UNL     1     -11.522  13.371  68.197  1.00  0.00    -0.304 C  
HETATM   10  O   UNL     1     -11.883  10.875  68.256  1.00  0.00    -0.530 OA 
HETATM   11  O   UNL     1     -12.440  14.376  68.729  1.00  0.00    -0.134 OA 
HETATM   12  C   UNL     1     -11.890  11.966  68.827  1.00  0.00    -0.313 C  
HETATM   13  C   UNL     1     -12.631  14.327  70.089  1.00  0.00    -0.282 A  
HETATM   14  H   UNL     1     -12.060  11.115  70.713  1.00  0.00     0.000 HD 
HETATM   15  C   UNL     1     -13.102  15.474  70.723  1.00  0.00    -0.446 A  
HETATM   16  C   UNL     1     -13.296  15.475  72.109  1.00  0.00    -0.561 A  
HETATM   17  N   UNL     1     -12.116  11.984  70.182  1.00  0.00    -0.321 N  
HETATM   18  C   UNL     1     -12.419  13.169  70.840  1.00  0.00    -0.323 A  
HETATM   19  C   UNL     1     -12.594  13.166  72.222  1.00  0.00     0.075 A  
HETATM   20  C   UNL     1     -13.022  14.330  72.859  1.00  0.00    -0.548 A  
BRANCH   9  21
HETATM   21  C   UNL     1     -10.053  13.757  68.561  1.00  0.00    -0.225 A  
HETATM   22  C   UNL     1      -7.688  13.178  68.687  1.00  0.00    -0.073 A  
HETATM   23  H   UNL     1      -5.397  14.128  69.220  1.00  0.00     0.000 HD 
HETATM   24  O   UNL     1      -6.083  14.778  69.317  1.00  0.00    -0.099 OA 
HETATM   25  C   UNL     1      -7.392  14.471  69.088  1.00  0.00    -0.133 A  
HETATM   26  C   UNL     1      -8.396  15.422  69.229  1.00  0.00    -0.254 A  
HETATM   27  C   UNL     1      -9.721  15.067  68.961  1.00  0.00    -0.229 A  
HETATM   28  C   UNL     1      -9.008  12.820  68.417  1.00  0.00    -0.120 A  
ENDBRANCH   9  21
ENDBRANCH   6   9
TORSDOF 2
ENDMDL
MODEL       19
REMARK 921   NORMALIZED FREE ENERGY PREDICTED BY IDOCK:   -6.63 KCAL/MOL
REMARK 922        TOTAL FREE ENERGY PREDICTED BY IDOCK:   -8.16 KCAL/MOL
REMARK 923 INTER-LIGAND FREE ENERGY PREDICTED BY IDOCK:   -7.29 KCAL/MOL
REMARK 924 INTRA-LIGAND FREE ENERGY PREDICTED BY IDOCK:   -0.87 KCAL/MOL
REMARK 927      BINDING AFFINITY PREDICTED BY RF-SCORE:    0.00 PKD
ROOT
HETATM    1  O   UNL     1      -9.018   7.770  65.085  1.00  0.00    -0.382 OA 
HETATM    2  C   UNL     1      -9.235   8.926  65.773  1.00  0.00    -0.221 A  
HETATM    3  H   UNL     1      -8.428   7.730  64.341  1.00  0.00     0.000 HD 
HETATM    4  C   UNL     1     -10.097   8.984  66.861  1.00  0.00    -0.338 A  
HETATM    5  C   UNL     1     -10.317  10.209  67.509  1.00  0.00    -0.279 A  
HETATM    6  C   UNL     1      -9.683  11.393  67.078  1.00  0.00    -0.210 A  
HETATM    7  C   UNL     1      -8.816  11.287  65.970  1.00  0.00    -0.189 A  
HETATM    8  C   UNL     1      -8.581  10.065  65.334  1.00  0.00    -0.162 A  
ENDROOT
BRANCH   6   9
HETATM    9  C   UNL     1     -10.088  12.779  67.667  1.00  0.00    -0.220 C  
HETATM   10  O   UNL     1      -7.679  13.483  67.917  1.00  0.00    -0.122 OA 
HETATM   11  O   UNL     1     -11.026  12.553  68.765  1.00  0.00    -0.240 OA 
HETATM   12  C   UNL     1      -8.865  13.623  68.213  1.00  0.00    -0.179 C  
HETATM   13  C   UNL     1     -11.316  13.665  69.520  1.00  0.00    -0.214 A  
HETATM   14  H   UNL     1      -8.542  15.452  69.142  1.00  0.00     0.000 HD 
HETATM   15  C   UNL     1     -12.494  13.659  70.263  1.00  0.00    -0.335 A  
HETATM   16  C   UNL     1     -12.837  14.775  71.034  1.00  0.00    -0.415 A  
HETATM   17  N   UNL     1      -9.212  14.695  69.000  1.00  0.00    -0.154 N  
HETATM   18  C   UNL     1     -10.460  14.764  69.604  1.00  0.00    -0.111 A  
HETATM   19  C   UNL     1     -10.803  15.886  70.355  1.00  0.00    -0.325 A  
HETATM   20  C   UNL     1     -12.004  15.895  71.062  1.00  0.00    -0.453 A  
BRANCH   9  21
HETATM   21  C   UNL     1     -10.805  13.551  66.514  1.00  0.00    -0.283 A  
HETATM   22  C   UNL     1     -12.778  13.924  65.132  1.00  0.00    -0.434 A  
HETATM   23  H   UNL     1     -13.735  15.438  63.334  1.00  0.00     0.000 HD 
HETATM   24  O   UNL     1     -12.856  15.697  63.588  1.00  0.00    -0.397 OA 
HETATM   25  C   UNL     1     -12.155  15.009  64.534  1.00  0.00    -0.363 A  
HETATM   26  C   UNL     1     -10.871  15.387  64.904  1.00  0.00    -0.445 A  
HETATM   27  C   UNL     1     -10.200  14.664  65.895  1.00  0.00    -0.344 A  
HETATM   28  C   UNL     1     -12.114  13.201  66.121  1.00  0.00    -0.479 A  
ENDBRANCH   9  21
ENDBRANCH   6   9
TORSDOF 2
ENDMDL
MODEL       20
REMARK 921   NORMALIZED FREE ENERGY PREDICTED BY IDOCK:   -6.62 KCAL/MOL
REMARK 922        TOTAL FREE ENERGY PREDICTED BY IDOCK:   -8.15 KCAL/MOL
REMARK 923 INTER-LIGAND FREE ENERGY PREDICTED BY IDOCK:   -7.71 KCAL/MOL
REMARK 924 INTRA-LIGAND FREE ENERGY PREDICTED BY IDOCK:   -0.43 KCAL/MOL
REMARK 927      BINDING AFFINITY PREDICTED BY RF-SCORE:    0.00 PKD
ROOT
HETATM    1  O   UNL     1     -13.713  10.013  72.595  1.00  0.00    -0.628 OA 
HETATM    2  C   UNL     1     -13.050  10.788  71.691  1.00  0.00    -0.446 A  
HETATM    3  H   UNL     1     -13.656   9.064  72.581  1.00  0.00     0.000 HD 
HETATM    4  C   UNL     1     -13.134  12.175  71.711  1.00  0.00    -0.457 A  
HETATM    5  C   UNL     1     -12.464  12.925  70.732  1.00  0.00    -0.370 A  
HETATM    6  C   UNL     1     -11.707  12.302  69.718  1.00  0.00    -0.368 A  
HETATM    7  C   UNL     1     -11.650  10.893  69.738  1.00  0.00    -0.399 A  
HETATM    8  C   UNL     1     -12.300  10.144  70.722  1.00  0.00    -0.422 A  
ENDROOT
BRANCH   6   9
HETATM    9  C   UNL     1     -11.140  13.125  68.520  1.00  0.00    -0.266 C  
HETATM   10  O   UNL     1     -10.354  14.976  70.042  1.00  0.00    -0.184 OA 
HETATM   11  O   UNL     1     -12.190  13.243  67.510  1.00  0.00    -0.304 OA 
HETATM   12  C   UNL     1     -10.655  14.578  68.917  1.00  0.00    -0.249 C  
HETATM   13  C   UNL     1     -11.913  14.116  66.484  1.00  0.00    -0.442 A  
HETATM   14  H   UNL     1      -9.854  16.249  67.980  1.00  0.00     0.000 HD 
HETATM   15  C   UNL     1     -12.612  13.960  65.289  1.00  0.00    -0.508 A  
HETATM   16  C   UNL     1     -12.352  14.816  64.213  1.00  0.00    -0.345 A  
HETATM   17  N   UNL     1     -10.438  15.423  67.854  1.00  0.00    -0.251 N  
HETATM   18  C   UNL     1     -11.004  15.167  66.612  1.00  0.00    -0.318 A  
HETATM   19  C   UNL     1     -10.727  16.013  65.541  1.00  0.00    -0.374 A  
HETATM   20  C   UNL     1     -11.396  15.827  64.332  1.00  0.00    -0.274 A  
BRANCH   9  21
HETATM   21  C   UNL     1      -9.949  12.296  67.945  1.00  0.00    -0.202 A  
HETATM   22  C   UNL     1      -9.074  10.708  66.314  1.00  0.00    -0.186 A  
HETATM   23  H   UNL     1      -6.937   9.606  65.506  1.00  0.00     0.000 HD 
HETATM   24  O   UNL     1      -6.778  10.206  66.226  1.00  0.00    -0.090 OA 
HETATM   25  C   UNL     1      -7.796  10.895  66.817  1.00  0.00    -0.141 A  
HETATM   26  C   UNL     1      -7.564  11.771  67.870  1.00  0.00    -0.121 A  
HETATM   27  C   UNL     1      -8.636  12.473  68.429  1.00  0.00    -0.123 A  
HETATM   28  C   UNL     1     -10.146  11.407  66.868  1.00  0.00    -0.245 A  
ENDBRANCH   9  21
ENDBRANCH   6   9
TORSDOF 2
ENDMDL
MODEL       21
REMARK 921   NORMALIZED FREE ENERGY PREDICTED BY IDOCK:   -6.53 KCAL/MOL
REMARK 922        TOTAL FREE ENERGY PREDICTED BY IDOCK:   -8.05 KCAL/MOL
REMARK 923 INTER-LIGAND FREE ENERGY PREDICTED BY IDOCK:   -7.56 KCAL/MOL
REMARK 924 INTRA-LIGAND FREE ENERGY PREDICTED BY IDOCK:   -0.49 KCAL/MOL
REMARK 927      BINDING AFFINITY PREDICTED BY RF-SCORE:    0.00 PKD
ROOT
HETATM    1  O   UNL     1     -14.149  13.230  72.949  1.00  0.00    -0.638 OA 
HETATM    2  C   UNL     1     -13.360  13.086  71.847  1.00  0.00    -0.446 A  
HETATM    3  H   UNL     1     -14.377  12.493  73.504  1.00  0.00     0.000 HD 
HETATM    4  C   UNL     1     -13.026  14.163  71.036  1.00  0.00    -0.399 A  
HETATM    5  C   UNL     1     -12.245  13.954  69.889  1.00  0.00    -0.393 A  
HETATM    6  C   UNL     1     -11.792  12.666  69.533  1.00  0.00    -0.376 A  
HETATM    7  C   UNL     1     -12.155  11.603  70.385  1.00  0.00    -0.462 A  
HETATM    8  C   UNL     1     -12.917  11.811  71.539  1.00  0.00    -0.446 A  
ENDROOT
BRANCH   6   9
HETATM    9  C   UNL     1     -11.105  12.410  68.156  1.00  0.00    -0.247 C  
HETATM   10  O   UNL     1      -9.395  14.218  68.568  1.00  0.00    -0.201 OA 
HETATM   11  O   UNL     1     -12.136  12.435  67.120  1.00  0.00    -0.532 OA 
HETATM   12  C   UNL     1      -9.994  13.476  67.789  1.00  0.00    -0.232 C  
HETATM   13  C   UNL     1     -11.662  12.431  65.829  1.00  0.00    -0.414 A  
HETATM   14  H   UNL     1      -8.698  13.878  66.217  1.00  0.00     0.000 HD 
HETATM   15  C   UNL     1     -12.523  12.006  64.820  1.00  0.00    -0.113 A  
HETATM   16  C   UNL     1     -12.078  11.970  63.494  1.00  0.00    -0.628 A  
HETATM   17  N   UNL     1      -9.591  13.458  66.475  1.00  0.00    -0.272 N  
HETATM   18  C   UNL     1     -10.383  12.877  65.493  1.00  0.00    -0.291 A  
HETATM   19  C   UNL     1      -9.927  12.829  64.178  1.00  0.00    -0.152 A  
HETATM   20  C   UNL     1     -10.776  12.361  63.177  1.00  0.00    -0.059 A  
BRANCH   9  21
HETATM   21  C   UNL     1     -10.478  10.983  68.239  1.00  0.00    -0.212 A  
HETATM   22  C   UNL     1     -10.520   8.620  67.638  1.00  0.00    -0.311 A  
HETATM   23  H   UNL     1      -9.203   6.460  67.824  1.00  0.00     0.000 HD 
HETATM   24  O   UNL     1      -8.757   7.186  68.244  1.00  0.00    -0.128 OA 
HETATM   25  C   UNL     1      -9.299   8.437  68.269  1.00  0.00    -0.134 A  
HETATM   26  C   UNL     1      -8.648   9.499  68.885  1.00  0.00    -0.128 A  
HETATM   27  C   UNL     1      -9.233  10.769  68.865  1.00  0.00    -0.180 A  
HETATM   28  C   UNL     1     -11.106   9.885  67.615  1.00  0.00    -0.170 A  
ENDBRANCH   9  21
ENDBRANCH   6   9
TORSDOF 2
ENDMDL
MODEL       22
REMARK 921   NORMALIZED FREE ENERGY PREDICTED BY IDOCK:   -6.50 KCAL/MOL
REMARK 922        TOTAL FREE ENERGY PREDICTED BY IDOCK:   -8.01 KCAL/MOL
REMARK 923 INTER-LIGAND FREE ENERGY PREDICTED BY IDOCK:   -8.22 KCAL/MOL
REMARK 924 INTRA-LIGAND FREE ENERGY PREDICTED BY IDOCK:    0.21 KCAL/MOL
REMARK 927      BINDING AFFINITY PREDICTED BY RF-SCORE:    0.00 PKD
ROOT
HETATM    1  O   UNL     1      -9.563  21.340  67.434  1.00  0.00    -0.581 OA 
HETATM    2  C   UNL     1      -9.810  20.002  67.369  1.00  0.00    -0.422 A  
HETATM    3  H   UNL     1      -9.782  21.927  66.719  1.00  0.00     0.000 HD 
HETATM    4  C   UNL     1      -9.490  19.144  68.414  1.00  0.00    -0.425 A  
HETATM    5  C   UNL     1      -9.727  17.768  68.281  1.00  0.00    -0.320 A  
HETATM    6  C   UNL     1     -10.281  17.227  67.101  1.00  0.00    -0.319 A  
HETATM    7  C   UNL     1     -10.589  18.135  66.067  1.00  0.00    -0.278 A  
HETATM    8  C   UNL     1     -10.372  19.509  66.204  1.00  0.00    -0.614 A  
ENDROOT
BRANCH   6   9
HETATM    9  C   UNL     1     -10.348  15.685  66.880  1.00  0.00    -0.293 C  
HETATM   10  O   UNL     1      -7.836  15.469  66.964  1.00  0.00    -0.205 OA 
HETATM   11  O   UNL     1     -11.185  15.427  65.710  1.00  0.00    -0.298 OA 
HETATM   12  C   UNL     1      -8.935  15.011  66.649  1.00  0.00    -0.281 C  
HETATM   13  C   UNL     1     -11.174  14.127  65.263  1.00  0.00    -0.326 A  
HETATM   14  H   UNL     1      -8.170  13.120  66.260  1.00  0.00     0.000 HD 
HETATM   15  C   UNL     1     -12.242  13.697  64.480  1.00  0.00    -0.444 A  
HETATM   16  C   UNL     1     -12.280  12.378  64.016  1.00  0.00    -0.579 A  
HETATM   17  N   UNL     1      -8.982  13.728  66.158  1.00  0.00     0.121 N  
HETATM   18  C   UNL     1     -10.121  13.248  65.524  1.00  0.00    -0.263 A  
HETATM   19  C   UNL     1     -10.159  11.928  65.080  1.00  0.00    -0.293 A  
HETATM   20  C   UNL     1     -11.251  11.489  64.334  1.00  0.00    -0.327 A  
BRANCH   9  21
HETATM   21  C   UNL     1     -11.027  15.091  68.154  1.00  0.00    -0.281 A  
HETATM   22  C   UNL     1     -12.642  15.286  69.972  1.00  0.00    -0.277 A  
HETATM   23  H   UNL     1     -13.671  14.014  71.910  1.00  0.00     0.000 HD 
HETATM   24  O   UNL     1     -13.031  13.491  71.441  1.00  0.00    -0.348 OA 
HETATM   25  C   UNL     1     -12.351  13.990  70.369  1.00  0.00    -0.359 A  
HETATM   26  C   UNL     1     -11.415  13.226  69.683  1.00  0.00    -0.267 A  
HETATM   27  C   UNL     1     -10.760  13.772  68.576  1.00  0.00    -0.274 A  
HETATM   28  C   UNL     1     -11.991  15.835  68.867  1.00  0.00    -0.268 A  
ENDBRANCH   9  21
ENDBRANCH   6   9
TORSDOF 2
ENDMDL
MODEL       23
REMARK 921   NORMALIZED FREE ENERGY PREDICTED BY IDOCK:   -6.49 KCAL/MOL
REMARK 922        TOTAL FREE ENERGY PREDICTED BY IDOCK:   -8.00 KCAL/MOL
REMARK 923 INTER-LIGAND FREE ENERGY PREDICTED BY IDOCK:   -7.06 KCAL/MOL
REMARK 924 INTRA-LIGAND FREE ENERGY PREDICTED BY IDOCK:   -0.94 KCAL/MOL
REMARK 927      BINDING AFFINITY PREDICTED BY RF-SCORE:    0.00 PKD
ROOT
HETATM    1  O   UNL     1     -13.113  13.256  65.158  1.00  0.00    -0.705 OA 
HETATM    2  C   UNL     1     -12.226  14.190  65.605  1.00  0.00    -0.435 A  
HETATM    3  H   UNL     1     -13.565  12.667  65.751  1.00  0.00     0.000 HD 
HETATM    4  C   UNL     1     -11.565  15.050  64.738  1.00  0.00    -0.395 A  
HETATM    5  C   UNL     1     -10.631  15.966  65.246  1.00  0.00    -0.441 A  
HETATM    6  C   UNL     1     -10.340  16.031  66.626  1.00  0.00    -0.299 A  
HETATM    7  C   UNL     1     -11.035  15.138  67.467  1.00  0.00    -0.310 A  
HETATM    8  C   UNL     1     -11.980  14.239  66.967  1.00  0.00    -0.463 A  
ENDROOT
BRANCH   6   9
HETATM    9  C   UNL     1      -9.158  16.900  67.155  1.00  0.00    -0.217 C  
HETATM   10  O   UNL     1     -10.647  18.082  68.813  1.00  0.00    -0.249 OA 
HETATM   11  O   UNL     1      -8.499  17.523  66.009  1.00  0.00    -0.500 OA 
HETATM   12  C   UNL     1      -9.603  18.037  68.162  1.00  0.00    -0.301 C  
HETATM   13  C   UNL     1      -7.567  18.483  66.325  1.00  0.00    -0.255 A  
HETATM   14  H   UNL     1      -8.722  19.577  69.241  1.00  0.00     0.000 HD 
HETATM   15  C   UNL     1      -6.600  18.792  65.372  1.00  0.00    -0.282 A  
HETATM   16  C   UNL     1      -5.622  19.751  65.657  1.00  0.00    -0.183 A  
HETATM   17  N   UNL     1      -8.648  18.996  68.406  1.00  0.00    -0.336 N  
HETATM   18  C   UNL     1      -7.586  19.183  67.533  1.00  0.00    -0.236 A  
HETATM   19  C   UNL     1      -6.606  20.128  67.831  1.00  0.00    -0.298 A  
HETATM   20  C   UNL     1      -5.612  20.402  66.893  1.00  0.00    -0.201 A  
BRANCH   9  21
HETATM   21  C   UNL     1      -8.171  15.914  67.856  1.00  0.00    -0.151 A  
HETATM   22  C   UNL     1      -7.286  14.906  69.892  1.00  0.00    -0.069 A  
HETATM   23  H   UNL     1      -5.690  13.125  70.741  1.00  0.00     0.000 HD 
HETATM   24  O   UNL     1      -5.711  13.162  69.792  1.00  0.00    -0.099 OA 
HETATM   25  C   UNL     1      -6.496  14.058  69.130  1.00  0.00    -0.113 A  
HETATM   26  C   UNL     1      -6.526  14.113  67.742  1.00  0.00    -0.181 A  
HETATM   27  C   UNL     1      -7.364  15.034  67.107  1.00  0.00    -0.104 A  
HETATM   28  C   UNL     1      -8.125  15.825  69.264  1.00  0.00    -0.241 A  
ENDBRANCH   9  21
ENDBRANCH   6   9
TORSDOF 2
ENDMDL
MODEL       24
REMARK 921   NORMALIZED FREE ENERGY PREDICTED BY IDOCK:   -6.46 KCAL/MOL
REMARK 922        TOTAL FREE ENERGY PREDICTED BY IDOCK:   -7.97 KCAL/MOL
REMARK 923 INTER-LIGAND FREE ENERGY PREDICTED BY IDOCK:   -7.69 KCAL/MOL
REMARK 924 INTRA-LIGAND FREE ENERGY PREDICTED BY IDOCK:   -0.29 KCAL/MOL
REMARK 927      BINDING AFFINITY PREDICTED BY RF-SCORE:    0.00 PKD
ROOT
HETATM    1  O   UNL     1     -12.427  13.919  62.709  1.00  0.00    -0.901 OA 
HETATM    2  C   UNL     1     -11.941  13.325  63.835  1.00  0.00    -0.483 A  
HETATM    3  H   UNL     1     -13.129  14.559  62.740  1.00  0.00     0.000 HD 
HETATM    4  C   UNL     1     -10.916  12.390  63.789  1.00  0.00    -0.501 A  
HETATM    5  C   UNL     1     -10.480  11.777  64.974  1.00  0.00    -0.332 A  
HETATM    6  C   UNL     1     -11.067  12.085  66.220  1.00  0.00    -0.363 A  
HETATM    7  C   UNL     1     -12.105  13.040  66.218  1.00  0.00    -0.453 A  
HETATM    8  C   UNL     1     -12.527  13.666  65.042  1.00  0.00    -0.454 A  
ENDROOT
BRANCH   6   9
HETATM    9  C   UNL     1     -10.724  11.254  67.495  1.00  0.00    -0.232 C  
HETATM   10  O   UNL     1     -10.258   9.183  66.134  1.00  0.00    -0.272 OA 
HETATM   11  O   UNL     1     -11.817  11.414  68.453  1.00  0.00    -0.463 OA 
HETATM   12  C   UNL     1     -10.520   9.710  67.214  1.00  0.00    -0.258 C  
HETATM   13  C   UNL     1     -11.760  10.579  69.543  1.00  0.00    -0.241 A  
HETATM   14  H   UNL     1     -10.104   7.986  68.294  1.00  0.00     0.000 HD 
HETATM   15  C   UNL     1     -12.463  10.952  70.687  1.00  0.00    -0.460 A  
HETATM   16  C   UNL     1     -12.421  10.140  71.825  1.00  0.00    -0.455 A  
HETATM   17  N   UNL     1     -10.518   8.917  68.337  1.00  0.00    -0.207 N  
HETATM   18  C   UNL     1     -11.073   9.364  69.529  1.00  0.00    -0.112 A  
HETATM   19  C   UNL     1     -11.012   8.559  70.664  1.00  0.00    -0.268 A  
HETATM   20  C   UNL     1     -11.680   8.956  71.821  1.00  0.00    -0.432 A  
BRANCH   9  21
HETATM   21  C   UNL     1      -9.417  11.874  68.081  1.00  0.00    -0.195 A  
HETATM   22  C   UNL     1      -7.095  11.627  68.786  1.00  0.00    -0.106 A  
HETATM   23  H   UNL     1      -5.080  12.929  69.609  1.00  0.00     0.000 HD 
HETATM   24  O   UNL     1      -5.828  13.493  69.451  1.00  0.00    -0.084 OA 
HETATM   25  C   UNL     1      -7.018  12.992  69.014  1.00  0.00    -0.056 A  
HETATM   26  C   UNL     1      -8.113  13.817  68.782  1.00  0.00    -0.022 A  
HETATM   27  C   UNL     1      -9.306  13.260  68.312  1.00  0.00    -0.205 A  
HETATM   28  C   UNL     1      -8.283  11.067  68.316  1.00  0.00    -0.130 A  
ENDBRANCH   9  21
ENDBRANCH   6   9
TORSDOF 2
ENDMDL
MODEL       25
REMARK 921   NORMALIZED FREE ENERGY PREDICTED BY IDOCK:   -6.44 KCAL/MOL
REMARK 922        TOTAL FREE ENERGY PREDICTED BY IDOCK:   -7.95 KCAL/MOL
REMARK 923 INTER-LIGAND FREE ENERGY PREDICTED BY IDOCK:   -7.13 KCAL/MOL
REMARK 924 INTRA-LIGAND FREE ENERGY PREDICTED BY IDOCK:   -0.81 KCAL/MOL
REMARK 927      BINDING AFFINITY PREDICTED BY RF-SCORE:    0.00 PKD
ROOT
HETATM    1  O   UNL     1     -11.169   6.836  68.752  1.00  0.00    -0.488 OA 
HETATM    2  C   UNL     1     -10.773   8.125  68.553  1.00  0.00    -0.014 A  
HETATM    3  H   UNL     1     -11.209   6.207  68.041  1.00  0.00     0.000 HD 
HETATM    4  C   UNL     1     -10.715   9.044  69.593  1.00  0.00    -0.228 A  
HETATM    5  C   UNL     1     -10.340  10.370  69.327  1.00  0.00    -0.250 A  
HETATM    6  C   UNL     1     -10.024  10.797  68.020  1.00  0.00    -0.183 A  
HETATM    7  C   UNL     1     -10.097   9.830  66.997  1.00  0.00    -0.277 A  
HETATM    8  C   UNL     1     -10.452   8.504  67.261  1.00  0.00    -0.366 A  
ENDROOT
BRANCH   6   9
HETATM    9  C   UNL     1      -9.813  12.309  67.700  1.00  0.00    -0.196 C  
HETATM   10  O   UNL     1      -7.355  11.966  67.248  1.00  0.00    -0.127 OA 
HETATM   11  O   UNL     1     -10.374  13.092  68.799  1.00  0.00    -0.216 OA 
HETATM   12  C   UNL     1      -8.294  12.716  67.514  1.00  0.00    -0.177 C  
HETATM   13  C   UNL     1     -10.082  14.435  68.764  1.00  0.00    -0.234 A  
HETATM   14  H   UNL     1      -7.190  14.432  67.131  1.00  0.00     0.000 HD 
HETATM   15  C   UNL     1     -10.912  15.301  69.473  1.00  0.00    -0.280 A  
HETATM   16  C   UNL     1     -10.661  16.678  69.452  1.00  0.00    -0.331 A  
HETATM   17  N   UNL     1      -8.054  14.069  67.533  1.00  0.00    -0.174 N  
HETATM   18  C   UNL     1      -8.971  14.949  68.092  1.00  0.00    -0.176 A  
HETATM   19  C   UNL     1      -8.725  16.319  68.054  1.00  0.00    -0.178 A  
HETATM   20  C   UNL     1      -9.583  17.188  68.727  1.00  0.00    -0.269 A  
BRANCH   9  21
HETATM   21  C   UNL     1     -10.612  12.595  66.390  1.00  0.00    -0.272 A  
HETATM   22  C   UNL     1     -12.656  13.333  65.282  1.00  0.00    -0.528 A  
HETATM   23  H   UNL     1     -13.652  13.850  63.007  1.00  0.00     0.000 HD 
HETATM   24  O   UNL     1     -12.746  13.572  62.944  1.00  0.00    -0.569 OA 
HETATM   25  C   UNL     1     -12.025  13.235  64.052  1.00  0.00    -0.465 A  
HETATM   26  C   UNL     1     -10.700  12.828  63.960  1.00  0.00    -0.457 A  
HETATM   27  C   UNL     1      -9.994  12.514  65.125  1.00  0.00    -0.212 A  
HETATM   28  C   UNL     1     -11.956  13.022  66.447  1.00  0.00    -0.466 A  
ENDBRANCH   9  21
ENDBRANCH   6   9
TORSDOF 2
ENDMDL
MODEL       26
REMARK 921   NORMALIZED FREE ENERGY PREDICTED BY IDOCK:   -6.41 KCAL/MOL
REMARK 922        TOTAL FREE ENERGY PREDICTED BY IDOCK:   -7.92 KCAL/MOL
REMARK 923 INTER-LIGAND FREE ENERGY PREDICTED BY IDOCK:   -7.00 KCAL/MOL
REMARK 924 INTRA-LIGAND FREE ENERGY PREDICTED BY IDOCK:   -0.92 KCAL/MOL
REMARK 927      BINDING AFFINITY PREDICTED BY RF-SCORE:    0.00 PKD
ROOT
HETATM    1  O   UNL     1      -9.415   3.364  67.478  1.00  0.00    -0.205 OA 
HETATM    2  C   UNL     1      -9.924   4.410  68.187  1.00  0.00     0.001 A  
HETATM    3  H   UNL     1      -9.016   2.614  67.904  1.00  0.00     0.000 HD 
HETATM    4  C   UNL     1     -10.508   5.506  67.564  1.00  0.00    -0.269 A  
HETATM    5  C   UNL     1     -10.980   6.577  68.339  1.00  0.00    -0.358 A  
HETATM    6  C   UNL     1     -10.870   6.570  69.746  1.00  0.00    -0.351 A  
HETATM    7  C   UNL     1     -10.271   5.438  70.335  1.00  0.00    -0.332 A  
HETATM    8  C   UNL     1      -9.818   4.362  69.566  1.00  0.00    -0.258 A  
ENDROOT
BRANCH   6   9
HETATM    9  C   UNL     1     -11.205   7.844  70.581  1.00  0.00    -0.263 C  
HETATM   10  O   UNL     1     -13.175   6.719  71.682  1.00  0.00    -0.314 OA 
HETATM   11  O   UNL     1     -11.276   8.984  69.669  1.00  0.00    -0.132 OA 
HETATM   12  C   UNL     1     -12.570   7.746  71.376  1.00  0.00    -0.317 C  
HETATM   13  C   UNL     1     -11.766  10.142  70.224  1.00  0.00    -0.282 A  
HETATM   14  H   UNL     1     -13.719   8.941  72.626  1.00  0.00     0.000 HD 
HETATM   15  C   UNL     1     -11.456  11.347  69.597  1.00  0.00    -0.380 A  
HETATM   16  C   UNL     1     -11.919  12.552  70.136  1.00  0.00    -0.377 A  
HETATM   17  N   UNL     1     -13.036   8.942  71.869  1.00  0.00    -0.356 N  
HETATM   18  C   UNL     1     -12.591  10.150  71.350  1.00  0.00    -0.422 A  
HETATM   19  C   UNL     1     -13.042  11.347  71.902  1.00  0.00    -0.505 A  
HETATM   20  C   UNL     1     -12.693  12.553  71.298  1.00  0.00    -0.350 A  
BRANCH   9  21
HETATM   21  C   UNL     1     -10.016   8.040  71.574  1.00  0.00    -0.225 A  
HETATM   22  C   UNL     1      -9.094   7.866  73.825  1.00  0.00    -0.306 A  
HETATM   23  H   UNL     1      -6.959   8.147  75.166  1.00  0.00     0.000 HD 
HETATM   24  O   UNL     1      -6.829   8.342  74.245  1.00  0.00    -0.141 OA 
HETATM   25  C   UNL     1      -7.854   8.263  73.349  1.00  0.00    -0.144 A  
HETATM   26  C   UNL     1      -7.665   8.549  72.002  1.00  0.00    -0.141 A  
HETATM   27  C   UNL     1      -8.741   8.433  71.117  1.00  0.00    -0.194 A  
HETATM   28  C   UNL     1     -10.169   7.746  72.945  1.00  0.00    -0.377 A  
ENDBRANCH   9  21
ENDBRANCH   6   9
TORSDOF 2
ENDMDL
MODEL       27
REMARK 921   NORMALIZED FREE ENERGY PREDICTED BY IDOCK:   -6.32 KCAL/MOL
REMARK 922        TOTAL FREE ENERGY PREDICTED BY IDOCK:   -7.82 KCAL/MOL
REMARK 923 INTER-LIGAND FREE ENERGY PREDICTED BY IDOCK:   -7.43 KCAL/MOL
REMARK 924 INTRA-LIGAND FREE ENERGY PREDICTED BY IDOCK:   -0.38 KCAL/MOL
REMARK 927      BINDING AFFINITY PREDICTED BY RF-SCORE:    0.00 PKD
ROOT
HETATM    1  O   UNL     1     -13.158  15.404  74.008  1.00  0.00    -0.628 OA 
HETATM    2  C   UNL     1     -12.592  15.237  72.780  1.00  0.00    -0.391 A  
HETATM    3  H   UNL     1     -13.722  14.744  74.396  1.00  0.00     0.000 HD 
HETATM    4  C   UNL     1     -11.768  16.202  72.214  1.00  0.00    -0.564 A  
HETATM    5  C   UNL     1     -11.242  15.999  70.928  1.00  0.00    -0.365 A  
HETATM    6  C   UNL     1     -11.538  14.834  70.188  1.00  0.00    -0.338 A  
HETATM    7  C   UNL     1     -12.379  13.884  70.803  1.00  0.00    -0.449 A  
HETATM    8  C   UNL     1     -12.887  14.074  72.091  1.00  0.00    -0.410 A  
ENDROOT
BRANCH   6   9
HETATM    9  C   UNL     1     -11.125  14.711  68.689  1.00  0.00    -0.262 C  
HETATM   10  O   UNL     1     -11.006  17.215  68.418  1.00  0.00    -0.337 OA 
HETATM   11  O   UNL     1     -12.080  13.827  68.023  1.00  0.00    -0.362 OA 
HETATM   12  C   UNL     1     -11.092  16.093  67.920  1.00  0.00    -0.293 C  
HETATM   13  C   UNL     1     -11.971  13.782  66.653  1.00  0.00    -0.431 A  
HETATM   14  H   UNL     1     -10.709  16.784  66.000  1.00  0.00     0.000 HD 
HETATM   15  C   UNL     1     -12.500  12.676  65.993  1.00  0.00     0.029 A  
HETATM   16  C   UNL     1     -12.399  12.581  64.601  1.00  0.00    -0.547 A  
HETATM   17  N   UNL     1     -11.031  15.988  66.551  1.00  0.00    -0.161 N  
HETATM   18  C   UNL     1     -11.401  14.815  65.907  1.00  0.00    -0.331 A  
HETATM   19  C   UNL     1     -11.281  14.720  64.522  1.00  0.00    -0.283 A  
HETATM   20  C   UNL     1     -11.771  13.591  63.869  1.00  0.00    -0.415 A  
BRANCH   9  21
HETATM   21  C   UNL     1      -9.708  14.055  68.680  1.00  0.00    -0.179 A  
HETATM   22  C   UNL     1      -8.297  12.079  68.443  1.00  0.00    -0.151 A  
HETATM   23  H   UNL     1      -5.880  11.320  68.331  1.00  0.00     0.000 HD 
HETATM   24  O   UNL     1      -5.952  12.261  68.439  1.00  0.00    -0.052 OA 
HETATM   25  C   UNL     1      -7.166  12.876  68.532  1.00  0.00    -0.107 A  
HETATM   26  C   UNL     1      -7.273  14.252  68.691  1.00  0.00    -0.125 A  
HETATM   27  C   UNL     1      -8.539  14.840  68.759  1.00  0.00    -0.170 A  
HETATM   28  C   UNL     1      -9.563  12.662  68.508  1.00  0.00    -0.112 A  
ENDBRANCH   9  21
ENDBRANCH   6   9
TORSDOF 2
ENDMDL
MODEL       28
REMARK 921   NORMALIZED FREE ENERGY PREDICTED BY IDOCK:   -6.31 KCAL/MOL
REMARK 922        TOTAL FREE ENERGY PREDICTED BY IDOCK:   -7.80 KCAL/MOL
REMARK 923 INTER-LIGAND FREE ENERGY PREDICTED BY IDOCK:   -6.90 KCAL/MOL
REMARK 924 INTRA-LIGAND FREE ENERGY PREDICTED BY IDOCK:   -0.91 KCAL/MOL
REMARK 927      BINDING AFFINITY PREDICTED BY RF-SCORE:    0.00 PKD
ROOT
HETATM    1  O   UNL     1     -14.059   8.912  73.383  1.00  0.00    -1.256 OA 
HETATM    2  C   UNL     1     -13.068   9.016  72.453  1.00  0.00    -0.423 A  
HETATM    3  H   UNL     1     -14.092   8.193  74.004  1.00  0.00     0.000 HD 
HETATM    4  C   UNL     1     -13.019  10.067  71.546  1.00  0.00    -0.535 A  
HETATM    5  C   UNL     1     -12.000  10.105  70.581  1.00  0.00    -0.423 A  
HETATM    6  C   UNL     1     -11.021   9.092  70.506  1.00  0.00    -0.307 A  
HETATM    7  C   UNL     1     -11.110   8.046  71.446  1.00  0.00    -0.278 A  
HETATM    8  C   UNL     1     -12.113   8.015  72.420  1.00  0.00    -0.374 A  
ENDROOT
BRANCH   6   9
HETATM    9  C   UNL     1     -10.022   9.031  69.309  1.00  0.00    -0.188 C  
HETATM   10  O   UNL     1      -8.085   9.725  70.768  1.00  0.00    -0.271 OA 
HETATM   11  O   UNL     1     -10.580   9.813  68.207  1.00  0.00    -0.209 OA 
HETATM   12  C   UNL     1      -8.582   9.593  69.650  1.00  0.00    -0.187 C  
HETATM   13  C   UNL     1      -9.722  10.027  67.154  1.00  0.00    -0.174 A  
HETATM   14  H   UNL     1      -6.774   9.900  68.677  1.00  0.00     0.000 HD 
HETATM   15  C   UNL     1     -10.277  10.347  65.917  1.00  0.00    -0.302 A  
HETATM   16  C   UNL     1      -9.442  10.557  64.814  1.00  0.00    -0.312 A  
HETATM   17  N   UNL     1      -7.784   9.832  68.557  1.00  0.00    -0.080 N  
HETATM   18  C   UNL     1      -8.334   9.981  67.291  1.00  0.00    -0.121 A  
HETATM   19  C   UNL     1      -7.497  10.173  66.193  1.00  0.00    -0.115 A  
HETATM   20  C   UNL     1      -8.056  10.449  64.947  1.00  0.00    -0.130 A  
BRANCH   9  21
HETATM   21  C   UNL     1      -9.930   7.529  68.893  1.00  0.00    -0.168 A  
HETATM   22  C   UNL     1     -10.802   5.630  67.636  1.00  0.00    -0.183 A  
HETATM   23  H   UNL     1     -10.318   3.217  67.018  1.00  0.00     0.000 HD 
HETATM   24  O   UNL     1      -9.642   3.584  67.576  1.00  0.00    -0.207 OA 
HETATM   25  C   UNL     1      -9.714   4.867  68.032  1.00  0.00    -0.151 A  
HETATM   26  C   UNL     1      -8.725   5.405  68.848  1.00  0.00    -0.099 A  
HETATM   27  C   UNL     1      -8.831   6.732  69.272  1.00  0.00    -0.137 A  
HETATM   28  C   UNL     1     -10.910   6.955  68.056  1.00  0.00    -0.266 A  
ENDBRANCH   9  21
ENDBRANCH   6   9
TORSDOF 2
ENDMDL
MODEL       29
REMARK 921   NORMALIZED FREE ENERGY PREDICTED BY IDOCK:   -6.31 KCAL/MOL
REMARK 922        TOTAL FREE ENERGY PREDICTED BY IDOCK:   -7.80 KCAL/MOL
REMARK 923 INTER-LIGAND FREE ENERGY PREDICTED BY IDOCK:   -7.08 KCAL/MOL
REMARK 924 INTRA-LIGAND FREE ENERGY PREDICTED BY IDOCK:   -0.73 KCAL/MOL
REMARK 927      BINDING AFFINITY PREDICTED BY RF-SCORE:    0.00 PKD
ROOT
HETATM    1  O   UNL     1     -13.374  13.202  72.088  1.00  0.00    -0.482 OA 
HETATM    2  C   UNL     1     -12.603  13.083  70.970  1.00  0.00    -0.299 A  
HETATM    3  H   UNL     1     -13.642  12.445  72.596  1.00  0.00     0.000 HD 
HETATM    4  C   UNL     1     -12.211  14.189  70.227  1.00  0.00    -0.416 A  
HETATM    5  C   UNL     1     -11.451  14.010  69.061  1.00  0.00    -0.337 A  
HETATM    6  C   UNL     1     -11.077  12.723  68.618  1.00  0.00    -0.304 A  
HETATM    7  C   UNL     1     -11.498  11.630  69.403  1.00  0.00    -0.372 A  
HETATM    8  C   UNL     1     -12.238  11.807  70.576  1.00  0.00    -0.438 A  
ENDROOT
BRANCH   6   9
HETATM    9  C   UNL     1     -10.417  12.517  67.220  1.00  0.00    -0.220 C  
HETATM   10  O   UNL     1     -12.648  12.093  66.123  1.00  0.00    -0.094 OA 
HETATM   11  O   UNL     1      -9.339  11.539  67.363  1.00  0.00    -0.164 OA 
HETATM   12  C   UNL     1     -11.420  12.005  66.108  1.00  0.00    -0.339 C  
HETATM   13  C   UNL     1      -8.796  11.097  66.180  1.00  0.00    -0.190 A  
HETATM   14  H   UNL     1     -11.361  11.466  64.104  1.00  0.00     0.000 HD 
HETATM   15  C   UNL     1      -7.518  10.543  66.217  1.00  0.00    -0.133 A  
HETATM   16  C   UNL     1      -6.919  10.095  65.035  1.00  0.00    -0.135 A  
HETATM   17  N   UNL     1     -10.820  11.531  64.966  1.00  0.00    -0.292 N  
HETATM   18  C   UNL     1      -9.489  11.139  64.969  1.00  0.00    -0.227 A  
HETATM   19  C   UNL     1      -8.893  10.709  63.785  1.00  0.00    -0.178 A  
HETATM   20  C   UNL     1      -7.597  10.197  63.818  1.00  0.00    -0.133 A  
BRANCH   9  21
HETATM   21  C   UNL     1      -9.819  13.901  66.812  1.00  0.00    -0.274 A  
HETATM   22  C   UNL     1     -10.054  16.053  65.690  1.00  0.00    -0.384 A  
HETATM   23  H   UNL     1      -8.888  18.273  65.305  1.00  0.00     0.000 HD 
HETATM   24  O   UNL     1      -8.374  17.691  65.853  1.00  0.00    -0.536 OA 
HETATM   25  C   UNL     1      -8.814  16.442  66.175  1.00  0.00    -0.314 A  
HETATM   26  C   UNL     1      -8.063  15.590  66.976  1.00  0.00    -0.272 A  
HETATM   27  C   UNL     1      -8.566  14.327  67.297  1.00  0.00    -0.229 A  
HETATM   28  C   UNL     1     -10.560  14.794  66.010  1.00  0.00    -0.318 A  
ENDBRANCH   9  21
ENDBRANCH   6   9
TORSDOF 2
ENDMDL
MODEL       30
REMARK 921   NORMALIZED FREE ENERGY PREDICTED BY IDOCK:   -6.23 KCAL/MOL
REMARK 922        TOTAL FREE ENERGY PREDICTED BY IDOCK:   -7.71 KCAL/MOL
REMARK 923 INTER-LIGAND FREE ENERGY PREDICTED BY IDOCK:   -6.77 KCAL/MOL
REMARK 924 INTRA-LIGAND FREE ENERGY PREDICTED BY IDOCK:   -0.94 KCAL/MOL
REMARK 927      BINDING AFFINITY PREDICTED BY RF-SCORE:    0.00 PKD
ROOT
HETATM    1  O   UNL     1      -7.736   7.610  66.487  1.00  0.00    -0.093 OA 
HETATM    2  C   UNL     1      -8.184   8.822  66.920  1.00  0.00    -0.108 A  
HETATM    3  H   UNL     1      -7.254   7.514  65.674  1.00  0.00     0.000 HD 
HETATM    4  C   UNL     1      -8.889   8.963  68.108  1.00  0.00    -0.134 A  
HETATM    5  C   UNL     1      -9.364  10.228  68.489  1.00  0.00    -0.155 A  
HETATM    6  C   UNL     1      -9.146  11.367  67.685  1.00  0.00    -0.155 A  
HETATM    7  C   UNL     1      -8.426  11.176  66.488  1.00  0.00    -0.165 A  
HETATM    8  C   UNL     1      -7.935   9.922  66.116  1.00  0.00    -0.109 A  
ENDROOT
BRANCH   6   9
HETATM    9  C   UNL     1      -9.850  12.721  68.007  1.00  0.00    -0.226 C  
HETATM   10  O   UNL     1      -7.649  13.947  68.119  1.00  0.00    -0.109 OA 
HETATM   11  O   UNL     1     -10.762  12.507  69.129  1.00  0.00    -0.153 OA 
HETATM   12  C   UNL     1      -8.849  13.888  68.385  1.00  0.00    -0.177 C  
HETATM   13  C   UNL     1     -11.304  13.651  69.665  1.00  0.00    -0.161 A  
HETATM   14  H   UNL     1      -8.946  15.881  68.958  1.00  0.00     0.000 HD 
HETATM   15  C   UNL     1     -12.482  13.534  70.398  1.00  0.00    -0.345 A  
HETATM   16  C   UNL     1     -13.077  14.675  70.948  1.00  0.00    -0.416 A  
HETATM   17  N   UNL     1      -9.439  14.988  68.960  1.00  0.00    -0.210 N  
HETATM   18  C   UNL     1     -10.696  14.903  69.542  1.00  0.00    -0.244 A  
HETATM   19  C   UNL     1     -11.291  16.045  70.072  1.00  0.00    -0.353 A  
HETATM   20  C   UNL     1     -12.493  15.931  70.767  1.00  0.00    -0.311 A  
BRANCH   9  21
HETATM   21  C   UNL     1     -10.667  13.103  66.732  1.00  0.00    -0.274 A  
HETATM   22  C   UNL     1     -10.919  14.440  64.708  1.00  0.00    -0.409 A  
HETATM   23  H   UNL     1     -12.369  14.742  62.649  1.00  0.00     0.000 HD 
HETATM   24  O   UNL     1     -12.682  14.038  63.205  1.00  0.00    -0.750 OA 
HETATM   25  C   UNL     1     -12.051  13.716  64.370  1.00  0.00    -0.427 A  
HETATM   26  C   UNL     1     -12.510  12.687  65.184  1.00  0.00    -0.531 A  
HETATM   27  C   UNL     1     -11.817  12.378  66.358  1.00  0.00    -0.421 A  
HETATM   28  C   UNL     1     -10.223  14.134  65.878  1.00  0.00    -0.332 A  
ENDBRANCH   9  21
ENDBRANCH   6   9
TORSDOF 2
ENDMDL
MODEL       31
REMARK 921   NORMALIZED FREE ENERGY PREDICTED BY IDOCK:   -6.20 KCAL/MOL
REMARK 922        TOTAL FREE ENERGY PREDICTED BY IDOCK:   -7.68 KCAL/MOL
REMARK 923 INTER-LIGAND FREE ENERGY PREDICTED BY IDOCK:   -7.29 KCAL/MOL
REMARK 924 INTRA-LIGAND FREE ENERGY PREDICTED BY IDOCK:   -0.39 KCAL/MOL
REMARK 927      BINDING AFFINITY PREDICTED BY RF-SCORE:    0.00 PKD
ROOT
HETATM    1  O   UNL     1      -8.695   8.856  62.335  1.00  0.00    -0.271 OA 
HETATM    2  C   UNL     1      -9.235   9.730  63.231  1.00  0.00    -0.181 A  
HETATM    3  H   UNL     1      -8.534   7.946  62.555  1.00  0.00     0.000 HD 
HETATM    4  C   UNL     1      -9.469  11.061  62.910  1.00  0.00    -0.378 A  
HETATM    5  C   UNL     1      -9.988  11.930  63.882  1.00  0.00    -0.354 A  
HETATM    6  C   UNL     1     -10.275  11.483  65.189  1.00  0.00    -0.322 A  
HETATM    7  C   UNL     1     -10.021  10.125  65.470  1.00  0.00    -0.363 A  
HETATM    8  C   UNL     1      -9.522   9.253  64.498  1.00  0.00     0.179 A  
ENDROOT
BRANCH   6   9
HETATM    9  C   UNL     1     -10.653  12.493  66.316  1.00  0.00    -0.248 C  
HETATM   10  O   UNL     1     -12.939  12.887  65.326  1.00  0.00    -0.703 OA 
HETATM   11  O   UNL     1      -9.586  13.487  66.416  1.00  0.00    -0.270 OA 
HETATM   12  C   UNL     1     -12.023  13.245  66.067  1.00  0.00    -0.423 C  
HETATM   13  C   UNL     1      -9.868  14.564  67.222  1.00  0.00    -0.236 A  
HETATM   14  H   UNL     1     -13.179  14.698  66.996  1.00  0.00     0.000 HD 
HETATM   15  C   UNL     1      -8.798  15.299  67.727  1.00  0.00    -0.174 A  
HETATM   16  C   UNL     1      -9.039  16.394  68.565  1.00  0.00    -0.223 A  
HETATM   17  N   UNL     1     -12.232  14.341  66.869  1.00  0.00    -0.411 N  
HETATM   18  C   UNL     1     -11.173  14.969  67.510  1.00  0.00    -0.330 A  
HETATM   19  C   UNL     1     -11.420  16.048  68.357  1.00  0.00    -0.331 A  
HETATM   20  C   UNL     1     -10.346  16.754  68.897  1.00  0.00    -0.317 A  
BRANCH   9  21
HETATM   21  C   UNL     1     -10.724  11.666  67.638  1.00  0.00    -0.249 A  
HETATM   22  C   UNL     1      -9.604  10.440  69.425  1.00  0.00    -0.213 A  
HETATM   23  H   UNL     1     -10.009   9.264  71.636  1.00  0.00     0.000 HD 
HETATM   24  O   UNL     1     -10.810   9.623  71.271  1.00  0.00    -0.350 OA 
HETATM   25  C   UNL     1     -10.816  10.286  70.080  1.00  0.00    -0.307 A  
HETATM   26  C   UNL     1     -11.987  10.809  69.545  1.00  0.00    -0.364 A  
HETATM   27  C   UNL     1     -11.940  11.501  68.332  1.00  0.00    -0.268 A  
HETATM   28  C   UNL     1      -9.552  11.131  68.215  1.00  0.00    -0.185 A  
ENDBRANCH   9  21
ENDBRANCH   6   9
TORSDOF 2
ENDMDL
MODEL       32
REMARK 921   NORMALIZED FREE ENERGY PREDICTED BY IDOCK:   -6.16 KCAL/MOL
REMARK 922        TOTAL FREE ENERGY PREDICTED BY IDOCK:   -7.64 KCAL/MOL
REMARK 923 INTER-LIGAND FREE ENERGY PREDICTED BY IDOCK:   -6.88 KCAL/MOL
REMARK 924 INTRA-LIGAND FREE ENERGY PREDICTED BY IDOCK:   -0.75 KCAL/MOL
REMARK 927      BINDING AFFINITY PREDICTED BY RF-SCORE:    0.00 PKD
ROOT
HETATM    1  O   UNL     1      -6.536  10.432  67.803  1.00  0.00    -0.064 OA 
HETATM    2  C   UNL     1      -7.157  11.622  67.565  1.00  0.00    -0.111 A  
HETATM    3  H   UNL     1      -6.993   9.602  67.725  1.00  0.00     0.000 HD 
HETATM    4  C   UNL     1      -6.489  12.835  67.680  1.00  0.00    -0.152 A  
HETATM    5  C   UNL     1      -7.185  14.034  67.464  1.00  0.00    -0.183 A  
HETATM    6  C   UNL     1      -8.558  14.039  67.137  1.00  0.00    -0.220 A  
HETATM    7  C   UNL     1      -9.194  12.785  67.032  1.00  0.00    -0.221 A  
HETATM    8  C   UNL     1      -8.499  11.588  67.227  1.00  0.00    -0.152 A  
ENDROOT
BRANCH   6   9
HETATM    9  C   UNL     1      -9.369  15.371  67.104  1.00  0.00    -0.214 C  
HETATM   10  O   UNL     1     -10.475  14.752  64.923  1.00  0.00    -0.412 OA 
HETATM   11  O   UNL     1      -8.437  16.479  67.300  1.00  0.00    -0.172 OA 
HETATM   12  C   UNL     1     -10.156  15.605  65.750  1.00  0.00    -0.366 C  
HETATM   13  C   UNL     1      -8.968  17.729  67.091  1.00  0.00    -0.246 A  
HETATM   14  H   UNL     1     -11.377  17.057  64.905  1.00  0.00     0.000 HD 
HETATM   15  C   UNL     1      -8.323  18.818  67.673  1.00  0.00    -0.291 A  
HETATM   16  C   UNL     1      -8.838  20.107  67.498  1.00  0.00    -0.431 A  
HETATM   17  N   UNL     1     -10.624  16.885  65.572  1.00  0.00    -0.286 N  
HETATM   18  C   UNL     1     -10.088  17.948  66.286  1.00  0.00    -0.351 A  
HETATM   19  C   UNL     1     -10.616  19.227  66.122  1.00  0.00    -0.549 A  
HETATM   20  C   UNL     1      -9.994  20.309  66.742  1.00  0.00    -0.587 A  
BRANCH   9  21
HETATM   21  C   UNL     1     -10.367  15.305  68.303  1.00  0.00    -0.234 A  
HETATM   22  C   UNL     1     -12.522  14.628  69.221  1.00  0.00    -0.054 A  
HETATM   23  H   UNL     1     -13.867  14.532  71.370  1.00  0.00     0.000 HD 
HETATM   24  O   UNL     1     -13.005  14.908  71.506  1.00  0.00    -0.302 OA 
HETATM   25  C   UNL     1     -12.124  15.061  70.477  1.00  0.00    -0.326 A  
HETATM   26  C   UNL     1     -10.864  15.612  70.675  1.00  0.00    -0.319 A  
HETATM   27  C   UNL     1      -9.987  15.728  69.593  1.00  0.00    -0.284 A  
HETATM   28  C   UNL     1     -11.650  14.740  68.140  1.00  0.00    -0.356 A  
ENDBRANCH   9  21
ENDBRANCH   6   9
TORSDOF 2
ENDMDL
MODEL       33
REMARK 921   NORMALIZED FREE ENERGY PREDICTED BY IDOCK:   -6.10 KCAL/MOL
REMARK 922        TOTAL FREE ENERGY PREDICTED BY IDOCK:   -7.57 KCAL/MOL
REMARK 923 INTER-LIGAND FREE ENERGY PREDICTED BY IDOCK:   -6.98 KCAL/MOL
REMARK 924 INTRA-LIGAND FREE ENERGY PREDICTED BY IDOCK:   -0.59 KCAL/MOL
REMARK 927      BINDING AFFINITY PREDICTED BY RF-SCORE:    0.00 PKD
ROOT
HETATM    1  O   UNL     1     -13.976   8.891  73.324  1.00  0.00    -1.203 OA 
HETATM    2  C   UNL     1     -13.049   9.259  72.394  1.00  0.00    -0.406 A  
HETATM    3  H   UNL     1     -13.824   8.174  73.929  1.00  0.00     0.000 HD 
HETATM    4  C   UNL     1     -13.272  10.306  71.509  1.00  0.00    -0.484 A  
HETATM    5  C   UNL     1     -12.302  10.618  70.544  1.00  0.00    -0.448 A  
HETATM    6  C   UNL     1     -11.101   9.884  70.444  1.00  0.00    -0.382 A  
HETATM    7  C   UNL     1     -10.919   8.830  71.362  1.00  0.00    -0.360 A  
HETATM    8  C   UNL     1     -11.874   8.530  72.338  1.00  0.00    -0.437 A  
ENDROOT
BRANCH   6   9
HETATM    9  C   UNL     1     -10.128  10.099  69.244  1.00  0.00    -0.222 C  
HETATM   10  O   UNL     1     -10.784   7.901  68.197  1.00  0.00    -0.152 OA 
HETATM   11  O   UNL     1      -8.807  10.425  69.780  1.00  0.00    -0.108 OA 
HETATM   12  C   UNL     1      -9.992   8.837  68.298  1.00  0.00    -0.176 C  
HETATM   13  C   UNL     1      -7.792  10.440  68.853  1.00  0.00    -0.115 A  
HETATM   14  H   UNL     1      -8.937   8.289  66.596  1.00  0.00     0.000 HD 
HETATM   15  C   UNL     1      -6.638  11.157  69.161  1.00  0.00    -0.085 A  
HETATM   16  C   UNL     1      -5.586  11.213  68.240  1.00  0.00    -0.045 A  
HETATM   17  N   UNL     1      -8.933   8.885  67.424  1.00  0.00    -0.132 N  
HETATM   18  C   UNL     1      -7.857   9.733  67.651  1.00  0.00    -0.095 A  
HETATM   19  C   UNL     1      -6.821   9.797  66.722  1.00  0.00    -0.084 A  
HETATM   20  C   UNL     1      -5.686  10.552  67.014  1.00  0.00    -0.047 A  
BRANCH   9  21
HETATM   21  C   UNL     1     -10.685  11.317  68.443  1.00  0.00    -0.238 A  
HETATM   22  C   UNL     1     -10.870  13.728  68.123  1.00  0.00    -0.261 A  
HETATM   23  H   UNL     1     -11.784  15.497  66.551  1.00  0.00     0.000 HD 
HETATM   24  O   UNL     1     -11.966  14.618  66.241  1.00  0.00    -0.348 OA 
HETATM   25  C   UNL     1     -11.570  13.518  66.945  1.00  0.00    -0.363 A  
HETATM   26  C   UNL     1     -11.836  12.232  66.492  1.00  0.00    -0.378 A  
HETATM   27  C   UNL     1     -11.391  11.135  67.236  1.00  0.00    -0.302 A  
HETATM   28  C   UNL     1     -10.422  12.637  68.867  1.00  0.00    -0.109 A  
ENDBRANCH   9  21
ENDBRANCH   6   9
TORSDOF 2
ENDMDL
MODEL       34
REMARK 921   NORMALIZED FREE ENERGY PREDICTED BY IDOCK:   -6.10 KCAL/MOL
REMARK 922        TOTAL FREE ENERGY PREDICTED BY IDOCK:   -7.57 KCAL/MOL
REMARK 923 INTER-LIGAND FREE ENERGY PREDICTED BY IDOCK:   -6.77 KCAL/MOL
REMARK 924 INTRA-LIGAND FREE ENERGY PREDICTED BY IDOCK:   -0.80 KCAL/MOL
REMARK 927      BINDING AFFINITY PREDICTED BY RF-SCORE:    0.00 PKD
ROOT
HETATM    1  O   UNL     1      -5.485  11.776  70.813  1.00  0.00    -0.138 OA 
HETATM    2  C   UNL     1      -6.217  12.714  70.148  1.00  0.00    -0.026 A  
HETATM    3  H   UNL     1      -5.030  11.974  71.623  1.00  0.00     0.000 HD 
HETATM    4  C   UNL     1      -6.882  12.424  68.963  1.00  0.00    -0.093 A  
HETATM    5  C   UNL     1      -7.588  13.437  68.297  1.00  0.00    -0.135 A  
HETATM    6  C   UNL     1      -7.635  14.754  68.800  1.00  0.00    -0.137 A  
HETATM    7  C   UNL     1      -6.945  15.002  70.005  1.00  0.00    -0.096 A  
HETATM    8  C   UNL     1      -6.257  13.991  70.681  1.00  0.00    -0.096 A  
ENDROOT
BRANCH   6   9
HETATM    9  C   UNL     1      -8.242  15.915  67.954  1.00  0.00    -0.145 C  
HETATM   10  O   UNL     1      -6.211  16.014  66.462  1.00  0.00    -0.081 OA 
HETATM   11  O   UNL     1      -8.678  16.968  68.868  1.00  0.00    -0.263 OA 
HETATM   12  C   UNL     1      -7.230  16.539  66.908  1.00  0.00    -0.228 C  
HETATM   13  C   UNL     1      -9.046  18.147  68.263  1.00  0.00    -0.300 A  
HETATM   14  H   UNL     1      -7.212  18.061  65.496  1.00  0.00     0.000 HD 
HETATM   15  C   UNL     1      -9.875  19.013  68.973  1.00  0.00    -0.408 A  
HETATM   16  C   UNL     1     -10.287  20.216  68.390  1.00  0.00    -0.401 A  
HETATM   17  N   UNL     1      -7.627  17.740  66.370  1.00  0.00    -0.255 N  
HETATM   18  C   UNL     1      -8.586  18.523  67.000  1.00  0.00    -0.272 A  
HETATM   19  C   UNL     1      -9.005  19.711  66.406  1.00  0.00    -0.427 A  
HETATM   20  C   UNL     1      -9.871  20.554  67.101  1.00  0.00    -0.567 A  
BRANCH   9  21
HETATM   21  C   UNL     1      -9.479  15.315  67.215  1.00  0.00    -0.212 A  
HETATM   22  C   UNL     1     -11.750  14.428  67.278  1.00  0.00    -0.429 A  
HETATM   23  H   UNL     1     -13.651  13.624  65.803  1.00  0.00     0.000 HD 
HETATM   24  O   UNL     1     -12.897  13.898  65.294  1.00  0.00    -0.689 OA 
HETATM   25  C   UNL     1     -11.761  14.355  65.893  1.00  0.00    -0.369 A  
HETATM   26  C   UNL     1     -10.657  14.754  65.149  1.00  0.00    -0.439 A  
HETATM   27  C   UNL     1      -9.523  15.238  65.808  1.00  0.00    -0.310 A  
HETATM   28  C   UNL     1     -10.622  14.912  67.938  1.00  0.00    -0.254 A  
ENDBRANCH   9  21
ENDBRANCH   6   9
TORSDOF 2
ENDMDL
MODEL       35
REMARK 921   NORMALIZED FREE ENERGY PREDICTED BY IDOCK:   -6.07 KCAL/MOL
REMARK 922        TOTAL FREE ENERGY PREDICTED BY IDOCK:   -7.53 KCAL/MOL
REMARK 923 INTER-LIGAND FREE ENERGY PREDICTED BY IDOCK:   -7.04 KCAL/MOL
REMARK 924 INTRA-LIGAND FREE ENERGY PREDICTED BY IDOCK:   -0.49 KCAL/MOL
REMARK 927      BINDING AFFINITY PREDICTED BY RF-SCORE:    0.00 PKD
ROOT
HETATM    1  O   UNL     1     -14.091   8.945  73.336  1.00  0.00    -1.256 OA 
HETATM    2  C   UNL     1     -13.201   9.080  72.312  1.00  0.00    -0.460 A  
HETATM    3  H   UNL     1     -14.815   9.549  73.455  1.00  0.00     0.000 HD 
HETATM    4  C   UNL     1     -12.142   8.198  72.139  1.00  0.00    -0.408 A  
HETATM    5  C   UNL     1     -11.230   8.405  71.093  1.00  0.00    -0.307 A  
HETATM    6  C   UNL     1     -11.358   9.499  70.210  1.00  0.00    -0.284 A  
HETATM    7  C   UNL     1     -12.448  10.368  70.425  1.00  0.00    -0.348 A  
HETATM    8  C   UNL     1     -13.369  10.153  71.454  1.00  0.00    -0.413 A  
ENDROOT
BRANCH   6   9
HETATM    9  C   UNL     1     -10.232   9.839  69.187  1.00  0.00    -0.199 C  
HETATM   10  O   UNL     1     -10.651   7.724  67.879  1.00  0.00    -0.209 OA 
HETATM   11  O   UNL     1      -9.015  10.151  69.933  1.00  0.00    -0.185 OA 
HETATM   12  C   UNL     1      -9.917   8.667  68.171  1.00  0.00    -0.178 C  
HETATM   13  C   UNL     1      -7.879  10.270  69.168  1.00  0.00    -0.127 A  
HETATM   14  H   UNL     1      -8.609   8.293  66.602  1.00  0.00     0.000 HD 
HETATM   15  C   UNL     1      -6.808  10.986  69.699  1.00  0.00    -0.129 A  
HETATM   16  C   UNL     1      -5.637  11.146  68.948  1.00  0.00    -0.039 A  
HETATM   17  N   UNL     1      -8.745   8.816  67.467  1.00  0.00    -0.134 N  
HETATM   18  C   UNL     1      -7.745   9.667  67.916  1.00  0.00    -0.087 A  
HETATM   19  C   UNL     1      -6.590   9.836  67.156  1.00  0.00    -0.070 A  
HETATM   20  C   UNL     1      -5.537  10.590  67.671  1.00  0.00    -0.044 A  
BRANCH   9  21
HETATM   21  C   UNL     1     -10.713  11.108  68.414  1.00  0.00    -0.234 A  
HETATM   22  C   UNL     1     -11.759  12.116  66.455  1.00  0.00    -0.392 A  
HETATM   23  H   UNL     1     -12.574  14.323  65.506  1.00  0.00     0.000 HD 
HETATM   24  O   UNL     1     -12.207  14.424  66.376  1.00  0.00    -0.417 OA 
HETATM   25  C   UNL     1     -11.701  13.360  67.064  1.00  0.00    -0.381 A  
HETATM   26  C   UNL     1     -11.163  13.508  68.336  1.00  0.00    -0.309 A  
HETATM   27  C   UNL     1     -10.676  12.384  69.011  1.00  0.00    -0.140 A  
HETATM   28  C   UNL     1     -11.276  10.993  67.125  1.00  0.00    -0.290 A  
ENDBRANCH   9  21
ENDBRANCH   6   9
TORSDOF 2
ENDMDL
MODEL       36
REMARK 921   NORMALIZED FREE ENERGY PREDICTED BY IDOCK:   -6.06 KCAL/MOL
REMARK 922        TOTAL FREE ENERGY PREDICTED BY IDOCK:   -7.53 KCAL/MOL
REMARK 923 INTER-LIGAND FREE ENERGY PREDICTED BY IDOCK:   -7.04 KCAL/MOL
REMARK 924 INTRA-LIGAND FREE ENERGY PREDICTED BY IDOCK:   -0.49 KCAL/MOL
REMARK 927      BINDING AFFINITY PREDICTED BY RF-SCORE:    0.00 PKD
ROOT
HETATM    1  O   UNL     1     -13.271   9.907  72.633  1.00  0.00    -0.519 OA 
HETATM    2  C   UNL     1     -12.598  10.412  71.561  1.00  0.00    -0.439 A  
HETATM    3  H   UNL     1     -13.222   8.988  72.870  1.00  0.00     0.000 HD 
HETATM    4  C   UNL     1     -12.670  11.755  71.215  1.00  0.00    -0.420 A  
HETATM    5  C   UNL     1     -11.990  12.217  70.077  1.00  0.00    -0.391 A  
HETATM    6  C   UNL     1     -11.236  11.342  69.266  1.00  0.00    -0.342 A  
HETATM    7  C   UNL     1     -11.192   9.988  69.656  1.00  0.00    -0.285 A  
HETATM    8  C   UNL     1     -11.852   9.529  70.800  1.00  0.00    -0.350 A  
ENDROOT
BRANCH   6   9
HETATM    9  C   UNL     1     -10.659  11.817  67.897  1.00  0.00    -0.201 C  
HETATM   10  O   UNL     1     -12.390  13.639  67.692  1.00  0.00    -0.257 OA 
HETATM   11  O   UNL     1     -10.542  10.652  67.022  1.00  0.00    -0.241 OA 
HETATM   12  C   UNL     1     -11.549  12.906  67.172  1.00  0.00    -0.363 C  
HETATM   13  C   UNL     1     -10.242  10.938  65.711  1.00  0.00    -0.259 A  
HETATM   14  H   UNL     1     -11.532  13.982  65.396  1.00  0.00     0.000 HD 
HETATM   15  C   UNL     1      -9.681   9.927  64.935  1.00  0.00    -0.332 A  
HETATM   16  C   UNL     1      -9.345  10.178  63.599  1.00  0.00    -0.336 A  
HETATM   17  N   UNL     1     -11.236  13.118  65.850  1.00  0.00    -0.286 N  
HETATM   18  C   UNL     1     -10.522  12.174  65.125  1.00  0.00    -0.281 A  
HETATM   19  C   UNL     1     -10.176  12.437  63.801  1.00  0.00    -0.404 A  
HETATM   20  C   UNL     1      -9.573  11.437  63.040  1.00  0.00    -0.397 A  
BRANCH   9  21
HETATM   21  C   UNL     1      -9.239  12.392  68.197  1.00  0.00    -0.205 A  
HETATM   22  C   UNL     1      -7.804  14.277  68.779  1.00  0.00    -0.128 A  
HETATM   23  H   UNL     1      -5.416  14.897  69.369  1.00  0.00     0.000 HD 
HETATM   24  O   UNL     1      -5.513  13.965  69.208  1.00  0.00    -0.081 OA 
HETATM   25  C   UNL     1      -6.716  13.423  68.865  1.00  0.00    -0.110 A  
HETATM   26  C   UNL     1      -6.857  12.061  68.629  1.00  0.00    -0.091 A  
HETATM   27  C   UNL     1      -8.115  11.547  68.301  1.00  0.00    -0.148 A  
HETATM   28  C   UNL     1      -9.062  13.768  68.455  1.00  0.00    -0.175 A  
ENDBRANCH   9  21
ENDBRANCH   6   9
TORSDOF 2
ENDMDL
MODEL       37
REMARK 921   NORMALIZED FREE ENERGY PREDICTED BY IDOCK:   -6.03 KCAL/MOL
REMARK 922        TOTAL FREE ENERGY PREDICTED BY IDOCK:   -7.50 KCAL/MOL
REMARK 923 INTER-LIGAND FREE ENERGY PREDICTED BY IDOCK:   -6.69 KCAL/MOL
REMARK 924 INTRA-LIGAND FREE ENERGY PREDICTED BY IDOCK:   -0.81 KCAL/MOL
REMARK 927      BINDING AFFINITY PREDICTED BY RF-SCORE:    0.00 PKD
ROOT
HETATM    1  O   UNL     1     -14.394   9.028  73.064  1.00  0.00    -1.108 OA 
HETATM    2  C   UNL     1     -13.220   9.205  72.394  1.00  0.00    -0.444 A  
HETATM    3  H   UNL     1     -14.548   8.269  73.616  1.00  0.00     0.000 HD 
HETATM    4  C   UNL     1     -12.995  10.314  71.588  1.00  0.00    -0.570 A  
HETATM    5  C   UNL     1     -11.785  10.428  70.887  1.00  0.00    -0.455 A  
HETATM    6  C   UNL     1     -10.786   9.435  70.976  1.00  0.00    -0.407 A  
HETATM    7  C   UNL     1     -11.059   8.328  71.806  1.00  0.00    -0.342 A  
HETATM    8  C   UNL     1     -12.255   8.221  72.521  1.00  0.00    -0.367 A  
ENDROOT
BRANCH   6   9
HETATM    9  C   UNL     1      -9.540   9.466  70.039  1.00  0.00    -0.226 C  
HETATM   10  O   UNL     1      -7.983   8.883  71.936  1.00  0.00    -0.328 OA 
HETATM   11  O   UNL     1      -9.550  10.729  69.305  1.00  0.00    -0.187 OA 
HETATM   12  C   UNL     1      -8.161   9.338  70.806  1.00  0.00    -0.169 C  
HETATM   13  C   UNL     1      -8.406  10.996  68.591  1.00  0.00    -0.153 A  
HETATM   14  H   UNL     1      -6.135   9.331  70.351  1.00  0.00     0.000 HD 
HETATM   15  C   UNL     1      -8.491  11.906  67.539  1.00  0.00    -0.161 A  
HETATM   16  C   UNL     1      -7.355  12.195  66.775  1.00  0.00     0.079 A  
HETATM   17  N   UNL     1      -7.054   9.661  70.058  1.00  0.00    -0.087 N  
HETATM   18  C   UNL     1      -7.169  10.431  68.908  1.00  0.00    -0.082 A  
HETATM   19  C   UNL     1      -6.038  10.702  68.142  1.00  0.00    -0.050 A  
HETATM   20  C   UNL     1      -6.136  11.578  67.063  1.00  0.00    -0.131 A  
BRANCH   9  21
HETATM   21  C   UNL     1      -9.714   8.277  69.041  1.00  0.00    -0.167 A  
HETATM   22  C   UNL     1      -9.330   5.943  68.451  1.00  0.00    -0.124 A  
HETATM   23  H   UNL     1      -9.897   4.170  66.727  1.00  0.00     0.000 HD 
HETATM   24  O   UNL     1     -10.308   5.004  66.529  1.00  0.00    -0.244 OA 
HETATM   25  C   UNL     1     -10.124   6.096  67.325  1.00  0.00    -0.165 A  
HETATM   26  C   UNL     1     -10.724   7.315  67.036  1.00  0.00    -0.406 A  
HETATM   27  C   UNL     1     -10.524   8.401  67.894  1.00  0.00    -0.255 A  
HETATM   28  C   UNL     1      -9.129   7.022  69.311  1.00  0.00    -0.137 A  
ENDBRANCH   9  21
ENDBRANCH   6   9
TORSDOF 2
ENDMDL
MODEL       38
REMARK 921   NORMALIZED FREE ENERGY PREDICTED BY IDOCK:   -6.02 KCAL/MOL
REMARK 922        TOTAL FREE ENERGY PREDICTED BY IDOCK:   -7.48 KCAL/MOL
REMARK 923 INTER-LIGAND FREE ENERGY PREDICTED BY IDOCK:   -7.31 KCAL/MOL
REMARK 924 INTRA-LIGAND FREE ENERGY PREDICTED BY IDOCK:   -0.16 KCAL/MOL
REMARK 927      BINDING AFFINITY PREDICTED BY RF-SCORE:    0.00 PKD
ROOT
HETATM    1  O   UNL     1      -6.931  19.699  68.725  1.00  0.00    -0.312 OA 
HETATM    2  C   UNL     1      -7.657  18.578  68.456  1.00  0.00    -0.306 A  
HETATM    3  H   UNL     1      -7.064  20.510  68.248  1.00  0.00     0.000 HD 
HETATM    4  C   UNL     1      -7.463  17.391  69.153  1.00  0.00    -0.117 A  
HETATM    5  C   UNL     1      -8.208  16.253  68.809  1.00  0.00    -0.227 A  
HETATM    6  C   UNL     1      -9.153  16.282  67.760  1.00  0.00    -0.195 A  
HETATM    7  C   UNL     1      -9.316  17.507  67.082  1.00  0.00    -0.250 A  
HETATM    8  C   UNL     1      -8.589  18.647  67.435  1.00  0.00    -0.281 A  
ENDROOT
BRANCH   6   9
HETATM    9  C   UNL     1      -9.823  14.970  67.249  1.00  0.00    -0.228 C  
HETATM   10  O   UNL     1      -7.650  13.697  67.386  1.00  0.00    -0.167 OA 
HETATM   11  O   UNL     1     -10.552  15.278  66.020  1.00  0.00    -0.295 OA 
HETATM   12  C   UNL     1      -8.796  13.804  66.949  1.00  0.00    -0.188 C  
HETATM   13  C   UNL     1     -11.026  14.183  65.336  1.00  0.00    -0.327 A  
HETATM   14  H   UNL     1      -8.837  11.853  66.238  1.00  0.00     0.000 HD 
HETATM   15  C   UNL     1     -12.078  14.377  64.445  1.00  0.00    -0.491 A  
HETATM   16  C   UNL     1     -12.602  13.288  63.739  1.00  0.00    -0.216 A  
HETATM   17  N   UNL     1      -9.310  12.757  66.222  1.00  0.00    -0.199 N  
HETATM   18  C   UNL     1     -10.464  12.911  65.466  1.00  0.00    -0.289 A  
HETATM   19  C   UNL     1     -10.991  11.820  64.779  1.00  0.00    -0.360 A  
HETATM   20  C   UNL     1     -12.073  12.009  63.921  1.00  0.00    -0.557 A  
BRANCH   9  21
HETATM   21  C   UNL     1     -10.828  14.531  68.360  1.00  0.00    -0.250 A  
HETATM   22  C   UNL     1     -11.796  12.785  69.761  1.00  0.00    -0.380 A  
HETATM   23  H   UNL     1     -13.403  12.390  71.683  1.00  0.00     0.000 HD 
HETATM   24  O   UNL     1     -13.337  13.311  71.458  1.00  0.00    -0.333 OA 
HETATM   25  C   UNL     1     -12.534  13.740  70.442  1.00  0.00    -0.314 A  
HETATM   26  C   UNL     1     -12.438  15.086  70.112  1.00  0.00    -0.356 A  
HETATM   27  C   UNL     1     -11.584  15.480  69.078  1.00  0.00    -0.377 A  
HETATM   28  C   UNL     1     -10.941  13.174  68.730  1.00  0.00    -0.298 A  
ENDBRANCH   9  21
ENDBRANCH   6   9
TORSDOF 2
ENDMDL
MODEL       39
REMARK 921   NORMALIZED FREE ENERGY PREDICTED BY IDOCK:   -6.01 KCAL/MOL
REMARK 922        TOTAL FREE ENERGY PREDICTED BY IDOCK:   -7.47 KCAL/MOL
REMARK 923 INTER-LIGAND FREE ENERGY PREDICTED BY IDOCK:   -6.73 KCAL/MOL
REMARK 924 INTRA-LIGAND FREE ENERGY PREDICTED BY IDOCK:   -0.74 KCAL/MOL
REMARK 927      BINDING AFFINITY PREDICTED BY RF-SCORE:    0.00 PKD
ROOT
HETATM    1  O   UNL     1     -12.405  14.691  68.340  1.00  0.00    -0.603 OA 
HETATM    2  C   UNL     1     -11.961  13.404  68.414  1.00  0.00    -0.324 A  
HETATM    3  H   UNL     1     -12.551  15.125  67.507  1.00  0.00     0.000 HD 
HETATM    4  C   UNL     1     -11.747  12.770  69.631  1.00  0.00    -0.372 A  
HETATM    5  C   UNL     1     -11.250  11.458  69.653  1.00  0.00    -0.301 A  
HETATM    6  C   UNL     1     -10.955  10.763  68.460  1.00  0.00    -0.291 A  
HETATM    7  C   UNL     1     -11.188  11.447  67.249  1.00  0.00    -0.370 A  
HETATM    8  C   UNL     1     -11.701  12.747  67.224  1.00  0.00    -0.440 A  
ENDROOT
BRANCH   6   9
HETATM    9  C   UNL     1     -10.212   9.392  68.494  1.00  0.00    -0.199 C  
HETATM   10  O   UNL     1      -7.974  10.489  68.108  1.00  0.00    -0.106 OA 
HETATM   11  O   UNL     1     -10.885   8.484  67.568  1.00  0.00    -0.198 OA 
HETATM   12  C   UNL     1      -8.684   9.484  68.091  1.00  0.00    -0.120 C  
HETATM   13  C   UNL     1     -10.226   7.302  67.330  1.00  0.00    -0.253 A  
HETATM   14  H   UNL     1      -7.071   8.199  67.850  1.00  0.00     0.000 HD 
HETATM   15  C   UNL     1     -10.968   6.226  66.849  1.00  0.00    -0.404 A  
HETATM   16  C   UNL     1     -10.341   4.999  66.608  1.00  0.00    -0.312 A  
HETATM   17  N   UNL     1      -8.087   8.276  67.820  1.00  0.00    -0.125 N  
HETATM   18  C   UNL     1      -8.848   7.158  67.506  1.00  0.00    -0.119 A  
HETATM   19  C   UNL     1      -8.219   5.935  67.284  1.00  0.00    -0.105 A  
HETATM   20  C   UNL     1      -8.973   4.848  66.846  1.00  0.00    -0.109 A  
BRANCH   9  21
HETATM   21  C   UNL     1     -10.354   8.854  69.953  1.00  0.00    -0.215 A  
HETATM   22  C   UNL     1     -11.622   7.627  71.636  1.00  0.00    -0.301 A  
HETATM   23  H   UNL     1     -11.513   6.755  74.016  1.00  0.00     0.000 HD 
HETATM   24  O   UNL     1     -10.718   7.212  73.767  1.00  0.00    -0.361 OA 
HETATM   25  C   UNL     1     -10.573   7.770  72.531  1.00  0.00    -0.293 A  
HETATM   26  C   UNL     1      -9.411   8.439  72.168  1.00  0.00    -0.360 A  
HETATM   27  C   UNL     1      -9.300   8.975  70.881  1.00  0.00    -0.326 A  
HETATM   28  C   UNL     1     -11.515   8.159  70.351  1.00  0.00    -0.126 A  
ENDBRANCH   9  21
ENDBRANCH   6   9
TORSDOF 2
ENDMDL
MODEL       40
REMARK 921   NORMALIZED FREE ENERGY PREDICTED BY IDOCK:   -5.95 KCAL/MOL
REMARK 922        TOTAL FREE ENERGY PREDICTED BY IDOCK:   -7.40 KCAL/MOL
REMARK 923 INTER-LIGAND FREE ENERGY PREDICTED BY IDOCK:   -7.24 KCAL/MOL
REMARK 924 INTRA-LIGAND FREE ENERGY PREDICTED BY IDOCK:   -0.17 KCAL/MOL
REMARK 927      BINDING AFFINITY PREDICTED BY RF-SCORE:    0.00 PKD
ROOT
HETATM    1  O   UNL     1      -9.496   8.914  65.267  1.00  0.00    -0.447 OA 
HETATM    2  C   UNL     1      -9.569  10.259  65.470  1.00  0.00    -0.242 A  
HETATM    3  H   UNL     1      -9.939   8.490  64.541  1.00  0.00     0.000 HD 
HETATM    4  C   UNL     1      -8.922  10.879  66.531  1.00  0.00    -0.178 A  
HETATM    5  C   UNL     1      -9.063  12.262  66.720  1.00  0.00    -0.211 A  
HETATM    6  C   UNL     1      -9.857  13.045  65.855  1.00  0.00    -0.243 A  
HETATM    7  C   UNL     1     -10.496  12.373  64.792  1.00  0.00    -0.333 A  
HETATM    8  C   UNL     1     -10.341  10.999  64.590  1.00  0.00    -0.410 A  
ENDROOT
BRANCH   6   9
HETATM    9  C   UNL     1     -10.176  14.534  66.188  1.00  0.00    -0.305 C  
HETATM   10  O   UNL     1     -11.975  14.642  64.424  1.00  0.00    -0.457 OA 
HETATM   11  O   UNL     1      -8.922  15.285  66.172  1.00  0.00    -0.301 OA 
HETATM   12  C   UNL     1     -11.186  15.213  65.176  1.00  0.00    -0.389 C  
HETATM   13  C   UNL     1      -9.062  16.651  66.244  1.00  0.00    -0.298 A  
HETATM   14  H   UNL     1     -12.061  17.073  64.881  1.00  0.00     0.000 HD 
HETATM   15  C   UNL     1      -7.969  17.396  66.680  1.00  0.00    -0.293 A  
HETATM   16  C   UNL     1      -8.072  18.788  66.784  1.00  0.00    -0.274 A  
HETATM   17  N   UNL     1     -11.251  16.584  65.260  1.00  0.00    -0.047 N  
HETATM   18  C   UNL     1     -10.229  17.312  65.854  1.00  0.00    -0.261 A  
HETATM   19  C   UNL     1     -10.344  18.695  65.970  1.00  0.00    -0.436 A  
HETATM   20  C   UNL     1      -9.264  19.434  66.450  1.00  0.00    -0.403 A  
BRANCH   9  21
HETATM   21  C   UNL     1     -10.773  14.541  67.631  1.00  0.00    -0.254 A  
HETATM   22  C   UNL     1     -12.498  13.838  69.205  1.00  0.00    -0.003 A  
HETATM   23  H   UNL     1     -13.148  13.899  71.656  1.00  0.00     0.000 HD 
HETATM   24  O   UNL     1     -12.322  14.340  71.496  1.00  0.00    -0.341 OA 
HETATM   25  C   UNL     1     -11.795  14.432  70.242  1.00  0.00    -0.313 A  
HETATM   26  C   UNL     1     -10.588  15.079  70.007  1.00  0.00    -0.178 A  
HETATM   27  C   UNL     1     -10.076  15.128  68.707  1.00  0.00    -0.226 A  
HETATM   28  C   UNL     1     -11.991  13.883  67.907  1.00  0.00    -0.393 A  
ENDBRANCH   9  21
ENDBRANCH   6   9
TORSDOF 2
ENDMDL
MODEL       41
REMARK 921   NORMALIZED FREE ENERGY PREDICTED BY IDOCK:   -5.85 KCAL/MOL
REMARK 922        TOTAL FREE ENERGY PREDICTED BY IDOCK:   -7.29 KCAL/MOL
REMARK 923 INTER-LIGAND FREE ENERGY PREDICTED BY IDOCK:   -6.65 KCAL/MOL
REMARK 924 INTRA-LIGAND FREE ENERGY PREDICTED BY IDOCK:   -0.65 KCAL/MOL
REMARK 927      BINDING AFFINITY PREDICTED BY RF-SCORE:    0.00 PKD
ROOT
HETATM    1  O   UNL     1     -10.477   5.325  69.307  1.00  0.00    -0.239 OA 
HETATM    2  C   UNL     1     -10.403   6.609  68.857  1.00  0.00    -0.193 A  
HETATM    3  H   UNL     1     -10.660   4.598  68.724  1.00  0.00     0.000 HD 
HETATM    4  C   UNL     1     -10.136   7.673  69.711  1.00  0.00    -0.196 A  
HETATM    5  C   UNL     1     -10.112   8.981  69.204  1.00  0.00    -0.201 A  
HETATM    6  C   UNL     1     -10.361   9.246  67.840  1.00  0.00    -0.279 A  
HETATM    7  C   UNL     1     -10.628   8.136  67.012  1.00  0.00    -0.346 A  
HETATM    8  C   UNL     1     -10.633   6.830  67.510  1.00  0.00    -0.348 A  
ENDROOT
BRANCH   6   9
HETATM    9  C   UNL     1     -10.538  10.708  67.327  1.00  0.00    -0.263 C  
HETATM   10  O   UNL     1     -11.841  11.371  69.383  1.00  0.00    -0.296 OA 
HETATM   11  O   UNL     1     -11.067  10.655  65.966  1.00  0.00     0.030 OA 
HETATM   12  C   UNL     1     -11.515  11.582  68.215  1.00  0.00    -0.299 C  
HETATM   13  C   UNL     1     -11.472  11.864  65.452  1.00  0.00    -0.251 A  
HETATM   14  H   UNL     1     -12.292  13.507  68.219  1.00  0.00     0.000 HD 
HETATM   15  C   UNL     1     -11.555  11.988  64.067  1.00  0.00    -0.495 A  
HETATM   16  C   UNL     1     -11.948  13.206  63.500  1.00  0.00    -0.580 A  
HETATM   17  N   UNL     1     -11.924  12.758  67.633  1.00  0.00    -0.331 N  
HETATM   18  C   UNL     1     -11.844  12.941  66.259  1.00  0.00    -0.416 A  
HETATM   19  C   UNL     1     -12.220  14.161  65.701  1.00  0.00    -0.449 A  
HETATM   20  C   UNL     1     -12.259  14.296  64.315  1.00  0.00    -0.451 A  
BRANCH   9  21
HETATM   21  C   UNL     1      -9.111  11.342  67.312  1.00  0.00    -0.156 A  
HETATM   22  C   UNL     1      -7.493  12.924  68.221  1.00  0.00    -0.125 A  
HETATM   23  H   UNL     1      -5.069  13.656  68.064  1.00  0.00     0.000 HD 
HETATM   24  O   UNL     1      -5.265  12.942  67.469  1.00  0.00    -0.209 OA 
HETATM   25  C   UNL     1      -6.516  12.405  67.386  1.00  0.00    -0.154 A  
HETATM   26  C   UNL     1      -6.802  11.361  66.515  1.00  0.00    -0.064 A  
HETATM   27  C   UNL     1      -8.094  10.828  66.482  1.00  0.00    -0.146 A  
HETATM   28  C   UNL     1      -8.783  12.394  68.192  1.00  0.00    -0.190 A  
ENDBRANCH   9  21
ENDBRANCH   6   9
TORSDOF 2
ENDMDL
MODEL       42
REMARK 921   NORMALIZED FREE ENERGY PREDICTED BY IDOCK:   -5.85 KCAL/MOL
REMARK 922        TOTAL FREE ENERGY PREDICTED BY IDOCK:   -7.29 KCAL/MOL
REMARK 923 INTER-LIGAND FREE ENERGY PREDICTED BY IDOCK:   -6.60 KCAL/MOL
REMARK 924 INTRA-LIGAND FREE ENERGY PREDICTED BY IDOCK:   -0.69 KCAL/MOL
REMARK 927      BINDING AFFINITY PREDICTED BY RF-SCORE:    0.00 PKD
ROOT
HETATM    1  O   UNL     1      -7.767  17.440  68.861  1.00  0.00    -0.257 OA 
HETATM    2  C   UNL     1      -8.261  16.184  68.672  1.00  0.00    -0.202 A  
HETATM    3  H   UNL     1      -8.333  18.203  68.895  1.00  0.00     0.000 HD 
HETATM    4  C   UNL     1      -7.434  15.069  68.622  1.00  0.00    -0.122 A  
HETATM    5  C   UNL     1      -7.989  13.802  68.384  1.00  0.00    -0.144 A  
HETATM    6  C   UNL     1      -9.376  13.632  68.186  1.00  0.00    -0.212 A  
HETATM    7  C   UNL     1     -10.176  14.792  68.245  1.00  0.00    -0.227 A  
HETATM    8  C   UNL     1      -9.628  16.052  68.502  1.00  0.00    -0.215 A  
ENDROOT
BRANCH   6   9
HETATM    9  C   UNL     1      -9.957  12.262  67.719  1.00  0.00    -0.200 C  
HETATM   10  O   UNL     1     -11.537  12.156  69.681  1.00  0.00    -0.298 OA 
HETATM   11  O   UNL     1      -8.840  11.351  67.475  1.00  0.00    -0.142 OA 
HETATM   12  C   UNL     1     -10.936  11.593  68.766  1.00  0.00    -0.226 C  
HETATM   13  C   UNL     1      -9.196  10.042  67.256  1.00  0.00    -0.141 A  
HETATM   14  H   UNL     1     -12.048   9.849  68.946  1.00  0.00     0.000 HD 
HETATM   15  C   UNL     1      -8.288   9.222  66.589  1.00  0.00    -0.122 A  
HETATM   16  C   UNL     1      -8.615   7.886  66.331  1.00  0.00    -0.156 A  
HETATM   17  N   UNL     1     -11.221  10.270  68.525  1.00  0.00    -0.241 N  
HETATM   18  C   UNL     1     -10.398   9.499  67.714  1.00  0.00    -0.239 A  
HETATM   19  C   UNL     1     -10.737   8.175  67.446  1.00  0.00    -0.247 A  
HETATM   20  C   UNL     1      -9.846   7.370  66.740  1.00  0.00    -0.290 A  
BRANCH   9  21
HETATM   21  C   UNL     1     -10.708  12.541  66.379  1.00  0.00    -0.275 A  
HETATM   22  C   UNL     1     -12.696  13.312  65.194  1.00  0.00    -0.464 A  
HETATM   23  H   UNL     1     -13.608  13.807  62.879  1.00  0.00     0.000 HD 
HETATM   24  O   UNL     1     -12.708  13.503  62.850  1.00  0.00    -0.569 OA 
HETATM   25  C   UNL     1     -12.031  13.170  63.986  1.00  0.00    -0.460 A  
HETATM   26  C   UNL     1     -10.716  12.724  63.943  1.00  0.00    -0.443 A  
HETATM   27  C   UNL     1     -10.055  12.416  65.136  1.00  0.00    -0.276 A  
HETATM   28  C   UNL     1     -12.040  13.008  66.387  1.00  0.00    -0.428 A  
ENDBRANCH   9  21
ENDBRANCH   6   9
TORSDOF 2
ENDMDL
MODEL       43
REMARK 921   NORMALIZED FREE ENERGY PREDICTED BY IDOCK:   -5.85 KCAL/MOL
REMARK 922        TOTAL FREE ENERGY PREDICTED BY IDOCK:   -7.29 KCAL/MOL
REMARK 923 INTER-LIGAND FREE ENERGY PREDICTED BY IDOCK:   -6.53 KCAL/MOL
REMARK 924 INTRA-LIGAND FREE ENERGY PREDICTED BY IDOCK:   -0.76 KCAL/MOL
REMARK 927      BINDING AFFINITY PREDICTED BY RF-SCORE:    0.00 PKD
ROOT
HETATM    1  O   UNL     1     -10.790   8.818  72.217  1.00  0.00    -0.352 OA 
HETATM    2  C   UNL     1     -10.624   9.514  71.057  1.00  0.00    -0.322 A  
HETATM    3  H   UNL     1     -11.603   8.846  72.708  1.00  0.00     0.000 HD 
HETATM    4  C   UNL     1      -9.435   9.475  70.340  1.00  0.00    -0.317 A  
HETATM    5  C   UNL     1      -9.301  10.243  69.173  1.00  0.00    -0.214 A  
HETATM    6  C   UNL     1     -10.350  11.065  68.710  1.00  0.00    -0.217 A  
HETATM    7  C   UNL     1     -11.538  11.074  69.470  1.00  0.00    -0.384 A  
HETATM    8  C   UNL     1     -11.681  10.295  70.622  1.00  0.00    -0.438 A  
ENDROOT
BRANCH   6   9
HETATM    9  C   UNL     1     -10.124  12.068  67.537  1.00  0.00    -0.195 C  
HETATM   10  O   UNL     1      -8.581  13.495  68.932  1.00  0.00     0.027 OA 
HETATM   11  O   UNL     1     -11.431  12.477  67.027  1.00  0.00    -0.313 OA 
HETATM   12  C   UNL     1      -9.316  13.364  67.953  1.00  0.00    -0.216 C  
HETATM   13  C   UNL     1     -11.405  13.517  66.128  1.00  0.00    -0.308 A  
HETATM   14  H   UNL     1      -8.652  15.121  67.068  1.00  0.00     0.000 HD 
HETATM   15  C   UNL     1     -12.495  13.669  65.274  1.00  0.00    -0.517 A  
HETATM   16  C   UNL     1     -12.503  14.704  64.333  1.00  0.00    -0.312 A  
HETATM   17  N   UNL     1      -9.362  14.389  67.038  1.00  0.00    -0.232 N  
HETATM   18  C   UNL     1     -10.360  14.442  66.075  1.00  0.00    -0.309 A  
HETATM   19  C   UNL     1     -10.353  15.465  65.130  1.00  0.00    -0.405 A  
HETATM   20  C   UNL     1     -11.425  15.588  64.246  1.00  0.00    -0.186 A  
BRANCH   9  21
HETATM   21  C   UNL     1      -9.352  11.282  66.432  1.00  0.00    -0.210 A  
HETATM   22  C   UNL     1      -7.248  10.509  65.471  1.00  0.00    -0.103 A  
HETATM   23  H   UNL     1      -6.274   9.041  63.645  1.00  0.00     0.000 HD 
HETATM   24  O   UNL     1      -7.225   9.036  63.637  1.00  0.00    -0.092 OA 
HETATM   25  C   UNL     1      -7.948   9.769  64.531  1.00  0.00    -0.144 A  
HETATM   26  C   UNL     1      -9.338   9.763  64.519  1.00  0.00    -0.298 A  
HETATM   27  C   UNL     1     -10.037  10.512  65.470  1.00  0.00    -0.349 A  
HETATM   28  C   UNL     1      -7.941  11.256  66.422  1.00  0.00    -0.125 A  
ENDBRANCH   9  21
ENDBRANCH   6   9
TORSDOF 2
ENDMDL
MODEL       44
REMARK 921   NORMALIZED FREE ENERGY PREDICTED BY IDOCK:   -5.83 KCAL/MOL
REMARK 922        TOTAL FREE ENERGY PREDICTED BY IDOCK:   -7.27 KCAL/MOL
REMARK 923 INTER-LIGAND FREE ENERGY PREDICTED BY IDOCK:   -6.72 KCAL/MOL
REMARK 924 INTRA-LIGAND FREE ENERGY PREDICTED BY IDOCK:   -0.56 KCAL/MOL
REMARK 927      BINDING AFFINITY PREDICTED BY RF-SCORE:    0.00 PKD
ROOT
HETATM    1  O   UNL     1      -9.607  10.091  62.331  1.00  0.00    -0.509 OA 
HETATM    2  C   UNL     1      -9.890  10.663  63.536  1.00  0.00    -0.326 A  
HETATM    3  H   UNL     1      -9.357   9.178  62.254  1.00  0.00     0.000 HD 
HETATM    4  C   UNL     1     -10.254  11.999  63.648  1.00  0.00    -0.470 A  
HETATM    5  C   UNL     1     -10.495  12.549  64.916  1.00  0.00    -0.328 A  
HETATM    6  C   UNL     1     -10.369  11.776  66.089  1.00  0.00    -0.266 A  
HETATM    7  C   UNL     1      -9.996  10.425  65.927  1.00  0.00    -0.317 A  
HETATM    8  C   UNL     1      -9.775   9.869  64.664  1.00  0.00    -0.265 A  
ENDROOT
BRANCH   6   9
HETATM    9  C   UNL     1     -10.433  12.441  67.499  1.00  0.00    -0.215 C  
HETATM   10  O   UNL     1     -12.074  10.721  68.339  1.00  0.00    -0.501 OA 
HETATM   11  O   UNL     1     -10.710  13.865  67.320  1.00  0.00    -0.280 OA 
HETATM   12  C   UNL     1     -11.542  11.825  68.445  1.00  0.00    -0.318 C  
HETATM   13  C   UNL     1     -11.001  14.550  68.475  1.00  0.00    -0.249 A  
HETATM   14  H   UNL     1     -12.284  12.134  70.360  1.00  0.00     0.000 HD 
HETATM   15  C   UNL     1     -10.833  15.933  68.474  1.00  0.00    -0.298 A  
HETATM   16  C   UNL     1     -11.103  16.668  69.633  1.00  0.00    -0.146 A  
HETATM   17  N   UNL     1     -11.826  12.575  69.562  1.00  0.00    -0.317 N  
HETATM   18  C   UNL     1     -11.499  13.923  69.619  1.00  0.00    -0.248 A  
HETATM   19  C   UNL     1     -11.753  14.646  70.783  1.00  0.00    -0.336 A  
HETATM   20  C   UNL     1     -11.541  16.023  70.792  1.00  0.00    -0.431 A  
BRANCH   9  21
HETATM   21  C   UNL     1      -9.019  12.257  68.133  1.00  0.00    -0.192 A  
HETATM   22  C   UNL     1      -6.845  13.176  68.748  1.00  0.00    -0.102 A  
HETATM   23  H   UNL     1      -4.688  12.631  69.969  1.00  0.00     0.000 HD 
HETATM   24  O   UNL     1      -5.302  11.906  69.989  1.00  0.00    -0.077 OA 
HETATM   25  C   UNL     1      -6.520  11.986  69.382  1.00  0.00    -0.115 A  
HETATM   26  C   UNL     1      -7.418  10.926  69.411  1.00  0.00    -0.105 A  
HETATM   27  C   UNL     1      -8.664  11.063  68.794  1.00  0.00    -0.146 A  
HETATM   28  C   UNL     1      -8.088  13.317  68.132  1.00  0.00    -0.159 A  
ENDBRANCH   9  21
ENDBRANCH   6   9
TORSDOF 2
ENDMDL
MODEL       45
REMARK 921   NORMALIZED FREE ENERGY PREDICTED BY IDOCK:   -5.82 KCAL/MOL
REMARK 922        TOTAL FREE ENERGY PREDICTED BY IDOCK:   -7.25 KCAL/MOL
REMARK 923 INTER-LIGAND FREE ENERGY PREDICTED BY IDOCK:   -6.91 KCAL/MOL
REMARK 924 INTRA-LIGAND FREE ENERGY PREDICTED BY IDOCK:   -0.34 KCAL/MOL
REMARK 927      BINDING AFFINITY PREDICTED BY RF-SCORE:    0.00 PKD
ROOT
HETATM    1  O   UNL     1      -8.317   7.851  63.824  1.00  0.00    -0.355 OA 
HETATM    2  C   UNL     1      -8.746   8.768  64.737  1.00  0.00    -0.097 A  
HETATM    3  H   UNL     1      -7.810   8.102  63.060  1.00  0.00     0.000 HD 
HETATM    4  C   UNL     1      -9.487   8.401  65.853  1.00  0.00    -0.169 A  
HETATM    5  C   UNL     1      -9.940   9.389  66.741  1.00  0.00    -0.305 A  
HETATM    6  C   UNL     1      -9.665  10.756  66.524  1.00  0.00    -0.236 A  
HETATM    7  C   UNL     1      -8.910  11.080  65.378  1.00  0.00    -0.157 A  
HETATM    8  C   UNL     1      -8.441  10.097  64.502  1.00  0.00    -0.182 A  
ENDROOT
BRANCH   6   9
HETATM    9  C   UNL     1     -10.342  11.858  67.394  1.00  0.00    -0.207 C  
HETATM   10  O   UNL     1     -12.277  12.068  65.790  1.00  0.00    -0.520 OA 
HETATM   11  O   UNL     1      -9.351  12.896  67.671  1.00  0.00    -0.181 OA 
HETATM   12  C   UNL     1     -11.600  12.531  66.707  1.00  0.00    -0.382 C  
HETATM   13  C   UNL     1      -9.851  14.036  68.254  1.00  0.00    -0.233 A  
HETATM   14  H   UNL     1     -12.977  14.025  67.132  1.00  0.00     0.000 HD 
HETATM   15  C   UNL     1      -8.964  14.857  68.947  1.00  0.00    -0.184 A  
HETATM   16  C   UNL     1      -9.432  16.019  69.569  1.00  0.00    -0.173 A  
HETATM   17  N   UNL     1     -12.028  13.693  67.303  1.00  0.00    -0.387 N  
HETATM   18  C   UNL     1     -11.188  14.420  68.136  1.00  0.00    -0.281 A  
HETATM   19  C   UNL     1     -11.665  15.567  68.766  1.00  0.00    -0.372 A  
HETATM   20  C   UNL     1     -10.784  16.363  69.497  1.00  0.00    -0.325 A  
BRANCH   9  21
HETATM   21  C   UNL     1     -10.763  11.164  68.728  1.00  0.00    -0.236 A  
HETATM   22  C   UNL     1     -12.499  10.508  70.311  1.00  0.00    -0.345 A  
HETATM   23  H   UNL     1     -12.905   9.187  72.438  1.00  0.00     0.000 HD 
HETATM   24  O   UNL     1     -11.993   9.159  72.169  1.00  0.00    -0.354 OA 
HETATM   25  C   UNL     1     -11.558   9.813  71.055  1.00  0.00    -0.376 A  
HETATM   26  C   UNL     1     -10.226   9.773  70.663  1.00  0.00    -0.290 A  
HETATM   27  C   UNL     1      -9.831  10.441  69.500  1.00  0.00    -0.211 A  
HETATM   28  C   UNL     1     -12.110  11.175  69.149  1.00  0.00    -0.352 A  
ENDBRANCH   9  21
ENDBRANCH   6   9
TORSDOF 2
ENDMDL
MODEL       46
REMARK 921   NORMALIZED FREE ENERGY PREDICTED BY IDOCK:   -5.80 KCAL/MOL
REMARK 922        TOTAL FREE ENERGY PREDICTED BY IDOCK:   -7.24 KCAL/MOL
REMARK 923 INTER-LIGAND FREE ENERGY PREDICTED BY IDOCK:   -7.76 KCAL/MOL
REMARK 924 INTRA-LIGAND FREE ENERGY PREDICTED BY IDOCK:    0.52 KCAL/MOL
REMARK 927      BINDING AFFINITY PREDICTED BY RF-SCORE:    0.00 PKD
ROOT
HETATM    1  O   UNL     1     -11.277  12.870  63.496  1.00  0.00    -0.555 OA 
HETATM    2  C   UNL     1     -11.200  12.241  64.703  1.00  0.00    -0.315 A  
HETATM    3  H   UNL     1     -10.814  12.548  62.731  1.00  0.00     0.000 HD 
HETATM    4  C   UNL     1     -11.878  12.712  65.820  1.00  0.00    -0.497 A  
HETATM    5  C   UNL     1     -11.733  12.052  67.050  1.00  0.00    -0.341 A  
HETATM    6  C   UNL     1     -10.903  10.917  67.182  1.00  0.00    -0.337 A  
HETATM    7  C   UNL     1     -10.235  10.476  66.022  1.00  0.00    -0.310 A  
HETATM    8  C   UNL     1     -10.394  11.120  64.791  1.00  0.00    -0.387 A  
ENDROOT
BRANCH   6   9
HETATM    9  C   UNL     1     -10.584  10.317  68.586  1.00  0.00    -0.208 C  
HETATM   10  O   UNL     1      -8.265  11.308  68.585  1.00  0.00    -0.143 OA 
HETATM   11  O   UNL     1     -10.899   8.890  68.556  1.00  0.00    -0.125 OA 
HETATM   12  C   UNL     1      -9.074  10.492  69.026  1.00  0.00    -0.181 C  
HETATM   13  C   UNL     1     -10.478   8.179  69.654  1.00  0.00    -0.224 A  
HETATM   14  H   UNL     1      -7.864   9.979  70.634  1.00  0.00     0.000 HD 
HETATM   15  C   UNL     1     -11.104   6.964  69.924  1.00  0.00    -0.333 A  
HETATM   16  C   UNL     1     -10.718   6.214  71.040  1.00  0.00    -0.317 A  
HETATM   17  N   UNL     1      -8.695   9.723  70.100  1.00  0.00    -0.211 N  
HETATM   18  C   UNL     1      -9.426   8.602  70.470  1.00  0.00    -0.178 A  
HETATM   19  C   UNL     1      -9.048   7.870  71.592  1.00  0.00    -0.175 A  
HETATM   20  C   UNL     1      -9.706   6.677  71.885  1.00  0.00    -0.158 A  
BRANCH   9  21
HETATM   21  C   UNL     1     -11.528  11.042  69.596  1.00  0.00    -0.375 A  
HETATM   22  C   UNL     1     -13.134  10.944  71.428  1.00  0.00    -0.457 A  
HETATM   23  H   UNL     1     -14.457  12.388  73.041  1.00  0.00     0.000 HD 
HETATM   24  O   UNL     1     -13.917  12.909  72.457  1.00  0.00    -0.581 OA 
HETATM   25  C   UNL     1     -13.134  12.328  71.504  1.00  0.00    -0.257 A  
HETATM   26  C   UNL     1     -12.345  13.089  70.650  1.00  0.00    -0.391 A  
HETATM   27  C   UNL     1     -11.541  12.448  69.703  1.00  0.00    -0.330 A  
HETATM   28  C   UNL     1     -12.332  10.300  70.487  1.00  0.00    -0.371 A  
ENDBRANCH   9  21
ENDBRANCH   6   9
TORSDOF 2
ENDMDL
MODEL       47
REMARK 921   NORMALIZED FREE ENERGY PREDICTED BY IDOCK:   -5.75 KCAL/MOL
REMARK 922        TOTAL FREE ENERGY PREDICTED BY IDOCK:   -7.18 KCAL/MOL
REMARK 923 INTER-LIGAND FREE ENERGY PREDICTED BY IDOCK:   -6.47 KCAL/MOL
REMARK 924 INTRA-LIGAND FREE ENERGY PREDICTED BY IDOCK:   -0.71 KCAL/MOL
REMARK 927      BINDING AFFINITY PREDICTED BY RF-SCORE:    0.00 PKD
ROOT
HETATM    1  O   UNL     1      -8.441  21.075  67.157  1.00  0.00    -0.562 OA 
HETATM    2  C   UNL     1      -8.826  19.780  67.340  1.00  0.00    -0.326 A  
HETATM    3  H   UNL     1      -7.944  21.349  66.395  1.00  0.00     0.000 HD 
HETATM    4  C   UNL     1      -9.552  19.379  68.454  1.00  0.00    -0.460 A  
HETATM    5  C   UNL     1      -9.888  18.026  68.615  1.00  0.00    -0.383 A  
HETATM    6  C   UNL     1      -9.498  17.054  67.669  1.00  0.00    -0.236 A  
HETATM    7  C   UNL     1      -8.763  17.507  66.554  1.00  0.00    -0.290 A  
HETATM    8  C   UNL     1      -8.443  18.857  66.382  1.00  0.00    -0.302 A  
ENDROOT
BRANCH   6   9
HETATM    9  C   UNL     1      -9.692  15.533  67.955  1.00  0.00    -0.207 C  
HETATM   10  O   UNL     1      -7.366  15.320  68.907  1.00  0.00    -0.125 OA 
HETATM   11  O   UNL     1     -10.173  14.895  66.731  1.00  0.00    -0.252 OA 
HETATM   12  C   UNL     1      -8.371  14.798  68.424  1.00  0.00    -0.154 C  
HETATM   13  C   UNL     1     -10.195  13.521  66.763  1.00  0.00    -0.264 A  
HETATM   14  H   UNL     1      -7.772  12.879  68.943  1.00  0.00     0.000 HD 
HETATM   15  C   UNL     1     -11.030  12.861  65.864  1.00  0.00    -0.300 A  
HETATM   16  C   UNL     1     -11.096  11.464  65.872  1.00  0.00    -0.225 A  
HETATM   17  N   UNL     1      -8.434  13.426  68.392  1.00  0.00    -0.159 N  
HETATM   18  C   UNL     1      -9.386  12.772  67.620  1.00  0.00    -0.191 A  
HETATM   19  C   UNL     1      -9.459  11.381  67.645  1.00  0.00    -0.165 A  
HETATM   20  C   UNL     1     -10.328  10.726  66.775  1.00  0.00    -0.294 A  
BRANCH   9  21
HETATM   21  C   UNL     1     -10.787  15.434  69.064  1.00  0.00    -0.244 A  
HETATM   22  C   UNL     1     -11.404  15.370  71.422  1.00  0.00    -0.449 A  
HETATM   23  H   UNL     1     -13.395  15.348  72.994  1.00  0.00     0.000 HD 
HETATM   24  O   UNL     1     -13.662  15.378  72.083  1.00  0.00    -0.429 OA 
HETATM   25  C   UNL     1     -12.746  15.386  71.073  1.00  0.00    -0.448 A  
HETATM   26  C   UNL     1     -13.135  15.430  69.739  1.00  0.00     0.392 A  
HETATM   27  C   UNL     1     -12.159  15.459  68.739  1.00  0.00    -0.183 A  
HETATM   28  C   UNL     1     -10.427  15.401  70.428  1.00  0.00    -0.209 A  
ENDBRANCH   9  21
ENDBRANCH   6   9
TORSDOF 2
ENDMDL
MODEL       48
REMARK 921   NORMALIZED FREE ENERGY PREDICTED BY IDOCK:   -5.71 KCAL/MOL
REMARK 922        TOTAL FREE ENERGY PREDICTED BY IDOCK:   -7.14 KCAL/MOL
REMARK 923 INTER-LIGAND FREE ENERGY PREDICTED BY IDOCK:   -6.23 KCAL/MOL
REMARK 924 INTRA-LIGAND FREE ENERGY PREDICTED BY IDOCK:   -0.91 KCAL/MOL
REMARK 927      BINDING AFFINITY PREDICTED BY RF-SCORE:    0.00 PKD
ROOT
HETATM    1  O   UNL     1     -13.378  10.325  72.432  1.00  0.00    -0.601 OA 
HETATM    2  C   UNL     1     -12.500  10.279  71.391  1.00  0.00    -0.424 A  
HETATM    3  H   UNL     1     -13.228   9.846  73.239  1.00  0.00     0.000 HD 
HETATM    4  C   UNL     1     -12.720  10.980  70.212  1.00  0.00    -0.256 A  
HETATM    5  C   UNL     1     -11.804  10.866  69.155  1.00  0.00    -0.389 A  
HETATM    6  C   UNL     1     -10.660  10.047  69.258  1.00  0.00    -0.249 A  
HETATM    7  C   UNL     1     -10.477   9.355  70.473  1.00  0.00    -0.335 A  
HETATM    8  C   UNL     1     -11.377   9.482  71.535  1.00  0.00    -0.456 A  
ENDROOT
BRANCH   6   9
HETATM    9  C   UNL     1      -9.763   9.763  68.014  1.00  0.00    -0.145 C  
HETATM   10  O   UNL     1      -7.687  10.543  69.216  1.00  0.00    -0.121 OA 
HETATM   11  O   UNL     1     -10.369  10.414  66.855  1.00  0.00    -0.221 OA 
HETATM   12  C   UNL     1      -8.276  10.285  68.167  1.00  0.00    -0.114 C  
HETATM   13  C   UNL     1      -9.589  10.430  65.723  1.00  0.00    -0.216 A  
HETATM   14  H   UNL     1      -6.538  10.351  67.033  1.00  0.00     0.000 HD 
HETATM   15  C   UNL     1     -10.224  10.606  64.496  1.00  0.00    -0.399 A  
HETATM   16  C   UNL     1      -9.471  10.613  63.316  1.00  0.00    -0.360 A  
HETATM   17  N   UNL     1      -7.557  10.324  66.996  1.00  0.00    -0.098 N  
HETATM   18  C   UNL     1      -8.197  10.326  65.764  1.00  0.00    -0.147 A  
HETATM   19  C   UNL     1      -7.442  10.315  64.594  1.00  0.00    -0.093 A  
HETATM   20  C   UNL     1      -8.085  10.446  63.364  1.00  0.00    -0.128 A  
BRANCH   9  21
HETATM   21  C   UNL     1      -9.773   8.215  67.812  1.00  0.00    -0.193 A  
HETATM   22  C   UNL     1      -8.752   6.031  68.180  1.00  0.00    -0.113 A  
HETATM   23  H   UNL     1      -9.108   3.545  67.826  1.00  0.00     0.000 HD 
HETATM   24  O   UNL     1      -9.833   4.059  67.492  1.00  0.00    -0.163 OA 
HETATM   25  C   UNL     1      -9.838   5.420  67.572  1.00  0.00    -0.150 A  
HETATM   26  C   UNL     1     -10.898   6.173  67.082  1.00  0.00    -0.442 A  
HETATM   27  C   UNL     1     -10.868   7.565  67.207  1.00  0.00    -0.297 A  
HETATM   28  C   UNL     1      -8.719   7.419  68.308  1.00  0.00    -0.122 A  
ENDBRANCH   9  21
ENDBRANCH   6   9
TORSDOF 2
ENDMDL
MODEL       49
REMARK 921   NORMALIZED FREE ENERGY PREDICTED BY IDOCK:   -5.68 KCAL/MOL
REMARK 922        TOTAL FREE ENERGY PREDICTED BY IDOCK:   -7.10 KCAL/MOL
REMARK 923 INTER-LIGAND FREE ENERGY PREDICTED BY IDOCK:   -6.64 KCAL/MOL
REMARK 924 INTRA-LIGAND FREE ENERGY PREDICTED BY IDOCK:   -0.46 KCAL/MOL
REMARK 927      BINDING AFFINITY PREDICTED BY RF-SCORE:    0.00 PKD
ROOT
HETATM    1  O   UNL     1      -5.197  10.696  71.101  1.00  0.00    -0.090 OA 
HETATM    2  C   UNL     1      -6.188  11.037  70.229  1.00  0.00    -0.139 A  
HETATM    3  H   UNL     1      -5.194   9.863  71.559  1.00  0.00     0.000 HD 
HETATM    4  C   UNL     1      -6.192  12.254  69.561  1.00  0.00    -0.127 A  
HETATM    5  C   UNL     1      -7.257  12.574  68.705  1.00  0.00    -0.103 A  
HETATM    6  C   UNL     1      -8.335  11.685  68.510  1.00  0.00    -0.140 A  
HETATM    7  C   UNL     1      -8.289  10.461  69.209  1.00  0.00    -0.161 A  
HETATM    8  C   UNL     1      -7.219  10.132  70.047  1.00  0.00    -0.166 A  
ENDROOT
BRANCH   6   9
HETATM    9  C   UNL     1      -9.608  12.129  67.726  1.00  0.00    -0.195 C  
HETATM   10  O   UNL     1      -9.957   9.812  66.793  1.00  0.00    -0.194 OA 
HETATM   11  O   UNL     1      -9.273  13.318  66.946  1.00  0.00    -0.229 OA 
HETATM   12  C   UNL     1     -10.172  11.023  66.745  1.00  0.00    -0.229 C  
HETATM   13  C   UNL     1     -10.232  13.709  66.042  1.00  0.00    -0.307 A  
HETATM   14  H   UNL     1     -11.720  10.816  65.376  1.00  0.00     0.000 HD 
HETATM   15  C   UNL     1     -10.211  15.030  65.600  1.00  0.00    -0.386 A  
HETATM   16  C   UNL     1     -11.178  15.476  64.692  1.00  0.00    -0.381 A  
HETATM   17  N   UNL     1     -11.093  11.479  65.832  1.00  0.00    -0.257 N  
HETATM   18  C   UNL     1     -11.182  12.829  65.521  1.00  0.00    -0.294 A  
HETATM   19  C   UNL     1     -12.158  13.269  64.630  1.00  0.00    -0.458 A  
HETATM   20  C   UNL     1     -12.162  14.603  64.224  1.00  0.00    -0.432 A  
BRANCH   9  21
HETATM   21  C   UNL     1     -10.679  12.492  68.803  1.00  0.00    -0.235 A  
HETATM   22  C   UNL     1     -12.280  11.797  70.506  1.00  0.00    -0.438 A  
HETATM   23  H   UNL     1     -13.856  12.684  72.286  1.00  0.00     0.000 HD 
HETATM   24  O   UNL     1     -13.400  13.384  71.832  1.00  0.00    -0.407 OA 
HETATM   25  C   UNL     1     -12.513  13.125  70.830  1.00  0.00    -0.308 A  
HETATM   26  C   UNL     1     -11.847  14.148  70.166  1.00  0.00    -0.382 A  
HETATM   27  C   UNL     1     -10.930  13.833  69.160  1.00  0.00    -0.246 A  
HETATM   28  C   UNL     1     -11.365  11.478  69.504  1.00  0.00    -0.342 A  
ENDBRANCH   9  21
ENDBRANCH   6   9
TORSDOF 2
ENDMDL
MODEL       50
REMARK 921   NORMALIZED FREE ENERGY PREDICTED BY IDOCK:   -5.68 KCAL/MOL
REMARK 922        TOTAL FREE ENERGY PREDICTED BY IDOCK:   -7.10 KCAL/MOL
REMARK 923 INTER-LIGAND FREE ENERGY PREDICTED BY IDOCK:   -6.67 KCAL/MOL
REMARK 924 INTRA-LIGAND FREE ENERGY PREDICTED BY IDOCK:   -0.43 KCAL/MOL
REMARK 927      BINDING AFFINITY PREDICTED BY RF-SCORE:    0.00 PKD
ROOT
HETATM    1  O   UNL     1     -13.881   9.019  73.256  1.00  0.00    -1.159 OA 
HETATM    2  C   UNL     1     -12.989   9.215  72.244  1.00  0.00    -0.420 A  
HETATM    3  H   UNL     1     -13.988   8.172  73.674  1.00  0.00     0.000 HD 
HETATM    4  C   UNL     1     -12.833  10.453  71.632  1.00  0.00    -0.579 A  
HETATM    5  C   UNL     1     -11.931  10.592  70.567  1.00  0.00    -0.446 A  
HETATM    6  C   UNL     1     -11.177   9.497  70.093  1.00  0.00    -0.275 A  
HETATM    7  C   UNL     1     -11.369   8.261  70.744  1.00  0.00    -0.285 A  
HETATM    8  C   UNL     1     -12.253   8.124  71.818  1.00  0.00    -0.358 A  
ENDROOT
BRANCH   6   9
HETATM    9  C   UNL     1     -10.338   9.609  68.783  1.00  0.00    -0.213 C  
HETATM   10  O   UNL     1     -11.910  11.323  67.810  1.00  0.00    -0.610 OA 
HETATM   11  O   UNL     1     -10.121   8.260  68.263  1.00  0.00    -0.185 OA 
HETATM   12  C   UNL     1     -11.025  10.482  67.656  1.00  0.00    -0.314 C  
HETATM   13  C   UNL     1      -9.574   8.205  67.003  1.00  0.00    -0.196 A  
HETATM   14  H   UNL     1     -10.632  11.073  65.705  1.00  0.00     0.000 HD 
HETATM   15  C   UNL     1      -8.932   7.029  66.622  1.00  0.00    -0.157 A  
HETATM   16  C   UNL     1      -8.347   6.934  65.354  1.00  0.00    -0.122 A  
HETATM   17  N   UNL     1     -10.467  10.352  66.407  1.00  0.00    -0.210 N  
HETATM   18  C   UNL     1      -9.681   9.253  66.087  1.00  0.00    -0.279 A  
HETATM   19  C   UNL     1      -9.087   9.172  64.829  1.00  0.00    -0.157 A  
HETATM   20  C   UNL     1      -8.406   8.011  64.468  1.00  0.00    -0.048 A  
BRANCH   9  21
HETATM   21  C   UNL     1      -8.969  10.238  69.194  1.00  0.00    -0.187 A  
HETATM   22  C   UNL     1      -7.383  12.089  69.100  1.00  0.00     0.048 A  
HETATM   23  H   UNL     1      -5.181  12.918  70.047  1.00  0.00     0.000 HD 
HETATM   24  O   UNL     1      -5.428  12.073  70.406  1.00  0.00    -0.116 OA 
HETATM   25  C   UNL     1      -6.574  11.443  70.021  1.00  0.00    -0.031 A  
HETATM   26  C   UNL     1      -6.934  10.207  70.545  1.00  0.00    -0.059 A  
HETATM   27  C   UNL     1      -8.130   9.610  70.137  1.00  0.00    -0.205 A  
HETATM   28  C   UNL     1      -8.578  11.497  68.691  1.00  0.00    -0.109 A  
ENDBRANCH   9  21
ENDBRANCH   6   9
TORSDOF 2
ENDMDL
MODEL       51
REMARK 921   NORMALIZED FREE ENERGY PREDICTED BY IDOCK:   -5.63 KCAL/MOL
REMARK 922        TOTAL FREE ENERGY PREDICTED BY IDOCK:   -7.04 KCAL/MOL
REMARK 923 INTER-LIGAND FREE ENERGY PREDICTED BY IDOCK:   -6.17 KCAL/MOL
REMARK 924 INTRA-LIGAND FREE ENERGY PREDICTED BY IDOCK:   -0.87 KCAL/MOL
REMARK 927      BINDING AFFINITY PREDICTED BY RF-SCORE:    0.00 PKD
ROOT
HETATM    1  O   UNL     1     -12.910   8.765  72.907  1.00  0.00    -0.599 OA 
HETATM    2  C   UNL     1     -12.417   9.427  71.823  1.00  0.00    -0.391 A  
HETATM    3  H   UNL     1     -12.384   8.147  73.401  1.00  0.00     0.000 HD 
HETATM    4  C   UNL     1     -13.186  10.331  71.101  1.00  0.00    -0.429 A  
HETATM    5  C   UNL     1     -12.643  10.955  69.967  1.00  0.00    -0.253 A  
HETATM    6  C   UNL     1     -11.328  10.680  69.535  1.00  0.00    -0.342 A  
HETATM    7  C   UNL     1     -10.585   9.756  70.298  1.00  0.00    -0.348 A  
HETATM    8  C   UNL     1     -11.116   9.148  71.439  1.00  0.00    -0.415 A  
ENDROOT
BRANCH   6   9
HETATM    9  C   UNL     1     -10.806  11.213  68.165  1.00  0.00    -0.219 C  
HETATM   10  O   UNL     1      -9.409  12.991  69.284  1.00  0.00     0.538 OA 
HETATM   11  O   UNL     1     -11.959  11.456  67.300  1.00  0.00    -0.580 OA 
HETATM   12  C   UNL     1      -9.968  12.551  68.279  1.00  0.00    -0.229 C  
HETATM   13  C   UNL     1     -11.678  12.124  66.132  1.00  0.00    -0.315 A  
HETATM   14  H   UNL     1      -8.999  13.879  67.011  1.00  0.00     0.000 HD 
HETATM   15  C   UNL     1     -12.581  12.002  65.078  1.00  0.00     0.247 A  
HETATM   16  C   UNL     1     -12.327  12.651  63.865  1.00  0.00    -0.546 A  
HETATM   17  N   UNL     1      -9.757  13.201  67.086  1.00  0.00    -0.229 N  
HETATM   18  C   UNL     1     -10.560  12.946  65.982  1.00  0.00    -0.270 A  
HETATM   19  C   UNL     1     -10.291  13.582  64.772  1.00  0.00    -0.405 A  
HETATM   20  C   UNL     1     -11.174  13.422  63.705  1.00  0.00    -0.133 A  
BRANCH   9  21
HETATM   21  C   UNL     1      -9.926  10.075  67.560  1.00  0.00    -0.232 A  
HETATM   22  C   UNL     1      -7.729   9.116  67.113  1.00  0.00    -0.098 A  
HETATM   23  H   UNL     1      -6.567   7.063  66.180  1.00  0.00     0.000 HD 
HETATM   24  O   UNL     1      -7.514   6.982  66.148  1.00  0.00    -0.077 OA 
HETATM   25  C   UNL     1      -8.329   7.980  66.592  1.00  0.00    -0.120 A  
HETATM   26  C   UNL     1      -9.713   7.863  66.546  1.00  0.00    -0.279 A  
HETATM   27  C   UNL     1     -10.508   8.904  67.033  1.00  0.00    -0.326 A  
HETATM   28  C   UNL     1      -8.518  10.156  67.601  1.00  0.00    -0.118 A  
ENDBRANCH   9  21
ENDBRANCH   6   9
TORSDOF 2
ENDMDL
MODEL       52
REMARK 921   NORMALIZED FREE ENERGY PREDICTED BY IDOCK:   -5.57 KCAL/MOL
REMARK 922        TOTAL FREE ENERGY PREDICTED BY IDOCK:   -6.98 KCAL/MOL
REMARK 923 INTER-LIGAND FREE ENERGY PREDICTED BY IDOCK:   -6.78 KCAL/MOL
REMARK 924 INTRA-LIGAND FREE ENERGY PREDICTED BY IDOCK:   -0.19 KCAL/MOL
REMARK 927      BINDING AFFINITY PREDICTED BY RF-SCORE:    0.00 PKD
ROOT
HETATM    1  O   UNL     1     -12.640  14.052  63.144  1.00  0.00    -1.062 OA 
HETATM    2  C   UNL     1     -11.965  13.350  64.097  1.00  0.00    -0.450 A  
HETATM    3  H   UNL     1     -13.025  14.903  63.324  1.00  0.00     0.000 HD 
HETATM    4  C   UNL     1     -11.403  12.107  63.834  1.00  0.00    -0.501 A  
HETATM    5  C   UNL     1     -10.754  11.406  64.862  1.00  0.00    -0.350 A  
HETATM    6  C   UNL     1     -10.661  11.935  66.168  1.00  0.00    -0.318 A  
HETATM    7  C   UNL     1     -11.246  13.199  66.388  1.00  0.00    -0.328 A  
HETATM    8  C   UNL     1     -11.877  13.907  65.361  1.00  0.00    -0.363 A  
ENDROOT
BRANCH   6   9
HETATM    9  C   UNL     1     -10.126  11.066  67.347  1.00  0.00    -0.186 C  
HETATM   10  O   UNL     1      -7.863  12.177  67.261  1.00  0.00    -0.160 OA 
HETATM   11  O   UNL     1     -10.396   9.663  67.042  1.00  0.00    -0.234 OA 
HETATM   12  C   UNL     1      -8.574  11.236  67.612  1.00  0.00    -0.124 C  
HETATM   13  C   UNL     1      -9.799   8.758  67.888  1.00  0.00    -0.169 A  
HETATM   14  H   UNL     1      -7.131  10.464  68.889  1.00  0.00     0.000 HD 
HETATM   15  C   UNL     1     -10.342   7.477  67.960  1.00  0.00    -0.254 A  
HETATM   16  C   UNL     1      -9.776   6.529  68.820  1.00  0.00    -0.131 A  
HETATM   17  N   UNL     1      -8.021  10.278  68.427  1.00  0.00    -0.104 N  
HETATM   18  C   UNL     1      -8.657   9.060  68.631  1.00  0.00    -0.129 A  
HETATM   19  C   UNL     1      -8.098   8.127  69.502  1.00  0.00    -0.119 A  
HETATM   20  C   UNL     1      -8.670   6.860  69.605  1.00  0.00    -0.141 A  
BRANCH   9  21
HETATM   21  C   UNL     1     -10.938  11.495  68.609  1.00  0.00    -0.270 A  
HETATM   22  C   UNL     1     -11.550  13.192  70.250  1.00  0.00    -0.079 A  
HETATM   23  H   UNL     1     -13.096  13.651  72.208  1.00  0.00     0.000 HD 
HETATM   24  O   UNL     1     -13.223  12.779  71.851  1.00  0.00    -0.442 OA 
HETATM   25  C   UNL     1     -12.483  12.326  70.799  1.00  0.00    -0.265 A  
HETATM   26  C   UNL     1     -12.668  11.052  70.276  1.00  0.00    -0.256 A  
HETATM   27  C   UNL     1     -11.902  10.640  69.182  1.00  0.00    -0.287 A  
HETATM   28  C   UNL     1     -10.785  12.786  69.158  1.00  0.00    -0.061 A  
ENDBRANCH   9  21
ENDBRANCH   6   9
TORSDOF 2
ENDMDL
MODEL       53
REMARK 921   NORMALIZED FREE ENERGY PREDICTED BY IDOCK:   -5.56 KCAL/MOL
REMARK 922        TOTAL FREE ENERGY PREDICTED BY IDOCK:   -6.97 KCAL/MOL
REMARK 923 INTER-LIGAND FREE ENERGY PREDICTED BY IDOCK:   -6.04 KCAL/MOL
REMARK 924 INTRA-LIGAND FREE ENERGY PREDICTED BY IDOCK:   -0.93 KCAL/MOL
REMARK 927      BINDING AFFINITY PREDICTED BY RF-SCORE:    0.00 PKD
ROOT
HETATM    1  O   UNL     1     -10.896   6.256  74.014  1.00  0.00    -0.413 OA 
HETATM    2  C   UNL     1     -10.574   7.135  73.024  1.00  0.00    -0.308 A  
HETATM    3  H   UNL     1     -10.320   5.540  74.257  1.00  0.00     0.000 HD 
HETATM    4  C   UNL     1     -11.415   8.182  72.669  1.00  0.00    -0.454 A  
HETATM    5  C   UNL     1     -11.056   9.035  71.613  1.00  0.00    -0.433 A  
HETATM    6  C   UNL     1      -9.856   8.850  70.894  1.00  0.00    -0.304 A  
HETATM    7  C   UNL     1      -9.034   7.774  71.289  1.00  0.00    -0.147 A  
HETATM    8  C   UNL     1      -9.380   6.935  72.353  1.00  0.00    -0.149 A  
ENDROOT
BRANCH   6   9
HETATM    9  C   UNL     1      -9.565   9.666  69.598  1.00  0.00    -0.208 C  
HETATM   10  O   UNL     1      -7.281  10.344  70.425  1.00  0.00    -0.266 OA 
HETATM   11  O   UNL     1     -10.688  10.571  69.365  1.00  0.00    -0.211 OA 
HETATM   12  C   UNL     1      -8.233  10.520  69.666  1.00  0.00    -0.015 C  
HETATM   13  C   UNL     1     -10.488  11.504  68.376  1.00  0.00    -0.207 A  
HETATM   14  H   UNL     1      -7.185  11.846  68.461  1.00  0.00     0.000 HD 
HETATM   15  C   UNL     1     -11.610  12.084  67.789  1.00  0.00    -0.400 A  
HETATM   16  C   UNL     1     -11.453  13.027  66.767  1.00  0.00    -0.392 A  
HETATM   17  N   UNL     1      -8.107  11.469  68.680  1.00  0.00    -0.147 N  
HETATM   18  C   UNL     1      -9.216  11.920  67.977  1.00  0.00    -0.190 A  
HETATM   19  C   UNL     1      -9.052  12.846  66.949  1.00  0.00    -0.224 A  
HETATM   20  C   UNL     1     -10.177  13.391  66.333  1.00  0.00    -0.293 A  
BRANCH   9  21
HETATM   21  C   UNL     1      -9.480   8.626  68.437  1.00  0.00    -0.144 A  
HETATM   22  C   UNL     1      -8.146   7.289  66.893  1.00  0.00    -0.120 A  
HETATM   23  H   UNL     1      -8.307   5.482  65.120  1.00  0.00     0.000 HD 
HETATM   24  O   UNL     1      -9.158   5.707  65.478  1.00  0.00    -0.144 OA 
HETATM   25  C   UNL     1      -9.297   6.665  66.438  1.00  0.00    -0.139 A  
HETATM   26  C   UNL     1     -10.542   6.994  66.961  1.00  0.00    -0.412 A  
HETATM   27  C   UNL     1     -10.632   7.967  67.961  1.00  0.00    -0.190 A  
HETATM   28  C   UNL     1      -8.231   8.259  67.891  1.00  0.00    -0.128 A  
ENDBRANCH   9  21
ENDBRANCH   6   9
TORSDOF 2
ENDMDL
MODEL       54
REMARK 921   NORMALIZED FREE ENERGY PREDICTED BY IDOCK:   -5.52 KCAL/MOL
REMARK 922        TOTAL FREE ENERGY PREDICTED BY IDOCK:   -6.92 KCAL/MOL
REMARK 923 INTER-LIGAND FREE ENERGY PREDICTED BY IDOCK:   -6.47 KCAL/MOL
REMARK 924 INTRA-LIGAND FREE ENERGY PREDICTED BY IDOCK:   -0.45 KCAL/MOL
REMARK 927      BINDING AFFINITY PREDICTED BY RF-SCORE:    0.00 PKD
ROOT
HETATM    1  O   UNL     1     -10.362  10.297  65.164  1.00  0.00    -0.286 OA 
HETATM    2  C   UNL     1     -10.063  11.543  65.629  1.00  0.00    -0.237 A  
HETATM    3  H   UNL     1     -11.044  10.152  64.518  1.00  0.00     0.000 HD 
HETATM    4  C   UNL     1      -9.068  11.755  66.575  1.00  0.00    -0.203 A  
HETATM    5  C   UNL     1      -8.827  13.053  67.051  1.00  0.00    -0.213 A  
HETATM    6  C   UNL     1      -9.581  14.155  66.595  1.00  0.00    -0.301 A  
HETATM    7  C   UNL     1     -10.581  13.892  65.636  1.00  0.00    -0.306 A  
HETATM    8  C   UNL     1     -10.810  12.603  65.145  1.00  0.00    -0.321 A  
ENDROOT
BRANCH   6   9
HETATM    9  C   UNL     1      -9.451  15.552  67.277  1.00  0.00    -0.213 C  
HETATM   10  O   UNL     1     -10.560  16.710  65.330  1.00  0.00    -0.596 OA 
HETATM   11  O   UNL     1      -8.061  15.730  67.693  1.00  0.00    -0.136 OA 
HETATM   12  C   UNL     1      -9.857  16.760  66.338  1.00  0.00    -0.297 C  
HETATM   13  C   UNL     1      -7.742  16.996  68.124  1.00  0.00    -0.197 A  
HETATM   14  H   UNL     1      -9.933  18.833  66.435  1.00  0.00     0.000 HD 
HETATM   15  C   UNL     1      -6.621  17.144  68.938  1.00  0.00    -0.199 A  
HETATM   16  C   UNL     1      -6.267  18.412  69.412  1.00  0.00    -0.266 A  
HETATM   17  N   UNL     1      -9.471  17.998  66.795  1.00  0.00    -0.283 N  
HETATM   18  C   UNL     1      -8.463  18.128  67.740  1.00  0.00    -0.248 A  
HETATM   19  C   UNL     1      -8.127  19.391  68.222  1.00  0.00    -0.371 A  
HETATM   20  C   UNL     1      -7.031  19.530  69.073  1.00  0.00    -0.392 A  
BRANCH   9  21
HETATM   21  C   UNL     1     -10.375  15.512  68.535  1.00  0.00    -0.225 A  
HETATM   22  C   UNL     1     -12.605  15.589  69.520  1.00  0.00     0.037 A  
HETATM   23  H   UNL     1     -13.860  15.337  71.710  1.00  0.00     0.000 HD 
HETATM   24  O   UNL     1     -12.924  15.212  71.819  1.00  0.00    -0.319 OA 
HETATM   25  C   UNL     1     -12.064  15.315  70.767  1.00  0.00    -0.351 A  
HETATM   26  C   UNL     1     -10.696  15.132  70.926  1.00  0.00    -0.062 A  
HETATM   27  C   UNL     1      -9.855  15.225  69.813  1.00  0.00    -0.188 A  
HETATM   28  C   UNL     1     -11.770  15.680  68.407  1.00  0.00    -0.301 A  
ENDBRANCH   9  21
ENDBRANCH   6   9
TORSDOF 2
ENDMDL
MODEL       55
REMARK 921   NORMALIZED FREE ENERGY PREDICTED BY IDOCK:   -5.52 KCAL/MOL
REMARK 922        TOTAL FREE ENERGY PREDICTED BY IDOCK:   -6.92 KCAL/MOL
REMARK 923 INTER-LIGAND FREE ENERGY PREDICTED BY IDOCK:   -6.40 KCAL/MOL
REMARK 924 INTRA-LIGAND FREE ENERGY PREDICTED BY IDOCK:   -0.52 KCAL/MOL
REMARK 927      BINDING AFFINITY PREDICTED BY RF-SCORE:    0.00 PKD
ROOT
HETATM    1  O   UNL     1     -12.196  13.698  68.107  1.00  0.00    -0.370 OA 
HETATM    2  C   UNL     1     -11.283  14.703  67.992  1.00  0.00    -0.293 A  
HETATM    3  H   UNL     1     -12.129  12.897  67.600  1.00  0.00     0.000 HD 
HETATM    4  C   UNL     1     -11.381  15.873  68.734  1.00  0.00    -0.378 A  
HETATM    5  C   UNL     1     -10.438  16.895  68.548  1.00  0.00    -0.361 A  
HETATM    6  C   UNL     1      -9.388  16.766  67.613  1.00  0.00    -0.228 A  
HETATM    7  C   UNL     1      -9.328  15.561  66.883  1.00  0.00    -0.252 A  
HETATM    8  C   UNL     1     -10.255  14.534  67.081  1.00  0.00    -0.260 A  
ENDROOT
BRANCH   6   9
HETATM    9  C   UNL     1      -8.472  17.979  67.263  1.00  0.00    -0.234 C  
HETATM   10  O   UNL     1     -10.416  19.585  67.328  1.00  0.00    -0.410 OA 
HETATM   11  O   UNL     1      -7.692  17.635  66.076  1.00  0.00    -0.437 OA 
HETATM   12  C   UNL     1      -9.268  19.317  66.976  1.00  0.00    -0.307 C  
HETATM   13  C   UNL     1      -6.989  18.678  65.521  1.00  0.00    -0.160 A  
HETATM   14  H   UNL     1      -8.849  21.275  66.429  1.00  0.00     0.000 HD 
HETATM   15  C   UNL     1      -5.904  18.371  64.703  1.00  0.00    -0.012 A  
HETATM   16  C   UNL     1      -5.150  19.401  64.130  1.00  0.00    -0.224 A  
HETATM   17  N   UNL     1      -8.528  20.309  66.378  1.00  0.00    -0.214 N  
HETATM   18  C   UNL     1      -7.349  20.014  65.706  1.00  0.00    -0.304 A  
HETATM   19  C   UNL     1      -6.593  21.046  65.153  1.00  0.00    -0.053 A  
HETATM   20  C   UNL     1      -5.481  20.736  64.372  1.00  0.00    -0.253 A  
BRANCH   9  21
HETATM   21  C   UNL     1      -7.516  18.171  68.482  1.00  0.00    -0.289 A  
HETATM   22  C   UNL     1      -6.658  19.559  70.294  1.00  0.00    -0.042 A  
HETATM   23  H   UNL     1      -5.119  19.532  72.311  1.00  0.00     0.000 HD 
HETATM   24  O   UNL     1      -5.141  18.691  71.869  1.00  0.00    -0.706 OA 
HETATM   25  C   UNL     1      -5.899  18.493  70.753  1.00  0.00     0.069 A  
HETATM   26  C   UNL     1      -5.931  17.264  70.105  1.00  0.00    -0.116 A  
HETATM   27  C   UNL     1      -6.741  17.102  68.977  1.00  0.00    -0.227 A  
HETATM   28  C   UNL     1      -7.468  19.401  69.171  1.00  0.00    -0.342 A  
ENDBRANCH   9  21
ENDBRANCH   6   9
TORSDOF 2
ENDMDL
MODEL       56
REMARK 921   NORMALIZED FREE ENERGY PREDICTED BY IDOCK:   -5.51 KCAL/MOL
REMARK 922        TOTAL FREE ENERGY PREDICTED BY IDOCK:   -6.91 KCAL/MOL
REMARK 923 INTER-LIGAND FREE ENERGY PREDICTED BY IDOCK:   -6.65 KCAL/MOL
REMARK 924 INTRA-LIGAND FREE ENERGY PREDICTED BY IDOCK:   -0.25 KCAL/MOL
REMARK 927      BINDING AFFINITY PREDICTED BY RF-SCORE:    0.00 PKD
ROOT
HETATM    1  O   UNL     1     -12.283  15.900  63.803  1.00  0.00    -1.213 OA 
HETATM    2  C   UNL     1     -11.669  14.852  64.421  1.00  0.00    -0.328 A  
HETATM    3  H   UNL     1     -12.017  16.800  63.956  1.00  0.00     0.000 HD 
HETATM    4  C   UNL     1     -12.059  13.537  64.198  1.00  0.00    -0.488 A  
HETATM    5  C   UNL     1     -11.421  12.496  64.890  1.00  0.00    -0.367 A  
HETATM    6  C   UNL     1     -10.390  12.755  65.819  1.00  0.00    -0.297 A  
HETATM    7  C   UNL     1     -10.029  14.104  66.013  1.00  0.00    -0.340 A  
HETATM    8  C   UNL     1     -10.649  15.141  65.310  1.00  0.00    -0.432 A  
ENDROOT
BRANCH   6   9
HETATM    9  C   UNL     1      -9.832  11.621  66.733  1.00  0.00    -0.200 C  
HETATM   10  O   UNL     1     -12.128  11.087  67.631  1.00  0.00    -0.447 OA 
HETATM   11  O   UNL     1      -8.721  12.165  67.511  1.00  0.00    -0.158 OA 
HETATM   12  C   UNL     1     -10.903  11.022  67.733  1.00  0.00    -0.249 C  
HETATM   13  C   UNL     1      -8.257  11.346  68.513  1.00  0.00    -0.153 A  
HETATM   14  H   UNL     1     -10.982   9.593  69.238  1.00  0.00     0.000 HD 
HETATM   15  C   UNL     1      -6.965  11.564  68.986  1.00  0.00    -0.112 A  
HETATM   16  C   UNL     1      -6.446  10.744  69.995  1.00  0.00    -0.151 A  
HETATM   17  N   UNL     1     -10.379  10.250  68.742  1.00  0.00    -0.184 N  
HETATM   18  C   UNL     1      -9.041  10.350  69.097  1.00  0.00    -0.187 A  
HETATM   19  C   UNL     1      -8.525   9.519  70.090  1.00  0.00    -0.227 A  
HETATM   20  C   UNL     1      -7.217   9.710  70.530  1.00  0.00    -0.143 A  
BRANCH   9  21
HETATM   21  C   UNL     1      -9.307  10.506  65.775  1.00  0.00    -0.229 A  
HETATM   22  C   UNL     1      -8.031   9.845  63.804  1.00  0.00    -0.148 A  
HETATM   23  H   UNL     1      -7.198   7.826  62.515  1.00  0.00     0.000 HD 
HETATM   24  O   UNL     1      -7.698   7.576  63.284  1.00  0.00    -0.117 OA 
HETATM   25  C   UNL     1      -8.246   8.511  64.111  1.00  0.00    -0.139 A  
HETATM   26  C   UNL     1      -8.978   8.147  65.235  1.00  0.00     0.040 A  
HETATM   27  C   UNL     1      -9.502   9.141  66.067  1.00  0.00    -0.321 A  
HETATM   28  C   UNL     1      -8.550  10.840  64.632  1.00  0.00    -0.064 A  
ENDBRANCH   9  21
ENDBRANCH   6   9
TORSDOF 2
ENDMDL
MODEL       57
REMARK 921   NORMALIZED FREE ENERGY PREDICTED BY IDOCK:   -5.49 KCAL/MOL
REMARK 922        TOTAL FREE ENERGY PREDICTED BY IDOCK:   -6.89 KCAL/MOL
REMARK 923 INTER-LIGAND FREE ENERGY PREDICTED BY IDOCK:   -6.70 KCAL/MOL
REMARK 924 INTRA-LIGAND FREE ENERGY PREDICTED BY IDOCK:   -0.20 KCAL/MOL
REMARK 927      BINDING AFFINITY PREDICTED BY RF-SCORE:    0.00 PKD
ROOT
HETATM    1  O   UNL     1      -7.250  21.381  66.835  1.00  0.00    -0.793 OA 
HETATM    2  C   UNL     1      -7.885  20.263  67.286  1.00  0.00    -0.327 A  
HETATM    3  H   UNL     1      -7.480  21.791  66.010  1.00  0.00     0.000 HD 
HETATM    4  C   UNL     1      -7.549  19.662  68.493  1.00  0.00    -0.372 A  
HETATM    5  C   UNL     1      -8.206  18.488  68.892  1.00  0.00    -0.203 A  
HETATM    6  C   UNL     1      -9.203  17.894  68.089  1.00  0.00    -0.278 A  
HETATM    7  C   UNL     1      -9.511  18.538  66.873  1.00  0.00    -0.300 A  
HETATM    8  C   UNL     1      -8.872  19.718  66.482  1.00  0.00    -0.420 A  
ENDROOT
BRANCH   6   9
HETATM    9  C   UNL     1      -9.778  16.487  68.436  1.00  0.00    -0.236 C  
HETATM   10  O   UNL     1     -10.900  16.287  66.186  1.00  0.00    -0.234 OA 
HETATM   11  O   UNL     1     -10.464  16.577  69.723  1.00  0.00    -0.283 OA 
HETATM   12  C   UNL     1     -10.795  15.930  67.359  1.00  0.00    -0.291 C  
HETATM   13  C   UNL     1     -11.201  15.469  70.068  1.00  0.00    -0.315 A  
HETATM   14  H   UNL     1     -11.983  14.250  67.080  1.00  0.00     0.000 HD 
HETATM   15  C   UNL     1     -11.501  15.279  71.415  1.00  0.00    -0.444 A  
HETATM   16  C   UNL     1     -12.235  14.157  71.814  1.00  0.00    -0.243 A  
HETATM   17  N   UNL     1     -11.539  14.851  67.774  1.00  0.00    -0.338 N  
HETATM   18  C   UNL     1     -11.693  14.566  69.124  1.00  0.00    -0.314 A  
HETATM   19  C   UNL     1     -12.411  13.438  69.514  1.00  0.00    -0.155 A  
HETATM   20  C   UNL     1     -12.671  13.227  70.867  1.00  0.00    -0.332 A  
BRANCH   9  21
HETATM   21  C   UNL     1      -8.549  15.532  68.562  1.00  0.00    -0.176 A  
HETATM   22  C   UNL     1      -6.899  14.386  69.944  1.00  0.00    -0.060 A  
HETATM   23  H   UNL     1      -5.013  12.692  69.860  1.00  0.00     0.000 HD 
HETATM   24  O   UNL     1      -5.399  12.838  69.004  1.00  0.00    -0.067 OA 
HETATM   25  C   UNL     1      -6.422  13.721  68.825  1.00  0.00    -0.096 A  
HETATM   26  C   UNL     1      -6.986  13.936  67.573  1.00  0.00    -0.162 A  
HETATM   27  C   UNL     1      -8.049  14.834  67.443  1.00  0.00    -0.220 A  
HETATM   28  C   UNL     1      -7.961  15.281  69.819  1.00  0.00    -0.039 A  
ENDBRANCH   9  21
ENDBRANCH   6   9
TORSDOF 2
ENDMDL
MODEL       58
REMARK 921   NORMALIZED FREE ENERGY PREDICTED BY IDOCK:   -5.47 KCAL/MOL
REMARK 922        TOTAL FREE ENERGY PREDICTED BY IDOCK:   -6.86 KCAL/MOL
REMARK 923 INTER-LIGAND FREE ENERGY PREDICTED BY IDOCK:   -6.47 KCAL/MOL
REMARK 924 INTRA-LIGAND FREE ENERGY PREDICTED BY IDOCK:   -0.39 KCAL/MOL
REMARK 927      BINDING AFFINITY PREDICTED BY RF-SCORE:    0.00 PKD
ROOT
HETATM    1  O   UNL     1     -13.195  14.109  65.087  1.00  0.00    -0.743 OA 
HETATM    2  C   UNL     1     -12.303  13.103  65.314  1.00  0.00    -0.481 A  
HETATM    3  H   UNL     1     -13.533  14.650  65.791  1.00  0.00     0.000 HD 
HETATM    4  C   UNL     1     -11.810  12.312  64.284  1.00  0.00    -0.482 A  
HETATM    5  C   UNL     1     -10.925  11.263  64.577  1.00  0.00    -0.301 A  
HETATM    6  C   UNL     1     -10.526  10.986  65.902  1.00  0.00    -0.300 A  
HETATM    7  C   UNL     1     -11.052  11.815  66.914  1.00  0.00    -0.361 A  
HETATM    8  C   UNL     1     -11.918  12.872  66.623  1.00  0.00    -0.436 A  
ENDROOT
BRANCH   6   9
HETATM    9  C   UNL     1      -9.713   9.699  66.241  1.00  0.00    -0.240 C  
HETATM   10  O   UNL     1      -8.393   9.854  64.098  1.00  0.00    -0.145 OA 
HETATM   11  O   UNL     1     -10.659   8.638  66.583  1.00  0.00    -0.240 OA 
HETATM   12  C   UNL     1      -8.793   9.194  65.057  1.00  0.00    -0.189 C  
HETATM   13  C   UNL     1     -10.106   7.385  66.706  1.00  0.00    -0.235 A  
HETATM   14  H   UNL     1      -7.490   7.623  64.675  1.00  0.00     0.000 HD 
HETATM   15  C   UNL     1     -10.805   6.434  67.446  1.00  0.00    -0.457 A  
HETATM   16  C   UNL     1     -10.273   5.150  67.610  1.00  0.00    -0.197 A  
HETATM   17  N   UNL     1      -8.306   7.917  65.210  1.00  0.00    -0.145 N  
HETATM   18  C   UNL     1      -8.910   7.023  66.084  1.00  0.00    -0.147 A  
HETATM   19  C   UNL     1      -8.366   5.752  66.256  1.00  0.00    -0.115 A  
HETATM   20  C   UNL     1      -9.046   4.817  67.034  1.00  0.00    -0.121 A  
BRANCH   9  21
HETATM   21  C   UNL     1      -8.842  10.048  67.489  1.00  0.00    -0.130 A  
HETATM   22  C   UNL     1      -8.426   9.883  69.887  1.00  0.00    -0.210 A  
HETATM   23  H   UNL     1      -6.751  10.477  71.697  1.00  0.00     0.000 HD 
HETATM   24  O   UNL     1      -6.465  10.767  70.838  1.00  0.00    -0.343 OA 
HETATM   25  C   UNL     1      -7.226  10.557  69.726  1.00  0.00    -0.149 A  
HETATM   26  C   UNL     1      -6.809  10.981  68.470  1.00  0.00    -0.064 A  
HETATM   27  C   UNL     1      -7.612  10.723  67.355  1.00  0.00    -0.099 A  
HETATM   28  C   UNL     1      -9.230   9.622  68.777  1.00  0.00    -0.141 A  
ENDBRANCH   9  21
ENDBRANCH   6   9
TORSDOF 2
ENDMDL
MODEL       59
REMARK 921   NORMALIZED FREE ENERGY PREDICTED BY IDOCK:   -5.45 KCAL/MOL
REMARK 922        TOTAL FREE ENERGY PREDICTED BY IDOCK:   -6.84 KCAL/MOL
REMARK 923 INTER-LIGAND FREE ENERGY PREDICTED BY IDOCK:   -6.40 KCAL/MOL
REMARK 924 INTRA-LIGAND FREE ENERGY PREDICTED BY IDOCK:   -0.44 KCAL/MOL
REMARK 927      BINDING AFFINITY PREDICTED BY RF-SCORE:    0.00 PKD
ROOT
HETATM    1  O   UNL     1      -8.784  17.850  65.905  1.00  0.00    -0.508 OA 
HETATM    2  C   UNL     1      -9.001  16.519  66.102  1.00  0.00    -0.309 A  
HETATM    3  H   UNL     1      -8.069  18.311  66.329  1.00  0.00     0.000 HD 
HETATM    4  C   UNL     1     -10.047  15.846  65.482  1.00  0.00    -0.353 A  
HETATM    5  C   UNL     1     -10.252  14.484  65.750  1.00  0.00    -0.354 A  
HETATM    6  C   UNL     1      -9.420  13.777  66.645  1.00  0.00    -0.289 A  
HETATM    7  C   UNL     1      -8.372  14.501  67.250  1.00  0.00    -0.232 A  
HETATM    8  C   UNL     1      -8.154  15.853  66.970  1.00  0.00    -0.265 A  
ENDROOT
BRANCH   6   9
HETATM    9  C   UNL     1      -9.777  12.327  67.095  1.00  0.00    -0.201 C  
HETATM   10  O   UNL     1     -12.240  12.862  67.189  1.00  0.00    -0.368 OA 
HETATM   11  O   UNL     1      -8.937  11.984  68.241  1.00  0.00    -0.184 OA 
HETATM   12  C   UNL     1     -11.294  12.142  67.507  1.00  0.00    -0.326 C  
HETATM   13  C   UNL     1      -9.276  10.817  68.882  1.00  0.00    -0.173 A  
HETATM   14  H   UNL     1     -12.527  10.633  68.225  1.00  0.00     0.000 HD 
HETATM   15  C   UNL     1      -8.304  10.193  69.660  1.00  0.00    -0.174 A  
HETATM   16  C   UNL     1      -8.601   8.994  70.318  1.00  0.00    -0.193 A  
HETATM   17  N   UNL     1     -11.568  10.978  68.186  1.00  0.00    -0.298 N  
HETATM   18  C   UNL     1     -10.558  10.267  68.820  1.00  0.00    -0.209 A  
HETATM   19  C   UNL     1     -10.857   9.065  69.458  1.00  0.00    -0.177 A  
HETATM   20  C   UNL     1      -9.868   8.420  70.199  1.00  0.00    -0.183 A  
BRANCH   9  21
HETATM   21  C   UNL     1      -9.427  11.397  65.891  1.00  0.00    -0.251 A  
HETATM   22  C   UNL     1      -9.983  10.482  63.700  1.00  0.00    -0.299 A  
HETATM   23  H   UNL     1      -9.089   9.016  61.833  1.00  0.00     0.000 HD 
HETATM   24  O   UNL     1      -8.471   9.095  62.550  1.00  0.00    -0.181 OA 
HETATM   25  C   UNL     1      -8.759   9.831  63.661  1.00  0.00    -0.221 A  
HETATM   26  C   UNL     1      -7.856   9.947  64.711  1.00  0.00    -0.141 A  
HETATM   27  C   UNL     1      -8.187  10.731  65.819  1.00  0.00    -0.146 A  
HETATM   28  C   UNL     1     -10.316  11.267  64.803  1.00  0.00    -0.366 A  
ENDBRANCH   9  21
ENDBRANCH   6   9
TORSDOF 2
ENDMDL
MODEL       60
REMARK 921   NORMALIZED FREE ENERGY PREDICTED BY IDOCK:   -5.44 KCAL/MOL
REMARK 922        TOTAL FREE ENERGY PREDICTED BY IDOCK:   -6.84 KCAL/MOL
REMARK 923 INTER-LIGAND FREE ENERGY PREDICTED BY IDOCK:   -6.67 KCAL/MOL
REMARK 924 INTRA-LIGAND FREE ENERGY PREDICTED BY IDOCK:   -0.17 KCAL/MOL
REMARK 927      BINDING AFFINITY PREDICTED BY RF-SCORE:    0.00 PKD
ROOT
HETATM    1  O   UNL     1     -13.760  13.330  72.366  1.00  0.00    -0.577 OA 
HETATM    2  C   UNL     1     -12.825  13.691  71.442  1.00  0.00    -0.360 A  
HETATM    3  H   UNL     1     -14.087  13.942  73.016  1.00  0.00     0.000 HD 
HETATM    4  C   UNL     1     -12.347  12.796  70.493  1.00  0.00    -0.355 A  
HETATM    5  C   UNL     1     -11.354  13.206  69.590  1.00  0.00    -0.182 A  
HETATM    6  C   UNL     1     -10.821  14.512  69.626  1.00  0.00    -0.180 A  
HETATM    7  C   UNL     1     -11.336  15.385  70.607  1.00  0.00    -0.360 A  
HETATM    8  C   UNL     1     -12.338  14.985  71.495  1.00  0.00    -0.398 A  
ENDROOT
BRANCH   6   9
HETATM    9  C   UNL     1      -9.579  14.895  68.763  1.00  0.00    -0.214 C  
HETATM   10  O   UNL     1      -8.782  12.504  68.680  1.00  0.00    -0.088 OA 
HETATM   11  O   UNL     1      -8.887  16.000  69.423  1.00  0.00    -0.243 OA 
HETATM   12  C   UNL     1      -8.554  13.707  68.557  1.00  0.00    -0.103 C  
HETATM   13  C   UNL     1      -7.658  16.314  68.894  1.00  0.00    -0.212 A  
HETATM   14  H   UNL     1      -6.724  13.389  67.629  1.00  0.00     0.000 HD 
HETATM   15  C   UNL     1      -7.147  17.587  69.141  1.00  0.00    -0.195 A  
HETATM   16  C   UNL     1      -5.907  17.955  68.609  1.00  0.00    -0.181 A  
HETATM   17  N   UNL     1      -7.326  14.085  68.069  1.00  0.00    -0.123 N  
HETATM   18  C   UNL     1      -6.892  15.400  68.167  1.00  0.00    -0.127 A  
HETATM   19  C   UNL     1      -5.665  15.765  67.620  1.00  0.00    -0.148 A  
HETATM   20  C   UNL     1      -5.177  17.053  67.832  1.00  0.00    -0.124 A  
BRANCH   9  21
HETATM   21  C   UNL     1     -10.136  15.372  67.385  1.00  0.00    -0.233 A  
HETATM   22  C   UNL     1     -10.505  17.152  65.759  1.00  0.00    -0.242 A  
HETATM   23  H   UNL     1     -11.360  17.608  63.415  1.00  0.00     0.000 HD 
HETATM   24  O   UNL     1     -11.414  16.686  63.641  1.00  0.00    -0.746 OA 
HETATM   25  C   UNL     1     -11.015  16.228  64.861  1.00  0.00    -0.307 A  
HETATM   26  C   UNL     1     -11.094  14.880  65.192  1.00  0.00    -0.399 A  
HETATM   27  C   UNL     1     -10.651  14.454  66.448  1.00  0.00    -0.297 A  
HETATM   28  C   UNL     1     -10.060  16.731  67.012  1.00  0.00    -0.276 A  
ENDBRANCH   9  21
ENDBRANCH   6   9
TORSDOF 2
ENDMDL
MODEL       61
REMARK 921   NORMALIZED FREE ENERGY PREDICTED BY IDOCK:   -5.42 KCAL/MOL
REMARK 922        TOTAL FREE ENERGY PREDICTED BY IDOCK:   -6.81 KCAL/MOL
REMARK 923 INTER-LIGAND FREE ENERGY PREDICTED BY IDOCK:   -6.79 KCAL/MOL
REMARK 924 INTRA-LIGAND FREE ENERGY PREDICTED BY IDOCK:   -0.02 KCAL/MOL
REMARK 927      BINDING AFFINITY PREDICTED BY RF-SCORE:    0.00 PKD
ROOT
HETATM    1  O   UNL     1     -10.369   7.614  69.690  1.00  0.00    -0.203 OA 
HETATM    2  C   UNL     1     -10.568   8.880  69.226  1.00  0.00    -0.207 A  
HETATM    3  H   UNL     1     -10.473   7.393  70.608  1.00  0.00     0.000 HD 
HETATM    4  C   UNL     1     -10.415   9.203  67.884  1.00  0.00    -0.293 A  
HETATM    5  C   UNL     1     -10.592  10.531  67.464  1.00  0.00    -0.306 A  
HETATM    6  C   UNL     1     -10.918  11.554  68.380  1.00  0.00    -0.267 A  
HETATM    7  C   UNL     1     -11.063  11.179  69.731  1.00  0.00    -0.271 A  
HETATM    8  C   UNL     1     -10.906   9.854  70.149  1.00  0.00    -0.356 A  
ENDROOT
BRANCH   6   9
HETATM    9  C   UNL     1     -10.908  13.051  67.944  1.00  0.00    -0.242 C  
HETATM   10  O   UNL     1     -12.763  12.676  66.278  1.00  0.00    -0.193 OA 
HETATM   11  O   UNL     1      -9.533  13.423  67.617  1.00  0.00    -0.203 OA 
HETATM   12  C   UNL     1     -11.827  13.358  66.693  1.00  0.00    -0.395 C  
HETATM   13  C   UNL     1      -9.390  14.653  67.019  1.00  0.00    -0.232 A  
HETATM   14  H   UNL     1     -12.329  14.988  65.508  1.00  0.00     0.000 HD 
HETATM   15  C   UNL     1      -8.143  15.270  67.085  1.00  0.00    -0.248 A  
HETATM   16  C   UNL     1      -7.957  16.529  66.503  1.00  0.00    -0.345 A  
HETATM   17  N   UNL     1     -11.609  14.582  66.106  1.00  0.00    -0.368 N  
HETATM   18  C   UNL     1     -10.424  15.274  66.315  1.00  0.00    -0.307 A  
HETATM   19  C   UNL     1     -10.251  16.535  65.748  1.00  0.00    -0.350 A  
HETATM   20  C   UNL     1      -9.015  17.169  65.855  1.00  0.00    -0.020 A  
BRANCH   9  21
HETATM   21  C   UNL     1     -11.393  13.869  69.183  1.00  0.00    -0.331 A  
HETATM   22  C   UNL     1     -13.072  14.312  70.895  1.00  0.00    -0.368 A  
HETATM   23  H   UNL     1     -13.529  15.692  72.974  1.00  0.00     0.000 HD 
HETATM   24  O   UNL     1     -12.668  15.869  72.611  1.00  0.00    -0.414 OA 
HETATM   25  C   UNL     1     -12.227  15.240  71.485  1.00  0.00    -0.351 A  
HETATM   26  C   UNL     1     -10.969  15.498  70.954  1.00  0.00    -0.333 A  
HETATM   27  C   UNL     1     -10.552  14.811  69.810  1.00  0.00    -0.134 A  
HETATM   28  C   UNL     1     -12.659  13.624  69.755  1.00  0.00    -0.055 A  
ENDBRANCH   9  21
ENDBRANCH   6   9
TORSDOF 2
ENDMDL
MODEL       62
REMARK 921   NORMALIZED FREE ENERGY PREDICTED BY IDOCK:   -5.41 KCAL/MOL
REMARK 922        TOTAL FREE ENERGY PREDICTED BY IDOCK:   -6.80 KCAL/MOL
REMARK 923 INTER-LIGAND FREE ENERGY PREDICTED BY IDOCK:   -5.90 KCAL/MOL
REMARK 924 INTRA-LIGAND FREE ENERGY PREDICTED BY IDOCK:   -0.90 KCAL/MOL
REMARK 927      BINDING AFFINITY PREDICTED BY RF-SCORE:    0.00 PKD
ROOT
HETATM    1  O   UNL     1     -11.165   4.610  65.391  1.00  0.00    -0.927 OA 
HETATM    2  C   UNL     1     -10.604   5.223  66.472  1.00  0.00    -0.285 A  
HETATM    3  H   UNL     1     -11.814   5.043  64.849  1.00  0.00     0.000 HD 
HETATM    4  C   UNL     1      -9.656   4.590  67.265  1.00  0.00    -0.213 A  
HETATM    5  C   UNL     1      -9.139   5.250  68.391  1.00  0.00    -0.125 A  
HETATM    6  C   UNL     1      -9.567   6.548  68.743  1.00  0.00    -0.126 A  
HETATM    7  C   UNL     1     -10.531   7.151  67.909  1.00  0.00    -0.268 A  
HETATM    8  C   UNL     1     -11.032   6.503  66.776  1.00  0.00    -0.309 A  
ENDROOT
BRANCH   6   9
HETATM    9  C   UNL     1      -9.147   7.189  70.101  1.00  0.00    -0.152 C  
HETATM   10  O   UNL     1      -7.698   8.903  68.952  1.00  0.00    -0.091 OA 
HETATM   11  O   UNL     1      -8.670   6.123  70.981  1.00  0.00    -0.130 OA 
HETATM   12  C   UNL     1      -8.010   8.282  69.967  1.00  0.00    -0.104 C  
HETATM   13  C   UNL     1      -8.071   6.553  72.142  1.00  0.00    -0.106 A  
HETATM   14  H   UNL     1      -6.905   9.521  71.214  1.00  0.00     0.000 HD 
HETATM   15  C   UNL     1      -8.001   5.661  73.209  1.00  0.00    -0.110 A  
HETATM   16  C   UNL     1      -7.414   6.061  74.414  1.00  0.00    -0.090 A  
HETATM   17  N   UNL     1      -7.414   8.640  71.153  1.00  0.00    -0.085 N  
HETATM   18  C   UNL     1      -7.495   7.819  72.270  1.00  0.00    -0.083 A  
HETATM   19  C   UNL     1      -6.923   8.230  73.472  1.00  0.00    -0.152 A  
HETATM   20  C   UNL     1      -6.896   7.350  74.552  1.00  0.00    -0.106 A  
BRANCH   9  21
HETATM   21  C   UNL     1     -10.440   7.825  70.702  1.00  0.00    -0.213 A  
HETATM   22  C   UNL     1     -11.783   9.797  71.208  1.00  0.00    -0.472 A  
HETATM   23  H   UNL     1     -14.035  10.535  72.113  1.00  0.00     0.000 HD 
HETATM   24  O   UNL     1     -13.949   9.588  72.099  1.00  0.00    -0.342 OA 
HETATM   25  C   UNL     1     -12.810   8.983  71.659  1.00  0.00    -0.359 A  
HETATM   26  C   UNL     1     -12.684   7.599  71.639  1.00  0.00    -0.368 A  
HETATM   27  C   UNL     1     -11.505   7.022  71.157  1.00  0.00    -0.333 A  
HETATM   28  C   UNL     1     -10.606   9.226  70.725  1.00  0.00    -0.351 A  
ENDBRANCH   9  21
ENDBRANCH   6   9
TORSDOF 2
ENDMDL
MODEL       63
REMARK 921   NORMALIZED FREE ENERGY PREDICTED BY IDOCK:   -5.40 KCAL/MOL
REMARK 922        TOTAL FREE ENERGY PREDICTED BY IDOCK:   -6.79 KCAL/MOL
REMARK 923 INTER-LIGAND FREE ENERGY PREDICTED BY IDOCK:   -6.22 KCAL/MOL
REMARK 924 INTRA-LIGAND FREE ENERGY PREDICTED BY IDOCK:   -0.57 KCAL/MOL
REMARK 927      BINDING AFFINITY PREDICTED BY RF-SCORE:    0.00 PKD
ROOT
HETATM    1  O   UNL     1     -12.873  14.250  69.335  1.00  0.00    -0.429 OA 
HETATM    2  C   UNL     1     -12.112  13.126  69.214  1.00  0.00    -0.220 A  
HETATM    3  H   UNL     1     -13.311  14.476  70.148  1.00  0.00     0.000 HD 
HETATM    4  C   UNL     1     -11.471  12.796  68.026  1.00  0.00    -0.364 A  
HETATM    5  C   UNL     1     -10.733  11.606  67.942  1.00  0.00    -0.241 A  
HETATM    6  C   UNL     1     -10.630  10.726  69.040  1.00  0.00    -0.250 A  
HETATM    7  C   UNL     1     -11.296  11.101  70.225  1.00  0.00    -0.237 A  
HETATM    8  C   UNL     1     -12.016  12.296  70.317  1.00  0.00    -0.373 A  
ENDROOT
BRANCH   6   9
HETATM    9  C   UNL     1      -9.987   9.314  68.878  1.00  0.00    -0.181 C  
HETATM   10  O   UNL     1      -7.690  10.297  68.533  1.00  0.00    -0.086 OA 
HETATM   11  O   UNL     1     -10.755   8.574  67.878  1.00  0.00    -0.187 OA 
HETATM   12  C   UNL     1      -8.471   9.351  68.425  1.00  0.00    -0.120 C  
HETATM   13  C   UNL     1     -10.190   7.388  67.472  1.00  0.00    -0.224 A  
HETATM   14  H   UNL     1      -6.963   8.001  67.963  1.00  0.00     0.000 HD 
HETATM   15  C   UNL     1     -11.024   6.432  66.897  1.00  0.00    -0.413 A  
HETATM   16  C   UNL     1     -10.494   5.204  66.484  1.00  0.00    -0.346 A  
HETATM   17  N   UNL     1      -7.972   8.148  67.986  1.00  0.00    -0.125 N  
HETATM   18  C   UNL     1      -8.821   7.131  67.572  1.00  0.00    -0.119 A  
HETATM   19  C   UNL     1      -8.290   5.905  67.178  1.00  0.00    -0.105 A  
HETATM   20  C   UNL     1      -9.134   4.933  66.644  1.00  0.00    -0.119 A  
BRANCH   9  21
HETATM   21  C   UNL     1     -10.118   8.612  70.266  1.00  0.00    -0.206 A  
HETATM   22  C   UNL     1      -9.337   8.296  72.555  1.00  0.00    -0.350 A  
HETATM   23  H   UNL     1      -9.882   7.121  74.736  1.00  0.00     0.000 HD 
HETATM   24  O   UNL     1     -10.524   6.933  74.060  1.00  0.00    -0.374 OA 
HETATM   25  C   UNL     1     -10.412   7.458  72.807  1.00  0.00    -0.275 A  
HETATM   26  C   UNL     1     -11.350   7.184  71.818  1.00  0.00    -0.285 A  
HETATM   27  C   UNL     1     -11.206   7.763  70.554  1.00  0.00    -0.267 A  
HETATM   28  C   UNL     1      -9.191   8.878  71.296  1.00  0.00    -0.328 A  
ENDBRANCH   9  21
ENDBRANCH   6   9
TORSDOF 2
ENDMDL
MODEL       64
REMARK 921   NORMALIZED FREE ENERGY PREDICTED BY IDOCK:   -5.39 KCAL/MOL
REMARK 922        TOTAL FREE ENERGY PREDICTED BY IDOCK:   -6.77 KCAL/MOL
REMARK 923 INTER-LIGAND FREE ENERGY PREDICTED BY IDOCK:   -6.91 KCAL/MOL
REMARK 924 INTRA-LIGAND FREE ENERGY PREDICTED BY IDOCK:    0.14 KCAL/MOL
REMARK 927      BINDING AFFINITY PREDICTED BY RF-SCORE:    0.00 PKD
ROOT
HETATM    1  O   UNL     1     -12.632  11.267  62.767  1.00  0.00    -0.912 OA 
HETATM    2  C   UNL     1     -11.900  12.033  63.625  1.00  0.00    -0.506 A  
HETATM    3  H   UNL     1     -13.426  11.590  62.357  1.00  0.00     0.000 HD 
HETATM    4  C   UNL     1     -10.739  11.561  64.224  1.00  0.00    -0.416 A  
HETATM    5  C   UNL     1     -10.045  12.376  65.132  1.00  0.00    -0.276 A  
HETATM    6  C   UNL     1     -10.503  13.670  65.458  1.00  0.00    -0.314 A  
HETATM    7  C   UNL     1     -11.685  14.107  64.825  1.00  0.00    -0.416 A  
HETATM    8  C   UNL     1     -12.368  13.305  63.906  1.00  0.00    -0.422 A  
ENDROOT
BRANCH   6   9
HETATM    9  C   UNL     1      -9.848  14.484  66.615  1.00  0.00    -0.273 C  
HETATM   10  O   UNL     1     -12.044  14.691  67.838  1.00  0.00    -0.304 OA 
HETATM   11  O   UNL     1      -9.094  15.590  66.027  1.00  0.00    -0.326 OA 
HETATM   12  C   UNL     1     -10.890  15.076  67.649  1.00  0.00    -0.291 C  
HETATM   13  C   UNL     1      -8.629  16.520  66.926  1.00  0.00    -0.207 A  
HETATM   14  H   UNL     1     -10.870  16.249  69.362  1.00  0.00     0.000 HD 
HETATM   15  C   UNL     1      -7.560  17.324  66.539  1.00  0.00    -0.324 A  
HETATM   16  C   UNL     1      -7.044  18.273  67.429  1.00  0.00    -0.207 A  
HETATM   17  N   UNL     1     -10.382  16.035  68.493  1.00  0.00    -0.233 N  
HETATM   18  C   UNL     1      -9.214  16.716  68.179  1.00  0.00    -0.220 A  
HETATM   19  C   UNL     1      -8.696  17.647  69.076  1.00  0.00    -0.008 A  
HETATM   20  C   UNL     1      -7.597  18.419  68.702  1.00  0.00    -0.321 A  
BRANCH   9  21
HETATM   21  C   UNL     1      -8.868  13.506  67.337  1.00  0.00    -0.221 A  
HETATM   22  C   UNL     1      -6.621  12.959  68.111  1.00  0.00    -0.093 A  
HETATM   23  H   UNL     1      -5.301  11.262  69.457  1.00  0.00     0.000 HD 
HETATM   24  O   UNL     1      -6.226  11.047  69.423  1.00  0.00    -0.055 OA 
HETATM   25  C   UNL     1      -7.113  11.825  68.739  1.00  0.00    -0.111 A  
HETATM   26  C   UNL     1      -8.466  11.511  68.687  1.00  0.00    -0.115 A  
HETATM   27  C   UNL     1      -9.341  12.352  67.993  1.00  0.00    -0.204 A  
HETATM   28  C   UNL     1      -7.491  13.801  67.419  1.00  0.00    -0.142 A  
ENDBRANCH   9  21
ENDBRANCH   6   9
TORSDOF 2
ENDMDL
MODEL       65
REMARK 921   NORMALIZED FREE ENERGY PREDICTED BY IDOCK:   -5.37 KCAL/MOL
REMARK 922        TOTAL FREE ENERGY PREDICTED BY IDOCK:   -6.75 KCAL/MOL
REMARK 923 INTER-LIGAND FREE ENERGY PREDICTED BY IDOCK:   -5.96 KCAL/MOL
REMARK 924 INTRA-LIGAND FREE ENERGY PREDICTED BY IDOCK:   -0.80 KCAL/MOL
REMARK 927      BINDING AFFINITY PREDICTED BY RF-SCORE:    0.00 PKD
ROOT
HETATM    1  O   UNL     1     -13.213  13.392  64.978  1.00  0.00    -0.715 OA 
HETATM    2  C   UNL     1     -12.140  12.573  65.171  1.00  0.00    -0.446 A  
HETATM    3  H   UNL     1     -13.663  13.810  65.703  1.00  0.00     0.000 HD 
HETATM    4  C   UNL     1     -11.482  11.962  64.111  1.00  0.00    -0.449 A  
HETATM    5  C   UNL     1     -10.409  11.095  64.367  1.00  0.00    -0.407 A  
HETATM    6  C   UNL     1      -9.982  10.822  65.684  1.00  0.00    -0.317 A  
HETATM    7  C   UNL     1     -10.680  11.464  66.728  1.00  0.00    -0.316 A  
HETATM    8  C   UNL     1     -11.737  12.343  66.475  1.00  0.00    -0.443 A  
ENDROOT
BRANCH   6   9
HETATM    9  C   UNL     1      -8.932   9.704  65.970  1.00  0.00    -0.162 C  
HETATM   10  O   UNL     1      -7.296  11.360  66.941  1.00  0.00    -0.135 OA 
HETATM   11  O   UNL     1      -8.737   8.935  64.743  1.00  0.00    -0.179 OA 
HETATM   12  C   UNL     1      -7.528  10.256  66.451  1.00  0.00    -0.114 C  
HETATM   13  C   UNL     1      -7.689   8.045  64.775  1.00  0.00    -0.120 A  
HETATM   14  H   UNL     1      -5.668   9.496  66.975  1.00  0.00     0.000 HD 
HETATM   15  C   UNL     1      -7.705   6.987  63.870  1.00  0.00    -0.119 A  
HETATM   16  C   UNL     1      -6.667   6.048  63.878  1.00  0.00    -0.037 A  
HETATM   17  N   UNL     1      -6.508   9.336  66.419  1.00  0.00    -0.066 N  
HETATM   18  C   UNL     1      -6.603   8.190  65.640  1.00  0.00    -0.049 A  
HETATM   19  C   UNL     1      -5.574   7.251  65.665  1.00  0.00    -0.032 A  
HETATM   20  C   UNL     1      -5.615   6.168  64.788  1.00  0.00    -0.021 A  
BRANCH   9  21
HETATM   21  C   UNL     1      -9.557   8.789  67.070  1.00  0.00    -0.236 A  
HETATM   22  C   UNL     1     -10.839   6.809  67.690  1.00  0.00    -0.361 A  
HETATM   23  H   UNL     1     -11.607   5.437  69.681  1.00  0.00     0.000 HD 
HETATM   24  O   UNL     1     -11.085   6.185  69.945  1.00  0.00    -0.347 OA 
HETATM   25  C   UNL     1     -10.581   7.061  69.029  1.00  0.00    -0.217 A  
HETATM   26  C   UNL     1      -9.818   8.156  69.415  1.00  0.00    -0.182 A  
HETATM   27  C   UNL     1      -9.304   9.014  68.438  1.00  0.00    -0.143 A  
HETATM   28  C   UNL     1     -10.327   7.661  66.713  1.00  0.00    -0.343 A  
ENDBRANCH   9  21
ENDBRANCH   6   9
TORSDOF 2
ENDMDL
MODEL       66
REMARK 921   NORMALIZED FREE ENERGY PREDICTED BY IDOCK:   -5.35 KCAL/MOL
REMARK 922        TOTAL FREE ENERGY PREDICTED BY IDOCK:   -6.74 KCAL/MOL
REMARK 923 INTER-LIGAND FREE ENERGY PREDICTED BY IDOCK:   -6.04 KCAL/MOL
REMARK 924 INTRA-LIGAND FREE ENERGY PREDICTED BY IDOCK:   -0.69 KCAL/MOL
REMARK 927      BINDING AFFINITY PREDICTED BY RF-SCORE:    0.00 PKD
ROOT
HETATM    1  O   UNL     1     -10.354   8.013  68.612  1.00  0.00    -0.204 OA 
HETATM    2  C   UNL     1     -10.394   9.374  68.558  1.00  0.00    -0.209 A  
HETATM    3  H   UNL     1      -9.745   7.507  68.086  1.00  0.00     0.000 HD 
HETATM    4  C   UNL     1     -11.285  10.113  69.327  1.00  0.00    -0.247 A  
HETATM    5  C   UNL     1     -11.315  11.511  69.204  1.00  0.00    -0.351 A  
HETATM    6  C   UNL     1     -10.461  12.189  68.308  1.00  0.00    -0.225 A  
HETATM    7  C   UNL     1      -9.574  11.397  67.549  1.00  0.00    -0.176 A  
HETATM    8  C   UNL     1      -9.529  10.007  67.684  1.00  0.00    -0.163 A  
ENDROOT
BRANCH   6   9
HETATM    9  C   UNL     1     -10.641  13.712  68.026  1.00  0.00    -0.249 C  
HETATM   10  O   UNL     1     -12.419  13.275  66.291  1.00  0.00    -0.354 OA 
HETATM   11  O   UNL     1      -9.323  14.288  67.767  1.00  0.00    -0.189 OA 
HETATM   12  C   UNL     1     -11.582  14.025  66.792  1.00  0.00    -0.386 C  
HETATM   13  C   UNL     1      -9.337  15.581  67.298  1.00  0.00    -0.212 A  
HETATM   14  H   UNL     1     -12.281  15.689  65.766  1.00  0.00     0.000 HD 
HETATM   15  C   UNL     1      -8.181  16.342  67.453  1.00  0.00    -0.178 A  
HETATM   16  C   UNL     1      -8.155  17.668  67.005  1.00  0.00    -0.243 A  
HETATM   17  N   UNL     1     -11.520  15.320  66.336  1.00  0.00    -0.170 N  
HETATM   18  C   UNL     1     -10.436  16.133  66.639  1.00  0.00    -0.300 A  
HETATM   19  C   UNL     1     -10.424  17.457  66.205  1.00  0.00    -0.276 A  
HETATM   20  C   UNL     1      -9.281  18.230  66.402  1.00  0.00    -0.272 A  
BRANCH   9  21
HETATM   21  C   UNL     1     -11.238  14.330  69.330  1.00  0.00    -0.309 A  
HETATM   22  C   UNL     1     -10.927  15.511  71.440  1.00  0.00    -0.190 A  
HETATM   23  H   UNL     1     -12.184  16.555  73.380  1.00  0.00     0.000 HD 
HETATM   24  O   UNL     1     -12.772  16.180  72.736  1.00  0.00    -0.445 OA 
HETATM   25  C   UNL     1     -12.301  15.558  71.617  1.00  0.00    -0.403 A  
HETATM   26  C   UNL     1     -13.161  15.009  70.674  1.00  0.00    -0.365 A  
HETATM   27  C   UNL     1     -12.631  14.402  69.532  1.00  0.00    -0.034 A  
HETATM   28  C   UNL     1     -10.394  14.907  70.302  1.00  0.00     0.108 A  
ENDBRANCH   9  21
ENDBRANCH   6   9
TORSDOF 2
ENDMDL
MODEL       67
REMARK 921   NORMALIZED FREE ENERGY PREDICTED BY IDOCK:   -5.33 KCAL/MOL
REMARK 922        TOTAL FREE ENERGY PREDICTED BY IDOCK:   -6.71 KCAL/MOL
REMARK 923 INTER-LIGAND FREE ENERGY PREDICTED BY IDOCK:   -6.15 KCAL/MOL
REMARK 924 INTRA-LIGAND FREE ENERGY PREDICTED BY IDOCK:   -0.56 KCAL/MOL
REMARK 927      BINDING AFFINITY PREDICTED BY RF-SCORE:    0.00 PKD
ROOT
HETATM    1  O   UNL     1     -12.250  13.346  68.694  1.00  0.00    -0.298 OA 
HETATM    2  C   UNL     1     -11.907  12.133  69.213  1.00  0.00    -0.313 A  
HETATM    3  H   UNL     1     -12.709  14.000  69.207  1.00  0.00     0.000 HD 
HETATM    4  C   UNL     1     -11.235  11.176  68.463  1.00  0.00    -0.318 A  
HETATM    5  C   UNL     1     -10.941   9.927  69.033  1.00  0.00    -0.223 A  
HETATM    6  C   UNL     1     -11.320   9.615  70.356  1.00  0.00    -0.337 A  
HETATM    7  C   UNL     1     -12.000  10.617  71.078  1.00  0.00    -0.442 A  
HETATM    8  C   UNL     1     -12.276  11.868  70.521  1.00  0.00    -0.426 A  
ENDROOT
BRANCH   6   9
HETATM    9  C   UNL     1     -11.177   8.164  70.909  1.00  0.00    -0.266 C  
HETATM   10  O   UNL     1     -13.663   7.762  70.759  1.00  0.00     0.113 OA 
HETATM   11  O   UNL     1     -10.398   8.219  72.144  1.00  0.00    -0.248 OA 
HETATM   12  C   UNL     1     -12.561   7.459  71.216  1.00  0.00    -0.340 C  
HETATM   13  C   UNL     1     -10.361   7.047  72.861  1.00  0.00    -0.239 A  
HETATM   14  H   UNL     1     -13.237   5.646  71.970  1.00  0.00     0.000 HD 
HETATM   15  C   UNL     1      -9.318   6.870  73.767  1.00  0.00    -0.224 A  
HETATM   16  C   UNL     1      -9.232   5.685  74.507  1.00  0.00    -0.129 A  
HETATM   17  N   UNL     1     -12.469   6.317  71.975  1.00  0.00    -0.214 N  
HETATM   18  C   UNL     1     -11.344   6.063  72.749  1.00  0.00    -0.242 A  
HETATM   19  C   UNL     1     -11.257   4.874  73.470  1.00  0.00    -0.375 A  
HETATM   20  C   UNL     1     -10.187   4.681  74.343  1.00  0.00    -0.288 A  
BRANCH   9  21
HETATM   21  C   UNL     1     -10.390   7.359  69.826  1.00  0.00    -0.226 A  
HETATM   22  C   UNL     1     -10.379   5.850  67.911  1.00  0.00    -0.262 A  
HETATM   23  H   UNL     1      -8.858   4.781  66.185  1.00  0.00     0.000 HD 
HETATM   24  O   UNL     1      -8.379   5.344  66.782  1.00  0.00    -0.108 OA 
HETATM   25  C   UNL     1      -9.006   6.007  67.795  1.00  0.00    -0.111 A  
HETATM   26  C   UNL     1      -8.306   6.829  68.669  1.00  0.00    -0.120 A  
HETATM   27  C   UNL     1      -8.996   7.507  69.678  1.00  0.00    -0.141 A  
HETATM   28  C   UNL     1     -11.072   6.526  68.915  1.00  0.00    -0.371 A  
ENDBRANCH   9  21
ENDBRANCH   6   9
TORSDOF 2
ENDMDL
MODEL       68
REMARK 921   NORMALIZED FREE ENERGY PREDICTED BY IDOCK:   -5.32 KCAL/MOL
REMARK 922        TOTAL FREE ENERGY PREDICTED BY IDOCK:   -6.69 KCAL/MOL
REMARK 923 INTER-LIGAND FREE ENERGY PREDICTED BY IDOCK:   -5.77 KCAL/MOL
REMARK 924 INTRA-LIGAND FREE ENERGY PREDICTED BY IDOCK:   -0.93 KCAL/MOL
REMARK 927      BINDING AFFINITY PREDICTED BY RF-SCORE:    0.00 PKD
ROOT
HETATM    1  O   UNL     1     -10.042   4.055  66.843  1.00  0.00    -0.303 OA 
HETATM    2  C   UNL     1      -9.813   5.386  67.021  1.00  0.00    -0.162 A  
HETATM    3  H   UNL     1     -10.909   3.715  66.652  1.00  0.00     0.000 HD 
HETATM    4  C   UNL     1      -8.545   5.882  67.301  1.00  0.00    -0.106 A  
HETATM    5  C   UNL     1      -8.370   7.258  67.517  1.00  0.00    -0.116 A  
HETATM    6  C   UNL     1      -9.457   8.156  67.463  1.00  0.00    -0.184 A  
HETATM    7  C   UNL     1     -10.724   7.607  67.177  1.00  0.00    -0.361 A  
HETATM    8  C   UNL     1     -10.899   6.240  66.942  1.00  0.00    -0.428 A  
ENDROOT
BRANCH   6   9
HETATM    9  C   UNL     1      -9.292   9.642  67.906  1.00  0.00    -0.128 C  
HETATM   10  O   UNL     1     -10.074  10.495  65.665  1.00  0.00    -0.250 OA 
HETATM   11  O   UNL     1      -7.949   9.808  68.459  1.00  0.00    -0.087 OA 
HETATM   12  C   UNL     1      -9.488  10.684  66.731  1.00  0.00    -0.162 C  
HETATM   13  C   UNL     1      -7.579  11.109  68.704  1.00  0.00    -0.127 A  
HETATM   14  H   UNL     1      -9.406  12.741  66.462  1.00  0.00     0.000 HD 
HETATM   15  C   UNL     1      -6.550  11.333  69.616  1.00  0.00    -0.136 A  
HETATM   16  C   UNL     1      -6.150  12.642  69.907  1.00  0.00    -0.125 A  
HETATM   17  N   UNL     1      -9.058  11.958  67.015  1.00  0.00    -0.185 N  
HETATM   18  C   UNL     1      -8.156  12.195  68.044  1.00  0.00    -0.155 A  
HETATM   19  C   UNL     1      -7.776  13.502  68.341  1.00  0.00    -0.135 A  
HETATM   20  C   UNL     1      -6.777  13.725  69.287  1.00  0.00    -0.101 A  
BRANCH   9  21
HETATM   21  C   UNL     1     -10.354   9.884  69.025  1.00  0.00    -0.224 A  
HETATM   22  C   UNL     1     -11.112   9.564  71.321  1.00  0.00    -0.449 A  
HETATM   23  H   UNL     1     -12.915  10.244  72.971  1.00  0.00     0.000 HD 
HETATM   24  O   UNL     1     -13.038  10.652  72.122  1.00  0.00    -0.460 OA 
HETATM   25  C   UNL     1     -12.183  10.411  71.086  1.00  0.00    -0.394 A  
HETATM   26  C   UNL     1     -12.363  11.007  69.843  1.00  0.00    -0.356 A  
HETATM   27  C   UNL     1     -11.448  10.748  68.819  1.00  0.00    -0.364 A  
HETATM   28  C   UNL     1     -10.196   9.305  70.302  1.00  0.00    -0.270 A  
ENDBRANCH   9  21
ENDBRANCH   6   9
TORSDOF 2
ENDMDL
MODEL       69
REMARK 921   NORMALIZED FREE ENERGY PREDICTED BY IDOCK:   -5.30 KCAL/MOL
REMARK 922        TOTAL FREE ENERGY PREDICTED BY IDOCK:   -6.67 KCAL/MOL
REMARK 923 INTER-LIGAND FREE ENERGY PREDICTED BY IDOCK:   -6.13 KCAL/MOL
REMARK 924 INTRA-LIGAND FREE ENERGY PREDICTED BY IDOCK:   -0.55 KCAL/MOL
REMARK 927      BINDING AFFINITY PREDICTED BY RF-SCORE:    0.00 PKD
ROOT
HETATM    1  O   UNL     1      -8.958  19.922  66.587  1.00  0.00    -0.340 OA 
HETATM    2  C   UNL     1      -9.321  18.627  66.808  1.00  0.00    -0.308 A  
HETATM    3  H   UNL     1      -8.209  20.149  66.049  1.00  0.00     0.000 HD 
HETATM    4  C   UNL     1     -10.417  18.294  67.595  1.00  0.00    -0.431 A  
HETATM    5  C   UNL     1     -10.724  16.944  67.824  1.00  0.00    -0.315 A  
HETATM    6  C   UNL     1      -9.938  15.908  67.276  1.00  0.00    -0.240 A  
HETATM    7  C   UNL     1      -8.836  16.293  66.484  1.00  0.00    -0.318 A  
HETATM    8  C   UNL     1      -8.540  17.636  66.238  1.00  0.00    -0.224 A  
ENDROOT
BRANCH   6   9
HETATM    9  C   UNL     1     -10.158  14.424  67.702  1.00  0.00    -0.222 C  
HETATM   10  O   UNL     1     -10.670  13.722  65.334  1.00  0.00    -0.293 OA 
HETATM   11  O   UNL     1     -11.102  14.404  68.818  1.00  0.00    -0.236 OA 
HETATM   12  C   UNL     1     -10.725  13.505  66.545  1.00  0.00    -0.287 C  
HETATM   13  C   UNL     1     -11.557  13.156  69.172  1.00  0.00    -0.316 A  
HETATM   14  H   UNL     1     -11.309  11.529  66.287  1.00  0.00     0.000 HD 
HETATM   15  C   UNL     1     -12.074  12.990  70.454  1.00  0.00    -0.391 A  
HETATM   16  C   UNL     1     -12.534  11.733  70.862  1.00  0.00    -0.416 A  
HETATM   17  N   UNL     1     -11.209  12.288  66.961  1.00  0.00    -0.290 N  
HETATM   18  C   UNL     1     -11.564  12.076  68.287  1.00  0.00    -0.334 A  
HETATM   19  C   UNL     1     -12.005  10.818  68.691  1.00  0.00    -0.103 A  
HETATM   20  C   UNL     1     -12.480  10.645  69.989  1.00  0.00    -0.294 A  
BRANCH   9  21
HETATM   21  C   UNL     1      -8.769  13.896  68.180  1.00  0.00    -0.182 A  
HETATM   22  C   UNL     1      -6.812  14.105  69.620  1.00  0.00    -0.056 A  
HETATM   23  H   UNL     1      -4.664  12.939  70.300  1.00  0.00     0.000 HD 
HETATM   24  O   UNL     1      -5.151  12.441  69.653  1.00  0.00    -0.070 OA 
HETATM   25  C   UNL     1      -6.331  12.895  69.144  1.00  0.00    -0.105 A  
HETATM   26  C   UNL     1      -7.042  12.168  68.197  1.00  0.00    -0.088 A  
HETATM   27  C   UNL     1      -8.259  12.664  67.721  1.00  0.00    -0.171 A  
HETATM   28  C   UNL     1      -8.027  14.603  69.149  1.00  0.00    -0.097 A  
ENDBRANCH   9  21
ENDBRANCH   6   9
TORSDOF 2
ENDMDL
MODEL       70
REMARK 921   NORMALIZED FREE ENERGY PREDICTED BY IDOCK:   -5.25 KCAL/MOL
REMARK 922        TOTAL FREE ENERGY PREDICTED BY IDOCK:   -6.62 KCAL/MOL
REMARK 923 INTER-LIGAND FREE ENERGY PREDICTED BY IDOCK:   -5.71 KCAL/MOL
REMARK 924 INTRA-LIGAND FREE ENERGY PREDICTED BY IDOCK:   -0.91 KCAL/MOL
REMARK 927      BINDING AFFINITY PREDICTED BY RF-SCORE:    0.00 PKD
ROOT
HETATM    1  O   UNL     1      -5.562   3.389  69.623  1.00  0.00    -0.016 OA 
HETATM    2  C   UNL     1      -6.515   4.300  69.966  1.00  0.00    -0.032 A  
HETATM    3  H   UNL     1      -4.793   3.631  69.120  1.00  0.00     0.000 HD 
HETATM    4  C   UNL     1      -7.640   3.946  70.701  1.00  0.00    -0.044 A  
HETATM    5  C   UNL     1      -8.612   4.914  70.993  1.00  0.00    -0.131 A  
HETATM    6  C   UNL     1      -8.479   6.248  70.551  1.00  0.00    -0.138 A  
HETATM    7  C   UNL     1      -7.322   6.561  69.808  1.00  0.00    -0.079 A  
HETATM    8  C   UNL     1      -6.342   5.603  69.532  1.00  0.00    -0.037 A  
ENDROOT
BRANCH   6   9
HETATM    9  C   UNL     1      -9.654   7.262  70.698  1.00  0.00    -0.172 C  
HETATM   10  O   UNL     1      -8.362   8.662  72.351  1.00  0.00    -0.340 OA 
HETATM   11  O   UNL     1     -10.873   6.511  70.990  1.00  0.00    -0.234 OA 
HETATM   12  C   UNL     1      -9.433   8.333  71.843  1.00  0.00    -0.220 C  
HETATM   13  C   UNL     1     -11.956   7.277  71.351  1.00  0.00    -0.320 A  
HETATM   14  H   UNL     1     -10.463   9.926  72.687  1.00  0.00     0.000 HD 
HETATM   15  C   UNL     1     -13.225   6.722  71.206  1.00  0.00    -0.125 A  
HETATM   16  C   UNL     1     -14.356   7.472  71.547  1.00  0.00    -0.603 A  
HETATM   17  N   UNL     1     -10.559   9.037  72.197  1.00  0.00    -0.264 N  
HETATM   18  C   UNL     1     -11.827   8.557  71.895  1.00  0.00    -0.341 A  
HETATM   19  C   UNL     1     -12.948   9.316  72.221  1.00  0.00    -0.488 A  
HETATM   20  C   UNL     1     -14.219   8.774  72.033  1.00  0.00    -0.493 A  
BRANCH   9  21
HETATM   21  C   UNL     1      -9.793   7.973  69.315  1.00  0.00    -0.178 A  
HETATM   22  C   UNL     1     -10.483   7.924  66.976  1.00  0.00    -0.419 A  
HETATM   23  H   UNL     1     -10.724   9.370  64.906  1.00  0.00     0.000 HD 
HETATM   24  O   UNL     1     -10.386   9.861  65.646  1.00  0.00    -0.220 OA 
HETATM   25  C   UNL     1     -10.171   9.269  66.855  1.00  0.00    -0.256 A  
HETATM   26  C   UNL     1      -9.676   9.987  67.937  1.00  0.00    -0.168 A  
HETATM   27  C   UNL     1      -9.493   9.342  69.164  1.00  0.00    -0.163 A  
HETATM   28  C   UNL     1     -10.304   7.278  68.199  1.00  0.00    -0.234 A  
ENDBRANCH   9  21
ENDBRANCH   6   9
TORSDOF 2
ENDMDL
MODEL       71
REMARK 921   NORMALIZED FREE ENERGY PREDICTED BY IDOCK:   -5.23 KCAL/MOL
REMARK 922        TOTAL FREE ENERGY PREDICTED BY IDOCK:   -6.59 KCAL/MOL
REMARK 923 INTER-LIGAND FREE ENERGY PREDICTED BY IDOCK:   -5.76 KCAL/MOL
REMARK 924 INTRA-LIGAND FREE ENERGY PREDICTED BY IDOCK:   -0.84 KCAL/MOL
REMARK 927      BINDING AFFINITY PREDICTED BY RF-SCORE:    0.00 PKD
ROOT
HETATM    1  O   UNL     1      -9.767  13.253  65.390  1.00  0.00    -0.490 OA 
HETATM    2  C   UNL     1      -9.869  12.440  66.479  1.00  0.00    -0.235 A  
HETATM    3  H   UNL     1     -10.445  13.290  64.725  1.00  0.00     0.000 HD 
HETATM    4  C   UNL     1      -8.878  12.386  67.451  1.00  0.00    -0.188 A  
HETATM    5  C   UNL     1      -9.012  11.501  68.532  1.00  0.00    -0.146 A  
HETATM    6  C   UNL     1     -10.134  10.653  68.653  1.00  0.00    -0.194 A  
HETATM    7  C   UNL     1     -11.113  10.742  67.643  1.00  0.00    -0.384 A  
HETATM    8  C   UNL     1     -10.992  11.637  66.576  1.00  0.00    -0.349 A  
ENDROOT
BRANCH   6   9
HETATM    9  C   UNL     1     -10.177   9.531  69.736  1.00  0.00    -0.228 C  
HETATM   10  O   UNL     1     -12.480  10.225  70.497  1.00  0.00    -0.292 OA 
HETATM   11  O   UNL     1      -8.956   9.619  70.534  1.00  0.00    -0.236 OA 
HETATM   12  C   UNL     1     -11.423   9.629  70.707  1.00  0.00    -0.328 C  
HETATM   13  C   UNL     1      -8.939   8.830  71.660  1.00  0.00    -0.231 A  
HETATM   14  H   UNL     1     -12.180   8.620  72.356  1.00  0.00     0.000 HD 
HETATM   15  C   UNL     1      -7.702   8.505  72.211  1.00  0.00    -0.113 A  
HETATM   16  C   UNL     1      -7.637   7.691  73.347  1.00  0.00    -0.135 A  
HETATM   17  N   UNL     1     -11.333   8.855  71.839  1.00  0.00    -0.360 N  
HETATM   18  C   UNL     1     -10.105   8.389  72.289  1.00  0.00    -0.312 A  
HETATM   19  C   UNL     1     -10.049   7.565  73.411  1.00  0.00    -0.393 A  
HETATM   20  C   UNL     1      -8.808   7.205  73.934  1.00  0.00    -0.222 A  
BRANCH   9  21
HETATM   21  C   UNL     1     -10.202   8.177  68.961  1.00  0.00    -0.228 A  
HETATM   22  C   UNL     1      -9.097   6.546  67.524  1.00  0.00    -0.115 A  
HETATM   23  H   UNL     1      -9.364   4.242  66.497  1.00  0.00     0.000 HD 
HETATM   24  O   UNL     1     -10.113   4.484  67.029  1.00  0.00    -0.199 OA 
HETATM   25  C   UNL     1     -10.177   5.689  67.664  1.00  0.00    -0.199 A  
HETATM   26  C   UNL     1     -11.272   6.043  68.443  1.00  0.00    -0.120 A  
HETATM   27  C   UNL     1     -11.282   7.280  69.093  1.00  0.00     0.068 A  
HETATM   28  C   UNL     1      -9.102   7.780  68.172  1.00  0.00    -0.129 A  
ENDBRANCH   9  21
ENDBRANCH   6   9
TORSDOF 2
ENDMDL
MODEL       72
REMARK 921   NORMALIZED FREE ENERGY PREDICTED BY IDOCK:   -5.11 KCAL/MOL
REMARK 922        TOTAL FREE ENERGY PREDICTED BY IDOCK:   -6.47 KCAL/MOL
REMARK 923 INTER-LIGAND FREE ENERGY PREDICTED BY IDOCK:   -6.18 KCAL/MOL
REMARK 924 INTRA-LIGAND FREE ENERGY PREDICTED BY IDOCK:   -0.29 KCAL/MOL
REMARK 927      BINDING AFFINITY PREDICTED BY RF-SCORE:    0.00 PKD
ROOT
HETATM    1  O   UNL     1     -11.450  12.877  63.122  1.00  0.00    -0.772 OA 
HETATM    2  C   UNL     1     -10.998  12.189  64.208  1.00  0.00    -0.339 A  
HETATM    3  H   UNL     1     -11.910  13.704  63.206  1.00  0.00     0.000 HD 
HETATM    4  C   UNL     1     -10.326  10.979  64.085  1.00  0.00    -0.434 A  
HETATM    5  C   UNL     1      -9.917  10.291  65.237  1.00  0.00    -0.387 A  
HETATM    6  C   UNL     1     -10.178  10.798  66.528  1.00  0.00    -0.287 A  
HETATM    7  C   UNL     1     -10.862  12.028  66.604  1.00  0.00    -0.311 A  
HETATM    8  C   UNL     1     -11.254  12.726  65.458  1.00  0.00    -0.329 A  
ENDROOT
BRANCH   6   9
HETATM    9  C   UNL     1      -9.908   9.934  67.798  1.00  0.00    -0.155 C  
HETATM   10  O   UNL     1     -12.156  10.512  68.784  1.00  0.00    -0.306 OA 
HETATM   11  O   UNL     1      -8.612  10.323  68.349  1.00  0.00    -0.118 OA 
HETATM   12  C   UNL     1     -11.006  10.096  68.926  1.00  0.00    -0.223 C  
HETATM   13  C   UNL     1      -8.325   9.798  69.586  1.00  0.00    -0.173 A  
HETATM   14  H   UNL     1     -11.371   9.381  70.841  1.00  0.00     0.000 HD 
HETATM   15  C   UNL     1      -6.988   9.736  69.975  1.00  0.00    -0.106 A  
HETATM   16  C   UNL     1      -6.649   9.194  71.219  1.00  0.00    -0.080 A  
HETATM   17  N   UNL     1     -10.648   9.594  70.154  1.00  0.00    -0.250 N  
HETATM   18  C   UNL     1      -9.315   9.374  70.474  1.00  0.00    -0.262 A  
HETATM   19  C   UNL     1      -8.984   8.818  71.708  1.00  0.00    -0.283 A  
HETATM   20  C   UNL     1      -7.643   8.716  72.075  1.00  0.00    -0.084 A  
BRANCH   9  21
HETATM   21  C   UNL     1      -9.848   8.451  67.312  1.00  0.00    -0.264 A  
HETATM   22  C   UNL     1     -10.978   6.355  66.785  1.00  0.00    -0.321 A  
HETATM   23  H   UNL     1     -10.600   4.037  65.825  1.00  0.00     0.000 HD 
HETATM   24  O   UNL     1      -9.802   4.553  65.835  1.00  0.00    -0.185 OA 
HETATM   25  C   UNL     1      -9.783   5.826  66.322  1.00  0.00    -0.117 A  
HETATM   26  C   UNL     1      -8.615   6.580  66.339  1.00  0.00    -0.136 A  
HETATM   27  C   UNL     1      -8.649   7.890  66.827  1.00  0.00    -0.133 A  
HETATM   28  C   UNL     1     -11.017   7.661  67.271  1.00  0.00    -0.122 A  
ENDBRANCH   9  21
ENDBRANCH   6   9
TORSDOF 2
ENDMDL
MODEL       73
REMARK 921   NORMALIZED FREE ENERGY PREDICTED BY IDOCK:   -5.11 KCAL/MOL
REMARK 922        TOTAL FREE ENERGY PREDICTED BY IDOCK:   -6.46 KCAL/MOL
REMARK 923 INTER-LIGAND FREE ENERGY PREDICTED BY IDOCK:   -6.26 KCAL/MOL
REMARK 924 INTRA-LIGAND FREE ENERGY PREDICTED BY IDOCK:   -0.20 KCAL/MOL
REMARK 927      BINDING AFFINITY PREDICTED BY RF-SCORE:    0.00 PKD
ROOT
HETATM    1  O   UNL     1     -12.171  11.495  62.788  1.00  0.00    -0.820 OA 
HETATM    2  C   UNL     1     -11.841  12.266  63.863  1.00  0.00    -0.464 A  
HETATM    3  H   UNL     1     -13.075  11.341  62.539  1.00  0.00     0.000 HD 
HETATM    4  C   UNL     1     -10.519  12.491  64.227  1.00  0.00    -0.404 A  
HETATM    5  C   UNL     1     -10.234  13.260  65.366  1.00  0.00    -0.304 A  
HETATM    6  C   UNL     1     -11.264  13.808  66.160  1.00  0.00    -0.301 A  
HETATM    7  C   UNL     1     -12.589  13.553  65.752  1.00  0.00    -0.490 A  
HETATM    8  C   UNL     1     -12.876  12.805  64.607  1.00  0.00    -0.355 A  
ENDROOT
BRANCH   6   9
HETATM    9  C   UNL     1     -10.947  14.480  67.532  1.00  0.00    -0.293 C  
HETATM   10  O   UNL     1      -9.026  12.904  67.966  1.00  0.00    -0.183 OA 
HETATM   11  O   UNL     1     -12.185  14.546  68.306  1.00  0.00    -0.233 OA 
HETATM   12  C   UNL     1      -9.858  13.709  68.384  1.00  0.00    -0.223 C  
HETATM   13  C   UNL     1     -12.030  14.924  69.618  1.00  0.00    -0.320 A  
HETATM   14  H   UNL     1      -8.936  13.887  70.235  1.00  0.00     0.000 HD 
HETATM   15  C   UNL     1     -13.140  15.440  70.283  1.00  0.00    -0.111 A  
HETATM   16  C   UNL     1     -13.024  15.852  71.616  1.00  0.00    -0.376 A  
HETATM   17  N   UNL     1      -9.779  14.096  69.700  1.00  0.00     0.515 N  
HETATM   18  C   UNL     1     -10.829  14.766  70.312  1.00  0.00    -0.038 A  
HETATM   19  C   UNL     1     -10.701  15.190  71.633  1.00  0.00     0.390 A  
HETATM   20  C   UNL     1     -11.802  15.747  72.282  1.00  0.00    -0.598 A  
BRANCH   9  21
HETATM   21  C   UNL     1     -10.454  15.925  67.206  1.00  0.00    -0.310 A  
HETATM   22  C   UNL     1      -8.795  17.419  66.225  1.00  0.00    -0.236 A  
HETATM   23  H   UNL     1      -8.323  19.856  65.700  1.00  0.00     0.000 HD 
HETATM   24  O   UNL     1      -9.167  19.739  66.121  1.00  0.00    -0.374 OA 
HETATM   25  C   UNL     1      -9.610  18.506  66.498  1.00  0.00    -0.329 A  
HETATM   26  C   UNL     1     -10.844  18.335  67.115  1.00  0.00    -0.239 A  
HETATM   27  C   UNL     1     -11.266  17.049  67.463  1.00  0.00     0.138 A  
HETATM   28  C   UNL     1      -9.213  16.134  66.568  1.00  0.00    -0.303 A  
ENDBRANCH   9  21
ENDBRANCH   6   9
TORSDOF 2
ENDMDL
MODEL       74
REMARK 921   NORMALIZED FREE ENERGY PREDICTED BY IDOCK:   -5.08 KCAL/MOL
REMARK 922        TOTAL FREE ENERGY PREDICTED BY IDOCK:   -6.43 KCAL/MOL
REMARK 923 INTER-LIGAND FREE ENERGY PREDICTED BY IDOCK:   -5.59 KCAL/MOL
REMARK 924 INTRA-LIGAND FREE ENERGY PREDICTED BY IDOCK:   -0.84 KCAL/MOL
REMARK 927      BINDING AFFINITY PREDICTED BY RF-SCORE:    0.00 PKD
ROOT
HETATM    1  O   UNL     1     -13.538  14.186  73.009  1.00  0.00    -0.651 OA 
HETATM    2  C   UNL     1     -12.971  13.685  71.876  1.00  0.00    -0.341 A  
HETATM    3  H   UNL     1     -13.671  15.118  73.135  1.00  0.00     0.000 HD 
HETATM    4  C   UNL     1     -12.776  12.322  71.692  1.00  0.00    -0.309 A  
HETATM    5  C   UNL     1     -12.149  11.861  70.524  1.00  0.00    -0.422 A  
HETATM    6  C   UNL     1     -11.703  12.755  69.527  1.00  0.00    -0.383 A  
HETATM    7  C   UNL     1     -11.921  14.129  69.757  1.00  0.00    -0.396 A  
HETATM    8  C   UNL     1     -12.563  14.589  70.910  1.00  0.00    -0.414 A  
ENDROOT
BRANCH   6   9
HETATM    9  C   UNL     1     -10.827  12.255  68.337  1.00  0.00    -0.230 C  
HETATM   10  O   UNL     1     -12.773  12.362  66.737  1.00  0.00     0.307 OA 
HETATM   11  O   UNL     1     -10.137  11.037  68.757  1.00  0.00    -0.190 OA 
HETATM   12  C   UNL     1     -11.653  11.941  67.024  1.00  0.00    -0.291 C  
HETATM   13  C   UNL     1      -9.486  10.362  67.752  1.00  0.00    -0.145 A  
HETATM   14  H   UNL     1     -11.293  11.234  65.105  1.00  0.00     0.000 HD 
HETATM   15  C   UNL     1      -8.464   9.486  68.110  1.00  0.00    -0.119 A  
HETATM   16  C   UNL     1      -7.765   8.789  67.118  1.00  0.00    -0.096 A  
HETATM   17  N   UNL     1     -10.969  11.224  66.072  1.00  0.00    -0.223 N  
HETATM   18  C   UNL     1      -9.842  10.485  66.407  1.00  0.00    -0.210 A  
HETATM   19  C   UNL     1      -9.140   9.807  65.413  1.00  0.00    -0.251 A  
HETATM   20  C   UNL     1      -8.088   8.966  65.771  1.00  0.00    -0.107 A  
BRANCH   9  21
HETATM   21  C   UNL     1      -9.782  13.382  68.061  1.00  0.00    -0.222 A  
HETATM   22  C   UNL     1      -7.596  14.382  68.474  1.00  0.00    -0.125 A  
HETATM   23  H   UNL     1      -6.045  16.242  67.719  1.00  0.00     0.000 HD 
HETATM   24  O   UNL     1      -6.861  16.238  67.231  1.00  0.00    -0.159 OA 
HETATM   25  C   UNL     1      -7.840  15.324  67.487  1.00  0.00    -0.176 A  
HETATM   26  C   UNL     1      -9.032  15.318  66.774  1.00  0.00    -0.291 A  
HETATM   27  C   UNL     1      -9.998  14.347  67.057  1.00  0.00    -0.257 A  
HETATM   28  C   UNL     1      -8.555  13.410  68.758  1.00  0.00     0.116 A  
ENDBRANCH   9  21
ENDBRANCH   6   9
TORSDOF 2
ENDMDL
MODEL       75
REMARK 921   NORMALIZED FREE ENERGY PREDICTED BY IDOCK:   -5.07 KCAL/MOL
REMARK 922        TOTAL FREE ENERGY PREDICTED BY IDOCK:   -6.42 KCAL/MOL
REMARK 923 INTER-LIGAND FREE ENERGY PREDICTED BY IDOCK:   -5.93 KCAL/MOL
REMARK 924 INTRA-LIGAND FREE ENERGY PREDICTED BY IDOCK:   -0.49 KCAL/MOL
REMARK 927      BINDING AFFINITY PREDICTED BY RF-SCORE:    0.00 PKD
ROOT
HETATM    1  O   UNL     1     -12.564  13.596  65.960  1.00  0.00    -0.441 OA 
HETATM    2  C   UNL     1     -11.826  12.512  66.331  1.00  0.00    -0.381 A  
HETATM    3  H   UNL     1     -13.100  14.076  66.580  1.00  0.00     0.000 HD 
HETATM    4  C   UNL     1     -11.043  11.811  65.424  1.00  0.00    -0.336 A  
HETATM    5  C   UNL     1     -10.334  10.676  65.848  1.00  0.00    -0.291 A  
HETATM    6  C   UNL     1     -10.404  10.222  67.183  1.00  0.00    -0.292 A  
HETATM    7  C   UNL     1     -11.212  10.965  68.068  1.00  0.00    -0.378 A  
HETATM    8  C   UNL     1     -11.903  12.107  67.653  1.00  0.00    -0.316 A  
ENDROOT
BRANCH   6   9
HETATM    9  C   UNL     1      -9.787   8.852  67.597  1.00  0.00    -0.182 C  
HETATM   10  O   UNL     1      -7.436   9.745  67.401  1.00  0.00    -0.090 OA 
HETATM   11  O   UNL     1     -10.374   7.812  66.754  1.00  0.00    -0.301 OA 
HETATM   12  C   UNL     1      -8.212   8.791  67.451  1.00  0.00    -0.109 C  
HETATM   13  C   UNL     1      -9.781   6.576  66.856  1.00  0.00    -0.158 A  
HETATM   14  H   UNL     1      -6.687   7.410  67.730  1.00  0.00     0.000 HD 
HETATM   15  C   UNL     1     -10.520   5.463  66.464  1.00  0.00    -0.352 A  
HETATM   16  C   UNL     1      -9.961   4.184  66.566  1.00  0.00    -0.165 A  
HETATM   17  N   UNL     1      -7.677   7.526  67.514  1.00  0.00    -0.115 N  
HETATM   18  C   UNL     1      -8.464   6.405  67.288  1.00  0.00    -0.111 A  
HETATM   19  C   UNL     1      -7.906   5.134  67.408  1.00  0.00    -0.096 A  
HETATM   20  C   UNL     1      -8.664   4.019  67.057  1.00  0.00    -0.116 A  
BRANCH   9  21
HETATM   21  C   UNL     1     -10.200   8.618  69.084  1.00  0.00    -0.215 A  
HETATM   22  C   UNL     1     -11.531   7.424  70.743  1.00  0.00    -0.313 A  
HETATM   23  H   UNL     1     -11.892   7.160  73.240  1.00  0.00     0.000 HD 
HETATM   24  O   UNL     1     -11.210   7.792  73.044  1.00  0.00    -0.405 OA 
HETATM   25  C   UNL     1     -10.865   8.092  71.759  1.00  0.00    -0.242 A  
HETATM   26  C   UNL     1      -9.868   9.016  71.471  1.00  0.00    -0.381 A  
HETATM   27  C   UNL     1      -9.533   9.274  70.139  1.00  0.00    -0.258 A  
HETATM   28  C   UNL     1     -11.199   7.677  69.412  1.00  0.00     0.117 A  
ENDBRANCH   9  21
ENDBRANCH   6   9
TORSDOF 2
ENDMDL
MODEL       76
REMARK 921   NORMALIZED FREE ENERGY PREDICTED BY IDOCK:   -5.07 KCAL/MOL
REMARK 922        TOTAL FREE ENERGY PREDICTED BY IDOCK:   -6.41 KCAL/MOL
REMARK 923 INTER-LIGAND FREE ENERGY PREDICTED BY IDOCK:   -5.78 KCAL/MOL
REMARK 924 INTRA-LIGAND FREE ENERGY PREDICTED BY IDOCK:   -0.64 KCAL/MOL
REMARK 927      BINDING AFFINITY PREDICTED BY RF-SCORE:    0.00 PKD
ROOT
HETATM    1  O   UNL     1      -6.348  14.142  67.110  1.00  0.00    -0.373 OA 
HETATM    2  C   UNL     1      -7.028  13.078  67.622  1.00  0.00    -0.154 A  
HETATM    3  H   UNL     1      -5.511  14.421  67.463  1.00  0.00     0.000 HD 
HETATM    4  C   UNL     1      -8.252  12.670  67.106  1.00  0.00    -0.159 A  
HETATM    5  C   UNL     1      -8.931  11.593  67.696  1.00  0.00    -0.166 A  
HETATM    6  C   UNL     1      -8.401  10.913  68.814  1.00  0.00    -0.151 A  
HETATM    7  C   UNL     1      -7.157  11.362  69.304  1.00  0.00    -0.100 A  
HETATM    8  C   UNL     1      -6.469  12.422  68.705  1.00  0.00    -0.084 A  
ENDROOT
BRANCH   6   9
HETATM    9  C   UNL     1      -9.251   9.860  69.589  1.00  0.00    -0.227 C  
HETATM   10  O   UNL     1     -11.327  11.284  69.432  1.00  0.00    -0.245 OA 
HETATM   11  O   UNL     1      -8.544   9.520  70.822  1.00  0.00    -0.220 OA 
HETATM   12  C   UNL     1     -10.705  10.363  69.962  1.00  0.00    -0.265 C  
HETATM   13  C   UNL     1      -9.264   8.759  71.713  1.00  0.00    -0.262 A  
HETATM   14  H   UNL     1     -12.375   9.651  70.968  1.00  0.00     0.000 HD 
HETATM   15  C   UNL     1      -8.557   8.028  72.665  1.00  0.00    -0.237 A  
HETATM   16  C   UNL     1      -9.248   7.228  73.582  1.00  0.00    -0.262 A  
HETATM   17  N   UNL     1     -11.360   9.592  70.891  1.00  0.00    -0.312 N  
HETATM   18  C   UNL     1     -10.660   8.732  71.727  1.00  0.00    -0.347 A  
HETATM   19  C   UNL     1     -11.354   7.925  72.626  1.00  0.00    -0.468 A  
HETATM   20  C   UNL     1     -10.643   7.160  73.548  1.00  0.00    -0.416 A  
BRANCH   9  21
HETATM   21  C   UNL     1      -9.335   8.603  68.667  1.00  0.00    -0.142 A  
HETATM   22  C   UNL     1      -8.387   6.501  67.872  1.00  0.00    -0.115 A  
HETATM   23  H   UNL     1      -8.862   4.500  66.387  1.00  0.00     0.000 HD 
HETATM   24  O   UNL     1      -9.581   5.120  66.389  1.00  0.00    -0.141 OA 
HETATM   25  C   UNL     1      -9.526   6.273  67.115  1.00  0.00    -0.124 A  
HETATM   26  C   UNL     1     -10.578   7.182  67.117  1.00  0.00    -0.417 A  
HETATM   27  C   UNL     1     -10.485   8.339  67.895  1.00  0.00    -0.259 A  
HETATM   28  C   UNL     1      -8.291   7.654  68.650  1.00  0.00    -0.129 A  
ENDBRANCH   9  21
ENDBRANCH   6   9
TORSDOF 2
ENDMDL
MODEL       77
REMARK 921   NORMALIZED FREE ENERGY PREDICTED BY IDOCK:   -5.01 KCAL/MOL
REMARK 922        TOTAL FREE ENERGY PREDICTED BY IDOCK:   -6.35 KCAL/MOL
REMARK 923 INTER-LIGAND FREE ENERGY PREDICTED BY IDOCK:   -5.60 KCAL/MOL
REMARK 924 INTRA-LIGAND FREE ENERGY PREDICTED BY IDOCK:   -0.75 KCAL/MOL
REMARK 927      BINDING AFFINITY PREDICTED BY RF-SCORE:    0.00 PKD
ROOT
HETATM    1  O   UNL     1      -9.424  11.724  62.462  1.00  0.00    -0.407 OA 
HETATM    2  C   UNL     1      -9.705  11.286  63.722  1.00  0.00    -0.298 A  
HETATM    3  H   UNL     1      -8.765  11.306  61.919  1.00  0.00     0.000 HD 
HETATM    4  C   UNL     1     -10.668  11.898  64.514  1.00  0.00    -0.361 A  
HETATM    5  C   UNL     1     -10.889  11.434  65.820  1.00  0.00    -0.290 A  
HETATM    6  C   UNL     1     -10.148  10.358  66.354  1.00  0.00    -0.287 A  
HETATM    7  C   UNL     1      -9.182   9.769  65.514  1.00  0.00    -0.270 A  
HETATM    8  C   UNL     1      -8.972  10.216  64.206  1.00  0.00    -0.267 A  
ENDROOT
BRANCH   6   9
HETATM    9  C   UNL     1     -10.252   9.985  67.865  1.00  0.00    -0.188 C  
HETATM   10  O   UNL     1     -10.069   7.520  67.366  1.00  0.00    -0.176 OA 
HETATM   11  O   UNL     1     -11.426  10.656  68.422  1.00  0.00    -0.296 OA 
HETATM   12  C   UNL     1     -10.384   8.431  68.131  1.00  0.00    -0.204 C  
HETATM   13  C   UNL     1     -11.771  10.263  69.693  1.00  0.00    -0.160 A  
HETATM   14  H   UNL     1     -10.602   7.155  69.755  1.00  0.00     0.000 HD 
HETATM   15  C   UNL     1     -12.555  11.128  70.453  1.00  0.00    -0.328 A  
HETATM   16  C   UNL     1     -12.917  10.775  71.758  1.00  0.00    -0.568 A  
HETATM   17  N   UNL     1     -10.777   8.097  69.406  1.00  0.00    -0.199 N  
HETATM   18  C   UNL     1     -11.409   9.023  70.224  1.00  0.00    -0.178 A  
HETATM   19  C   UNL     1     -11.752   8.672  71.528  1.00  0.00    -0.369 A  
HETATM   20  C   UNL     1     -12.498   9.559  72.301  1.00  0.00    -0.299 A  
BRANCH   9  21
HETATM   21  C   UNL     1      -8.960  10.541  68.542  1.00  0.00    -0.147 A  
HETATM   22  C   UNL     1      -6.806  10.153  69.617  1.00  0.00    -0.087 A  
HETATM   23  H   UNL     1      -4.756  11.336  70.530  1.00  0.00     0.000 HD 
HETATM   24  O   UNL     1      -5.393  11.947  70.178  1.00  0.00    -0.079 OA 
HETATM   25  C   UNL     1      -6.573  11.519  69.647  1.00  0.00    -0.112 A  
HETATM   26  C   UNL     1      -7.505  12.412  69.132  1.00  0.00     0.166 A  
HETATM   27  C   UNL     1      -8.692  11.925  68.577  1.00  0.00    -0.108 A  
HETATM   28  C   UNL     1      -7.987   9.662  69.063  1.00  0.00    -0.088 A  
ENDBRANCH   9  21
ENDBRANCH   6   9
TORSDOF 2
ENDMDL
MODEL       78
REMARK 921   NORMALIZED FREE ENERGY PREDICTED BY IDOCK:   -4.99 KCAL/MOL
REMARK 922        TOTAL FREE ENERGY PREDICTED BY IDOCK:   -6.33 KCAL/MOL
REMARK 923 INTER-LIGAND FREE ENERGY PREDICTED BY IDOCK:   -5.41 KCAL/MOL
REMARK 924 INTRA-LIGAND FREE ENERGY PREDICTED BY IDOCK:   -0.92 KCAL/MOL
REMARK 927      BINDING AFFINITY PREDICTED BY RF-SCORE:    0.00 PKD
ROOT
HETATM    1  O   UNL     1     -11.725  15.124  67.812  1.00  0.00    -0.331 OA 
HETATM    2  C   UNL     1     -11.190  13.893  67.577  1.00  0.00    -0.303 A  
HETATM    3  H   UNL     1     -11.188  15.864  68.073  1.00  0.00     0.000 HD 
HETATM    4  C   UNL     1     -11.974  12.811  67.195  1.00  0.00    -0.351 A  
HETATM    5  C   UNL     1     -11.380  11.554  67.006  1.00  0.00    -0.340 A  
HETATM    6  C   UNL     1      -9.996  11.358  67.201  1.00  0.00    -0.217 A  
HETATM    7  C   UNL     1      -9.240  12.484  67.588  1.00  0.00    -0.190 A  
HETATM    8  C   UNL     1      -9.826  13.741  67.759  1.00  0.00    -0.234 A  
ENDROOT
BRANCH   6   9
HETATM    9  C   UNL     1      -9.381   9.925  67.192  1.00  0.00    -0.146 C  
HETATM   10  O   UNL     1      -7.635  10.583  65.495  1.00  0.00    -0.152 OA 
HETATM   11  O   UNL     1     -10.461   8.965  66.972  1.00  0.00    -0.274 OA 
HETATM   12  C   UNL     1      -8.279   9.710  66.076  1.00  0.00    -0.119 C  
HETATM   13  C   UNL     1     -10.052   7.675  66.733  1.00  0.00    -0.255 A  
HETATM   14  H   UNL     1      -7.059   8.179  65.385  1.00  0.00     0.000 HD 
HETATM   15  C   UNL     1     -10.966   6.648  66.960  1.00  0.00    -0.463 A  
HETATM   16  C   UNL     1     -10.587   5.318  66.744  1.00  0.00    -0.309 A  
HETATM   17  N   UNL     1      -7.942   8.398  65.846  1.00  0.00    -0.095 N  
HETATM   18  C   UNL     1      -8.786   7.365  66.231  1.00  0.00    -0.159 A  
HETATM   19  C   UNL     1      -8.396   6.043  66.030  1.00  0.00    -0.134 A  
HETATM   20  C   UNL     1      -9.298   5.015  66.301  1.00  0.00    -0.151 A  
BRANCH   9  21
HETATM   21  C   UNL     1      -8.764   9.706  68.609  1.00  0.00    -0.124 A  
HETATM   22  C   UNL     1      -9.045   9.210  70.981  1.00  0.00    -0.305 A  
HETATM   23  H   UNL     1      -7.760   8.756  73.120  1.00  0.00     0.000 HD 
HETATM   24  O   UNL     1      -7.181   8.909  72.382  1.00  0.00    -0.329 OA 
HETATM   25  C   UNL     1      -7.668   9.183  71.139  1.00  0.00    -0.078 A  
HETATM   26  C   UNL     1      -6.821   9.408  70.060  1.00  0.00    -0.067 A  
HETATM   27  C   UNL     1      -7.368   9.663  68.799  1.00  0.00    -0.074 A  
HETATM   28  C   UNL     1      -9.594   9.462  69.724  1.00  0.00    -0.216 A  
ENDBRANCH   9  21
ENDBRANCH   6   9
TORSDOF 2
ENDMDL
MODEL       79
REMARK 921   NORMALIZED FREE ENERGY PREDICTED BY IDOCK:   -4.97 KCAL/MOL
REMARK 922        TOTAL FREE ENERGY PREDICTED BY IDOCK:   -6.30 KCAL/MOL
REMARK 923 INTER-LIGAND FREE ENERGY PREDICTED BY IDOCK:   -5.78 KCAL/MOL
REMARK 924 INTRA-LIGAND FREE ENERGY PREDICTED BY IDOCK:   -0.52 KCAL/MOL
REMARK 927      BINDING AFFINITY PREDICTED BY RF-SCORE:    0.00 PKD
ROOT
HETATM    1  O   UNL     1     -12.325   9.911  72.313  1.00  0.00    -0.206 OA 
HETATM    2  C   UNL     1     -11.714   9.941  71.096  1.00  0.00    -0.396 A  
HETATM    3  H   UNL     1     -12.983  10.550  72.562  1.00  0.00     0.000 HD 
HETATM    4  C   UNL     1     -10.752   9.006  70.733  1.00  0.00    -0.301 A  
HETATM    5  C   UNL     1     -10.123   9.107  69.482  1.00  0.00    -0.202 A  
HETATM    6  C   UNL     1     -10.439  10.146  68.581  1.00  0.00    -0.225 A  
HETATM    7  C   UNL     1     -11.420  11.071  68.993  1.00  0.00    -0.368 A  
HETATM    8  C   UNL     1     -12.063  10.962  70.229  1.00  0.00    -0.440 A  
ENDROOT
BRANCH   6   9
HETATM    9  C   UNL     1      -9.593  10.372  67.290  1.00  0.00    -0.156 C  
HETATM   10  O   UNL     1     -10.503   8.280  66.215  1.00  0.00    -0.026 OA 
HETATM   11  O   UNL     1      -8.203  10.589  67.687  1.00  0.00    -0.110 OA 
HETATM   12  C   UNL     1      -9.646   9.161  66.272  1.00  0.00    -0.255 C  
HETATM   13  C   UNL     1      -7.299  10.598  66.652  1.00  0.00    -0.129 A  
HETATM   14  H   UNL     1      -8.824   8.651  64.435  1.00  0.00     0.000 HD 
HETATM   15  C   UNL     1      -6.074  11.227  66.862  1.00  0.00    -0.120 A  
HETATM   16  C   UNL     1      -5.129  11.273  65.831  1.00  0.00    -0.055 A  
HETATM   17  N   UNL     1      -8.689   9.197  65.286  1.00  0.00    -0.177 N  
HETATM   18  C   UNL     1      -7.543   9.966  65.431  1.00  0.00    -0.131 A  
HETATM   19  C   UNL     1      -6.614  10.023  64.394  1.00  0.00    -0.130 A  
HETATM   20  C   UNL     1      -5.407  10.691  64.592  1.00  0.00    -0.129 A  
BRANCH   9  21
HETATM   21  C   UNL     1     -10.156  11.665  66.620  1.00  0.00    -0.238 A  
HETATM   22  C   UNL     1      -9.923  14.028  66.064  1.00  0.00    -0.331 A  
HETATM   23  H   UNL     1     -11.006  15.919  64.766  1.00  0.00     0.000 HD 
HETATM   24  O   UNL     1     -11.493  15.107  64.686  1.00  0.00    -0.397 OA 
HETATM   25  C   UNL     1     -11.088  13.967  65.315  1.00  0.00    -0.325 A  
HETATM   26  C   UNL     1     -11.800  12.780  65.198  1.00  0.00    -0.428 A  
HETATM   27  C   UNL     1     -11.333  11.632  65.844  1.00  0.00    -0.262 A  
HETATM   28  C   UNL     1      -9.452  12.884  66.708  1.00  0.00    -0.245 A  
ENDBRANCH   9  21
ENDBRANCH   6   9
TORSDOF 2
ENDMDL
MODEL       80
REMARK 921   NORMALIZED FREE ENERGY PREDICTED BY IDOCK:   -4.97 KCAL/MOL
REMARK 922        TOTAL FREE ENERGY PREDICTED BY IDOCK:   -6.30 KCAL/MOL
REMARK 923 INTER-LIGAND FREE ENERGY PREDICTED BY IDOCK:   -5.42 KCAL/MOL
REMARK 924 INTRA-LIGAND FREE ENERGY PREDICTED BY IDOCK:   -0.88 KCAL/MOL
REMARK 927      BINDING AFFINITY PREDICTED BY RF-SCORE:    0.00 PKD
ROOT
HETATM    1  O   UNL     1     -14.409   9.556  72.898  1.00  0.00    -0.816 OA 
HETATM    2  C   UNL     1     -13.474   8.988  72.084  1.00  0.00    -0.459 A  
HETATM    3  H   UNL     1     -14.345  10.460  73.183  1.00  0.00     0.000 HD 
HETATM    4  C   UNL     1     -13.568   7.666  71.669  1.00  0.00    -0.431 A  
HETATM    5  C   UNL     1     -12.557   7.117  70.864  1.00  0.00    -0.268 A  
HETATM    6  C   UNL     1     -11.437   7.880  70.468  1.00  0.00    -0.204 A  
HETATM    7  C   UNL     1     -11.385   9.216  70.914  1.00  0.00    -0.359 A  
HETATM    8  C   UNL     1     -12.400   9.771  71.699  1.00  0.00    -0.495 A  
ENDROOT
BRANCH   6   9
HETATM    9  C   UNL     1     -10.224   7.209  69.753  1.00  0.00    -0.208 C  
HETATM   10  O   UNL     1     -10.460   8.711  67.741  1.00  0.00    -0.235 OA 
HETATM   11  O   UNL     1     -10.430   5.762  69.764  1.00  0.00    -0.236 OA 
HETATM   12  C   UNL     1     -10.025   7.681  68.256  1.00  0.00    -0.176 C  
HETATM   13  C   UNL     1      -9.548   5.045  68.990  1.00  0.00    -0.150 A  
HETATM   14  H   UNL     1      -8.752   7.279  66.666  1.00  0.00     0.000 HD 
HETATM   15  C   UNL     1      -9.376   3.694  69.281  1.00  0.00    -0.245 A  
HETATM   16  C   UNL     1      -8.477   2.928  68.530  1.00  0.00    -0.093 A  
HETATM   17  N   UNL     1      -9.170   6.900  67.515  1.00  0.00    -0.123 N  
HETATM   18  C   UNL     1      -8.867   5.604  67.907  1.00  0.00    -0.105 A  
HETATM   19  C   UNL     1      -7.958   4.853  67.165  1.00  0.00    -0.099 A  
HETATM   20  C   UNL     1      -7.754   3.512  67.487  1.00  0.00    -0.077 A  
BRANCH   9  21
HETATM   21  C   UNL     1      -8.964   7.567  70.604  1.00  0.00    -0.154 A  
HETATM   22  C   UNL     1      -7.659   7.322  72.649  1.00  0.00    -0.090 A  
HETATM   23  H   UNL     1      -5.455   7.959  73.733  1.00  0.00     0.000 HD 
HETATM   24  O   UNL     1      -5.534   8.311  72.853  1.00  0.00    -0.044 OA 
HETATM   25  C   UNL     1      -6.648   8.094  72.097  1.00  0.00    -0.073 A  
HETATM   26  C   UNL     1      -6.764   8.608  70.811  1.00  0.00    -0.047 A  
HETATM   27  C   UNL     1      -7.916   8.341  70.065  1.00  0.00    -0.104 A  
HETATM   28  C   UNL     1      -8.809   7.052  71.908  1.00  0.00    -0.128 A  
ENDBRANCH   9  21
ENDBRANCH   6   9
TORSDOF 2
ENDMDL
MODEL       81
REMARK 921   NORMALIZED FREE ENERGY PREDICTED BY IDOCK:   -4.96 KCAL/MOL
REMARK 922        TOTAL FREE ENERGY PREDICTED BY IDOCK:   -6.30 KCAL/MOL
REMARK 923 INTER-LIGAND FREE ENERGY PREDICTED BY IDOCK:   -5.68 KCAL/MOL
REMARK 924 INTRA-LIGAND FREE ENERGY PREDICTED BY IDOCK:   -0.61 KCAL/MOL
REMARK 927      BINDING AFFINITY PREDICTED BY RF-SCORE:    0.00 PKD
ROOT
HETATM    1  O   UNL     1      -9.082   8.467  64.727  1.00  0.00    -0.397 OA 
HETATM    2  C   UNL     1      -9.090   8.162  66.056  1.00  0.00    -0.167 A  
HETATM    3  H   UNL     1      -9.754   9.009  64.331  1.00  0.00     0.000 HD 
HETATM    4  C   UNL     1      -8.108   7.369  66.634  1.00  0.00    -0.123 A  
HETATM    5  C   UNL     1      -8.186   7.051  67.999  1.00  0.00    -0.119 A  
HETATM    6  C   UNL     1      -9.249   7.515  68.803  1.00  0.00    -0.145 A  
HETATM    7  C   UNL     1     -10.223   8.316  68.172  1.00  0.00    -0.255 A  
HETATM    8  C   UNL     1     -10.137   8.650  66.818  1.00  0.00    -0.366 A  
ENDROOT
BRANCH   6   9
HETATM    9  C   UNL     1      -9.441   6.990  70.259  1.00  0.00    -0.165 C  
HETATM   10  O   UNL     1      -7.451   8.297  71.092  1.00  0.00    -0.064 OA 
HETATM   11  O   UNL     1      -9.541   5.533  70.210  1.00  0.00    -0.160 OA 
HETATM   12  C   UNL     1      -8.262   7.383  71.239  1.00  0.00    -0.105 C  
HETATM   13  C   UNL     1      -9.506   4.907  71.433  1.00  0.00    -0.155 A  
HETATM   14  H   UNL     1      -7.735   7.072  73.224  1.00  0.00     0.000 HD 
HETATM   15  C   UNL     1     -10.034   3.621  71.523  1.00  0.00    -0.181 A  
HETATM   16  C   UNL     1     -10.033   2.952  72.753  1.00  0.00    -0.211 A  
HETATM   17  N   UNL     1      -8.249   6.693  72.428  1.00  0.00    -0.104 N  
HETATM   18  C   UNL     1      -8.924   5.488  72.562  1.00  0.00    -0.133 A  
HETATM   19  C   UNL     1      -8.934   4.835  73.793  1.00  0.00    -0.106 A  
HETATM   20  C   UNL     1      -9.504   3.566  73.889  1.00  0.00    -0.118 A  
BRANCH   9  21
HETATM   21  C   UNL     1     -10.789   7.593  70.766  1.00  0.00    -0.246 A  
HETATM   22  C   UNL     1     -13.168   7.341  71.240  1.00  0.00    -0.352 A  
HETATM   23  H   UNL     1     -15.167   8.530  72.253  1.00  0.00     0.000 HD 
HETATM   24  O   UNL     1     -14.380   9.061  72.292  1.00  0.00    -0.409 OA 
HETATM   25  C   UNL     1     -13.193   8.613  71.791  1.00  0.00    -0.363 A  
HETATM   26  C   UNL     1     -12.042   9.390  71.846  1.00  0.00    -0.427 A  
HETATM   27  C   UNL     1     -10.843   8.879  71.341  1.00  0.00    -0.378 A  
HETATM   28  C   UNL     1     -11.974   6.827  70.736  1.00  0.00    -0.433 A  
ENDBRANCH   9  21
ENDBRANCH   6   9
TORSDOF 2
ENDMDL
MODEL       82
REMARK 921   NORMALIZED FREE ENERGY PREDICTED BY IDOCK:   -4.94 KCAL/MOL
REMARK 922        TOTAL FREE ENERGY PREDICTED BY IDOCK:   -6.27 KCAL/MOL
REMARK 923 INTER-LIGAND FREE ENERGY PREDICTED BY IDOCK:   -6.10 KCAL/MOL
REMARK 924 INTRA-LIGAND FREE ENERGY PREDICTED BY IDOCK:   -0.18 KCAL/MOL
REMARK 927      BINDING AFFINITY PREDICTED BY RF-SCORE:    0.00 PKD
ROOT
HETATM    1  O   UNL     1     -12.616  13.872  62.986  1.00  0.00    -1.030 OA 
HETATM    2  C   UNL     1     -11.771  13.198  63.817  1.00  0.00    -0.461 A  
HETATM    3  H   UNL     1     -12.841  14.784  63.131  1.00  0.00     0.000 HD 
HETATM    4  C   UNL     1     -11.441  11.865  63.605  1.00  0.00    -0.551 A  
HETATM    5  C   UNL     1     -10.598  11.206  64.513  1.00  0.00    -0.397 A  
HETATM    6  C   UNL     1     -10.079  11.866  65.648  1.00  0.00    -0.274 A  
HETATM    7  C   UNL     1     -10.441  13.217  65.821  1.00  0.00    -0.289 A  
HETATM    8  C   UNL     1     -11.264  13.882  64.908  1.00  0.00    -0.356 A  
ENDROOT
BRANCH   6   9
HETATM    9  C   UNL     1      -9.319  11.075  66.756  1.00  0.00    -0.181 C  
HETATM   10  O   UNL     1      -7.662  12.948  67.086  1.00  0.00    -0.140 OA 
HETATM   11  O   UNL     1      -9.007   9.745  66.237  1.00  0.00    -0.146 OA 
HETATM   12  C   UNL     1      -7.972  11.765  67.222  1.00  0.00    -0.161 C  
HETATM   13  C   UNL     1      -8.157   9.000  67.020  1.00  0.00    -0.106 A  
HETATM   14  H   UNL     1      -6.420  11.383  68.547  1.00  0.00     0.000 HD 
HETATM   15  C   UNL     1      -8.164   7.617  66.857  1.00  0.00    -0.120 A  
HETATM   16  C   UNL     1      -7.327   6.818  67.644  1.00  0.00    -0.096 A  
HETATM   17  N   UNL     1      -7.140  10.959  67.963  1.00  0.00    -0.076 N  
HETATM   18  C   UNL     1      -7.265   9.577  67.926  1.00  0.00    -0.082 A  
HETATM   19  C   UNL     1      -6.441   8.788  68.725  1.00  0.00    -0.053 A  
HETATM   20  C   UNL     1      -6.483   7.401  68.591  1.00  0.00    -0.044 A  
BRANCH   9  21
HETATM   21  C   UNL     1     -10.306  10.951  67.959  1.00  0.00    -0.212 A  
HETATM   22  C   UNL     1     -11.662  11.999  69.694  1.00  0.00    -0.405 A  
HETATM   23  H   UNL     1     -13.366  11.504  71.507  1.00  0.00     0.000 HD 
HETATM   24  O   UNL     1     -13.097  10.718  71.047  1.00  0.00    -0.350 OA 
HETATM   25  C   UNL     1     -12.178  10.760  70.041  1.00  0.00    -0.334 A  
HETATM   26  C   UNL     1     -11.784   9.610  69.368  1.00  0.00     0.260 A  
HETATM   27  C   UNL     1     -10.855   9.706  68.328  1.00  0.00    -0.230 A  
HETATM   28  C   UNL     1     -10.737  12.100  68.656  1.00  0.00    -0.261 A  
ENDBRANCH   9  21
ENDBRANCH   6   9
TORSDOF 2
ENDMDL
MODEL       83
REMARK 921   NORMALIZED FREE ENERGY PREDICTED BY IDOCK:   -4.94 KCAL/MOL
REMARK 922        TOTAL FREE ENERGY PREDICTED BY IDOCK:   -6.27 KCAL/MOL
REMARK 923 INTER-LIGAND FREE ENERGY PREDICTED BY IDOCK:   -5.35 KCAL/MOL
REMARK 924 INTRA-LIGAND FREE ENERGY PREDICTED BY IDOCK:   -0.92 KCAL/MOL
REMARK 927      BINDING AFFINITY PREDICTED BY RF-SCORE:    0.00 PKD
ROOT
HETATM    1  O   UNL     1      -5.221  11.233  64.782  1.00  0.00    -0.495 OA 
HETATM    2  C   UNL     1      -6.195  10.850  65.654  1.00  0.00    -0.019 A  
HETATM    3  H   UNL     1      -5.255  11.008  63.859  1.00  0.00     0.000 HD 
HETATM    4  C   UNL     1      -6.145  11.179  67.003  1.00  0.00    -0.092 A  
HETATM    5  C   UNL     1      -7.153  10.724  67.867  1.00  0.00    -0.085 A  
HETATM    6  C   UNL     1      -8.221   9.930  67.397  1.00  0.00    -0.118 A  
HETATM    7  C   UNL     1      -8.230   9.622  66.022  1.00  0.00    -0.119 A  
HETATM    8  C   UNL     1      -7.238  10.089  65.155  1.00  0.00    -0.139 A  
ENDROOT
BRANCH   6   9
HETATM    9  C   UNL     1      -9.218   9.259  68.392  1.00  0.00    -0.131 C  
HETATM   10  O   UNL     1     -11.093  10.794  67.695  1.00  0.00    -0.284 OA 
HETATM   11  O   UNL     1      -8.592   9.225  69.713  1.00  0.00    -0.133 OA 
HETATM   12  C   UNL     1     -10.606  10.010  68.508  1.00  0.00    -0.215 C  
HETATM   13  C   UNL     1      -9.426   8.851  70.740  1.00  0.00    -0.228 A  
HETATM   14  H   UNL     1     -12.379   9.822  69.572  1.00  0.00     0.000 HD 
HETATM   15  C   UNL     1      -8.843   8.363  71.907  1.00  0.00    -0.267 A  
HETATM   16  C   UNL     1      -9.653   7.955  72.973  1.00  0.00    -0.341 A  
HETATM   17  N   UNL     1     -11.378   9.629  69.580  1.00  0.00    -0.137 N  
HETATM   18  C   UNL     1     -10.814   8.986  70.673  1.00  0.00    -0.243 A  
HETATM   19  C   UNL     1     -11.628   8.566  71.723  1.00  0.00    -0.380 A  
HETATM   20  C   UNL     1     -11.043   8.037  72.873  1.00  0.00    -0.399 A  
BRANCH   9  21
HETATM   21  C   UNL     1      -9.434   7.802  67.875  1.00  0.00    -0.158 A  
HETATM   22  C   UNL     1      -8.675   5.491  67.696  1.00  0.00    -0.107 A  
HETATM   23  H   UNL     1      -9.360   3.194  66.867  1.00  0.00     0.000 HD 
HETATM   24  O   UNL     1     -10.034   3.845  66.708  1.00  0.00    -0.161 OA 
HETATM   25  C   UNL     1      -9.863   5.149  67.068  1.00  0.00    -0.177 A  
HETATM   26  C   UNL     1     -10.847   6.102  66.836  1.00  0.00    -0.411 A  
HETATM   27  C   UNL     1     -10.636   7.422  67.243  1.00  0.00    -0.393 A  
HETATM   28  C   UNL     1      -8.461   6.806  68.105  1.00  0.00    -0.121 A  
ENDBRANCH   9  21
ENDBRANCH   6   9
TORSDOF 2
ENDMDL
MODEL       84
REMARK 921   NORMALIZED FREE ENERGY PREDICTED BY IDOCK:   -4.94 KCAL/MOL
REMARK 922        TOTAL FREE ENERGY PREDICTED BY IDOCK:   -6.27 KCAL/MOL
REMARK 923 INTER-LIGAND FREE ENERGY PREDICTED BY IDOCK:   -5.70 KCAL/MOL
REMARK 924 INTRA-LIGAND FREE ENERGY PREDICTED BY IDOCK:   -0.57 KCAL/MOL
REMARK 927      BINDING AFFINITY PREDICTED BY RF-SCORE:    0.00 PKD
ROOT
HETATM    1  O   UNL     1     -14.194   9.294  73.106  1.00  0.00    -1.041 OA 
HETATM    2  C   UNL     1     -13.044   9.066  72.410  1.00  0.00    -0.423 A  
HETATM    3  H   UNL     1     -14.503   8.695  73.776  1.00  0.00     0.000 HD 
HETATM    4  C   UNL     1     -12.593   9.940  71.429  1.00  0.00    -0.497 A  
HETATM    5  C   UNL     1     -11.425   9.638  70.713  1.00  0.00    -0.399 A  
HETATM    6  C   UNL     1     -10.695   8.456  70.961  1.00  0.00    -0.267 A  
HETATM    7  C   UNL     1     -11.191   7.598  71.965  1.00  0.00    -0.317 A  
HETATM    8  C   UNL     1     -12.344   7.906  72.693  1.00  0.00    -0.108 A  
ENDROOT
BRANCH   6   9
HETATM    9  C   UNL     1      -9.523   8.026  70.026  1.00  0.00    -0.160 C  
HETATM   10  O   UNL     1      -7.869   9.449  71.290  1.00  0.00    -0.335 OA 
HETATM   11  O   UNL     1      -9.943   8.236  68.642  1.00  0.00    -0.179 OA 
HETATM   12  C   UNL     1      -8.181   8.827  70.275  1.00  0.00    -0.119 C  
HETATM   13  C   UNL     1      -8.945   8.099  67.705  1.00  0.00    -0.132 A  
HETATM   14  H   UNL     1      -6.262   8.909  69.487  1.00  0.00     0.000 HD 
HETATM   15  C   UNL     1      -9.318   7.835  66.389  1.00  0.00    -0.237 A  
HETATM   16  C   UNL     1      -8.336   7.673  65.406  1.00  0.00    -0.134 A  
HETATM   17  N   UNL     1      -7.238   8.691  69.285  1.00  0.00    -0.062 N  
HETATM   18  C   UNL     1      -7.593   8.261  68.014  1.00  0.00    -0.102 A  
HETATM   19  C   UNL     1      -6.609   8.084  67.044  1.00  0.00    -0.057 A  
HETATM   20  C   UNL     1      -6.983   7.775  65.738  1.00  0.00    -0.057 A  
BRANCH   9  21
HETATM   21  C   UNL     1      -9.297   6.503  70.281  1.00  0.00    -0.163 A  
HETATM   22  C   UNL     1      -8.426   4.702  71.676  1.00  0.00    -0.117 A  
HETATM   23  H   UNL     1      -8.338   2.176  71.900  1.00  0.00     0.000 HD 
HETATM   24  O   UNL     1      -8.831   2.449  71.135  1.00  0.00    -0.063 OA 
HETATM   25  C   UNL     1      -8.992   3.767  70.823  1.00  0.00    -0.094 A  
HETATM   26  C   UNL     1      -9.712   4.166  69.703  1.00  0.00    -0.269 A  
HETATM   27  C   UNL     1      -9.869   5.529  69.437  1.00  0.00    -0.240 A  
HETATM   28  C   UNL     1      -8.582   6.063  71.414  1.00  0.00    -0.129 A  
ENDBRANCH   9  21
ENDBRANCH   6   9
TORSDOF 2
ENDMDL
MODEL       85
REMARK 921   NORMALIZED FREE ENERGY PREDICTED BY IDOCK:   -4.92 KCAL/MOL
REMARK 922        TOTAL FREE ENERGY PREDICTED BY IDOCK:   -6.25 KCAL/MOL
REMARK 923 INTER-LIGAND FREE ENERGY PREDICTED BY IDOCK:   -5.93 KCAL/MOL
REMARK 924 INTRA-LIGAND FREE ENERGY PREDICTED BY IDOCK:   -0.33 KCAL/MOL
REMARK 927      BINDING AFFINITY PREDICTED BY RF-SCORE:    0.00 PKD
ROOT
HETATM    1  O   UNL     1     -10.175  15.246  65.545  1.00  0.00    -0.334 OA 
HETATM    2  C   UNL     1      -9.968  13.994  66.042  1.00  0.00    -0.315 A  
HETATM    3  H   UNL     1      -9.966  16.026  66.046  1.00  0.00     0.000 HD 
HETATM    4  C   UNL     1     -10.273  12.853  65.310  1.00  0.00    -0.294 A  
HETATM    5  C   UNL     1     -10.079  11.587  65.883  1.00  0.00    -0.271 A  
HETATM    6  C   UNL     1      -9.584  11.443  67.197  1.00  0.00    -0.193 A  
HETATM    7  C   UNL     1      -9.289  12.628  67.902  1.00  0.00    -0.204 A  
HETATM    8  C   UNL     1      -9.462  13.890  67.326  1.00  0.00    -0.239 A  
ENDROOT
BRANCH   6   9
HETATM    9  C   UNL     1      -9.569  10.050  67.899  1.00  0.00    -0.145 C  
HETATM   10  O   UNL     1      -7.200  10.376  68.701  1.00  0.00    -0.076 OA 
HETATM   11  O   UNL     1     -10.009   9.046  66.932  1.00  0.00    -0.202 OA 
HETATM   12  C   UNL     1      -8.146   9.630  68.452  1.00  0.00    -0.104 C  
HETATM   13  C   UNL     1      -9.851   7.742  67.336  1.00  0.00    -0.175 A  
HETATM   14  H   UNL     1      -7.284   8.012  69.426  1.00  0.00     0.000 HD 
HETATM   15  C   UNL     1     -10.627   6.767  66.713  1.00  0.00    -0.311 A  
HETATM   16  C   UNL     1     -10.511   5.429  67.104  1.00  0.00    -0.298 A  
HETATM   17  N   UNL     1      -8.032   8.305  68.797  1.00  0.00    -0.112 N  
HETATM   18  C   UNL     1      -8.920   7.358  68.303  1.00  0.00    -0.130 A  
HETATM   19  C   UNL     1      -8.810   6.030  68.710  1.00  0.00    -0.116 A  
HETATM   20  C   UNL     1      -9.620   5.064  68.115  1.00  0.00    -0.182 A  
BRANCH   9  21
HETATM   21  C   UNL     1     -10.598  10.139  69.069  1.00  0.00    -0.245 A  
HETATM   22  C   UNL     1     -11.173   9.761  71.409  1.00  0.00    -0.368 A  
HETATM   23  H   UNL     1     -12.981  10.168  73.141  1.00  0.00     0.000 HD 
HETATM   24  O   UNL     1     -13.215  10.524  72.291  1.00  0.00    -0.402 OA 
HETATM   25  C   UNL     1     -12.385  10.404  71.216  1.00  0.00    -0.401 A  
HETATM   26  C   UNL     1     -12.727  10.924  69.973  1.00  0.00    -0.174 A  
HETATM   27  C   UNL     1     -11.835  10.796  68.905  1.00  0.00    -0.287 A  
HETATM   28  C   UNL     1     -10.278   9.633  70.347  1.00  0.00    -0.348 A  
ENDBRANCH   9  21
ENDBRANCH   6   9
TORSDOF 2
ENDMDL
MODEL       86
REMARK 921   NORMALIZED FREE ENERGY PREDICTED BY IDOCK:   -4.92 KCAL/MOL
REMARK 922        TOTAL FREE ENERGY PREDICTED BY IDOCK:   -6.25 KCAL/MOL
REMARK 923 INTER-LIGAND FREE ENERGY PREDICTED BY IDOCK:   -5.78 KCAL/MOL
REMARK 924 INTRA-LIGAND FREE ENERGY PREDICTED BY IDOCK:   -0.47 KCAL/MOL
REMARK 927      BINDING AFFINITY PREDICTED BY RF-SCORE:    0.00 PKD
ROOT
HETATM    1  O   UNL     1     -13.130  15.136  70.408  1.00  0.00    -0.617 OA 
HETATM    2  C   UNL     1     -12.403  14.216  69.712  1.00  0.00    -0.299 A  
HETATM    3  H   UNL     1     -13.285  16.012  70.073  1.00  0.00     0.000 HD 
HETATM    4  C   UNL     1     -12.177  12.936  70.201  1.00  0.00    -0.336 A  
HETATM    5  C   UNL     1     -11.388  12.040  69.464  1.00  0.00    -0.298 A  
HETATM    6  C   UNL     1     -10.808  12.412  68.232  1.00  0.00    -0.264 A  
HETATM    7  C   UNL     1     -11.064  13.721  67.776  1.00  0.00    -0.288 A  
HETATM    8  C   UNL     1     -11.867  14.609  68.498  1.00  0.00    -0.346 A  
ENDROOT
BRANCH   6   9
HETATM    9  C   UNL     1      -9.768  11.489  67.525  1.00  0.00    -0.179 C  
HETATM   10  O   UNL     1      -7.830  12.841  68.406  1.00  0.00    -0.133 OA 
HETATM   11  O   UNL     1     -10.149  11.365  66.119  1.00  0.00    -0.216 OA 
HETATM   12  C   UNL     1      -8.282  12.028  67.600  1.00  0.00    -0.155 C  
HETATM   13  C   UNL     1      -9.217  10.752  65.317  1.00  0.00    -0.204 A  
HETATM   14  H   UNL     1      -6.400  11.468  66.924  1.00  0.00     0.000 HD 
HETATM   15  C   UNL     1      -9.654  10.196  64.116  1.00  0.00    -0.336 A  
HETATM   16  C   UNL     1      -8.742   9.548  63.276  1.00  0.00    -0.238 A  
HETATM   17  N   UNL     1      -7.402  11.410  66.743  1.00  0.00    -0.146 N  
HETATM   18  C   UNL     1      -7.858  10.709  65.635  1.00  0.00    -0.123 A  
HETATM   19  C   UNL     1      -6.947  10.051  64.812  1.00  0.00    -0.137 A  
HETATM   20  C   UNL     1      -7.395   9.457  63.633  1.00  0.00    -0.107 A  
BRANCH   9  21
HETATM   21  C   UNL     1      -9.874  10.097  68.223  1.00  0.00    -0.162 A  
HETATM   22  C   UNL     1      -9.411   8.651  70.132  1.00  0.00    -0.171 A  
HETATM   23  H   UNL     1      -9.865   6.343  71.080  1.00  0.00     0.000 HD 
HETATM   24  O   UNL     1     -10.287   6.471  70.239  1.00  0.00    -0.191 OA 
HETATM   25  C   UNL     1     -10.161   7.641  69.550  1.00  0.00    -0.209 A  
HETATM   26  C   UNL     1     -10.777   7.829  68.319  1.00  0.00    -0.093 A  
HETATM   27  C   UNL     1     -10.639   9.055  67.660  1.00  0.00    -0.298 A  
HETATM   28  C   UNL     1      -9.271   9.876  69.479  1.00  0.00    -0.238 A  
ENDBRANCH   9  21
ENDBRANCH   6   9
TORSDOF 2
ENDMDL
MODEL       87
REMARK 921   NORMALIZED FREE ENERGY PREDICTED BY IDOCK:   -4.90 KCAL/MOL
REMARK 922        TOTAL FREE ENERGY PREDICTED BY IDOCK:   -6.23 KCAL/MOL
REMARK 923 INTER-LIGAND FREE ENERGY PREDICTED BY IDOCK:   -5.63 KCAL/MOL
REMARK 924 INTRA-LIGAND FREE ENERGY PREDICTED BY IDOCK:   -0.60 KCAL/MOL
REMARK 927      BINDING AFFINITY PREDICTED BY RF-SCORE:    0.00 PKD
ROOT
HETATM    1  O   UNL     1      -7.495   5.895  65.208  1.00  0.00    -0.077 OA 
HETATM    2  C   UNL     1      -8.240   6.461  66.200  1.00  0.00    -0.122 A  
HETATM    3  H   UNL     1      -7.066   5.055  65.319  1.00  0.00     0.000 HD 
HETATM    4  C   UNL     1      -8.868   7.690  66.038  1.00  0.00    -0.186 A  
HETATM    5  C   UNL     1      -9.589   8.247  67.104  1.00  0.00    -0.234 A  
HETATM    6  C   UNL     1      -9.689   7.589  68.349  1.00  0.00    -0.161 A  
HETATM    7  C   UNL     1      -9.036   6.345  68.467  1.00  0.00    -0.126 A  
HETATM    8  C   UNL     1      -8.333   5.778  67.400  1.00  0.00    -0.104 A  
ENDROOT
BRANCH   6   9
HETATM    9  C   UNL     1     -10.312   8.305  69.586  1.00  0.00    -0.218 C  
HETATM   10  O   UNL     1     -11.753   6.309  70.134  1.00  0.00    -0.398 OA 
HETATM   11  O   UNL     1     -10.800   9.615  69.159  1.00  0.00    -0.220 OA 
HETATM   12  C   UNL     1     -11.510   7.510  70.248  1.00  0.00    -0.152 C  
HETATM   13  C   UNL     1     -11.561  10.283  70.089  1.00  0.00    -0.299 A  
HETATM   14  H   UNL     1     -12.847   7.755  71.817  1.00  0.00     0.000 HD 
HETATM   15  C   UNL     1     -11.681  11.665  69.962  1.00  0.00    -0.402 A  
HETATM   16  C   UNL     1     -12.433  12.387  70.895  1.00  0.00    -0.367 A  
HETATM   17  N   UNL     1     -12.265   8.240  71.134  1.00  0.00    -0.273 N  
HETATM   18  C   UNL     1     -12.248   9.628  71.113  1.00  0.00    -0.350 A  
HETATM   19  C   UNL     1     -12.984  10.342  72.056  1.00  0.00    -0.499 A  
HETATM   20  C   UNL     1     -13.065  11.730  71.952  1.00  0.00    -0.482 A  
BRANCH   9  21
HETATM   21  C   UNL     1      -9.152   8.487  70.615  1.00  0.00    -0.184 A  
HETATM   22  C   UNL     1      -8.238   8.141  72.849  1.00  0.00    -0.234 A  
HETATM   23  H   UNL     1      -6.145   8.447  74.250  1.00  0.00     0.000 HD 
HETATM   24  O   UNL     1      -6.025   8.754  73.359  1.00  0.00    -0.105 OA 
HETATM   25  C   UNL     1      -7.032   8.690  72.442  1.00  0.00    -0.001 A  
HETATM   26  C   UNL     1      -6.857   9.139  71.138  1.00  0.00    -0.088 A  
HETATM   27  C   UNL     1      -7.911   9.033  70.227  1.00  0.00    -0.124 A  
HETATM   28  C   UNL     1      -9.292   8.031  71.943  1.00  0.00    -0.225 A  
ENDBRANCH   9  21
ENDBRANCH   6   9
TORSDOF 2
ENDMDL
MODEL       88
REMARK 921   NORMALIZED FREE ENERGY PREDICTED BY IDOCK:   -4.89 KCAL/MOL
REMARK 922        TOTAL FREE ENERGY PREDICTED BY IDOCK:   -6.21 KCAL/MOL
REMARK 923 INTER-LIGAND FREE ENERGY PREDICTED BY IDOCK:   -5.87 KCAL/MOL
REMARK 924 INTRA-LIGAND FREE ENERGY PREDICTED BY IDOCK:   -0.34 KCAL/MOL
REMARK 927      BINDING AFFINITY PREDICTED BY RF-SCORE:    0.00 PKD
ROOT
HETATM    1  O   UNL     1      -5.515   9.600  70.854  1.00  0.00    -0.045 OA 
HETATM    2  C   UNL     1      -6.524  10.262  70.220  1.00  0.00    -0.137 A  
HETATM    3  H   UNL     1      -4.636   9.958  70.909  1.00  0.00     0.000 HD 
HETATM    4  C   UNL     1      -7.808   9.738  70.138  1.00  0.00    -0.196 A  
HETATM    5  C   UNL     1      -8.801  10.441  69.438  1.00  0.00    -0.138 A  
HETATM    6  C   UNL     1      -8.524  11.671  68.805  1.00  0.00    -0.027 A  
HETATM    7  C   UNL     1      -7.207  12.163  68.914  1.00  0.00    -0.079 A  
HETATM    8  C   UNL     1      -6.221  11.475  69.627  1.00  0.00    -0.124 A  
ENDROOT
BRANCH   6   9
HETATM    9  C   UNL     1      -9.570  12.339  67.859  1.00  0.00    -0.203 C  
HETATM   10  O   UNL     1     -11.462  11.850  69.453  1.00  0.00    -0.270 OA 
HETATM   11  O   UNL     1      -9.412  11.764  66.524  1.00  0.00    -0.202 OA 
HETATM   12  C   UNL     1     -11.070  12.137  68.322  1.00  0.00    -0.243 C  
HETATM   13  C   UNL     1     -10.397  12.100  65.627  1.00  0.00    -0.257 A  
HETATM   14  H   UNL     1     -12.972  12.635  67.656  1.00  0.00     0.000 HD 
HETATM   15  C   UNL     1     -10.108  11.988  64.269  1.00  0.00    -0.319 A  
HETATM   16  C   UNL     1     -11.077  12.334  63.320  1.00  0.00    -0.389 A  
HETATM   17  N   UNL     1     -12.012  12.444  67.370  1.00  0.00    -0.275 N  
HETATM   18  C   UNL     1     -11.676  12.498  66.024  1.00  0.00    -0.417 A  
HETATM   19  C   UNL     1     -12.639  12.860  65.085  1.00  0.00    -0.536 A  
HETATM   20  C   UNL     1     -12.332  12.790  63.728  1.00  0.00    -0.533 A  
BRANCH   9  21
HETATM   21  C   UNL     1      -9.216  13.859  67.822  1.00  0.00    -0.197 A  
HETATM   22  C   UNL     1      -8.406  15.809  66.601  1.00  0.00    -0.319 A  
HETATM   23  H   UNL     1      -8.064  18.315  66.787  1.00  0.00     0.000 HD 
HETATM   24  O   UNL     1      -8.439  17.947  67.579  1.00  0.00    -0.229 OA 
HETATM   25  C   UNL     1      -8.694  16.613  67.693  1.00  0.00    -0.202 A  
HETATM   26  C   UNL     1      -9.242  16.074  68.851  1.00  0.00    -0.233 A  
HETATM   27  C   UNL     1      -9.507  14.703  68.913  1.00  0.00    -0.173 A  
HETATM   28  C   UNL     1      -8.671  14.441  66.658  1.00  0.00    -0.131 A  
ENDBRANCH   9  21
ENDBRANCH   6   9
TORSDOF 2
ENDMDL
MODEL       89
REMARK 921   NORMALIZED FREE ENERGY PREDICTED BY IDOCK:   -4.87 KCAL/MOL
REMARK 922        TOTAL FREE ENERGY PREDICTED BY IDOCK:   -6.20 KCAL/MOL
REMARK 923 INTER-LIGAND FREE ENERGY PREDICTED BY IDOCK:   -6.45 KCAL/MOL
REMARK 924 INTRA-LIGAND FREE ENERGY PREDICTED BY IDOCK:    0.26 KCAL/MOL
REMARK 927      BINDING AFFINITY PREDICTED BY RF-SCORE:    0.00 PKD
ROOT
HETATM    1  O   UNL     1     -13.510  12.862  71.953  1.00  0.00    -0.451 OA 
HETATM    2  C   UNL     1     -12.664  13.631  71.211  1.00  0.00    -0.361 A  
HETATM    3  H   UNL     1     -13.423  11.917  71.995  1.00  0.00     0.000 HD 
HETATM    4  C   UNL     1     -12.790  15.014  71.149  1.00  0.00    -0.441 A  
HETATM    5  C   UNL     1     -11.919  15.756  70.338  1.00  0.00    -0.385 A  
HETATM    6  C   UNL     1     -10.913  15.128  69.573  1.00  0.00    -0.279 A  
HETATM    7  C   UNL     1     -10.822  13.724  69.666  1.00  0.00     0.077 A  
HETATM    8  C   UNL     1     -11.676  12.984  70.489  1.00  0.00    -0.012 A  
ENDROOT
BRANCH   6   9
HETATM    9  C   UNL     1     -10.088  15.931  68.520  1.00  0.00    -0.217 C  
HETATM   10  O   UNL     1      -7.988  14.635  69.038  1.00  0.00    -0.143 OA 
HETATM   11  O   UNL     1     -10.292  17.357  68.771  1.00  0.00    -0.337 OA 
HETATM   12  C   UNL     1      -8.535  15.628  68.559  1.00  0.00    -0.175 C  
HETATM   13  C   UNL     1      -9.469  18.195  68.057  1.00  0.00    -0.285 A  
HETATM   14  H   UNL     1      -6.814  16.258  67.585  1.00  0.00     0.000 HD 
HETATM   15  C   UNL     1      -9.876  19.516  67.884  1.00  0.00    -0.485 A  
HETATM   16  C   UNL     1      -9.077  20.401  67.151  1.00  0.00    -0.489 A  
HETATM   17  N   UNL     1      -7.756  16.524  67.867  1.00  0.00    -0.150 N  
HETATM   18  C   UNL     1      -8.235  17.788  67.547  1.00  0.00    -0.225 A  
HETATM   19  C   UNL     1      -7.442  18.658  66.802  1.00  0.00    -0.240 A  
HETATM   20  C   UNL     1      -7.873  19.967  66.593  1.00  0.00    -0.334 A  
BRANCH   9  21
HETATM   21  C   UNL     1     -10.677  15.554  67.124  1.00  0.00    -0.315 A  
HETATM   22  C   UNL     1     -11.447  13.863  65.544  1.00  0.00    -0.319 A  
HETATM   23  H   UNL     1     -12.545  13.561  63.277  1.00  0.00     0.000 HD 
HETATM   24  O   UNL     1     -12.433  14.478  63.500  1.00  0.00    -0.727 OA 
HETATM   25  C   UNL     1     -11.852  14.861  64.672  1.00  0.00    -0.407 A  
HETATM   26  C   UNL     1     -11.688  16.203  64.997  1.00  0.00     0.309 A  
HETATM   27  C   UNL     1     -11.108  16.547  66.221  1.00  0.00     0.237 A  
HETATM   28  C   UNL     1     -10.869  14.203  66.767  1.00  0.00    -0.296 A  
ENDBRANCH   9  21
ENDBRANCH   6   9
TORSDOF 2
ENDMDL
MODEL       90
REMARK 921   NORMALIZED FREE ENERGY PREDICTED BY IDOCK:   -4.87 KCAL/MOL
REMARK 922        TOTAL FREE ENERGY PREDICTED BY IDOCK:   -6.19 KCAL/MOL
REMARK 923 INTER-LIGAND FREE ENERGY PREDICTED BY IDOCK:   -6.08 KCAL/MOL
REMARK 924 INTRA-LIGAND FREE ENERGY PREDICTED BY IDOCK:   -0.12 KCAL/MOL
REMARK 927      BINDING AFFINITY PREDICTED BY RF-SCORE:    0.00 PKD
ROOT
HETATM    1  O   UNL     1      -8.603   7.772  72.422  1.00  0.00    -0.114 OA 
HETATM    2  C   UNL     1      -8.950   8.506  71.328  1.00  0.00    -0.192 A  
HETATM    3  H   UNL     1      -9.161   7.719  73.190  1.00  0.00     0.000 HD 
HETATM    4  C   UNL     1      -8.134   8.583  70.206  1.00  0.00    -0.106 A  
HETATM    5  C   UNL     1      -8.518   9.386  69.121  1.00  0.00    -0.134 A  
HETATM    6  C   UNL     1      -9.718  10.128  69.144  1.00  0.00    -0.225 A  
HETATM    7  C   UNL     1     -10.514  10.019  70.303  1.00  0.00    -0.331 A  
HETATM    8  C   UNL     1     -10.143   9.205  71.377  1.00  0.00    -0.392 A  
ENDROOT
BRANCH   6   9
HETATM    9  C   UNL     1     -10.035  11.174  68.031  1.00  0.00    -0.176 C  
HETATM   10  O   UNL     1     -11.846  12.244  69.423  1.00  0.00    -0.303 OA 
HETATM   11  O   UNL     1     -10.241  10.456  66.775  1.00  0.00    -0.209 OA 
HETATM   12  C   UNL     1     -11.319  12.052  68.328  1.00  0.00    -0.286 C  
HETATM   13  C   UNL     1     -10.732  11.220  65.743  1.00  0.00    -0.223 A  
HETATM   14  H   UNL     1     -12.405  13.560  67.403  1.00  0.00     0.000 HD 
HETATM   15  C   UNL     1     -10.535  10.763  64.442  1.00  0.00    -0.344 A  
HETATM   16  C   UNL     1     -11.004  11.517  63.360  1.00  0.00    -0.397 A  
HETATM   17  N   UNL     1     -11.794  12.759  67.249  1.00  0.00    -0.373 N  
HETATM   18  C   UNL     1     -11.453  12.398  65.952  1.00  0.00    -0.374 A  
HETATM   19  C   UNL     1     -11.908  13.162  64.880  1.00  0.00    -0.399 A  
HETATM   20  C   UNL     1     -11.671  12.724  63.578  1.00  0.00    -0.597 A  
BRANCH   9  21
HETATM   21  C   UNL     1      -8.773  12.085  67.916  1.00  0.00    -0.170 A  
HETATM   22  C   UNL     1      -7.540  14.079  68.586  1.00  0.00    -0.130 A  
HETATM   23  H   UNL     1      -5.321  15.277  68.308  1.00  0.00     0.000 HD 
HETATM   24  O   UNL     1      -5.352  14.464  67.816  1.00  0.00    -0.259 OA 
HETATM   25  C   UNL     1      -6.460  13.670  67.819  1.00  0.00    -0.171 A  
HETATM   26  C   UNL     1      -6.505  12.482  67.100  1.00  0.00    -0.053 A  
HETATM   27  C   UNL     1      -7.655  11.690  67.152  1.00  0.00    -0.152 A  
HETATM   28  C   UNL     1      -8.689  13.291  68.643  1.00  0.00     0.032 A  
ENDBRANCH   9  21
ENDBRANCH   6   9
TORSDOF 2
ENDMDL
MODEL       91
REMARK 921   NORMALIZED FREE ENERGY PREDICTED BY IDOCK:   -4.81 KCAL/MOL
REMARK 922        TOTAL FREE ENERGY PREDICTED BY IDOCK:   -6.13 KCAL/MOL
REMARK 923 INTER-LIGAND FREE ENERGY PREDICTED BY IDOCK:   -5.31 KCAL/MOL
REMARK 924 INTRA-LIGAND FREE ENERGY PREDICTED BY IDOCK:   -0.82 KCAL/MOL
REMARK 927      BINDING AFFINITY PREDICTED BY RF-SCORE:    0.00 PKD
ROOT
HETATM    1  O   UNL     1     -13.910   9.001  73.380  1.00  0.00    -1.173 OA 
HETATM    2  C   UNL     1     -13.092   8.816  72.306  1.00  0.00    -0.409 A  
HETATM    3  H   UNL     1     -13.953   9.830  73.843  1.00  0.00     0.000 HD 
HETATM    4  C   UNL     1     -13.030   7.604  71.629  1.00  0.00    -0.385 A  
HETATM    5  C   UNL     1     -12.140   7.453  70.555  1.00  0.00    -0.089 A  
HETATM    6  C   UNL     1     -11.295   8.507  70.146  1.00  0.00    -0.072 A  
HETATM    7  C   UNL     1     -11.392   9.717  70.862  1.00  0.00    -0.439 A  
HETATM    8  C   UNL     1     -12.292   9.877  71.920  1.00  0.00    -0.390 A  
ENDROOT
BRANCH   6   9
HETATM    9  C   UNL     1     -10.168   8.268  69.094  1.00  0.00    -0.218 C  
HETATM   10  O   UNL     1     -10.666  10.448  67.928  1.00  0.00    -0.220 OA 
HETATM   11  O   UNL     1     -10.352   6.936  68.522  1.00  0.00    -0.169 OA 
HETATM   12  C   UNL     1     -10.158   9.327  67.918  1.00  0.00    -0.200 C  
HETATM   13  C   UNL     1      -9.561   6.658  67.432  1.00  0.00    -0.126 A  
HETATM   14  H   UNL     1      -9.081   9.697  66.182  1.00  0.00     0.000 HD 
HETATM   15  C   UNL     1      -9.336   5.320  67.114  1.00  0.00    -0.124 A  
HETATM   16  C   UNL     1      -8.525   4.991  66.022  1.00  0.00    -0.116 A  
HETATM   17  N   UNL     1      -9.389   8.976  66.835  1.00  0.00    -0.150 N  
HETATM   18  C   UNL     1      -9.023   7.655  66.616  1.00  0.00    -0.156 A  
HETATM   19  C   UNL     1      -8.201   7.335  65.538  1.00  0.00    -0.139 A  
HETATM   20  C   UNL     1      -7.941   5.997  65.249  1.00  0.00    -0.117 A  
BRANCH   9  21
HETATM   21  C   UNL     1      -8.820   8.321  69.879  1.00  0.00    -0.138 A  
HETATM   22  C   UNL     1      -6.711   9.439  70.380  1.00  0.00    -0.083 A  
HETATM   23  H   UNL     1      -4.680   9.345  71.897  1.00  0.00     0.000 HD 
HETATM   24  O   UNL     1      -5.294   8.644  72.080  1.00  0.00    -0.038 OA 
HETATM   25  C   UNL     1      -6.450   8.505  71.371  1.00  0.00    -0.057 A  
HETATM   26  C   UNL     1      -7.349   7.480  71.639  1.00  0.00    -0.075 A  
HETATM   27  C   UNL     1      -8.532   7.391  70.899  1.00  0.00    -0.123 A  
HETATM   28  C   UNL     1      -7.891   9.356  69.641  1.00  0.00    -0.105 A  
ENDBRANCH   9  21
ENDBRANCH   6   9
TORSDOF 2
ENDMDL
MODEL       92
REMARK 921   NORMALIZED FREE ENERGY PREDICTED BY IDOCK:   -4.79 KCAL/MOL
REMARK 922        TOTAL FREE ENERGY PREDICTED BY IDOCK:   -6.10 KCAL/MOL
REMARK 923 INTER-LIGAND FREE ENERGY PREDICTED BY IDOCK:   -5.60 KCAL/MOL
REMARK 924 INTRA-LIGAND FREE ENERGY PREDICTED BY IDOCK:   -0.50 KCAL/MOL
REMARK 927      BINDING AFFINITY PREDICTED BY RF-SCORE:    0.00 PKD
ROOT
HETATM    1  O   UNL     1      -5.126   8.861  68.365  1.00  0.00    -0.030 OA 
HETATM    2  C   UNL     1      -6.220   9.632  68.109  1.00  0.00    -0.055 A  
HETATM    3  H   UNL     1      -4.267   9.076  68.019  1.00  0.00     0.000 HD 
HETATM    4  C   UNL     1      -7.475   9.318  68.614  1.00  0.00    -0.080 A  
HETATM    5  C   UNL     1      -8.578  10.122  68.287  1.00  0.00    -0.116 A  
HETATM    6  C   UNL     1      -8.443  11.248  67.445  1.00  0.00    -0.137 A  
HETATM    7  C   UNL     1      -7.150  11.528  66.956  1.00  0.00    -0.147 A  
HETATM    8  C   UNL     1      -6.047  10.739  67.296  1.00  0.00    -0.056 A  
ENDROOT
BRANCH   6   9
HETATM    9  C   UNL     1      -9.698  12.010  66.920  1.00  0.00    -0.203 C  
HETATM   10  O   UNL     1     -10.427  10.041  65.524  1.00  0.00    -0.167 OA 
HETATM   11  O   UNL     1      -9.261  13.306  66.402  1.00  0.00    -0.218 OA 
HETATM   12  C   UNL     1     -10.478  11.245  65.776  1.00  0.00    -0.254 C  
HETATM   13  C   UNL     1     -10.222  14.010  65.716  1.00  0.00    -0.328 A  
HETATM   14  H   UNL     1     -12.136  11.552  64.564  1.00  0.00     0.000 HD 
HETATM   15  C   UNL     1     -10.054  15.387  65.588  1.00  0.00    -0.406 A  
HETATM   16  C   UNL     1     -11.016  16.146  64.911  1.00  0.00    -0.364 A  
HETATM   17  N   UNL     1     -11.393  12.009  65.092  1.00  0.00    -0.320 N  
HETATM   18  C   UNL     1     -11.320  13.396  65.109  1.00  0.00    -0.299 A  
HETATM   19  C   UNL     1     -12.289  14.146  64.448  1.00  0.00    -0.410 A  
HETATM   20  C   UNL     1     -12.141  15.530  64.361  1.00  0.00    -0.146 A  
BRANCH   9  21
HETATM   21  C   UNL     1     -10.627  12.226  68.156  1.00  0.00    -0.232 A  
HETATM   22  C   UNL     1     -11.550  13.690  69.874  1.00  0.00    -0.281 A  
HETATM   23  H   UNL     1     -13.246  13.782  71.759  1.00  0.00     0.000 HD 
HETATM   24  O   UNL     1     -13.233  12.933  71.332  1.00  0.00    -0.297 OA 
HETATM   25  C   UNL     1     -12.384  12.668  70.298  1.00  0.00    -0.195 A  
HETATM   26  C   UNL     1     -12.365  11.426  69.675  1.00  0.00    -0.236 A  
HETATM   27  C   UNL     1     -11.493  11.208  68.604  1.00  0.00    -0.363 A  
HETATM   28  C   UNL     1     -10.680  13.477  68.805  1.00  0.00    -0.261 A  
ENDBRANCH   9  21
ENDBRANCH   6   9
TORSDOF 2
ENDMDL
MODEL       93
REMARK 921   NORMALIZED FREE ENERGY PREDICTED BY IDOCK:   -4.72 KCAL/MOL
REMARK 922        TOTAL FREE ENERGY PREDICTED BY IDOCK:   -6.03 KCAL/MOL
REMARK 923 INTER-LIGAND FREE ENERGY PREDICTED BY IDOCK:   -5.09 KCAL/MOL
REMARK 924 INTRA-LIGAND FREE ENERGY PREDICTED BY IDOCK:   -0.94 KCAL/MOL
REMARK 927      BINDING AFFINITY PREDICTED BY RF-SCORE:    0.00 PKD
ROOT
HETATM    1  O   UNL     1      -6.998   1.672  73.457  1.00  0.00    -0.021 OA 
HETATM    2  C   UNL     1      -7.625   2.842  73.146  1.00  0.00    -0.047 A  
HETATM    3  H   UNL     1      -6.153   1.441  73.089  1.00  0.00     0.000 HD 
HETATM    4  C   UNL     1      -8.860   3.179  73.684  1.00  0.00    -0.076 A  
HETATM    5  C   UNL     1      -9.482   4.377  73.300  1.00  0.00    -0.135 A  
HETATM    6  C   UNL     1      -8.883   5.251  72.368  1.00  0.00    -0.130 A  
HETATM    7  C   UNL     1      -7.629   4.867  71.848  1.00  0.00    -0.097 A  
HETATM    8  C   UNL     1      -6.998   3.684  72.244  1.00  0.00    -0.045 A  
ENDROOT
BRANCH   6   9
HETATM    9  C   UNL     1      -9.668   6.468  71.791  1.00  0.00    -0.158 C  
HETATM   10  O   UNL     1      -7.966   8.105  72.677  1.00  0.00    -0.126 OA 
HETATM   11  O   UNL     1     -11.058   6.365  72.230  1.00  0.00    -0.240 OA 
HETATM   12  C   UNL     1      -9.096   7.871  72.248  1.00  0.00    -0.161 C  
HETATM   13  C   UNL     1     -11.832   7.473  71.975  1.00  0.00    -0.294 A  
HETATM   14  H   UNL     1      -9.545   9.882  71.987  1.00  0.00     0.000 HD 
HETATM   15  C   UNL     1     -13.214   7.308  71.937  1.00  0.00    -0.289 A  
HETATM   16  C   UNL     1     -14.039   8.405  71.665  1.00  0.00    -0.487 A  
HETATM   17  N   UNL     1      -9.930   8.938  72.011  1.00  0.00    -0.322 N  
HETATM   18  C   UNL     1     -11.290   8.748  71.803  1.00  0.00    -0.339 A  
HETATM   19  C   UNL     1     -12.103   9.842  71.515  1.00  0.00    -0.493 A  
HETATM   20  C   UNL     1     -13.483   9.665  71.434  1.00  0.00    -0.403 A  
BRANCH   9  21
HETATM   21  C   UNL     1      -9.597   6.337  70.237  1.00  0.00    -0.182 A  
HETATM   22  C   UNL     1      -8.661   7.044  68.099  1.00  0.00    -0.127 A  
HETATM   23  H   UNL     1      -8.643   6.507  65.619  1.00  0.00     0.000 HD 
HETATM   24  O   UNL     1      -9.199   5.912  66.109  1.00  0.00    -0.159 OA 
HETATM   25  C   UNL     1      -9.358   6.032  67.458  1.00  0.00    -0.113 A  
HETATM   26  C   UNL     1     -10.172   5.162  68.173  1.00  0.00    -0.177 A  
HETATM   27  C   UNL     1     -10.287   5.311  69.559  1.00  0.00    -0.333 A  
HETATM   28  C   UNL     1      -8.771   7.195  69.481  1.00  0.00    -0.134 A  
ENDBRANCH   9  21
ENDBRANCH   6   9
TORSDOF 2
ENDMDL
MODEL       94
REMARK 921   NORMALIZED FREE ENERGY PREDICTED BY IDOCK:   -4.66 KCAL/MOL
REMARK 922        TOTAL FREE ENERGY PREDICTED BY IDOCK:   -5.96 KCAL/MOL
REMARK 923 INTER-LIGAND FREE ENERGY PREDICTED BY IDOCK:   -5.04 KCAL/MOL
REMARK 924 INTRA-LIGAND FREE ENERGY PREDICTED BY IDOCK:   -0.92 KCAL/MOL
REMARK 927      BINDING AFFINITY PREDICTED BY RF-SCORE:    0.00 PKD
ROOT
HETATM    1  O   UNL     1     -12.417   5.664  72.836  1.00  0.00    -0.503 OA 
HETATM    2  C   UNL     1     -11.632   6.130  71.824  1.00  0.00    -0.275 A  
HETATM    3  H   UNL     1     -12.279   4.809  73.226  1.00  0.00     0.000 HD 
HETATM    4  C   UNL     1     -11.834   7.381  71.254  1.00  0.00    -0.330 A  
HETATM    5  C   UNL     1     -11.023   7.797  70.187  1.00  0.00    -0.246 A  
HETATM    6  C   UNL     1     -10.005   6.968  69.669  1.00  0.00    -0.177 A  
HETATM    7  C   UNL     1      -9.838   5.707  70.279  1.00  0.00    -0.254 A  
HETATM    8  C   UNL     1     -10.630   5.298  71.355  1.00  0.00    -0.247 A  
ENDROOT
BRANCH   6   9
HETATM    9  C   UNL     1      -9.252   7.347  68.358  1.00  0.00    -0.138 C  
HETATM   10  O   UNL     1      -7.051   7.554  69.571  1.00  0.00    -0.065 OA 
HETATM   11  O   UNL     1      -9.975   8.443  67.715  1.00  0.00    -0.166 OA 
HETATM   12  C   UNL     1      -7.753   7.798  68.590  1.00  0.00    -0.118 C  
HETATM   13  C   UNL     1      -9.323   9.027  66.656  1.00  0.00    -0.177 A  
HETATM   14  H   UNL     1      -6.148   8.470  67.457  1.00  0.00     0.000 HD 
HETATM   15  C   UNL     1     -10.086   9.736  65.731  1.00  0.00    -0.308 A  
HETATM   16  C   UNL     1      -9.465  10.334  64.628  1.00  0.00    -0.351 A  
HETATM   17  N   UNL     1      -7.165   8.419  67.514  1.00  0.00    -0.087 N  
HETATM   18  C   UNL     1      -7.936   8.977  66.503  1.00  0.00    -0.103 A  
HETATM   19  C   UNL     1      -7.313   9.556  65.399  1.00  0.00    -0.099 A  
HETATM   20  C   UNL     1      -8.085  10.226  64.452  1.00  0.00    -0.149 A  
BRANCH   9  21
HETATM   21  C   UNL     1      -9.299   6.081  67.445  1.00  0.00    -0.111 A  
HETATM   22  C   UNL     1     -10.463   4.703  65.805  1.00  0.00    -0.290 A  
HETATM   23  H   UNL     1     -10.199   2.661  64.322  1.00  0.00     0.000 HD 
HETATM   24  O   UNL     1      -9.416   2.834  64.833  1.00  0.00    -0.153 OA 
HETATM   25  C   UNL     1      -9.351   3.881  65.704  1.00  0.00    -0.161 A  
HETATM   26  C   UNL     1      -8.207   4.134  66.451  1.00  0.00    -0.101 A  
HETATM   27  C   UNL     1      -8.179   5.233  67.315  1.00  0.00    -0.104 A  
HETATM   28  C   UNL     1     -10.439   5.801  66.663  1.00  0.00    -0.330 A  
ENDBRANCH   9  21
ENDBRANCH   6   9
TORSDOF 2
ENDMDL
MODEL       95
REMARK 921   NORMALIZED FREE ENERGY PREDICTED BY IDOCK:   -4.66 KCAL/MOL
REMARK 922        TOTAL FREE ENERGY PREDICTED BY IDOCK:   -5.96 KCAL/MOL
REMARK 923 INTER-LIGAND FREE ENERGY PREDICTED BY IDOCK:   -5.28 KCAL/MOL
REMARK 924 INTRA-LIGAND FREE ENERGY PREDICTED BY IDOCK:   -0.68 KCAL/MOL
REMARK 927      BINDING AFFINITY PREDICTED BY RF-SCORE:    0.00 PKD
ROOT
HETATM    1  O   UNL     1     -12.811  14.579  69.536  1.00  0.00    -0.524 OA 
HETATM    2  C   UNL     1     -11.880  13.811  68.904  1.00  0.00    -0.360 A  
HETATM    3  H   UNL     1     -13.271  14.276  70.310  1.00  0.00     0.000 HD 
HETATM    4  C   UNL     1     -11.207  14.254  67.772  1.00  0.00    -0.309 A  
HETATM    5  C   UNL     1     -10.287  13.408  67.134  1.00  0.00    -0.246 A  
HETATM    6  C   UNL     1     -10.032  12.105  67.613  1.00  0.00    -0.199 A  
HETATM    7  C   UNL     1     -10.738  11.698  68.764  1.00  0.00    -0.254 A  
HETATM    8  C   UNL     1     -11.640  12.546  69.413  1.00  0.00    -0.368 A  
ENDROOT
BRANCH   6   9
HETATM    9  C   UNL     1      -9.171  11.102  66.786  1.00  0.00    -0.171 C  
HETATM   10  O   UNL     1      -7.018  12.079  67.664  1.00  0.00    -0.096 OA 
HETATM   11  O   UNL     1      -9.622  11.150  65.396  1.00  0.00    -0.211 OA 
HETATM   12  C   UNL     1      -7.619  11.409  66.824  1.00  0.00    -0.143 C  
HETATM   13  C   UNL     1      -8.825  10.474  64.503  1.00  0.00    -0.200 A  
HETATM   14  H   UNL     1      -5.871  10.638  66.011  1.00  0.00     0.000 HD 
HETATM   15  C   UNL     1      -9.389  10.088  63.289  1.00  0.00    -0.296 A  
HETATM   16  C   UNL     1      -8.618   9.385  62.356  1.00  0.00    -0.221 A  
HETATM   17  N   UNL     1      -6.877  10.742  65.879  1.00  0.00    -0.116 N  
HETATM   18  C   UNL     1      -7.477  10.208  64.747  1.00  0.00    -0.136 A  
HETATM   19  C   UNL     1      -6.708   9.493  63.830  1.00  0.00    -0.105 A  
HETATM   20  C   UNL     1      -7.287   9.069  62.635  1.00  0.00    -0.098 A  
BRANCH   9  21
HETATM   21  C   UNL     1      -9.456   9.687  67.382  1.00  0.00    -0.170 A  
HETATM   22  C   UNL     1     -10.881   7.716  67.552  1.00  0.00    -0.205 A  
HETATM   23  H   UNL     1     -11.006   5.388  68.552  1.00  0.00     0.000 HD 
HETATM   24  O   UNL     1     -10.192   5.826  68.771  1.00  0.00    -0.161 OA 
HETATM   25  C   UNL     1      -9.927   7.093  68.341  1.00  0.00    -0.158 A  
HETATM   26  C   UNL     1      -8.736   7.734  68.661  1.00  0.00    -0.128 A  
HETATM   27  C   UNL     1      -8.499   9.025  68.178  1.00  0.00    -0.129 A  
HETATM   28  C   UNL     1     -10.649   9.003  67.068  1.00  0.00    -0.270 A  
ENDBRANCH   9  21
ENDBRANCH   6   9
TORSDOF 2
ENDMDL
MODEL       96
REMARK 921   NORMALIZED FREE ENERGY PREDICTED BY IDOCK:   -4.63 KCAL/MOL
REMARK 922        TOTAL FREE ENERGY PREDICTED BY IDOCK:   -5.93 KCAL/MOL
REMARK 923 INTER-LIGAND FREE ENERGY PREDICTED BY IDOCK:   -4.99 KCAL/MOL
REMARK 924 INTRA-LIGAND FREE ENERGY PREDICTED BY IDOCK:   -0.94 KCAL/MOL
REMARK 927      BINDING AFFINITY PREDICTED BY RF-SCORE:    0.00 PKD
ROOT
HETATM    1  O   UNL     1      -9.182   4.002  63.259  1.00  0.00    -0.120 OA 
HETATM    2  C   UNL     1      -9.214   4.556  64.504  1.00  0.00    -0.136 A  
HETATM    3  H   UNL     1      -8.483   4.189  62.643  1.00  0.00     0.000 HD 
HETATM    4  C   UNL     1     -10.235   4.282  65.405  1.00  0.00    -0.235 A  
HETATM    5  C   UNL     1     -10.243   4.912  66.659  1.00  0.00    -0.291 A  
HETATM    6  C   UNL     1      -9.235   5.827  67.029  1.00  0.00    -0.118 A  
HETATM    7  C   UNL     1      -8.219   6.074  66.083  1.00  0.00    -0.121 A  
HETATM    8  C   UNL     1      -8.198   5.434  64.840  1.00  0.00    -0.138 A  
ENDROOT
BRANCH   6   9
HETATM    9  C   UNL     1      -9.361   6.675  68.332  1.00  0.00    -0.123 C  
HETATM   10  O   UNL     1      -7.123   5.878  69.178  1.00  0.00    -0.065 OA 
HETATM   11  O   UNL     1     -10.655   6.383  68.944  1.00  0.00    -0.200 OA 
HETATM   12  C   UNL     1      -8.222   6.387  69.393  1.00  0.00    -0.118 C  
HETATM   13  C   UNL     1     -10.829   6.896  70.208  1.00  0.00    -0.257 A  
HETATM   14  H   UNL     1      -7.695   7.014  71.301  1.00  0.00     0.000 HD 
HETATM   15  C   UNL     1     -12.133   7.060  70.671  1.00  0.00    -0.332 A  
HETATM   16  C   UNL     1     -12.357   7.594  71.945  1.00  0.00    -0.337 A  
HETATM   17  N   UNL     1      -8.470   6.883  70.651  1.00  0.00    -0.135 N  
HETATM   18  C   UNL     1      -9.760   7.208  71.049  1.00  0.00    -0.165 A  
HETATM   19  C   UNL     1      -9.975   7.755  72.312  1.00  0.00    -0.259 A  
HETATM   20  C   UNL     1     -11.281   7.960  72.755  1.00  0.00    -0.466 A  
BRANCH   9  21
HETATM   21  C   UNL     1      -9.317   8.171  67.885  1.00  0.00    -0.145 A  
HETATM   22  C   UNL     1      -8.110  10.281  67.689  1.00  0.00    -0.106 A  
HETATM   23  H   UNL     1      -8.271  12.624  66.731  1.00  0.00     0.000 HD 
HETATM   24  O   UNL     1      -9.047  12.108  66.543  1.00  0.00    -0.208 OA 
HETATM   25  C   UNL     1      -9.170  10.822  66.978  1.00  0.00    -0.152 A  
HETATM   26  C   UNL     1     -10.304  10.067  66.705  1.00  0.00    -0.281 A  
HETATM   27  C   UNL     1     -10.375   8.745  67.152  1.00  0.00    -0.364 A  
HETATM   28  C   UNL     1      -8.175   8.961  68.136  1.00  0.00    -0.114 A  
ENDBRANCH   9  21
ENDBRANCH   6   9
TORSDOF 2
ENDMDL
MODEL       97
REMARK 921   NORMALIZED FREE ENERGY PREDICTED BY IDOCK:   -4.62 KCAL/MOL
REMARK 922        TOTAL FREE ENERGY PREDICTED BY IDOCK:   -5.92 KCAL/MOL
REMARK 923 INTER-LIGAND FREE ENERGY PREDICTED BY IDOCK:   -5.59 KCAL/MOL
REMARK 924 INTRA-LIGAND FREE ENERGY PREDICTED BY IDOCK:   -0.32 KCAL/MOL
REMARK 927      BINDING AFFINITY PREDICTED BY RF-SCORE:    0.00 PKD
ROOT
HETATM    1  O   UNL     1     -10.602   4.117  66.345  1.00  0.00    -0.258 OA 
HETATM    2  C   UNL     1     -10.115   5.387  66.257  1.00  0.00    -0.174 A  
HETATM    3  H   UNL     1     -11.424   3.923  66.781  1.00  0.00     0.000 HD 
HETATM    4  C   UNL     1      -8.912   5.670  65.620  1.00  0.00    -0.139 A  
HETATM    5  C   UNL     1      -8.435   6.989  65.593  1.00  0.00    -0.144 A  
HETATM    6  C   UNL     1      -9.147   8.042  66.205  1.00  0.00    -0.232 A  
HETATM    7  C   UNL     1     -10.362   7.708  66.839  1.00  0.00    -0.388 A  
HETATM    8  C   UNL     1     -10.849   6.398  66.851  1.00  0.00    -0.428 A  
ENDROOT
BRANCH   6   9
HETATM    9  C   UNL     1      -8.514   9.460  66.351  1.00  0.00    -0.126 C  
HETATM   10  O   UNL     1      -7.055   9.119  64.322  1.00  0.00    -0.093 OA 
HETATM   11  O   UNL     1      -8.039   9.609  67.725  1.00  0.00    -0.111 OA 
HETATM   12  C   UNL     1      -7.303   9.723  65.366  1.00  0.00    -0.118 C  
HETATM   13  C   UNL     1      -7.270  10.726  67.956  1.00  0.00    -0.086 A  
HETATM   14  H   UNL     1      -5.949  11.242  64.953  1.00  0.00     0.000 HD 
HETATM   15  C   UNL     1      -7.161  11.182  69.268  1.00  0.00    -0.123 A  
HETATM   16  C   UNL     1      -6.402  12.324  69.547  1.00  0.00    -0.121 A  
HETATM   17  N   UNL     1      -6.542  10.825  65.671  1.00  0.00    -0.075 N  
HETATM   18  C   UNL     1      -6.568  11.381  66.943  1.00  0.00    -0.141 A  
HETATM   19  C   UNL     1      -5.824  12.529  67.211  1.00  0.00    -0.101 A  
HETATM   20  C   UNL     1      -5.753  13.008  68.518  1.00  0.00    -0.068 A  
BRANCH   9  21
HETATM   21  C   UNL     1      -9.662  10.482  66.079  1.00  0.00    -0.257 A  
HETATM   22  C   UNL     1     -11.079  11.697  64.509  1.00  0.00    -0.365 A  
HETATM   23  H   UNL     1     -13.066  13.269  64.373  1.00  0.00     0.000 HD 
HETATM   24  O   UNL     1     -12.851  13.043  65.270  1.00  0.00    -0.642 OA 
HETATM   25  C   UNL     1     -11.807  12.217  65.567  1.00  0.00    -0.359 A  
HETATM   26  C   UNL     1     -11.492  11.888  66.880  1.00  0.00    -0.390 A  
HETATM   27  C   UNL     1     -10.427  11.019  67.134  1.00  0.00    -0.274 A  
HETATM   28  C   UNL     1     -10.017  10.829  64.758  1.00  0.00    -0.382 A  
ENDBRANCH   9  21
ENDBRANCH   6   9
TORSDOF 2
ENDMDL
MODEL       98
REMARK 921   NORMALIZED FREE ENERGY PREDICTED BY IDOCK:   -4.61 KCAL/MOL
REMARK 922        TOTAL FREE ENERGY PREDICTED BY IDOCK:   -5.90 KCAL/MOL
REMARK 923 INTER-LIGAND FREE ENERGY PREDICTED BY IDOCK:   -5.36 KCAL/MOL
REMARK 924 INTRA-LIGAND FREE ENERGY PREDICTED BY IDOCK:   -0.54 KCAL/MOL
REMARK 927      BINDING AFFINITY PREDICTED BY RF-SCORE:    0.00 PKD
ROOT
HETATM    1  O   UNL     1      -8.102   8.515  62.450  1.00  0.00    -0.151 OA 
HETATM    2  C   UNL     1      -8.483   8.685  63.748  1.00  0.00    -0.055 A  
HETATM    3  H   UNL     1      -7.645   7.735  62.159  1.00  0.00     0.000 HD 
HETATM    4  C   UNL     1      -9.152   9.826  64.174  1.00  0.00    -0.289 A  
HETATM    5  C   UNL     1      -9.485   9.970  65.529  1.00  0.00    -0.296 A  
HETATM    6  C   UNL     1      -9.149   8.981  66.479  1.00  0.00    -0.202 A  
HETATM    7  C   UNL     1      -8.470   7.842  66.001  1.00  0.00    -0.146 A  
HETATM    8  C   UNL     1      -8.155   7.686  64.648  1.00  0.00    -0.112 A  
ENDROOT
BRANCH   6   9
HETATM    9  C   UNL     1      -9.335   9.240  68.005  1.00  0.00    -0.133 C  
HETATM   10  O   UNL     1      -6.844   9.312  68.392  1.00  0.00    -0.062 OA 
HETATM   11  O   UNL     1     -10.249   8.228  68.533  1.00  0.00    -0.200 OA 
HETATM   12  C   UNL     1      -7.986   9.183  68.831  1.00  0.00    -0.099 C  
HETATM   13  C   UNL     1     -10.351   8.196  69.903  1.00  0.00    -0.214 A  
HETATM   14  H   UNL     1      -7.376   9.363  70.808  1.00  0.00     0.000 HD 
HETATM   15  C   UNL     1     -11.486   7.611  70.459  1.00  0.00    -0.236 A  
HETATM   16  C   UNL     1     -11.640   7.570  71.849  1.00  0.00    -0.312 A  
HETATM   17  N   UNL     1      -8.148   9.105  70.194  1.00  0.00    -0.122 N  
HETATM   18  C   UNL     1      -9.349   8.680  70.747  1.00  0.00    -0.191 A  
HETATM   19  C   UNL     1      -9.502   8.658  72.131  1.00  0.00    -0.373 A  
HETATM   20  C   UNL     1     -10.660   8.112  72.683  1.00  0.00    -0.414 A  
BRANCH   9  21
HETATM   21  C   UNL     1      -9.986  10.653  68.133  1.00  0.00    -0.176 A  
HETATM   22  C   UNL     1     -11.968  12.048  68.403  1.00  0.00    -0.256 A  
HETATM   23  H   UNL     1     -12.727  14.445  68.738  1.00  0.00     0.000 HD 
HETATM   24  O   UNL     1     -11.781  14.376  68.681  1.00  0.00    -0.299 OA 
HETATM   25  C   UNL     1     -11.165  13.174  68.490  1.00  0.00    -0.272 A  
HETATM   26  C   UNL     1      -9.782  13.072  68.407  1.00  0.00    -0.192 A  
HETATM   27  C   UNL     1      -9.194  11.816  68.234  1.00  0.00    -0.188 A  
HETATM   28  C   UNL     1     -11.387  10.792  68.233  1.00  0.00    -0.376 A  
ENDBRANCH   9  21
ENDBRANCH   6   9
TORSDOF 2
ENDMDL
MODEL       99
REMARK 921   NORMALIZED FREE ENERGY PREDICTED BY IDOCK:   -4.58 KCAL/MOL
REMARK 922        TOTAL FREE ENERGY PREDICTED BY IDOCK:   -5.88 KCAL/MOL
REMARK 923 INTER-LIGAND FREE ENERGY PREDICTED BY IDOCK:   -5.04 KCAL/MOL
REMARK 924 INTRA-LIGAND FREE ENERGY PREDICTED BY IDOCK:   -0.84 KCAL/MOL
REMARK 927      BINDING AFFINITY PREDICTED BY RF-SCORE:    0.00 PKD
ROOT
HETATM    1  O   UNL     1     -12.367  12.956  66.530  1.00  0.00    -0.440 OA 
HETATM    2  C   UNL     1     -11.490  12.064  67.070  1.00  0.00    -0.338 A  
HETATM    3  H   UNL     1     -12.959  13.468  67.068  1.00  0.00     0.000 HD 
HETATM    4  C   UNL     1     -10.623  11.316  66.283  1.00  0.00    -0.315 A  
HETATM    5  C   UNL     1      -9.769  10.380  66.885  1.00  0.00    -0.223 A  
HETATM    6  C   UNL     1      -9.772  10.174  68.282  1.00  0.00    -0.154 A  
HETATM    7  C   UNL     1     -10.668  10.955  69.040  1.00  0.00    -0.262 A  
HETATM    8  C   UNL     1     -11.506  11.902  68.445  1.00  0.00    -0.357 A  
ENDROOT
BRANCH   6   9
HETATM    9  C   UNL     1      -8.975   8.994  68.919  1.00  0.00    -0.140 C  
HETATM   10  O   UNL     1      -7.490  10.572  70.210  1.00  0.00    -0.176 OA 
HETATM   11  O   UNL     1      -8.540   8.103  67.845  1.00  0.00    -0.130 OA 
HETATM   12  C   UNL     1      -7.704   9.454  69.742  1.00  0.00    -0.110 C  
HETATM   13  C   UNL     1      -7.650   7.127  68.225  1.00  0.00    -0.115 A  
HETATM   14  H   UNL     1      -6.158   8.576  70.814  1.00  0.00     0.000 HD 
HETATM   15  C   UNL     1      -7.537   5.998  67.417  1.00  0.00    -0.093 A  
HETATM   16  C   UNL     1      -6.656   4.971  67.775  1.00  0.00    -0.050 A  
HETATM   17  N   UNL     1      -6.825   8.444  70.054  1.00  0.00    -0.042 N  
HETATM   18  C   UNL     1      -6.833   7.247  69.351  1.00  0.00    -0.050 A  
HETATM   19  C   UNL     1      -5.965   6.222  69.722  1.00  0.00    -0.018 A  
HETATM   20  C   UNL     1      -5.887   5.074  68.936  1.00  0.00    -0.020 A  
BRANCH   9  21
HETATM   21  C   UNL     1      -9.978   8.243  69.850  1.00  0.00    -0.190 A  
HETATM   22  C   UNL     1     -11.633   6.484  70.189  1.00  0.00    -0.466 A  
HETATM   23  H   UNL     1     -13.061   5.361  71.959  1.00  0.00     0.000 HD 
HETATM   24  O   UNL     1     -12.526   6.058  72.322  1.00  0.00    -0.206 OA 
HETATM   25  C   UNL     1     -11.692   6.798  71.538  1.00  0.00    -0.317 A  
HETATM   26  C   UNL     1     -10.911   7.818  72.068  1.00  0.00    -0.295 A  
HETATM   27  C   UNL     1     -10.053   8.534  71.228  1.00  0.00    -0.286 A  
HETATM   28  C   UNL     1     -10.777   7.194  69.348  1.00  0.00    -0.246 A  
ENDBRANCH   9  21
ENDBRANCH   6   9
TORSDOF 2
ENDMDL
MODEL      100
REMARK 921   NORMALIZED FREE ENERGY PREDICTED BY IDOCK:   -4.55 KCAL/MOL
REMARK 922        TOTAL FREE ENERGY PREDICTED BY IDOCK:   -5.83 KCAL/MOL
REMARK 923 INTER-LIGAND FREE ENERGY PREDICTED BY IDOCK:   -5.13 KCAL/MOL
REMARK 924 INTRA-LIGAND FREE ENERGY PREDICTED BY IDOCK:   -0.70 KCAL/MOL
REMARK 927      BINDING AFFINITY PREDICTED BY RF-SCORE:    0.00 PKD
ROOT
HETATM    1  O   UNL     1     -13.930   8.956  73.133  1.00  0.00    -1.118 OA 
HETATM    2  C   UNL     1     -13.005   8.574  72.207  1.00  0.00    -0.341 A  
HETATM    3  H   UNL     1     -14.241   9.852  73.193  1.00  0.00     0.000 HD 
HETATM    4  C   UNL     1     -12.550   7.264  72.121  1.00  0.00    -0.169 A  
HETATM    5  C   UNL     1     -11.567   6.932  71.176  1.00  0.00    -0.363 A  
HETATM    6  C   UNL     1     -11.020   7.903  70.311  1.00  0.00    -0.249 A  
HETATM    7  C   UNL     1     -11.512   9.219  70.435  1.00  0.00    -0.255 A  
HETATM    8  C   UNL     1     -12.505   9.549  71.361  1.00  0.00    -0.450 A  
ENDROOT
BRANCH   6   9
HETATM    9  C   UNL     1      -9.788   7.573  69.413  1.00  0.00    -0.166 C  
HETATM   10  O   UNL     1     -11.254   6.667  67.571  1.00  0.00    -0.319 OA 
HETATM   11  O   UNL     1      -8.840   6.794  70.206  1.00  0.00    -0.149 OA 
HETATM   12  C   UNL     1     -10.150   6.753  68.108  1.00  0.00    -0.164 C  
HETATM   13  C   UNL     1      -7.796   6.251  69.496  1.00  0.00    -0.101 A  
HETATM   14  H   UNL     1      -9.160   5.916  66.486  1.00  0.00     0.000 HD 
HETATM   15  C   UNL     1      -6.644   5.898  70.195  1.00  0.00    -0.047 A  
HETATM   16  C   UNL     1      -5.552   5.356  69.510  1.00  0.00    -0.012 A  
HETATM   17  N   UNL     1      -9.073   6.193  67.464  1.00  0.00    -0.111 N  
HETATM   18  C   UNL     1      -7.867   6.000  68.124  1.00  0.00    -0.106 A  
HETATM   19  C   UNL     1      -6.777   5.477  67.432  1.00  0.00    -0.059 A  
HETATM   20  C   UNL     1      -5.610   5.166  68.128  1.00  0.00    -0.016 A  
BRANCH   9  21
HETATM   21  C   UNL     1      -9.149   8.945  69.028  1.00  0.00    -0.137 A  
HETATM   22  C   UNL     1      -9.053  10.893  67.564  1.00  0.00    -0.142 A  
HETATM   23  H   UNL     1      -7.935  13.151  67.270  1.00  0.00     0.000 HD 
HETATM   24  O   UNL     1      -7.634  12.704  68.052  1.00  0.00    -0.109 OA 
HETATM   25  C   UNL     1      -8.102  11.469  68.392  1.00  0.00    -0.149 A  
HETATM   26  C   UNL     1      -7.663  10.815  69.537  1.00  0.00    -0.074 A  
HETATM   27  C   UNL     1      -8.188   9.560  69.856  1.00  0.00    -0.169 A  
HETATM   28  C   UNL     1      -9.581   9.642  67.880  1.00  0.00    -0.159 A  
ENDBRANCH   9  21
ENDBRANCH   6   9
TORSDOF 2
ENDMDL
MODEL      101
REMARK 921   NORMALIZED FREE ENERGY PREDICTED BY IDOCK:   -4.53 KCAL/MOL
REMARK 922        TOTAL FREE ENERGY PREDICTED BY IDOCK:   -5.82 KCAL/MOL
REMARK 923 INTER-LIGAND FREE ENERGY PREDICTED BY IDOCK:   -4.98 KCAL/MOL
REMARK 924 INTRA-LIGAND FREE ENERGY PREDICTED BY IDOCK:   -0.84 KCAL/MOL
REMARK 927      BINDING AFFINITY PREDICTED BY RF-SCORE:    0.00 PKD
ROOT
HETATM    1  O   UNL     1      -7.415   6.302  63.088  1.00  0.00    -0.058 OA 
HETATM    2  C   UNL     1      -7.912   6.806  64.252  1.00  0.00    -0.087 A  
HETATM    3  H   UNL     1      -7.449   5.374  62.887  1.00  0.00     0.000 HD 
HETATM    4  C   UNL     1      -7.861   8.163  64.546  1.00  0.00    -0.138 A  
HETATM    5  C   UNL     1      -8.350   8.626  65.778  1.00  0.00    -0.148 A  
HETATM    6  C   UNL     1      -8.889   7.740  66.735  1.00  0.00    -0.154 A  
HETATM    7  C   UNL     1      -8.919   6.372  66.393  1.00  0.00    -0.162 A  
HETATM    8  C   UNL     1      -8.451   5.911  65.159  1.00  0.00    -0.130 A  
ENDROOT
BRANCH   6   9
HETATM    9  C   UNL     1      -9.236   8.229  68.174  1.00  0.00    -0.134 C  
HETATM   10  O   UNL     1      -6.826   8.087  68.905  1.00  0.00    -0.058 OA 
HETATM   11  O   UNL     1     -10.330   7.406  68.686  1.00  0.00    -0.191 OA 
HETATM   12  C   UNL     1      -8.023   8.144  69.187  1.00  0.00    -0.113 C  
HETATM   13  C   UNL     1     -10.612   7.578  70.021  1.00  0.00    -0.237 A  
HETATM   14  H   UNL     1      -7.655   8.534  71.193  1.00  0.00     0.000 HD 
HETATM   15  C   UNL     1     -11.874   7.202  70.474  1.00  0.00    -0.286 A  
HETATM   16  C   UNL     1     -12.209   7.375  71.822  1.00  0.00    -0.359 A  
HETATM   17  N   UNL     1      -8.368   8.277  70.511  1.00  0.00    -0.119 N  
HETATM   18  C   UNL     1      -9.674   8.066  70.933  1.00  0.00    -0.164 A  
HETATM   19  C   UNL     1     -10.006   8.255  72.273  1.00  0.00    -0.366 A  
HETATM   20  C   UNL     1     -11.284   7.920  72.715  1.00  0.00    -0.466 A  
BRANCH   9  21
HETATM   21  C   UNL     1      -9.715   9.708  68.029  1.00  0.00    -0.167 A  
HETATM   22  C   UNL     1      -9.258  12.099  68.173  1.00  0.00    -0.197 A  
HETATM   23  H   UNL     1     -10.258  14.384  67.707  1.00  0.00     0.000 HD 
HETATM   24  O   UNL     1     -10.852  13.680  67.472  1.00  0.00    -0.260 OA 
HETATM   25  C   UNL     1     -10.514  12.372  67.653  1.00  0.00    -0.216 A  
HETATM   26  C   UNL     1     -11.382  11.342  67.310  1.00  0.00    -0.347 A  
HETATM   27  C   UNL     1     -10.982  10.016  67.493  1.00  0.00    -0.276 A  
HETATM   28  C   UNL     1      -8.854  10.777  68.355  1.00  0.00    -0.146 A  
ENDBRANCH   9  21
ENDBRANCH   6   9
TORSDOF 2
ENDMDL
MODEL      102
REMARK 921   NORMALIZED FREE ENERGY PREDICTED BY IDOCK:   -4.51 KCAL/MOL
REMARK 922        TOTAL FREE ENERGY PREDICTED BY IDOCK:   -5.79 KCAL/MOL
REMARK 923 INTER-LIGAND FREE ENERGY PREDICTED BY IDOCK:   -5.38 KCAL/MOL
REMARK 924 INTRA-LIGAND FREE ENERGY PREDICTED BY IDOCK:   -0.41 KCAL/MOL
REMARK 927      BINDING AFFINITY PREDICTED BY RF-SCORE:    0.00 PKD
ROOT
HETATM    1  O   UNL     1     -13.123  14.650  71.459  1.00  0.00    -0.313 OA 
HETATM    2  C   UNL     1     -12.527  13.757  70.619  1.00  0.00    -0.359 A  
HETATM    3  H   UNL     1     -13.158  15.579  71.263  1.00  0.00     0.000 HD 
HETATM    4  C   UNL     1     -12.475  12.399  70.907  1.00  0.00    -0.367 A  
HETATM    5  C   UNL     1     -11.814  11.528  70.028  1.00  0.00    -0.435 A  
HETATM    6  C   UNL     1     -11.190  12.001  68.854  1.00  0.00    -0.315 A  
HETATM    7  C   UNL     1     -11.268  13.386  68.603  1.00  0.00    -0.304 A  
HETATM    8  C   UNL     1     -11.943  14.254  69.467  1.00  0.00    -0.384 A  
ENDROOT
BRANCH   6   9
HETATM    9  C   UNL     1     -10.284  11.065  67.996  1.00  0.00    -0.179 C  
HETATM   10  O   UNL     1     -10.391  12.624  66.015  1.00  0.00    -0.259 OA 
HETATM   11  O   UNL     1     -10.842   9.715  68.047  1.00  0.00    -0.242 OA 
HETATM   12  C   UNL     1     -10.166  11.507  66.480  1.00  0.00    -0.218 C  
HETATM   13  C   UNL     1     -10.274   8.819  67.173  1.00  0.00    -0.276 A  
HETATM   14  H   UNL     1      -9.247  10.836  64.743  1.00  0.00     0.000 HD 
HETATM   15  C   UNL     1     -10.409   7.461  67.453  1.00  0.00    -0.340 A  
HETATM   16  C   UNL     1      -9.834   6.513  66.600  1.00  0.00    -0.203 A  
HETATM   17  N   UNL     1      -9.635  10.554  65.643  1.00  0.00    -0.210 N  
HETATM   18  C   UNL     1      -9.618   9.214  66.006  1.00  0.00    -0.272 A  
HETATM   19  C   UNL     1      -9.028   8.277  65.160  1.00  0.00     0.057 A  
HETATM   20  C   UNL     1      -9.127   6.921  65.467  1.00  0.00     0.184 A  
BRANCH   9  21
HETATM   21  C   UNL     1      -8.877  11.078  68.672  1.00  0.00    -0.164 A  
HETATM   22  C   UNL     1      -6.790  12.232  69.182  1.00  0.00    -0.073 A  
HETATM   23  H   UNL     1      -4.633  12.027  70.502  1.00  0.00     0.000 HD 
HETATM   24  O   UNL     1      -5.195  11.269  70.618  1.00  0.00    -0.091 OA 
HETATM   25  C   UNL     1      -6.400  11.172  69.986  1.00  0.00    -0.147 A  
HETATM   26  C   UNL     1      -7.221  10.064  70.155  1.00  0.00    -0.167 A  
HETATM   27  C   UNL     1      -8.458  10.020  69.504  1.00  0.00    -0.186 A  
HETATM   28  C   UNL     1      -8.023  12.193  68.533  1.00  0.00    -0.119 A  
ENDBRANCH   9  21
ENDBRANCH   6   9
TORSDOF 2
ENDMDL
MODEL      103
REMARK 921   NORMALIZED FREE ENERGY PREDICTED BY IDOCK:   -4.49 KCAL/MOL
REMARK 922        TOTAL FREE ENERGY PREDICTED BY IDOCK:   -5.78 KCAL/MOL
REMARK 923 INTER-LIGAND FREE ENERGY PREDICTED BY IDOCK:   -5.02 KCAL/MOL
REMARK 924 INTRA-LIGAND FREE ENERGY PREDICTED BY IDOCK:   -0.75 KCAL/MOL
REMARK 927      BINDING AFFINITY PREDICTED BY RF-SCORE:    0.00 PKD
ROOT
HETATM    1  O   UNL     1      -6.981   3.228  73.963  1.00  0.00    -0.042 OA 
HETATM    2  C   UNL     1      -7.576   4.099  73.100  1.00  0.00    -0.080 A  
HETATM    3  H   UNL     1      -6.081   2.945  73.851  1.00  0.00     0.000 HD 
HETATM    4  C   UNL     1      -8.892   4.513  73.263  1.00  0.00    -0.106 A  
HETATM    5  C   UNL     1      -9.470   5.379  72.322  1.00  0.00    -0.165 A  
HETATM    6  C   UNL     1      -8.744   5.837  71.202  1.00  0.00    -0.135 A  
HETATM    7  C   UNL     1      -7.413   5.391  71.077  1.00  0.00    -0.088 A  
HETATM    8  C   UNL     1      -6.828   4.544  72.023  1.00  0.00    -0.053 A  
ENDROOT
BRANCH   6   9
HETATM    9  C   UNL     1      -9.452   6.626  70.058  1.00  0.00    -0.157 C  
HETATM   10  O   UNL     1     -10.101   4.500  68.867  1.00  0.00    -0.117 OA 
HETATM   11  O   UNL     1      -8.520   7.633  69.553  1.00  0.00    -0.129 OA 
HETATM   12  C   UNL     1      -9.917   5.717  68.849  1.00  0.00    -0.166 C  
HETATM   13  C   UNL     1      -8.922   8.272  68.404  1.00  0.00    -0.136 A  
HETATM   14  H   UNL     1     -10.845   5.953  67.006  1.00  0.00     0.000 HD 
HETATM   15  C   UNL     1      -8.354   9.510  68.113  1.00  0.00    -0.118 A  
HETATM   16  C   UNL     1      -8.745  10.203  66.962  1.00  0.00    -0.137 A  
HETATM   17  N   UNL     1     -10.262   6.405  67.710  1.00  0.00    -0.145 N  
HETATM   18  C   UNL     1      -9.831   7.709  67.505  1.00  0.00    -0.165 A  
HETATM   19  C   UNL     1     -10.237   8.400  66.366  1.00  0.00    -0.168 A  
HETATM   20  C   UNL     1      -9.700   9.659  66.102  1.00  0.00    -0.317 A  
BRANCH   9  21
HETATM   21  C   UNL     1     -10.684   7.330  70.709  1.00  0.00    -0.248 A  
HETATM   22  C   UNL     1     -13.034   7.298  71.358  1.00  0.00    -0.420 A  
HETATM   23  H   UNL     1     -14.810   8.616  72.602  1.00  0.00     0.000 HD 
HETATM   24  O   UNL     1     -13.968   9.057  72.609  1.00  0.00    -0.463 OA 
HETATM   25  C   UNL     1     -12.878   8.523  71.987  1.00  0.00    -0.374 A  
HETATM   26  C   UNL     1     -11.647   9.168  71.998  1.00  0.00    -0.371 A  
HETATM   27  C   UNL     1     -10.553   8.571  71.365  1.00  0.00    -0.312 A  
HETATM   28  C   UNL     1     -11.945   6.698  70.727  1.00  0.00    -0.412 A  
ENDBRANCH   9  21
ENDBRANCH   6   9
TORSDOF 2
ENDMDL
MODEL      104
REMARK 921   NORMALIZED FREE ENERGY PREDICTED BY IDOCK:   -4.43 KCAL/MOL
REMARK 922        TOTAL FREE ENERGY PREDICTED BY IDOCK:   -5.70 KCAL/MOL
REMARK 923 INTER-LIGAND FREE ENERGY PREDICTED BY IDOCK:   -4.77 KCAL/MOL
REMARK 924 INTRA-LIGAND FREE ENERGY PREDICTED BY IDOCK:   -0.93 KCAL/MOL
REMARK 927      BINDING AFFINITY PREDICTED BY RF-SCORE:    0.00 PKD
ROOT
HETATM    1  O   UNL     1      -7.656   2.373  65.097  1.00  0.00    -0.072 OA 
HETATM    2  C   UNL     1      -8.001   3.243  66.087  1.00  0.00    -0.088 A  
HETATM    3  H   UNL     1      -6.842   2.458  64.614  1.00  0.00     0.000 HD 
HETATM    4  C   UNL     1      -9.191   3.118  66.793  1.00  0.00    -0.175 A  
HETATM    5  C   UNL     1      -9.519   4.064  67.776  1.00  0.00    -0.228 A  
HETATM    6  C   UNL     1      -8.666   5.152  68.063  1.00  0.00    -0.102 A  
HETATM    7  C   UNL     1      -7.470   5.238  67.322  1.00  0.00    -0.084 A  
HETATM    8  C   UNL     1      -7.132   4.285  66.356  1.00  0.00    -0.067 A  
ENDROOT
BRANCH   6   9
HETATM    9  C   UNL     1      -9.130   6.307  69.002  1.00  0.00    -0.129 C  
HETATM   10  O   UNL     1      -7.036   6.138  70.398  1.00  0.00    -0.067 OA 
HETATM   11  O   UNL     1     -10.485   6.008  69.461  1.00  0.00    -0.211 OA 
HETATM   12  C   UNL     1      -8.201   6.513  70.267  1.00  0.00    -0.126 C  
HETATM   13  C   UNL     1     -10.955   6.828  70.459  1.00  0.00    -0.280 A  
HETATM   14  H   UNL     1      -8.126   7.733  71.946  1.00  0.00     0.000 HD 
HETATM   15  C   UNL     1     -12.334   6.917  70.635  1.00  0.00    -0.248 A  
HETATM   16  C   UNL     1     -12.856   7.751  71.629  1.00  0.00    -0.365 A  
HETATM   17  N   UNL     1      -8.740   7.304  71.254  1.00  0.00    -0.127 N  
HETATM   18  C   UNL     1     -10.109   7.528  71.322  1.00  0.00    -0.187 A  
HETATM   19  C   UNL     1     -10.622   8.374  72.302  1.00  0.00    -0.412 A  
HETATM   20  C   UNL     1     -12.003   8.495  72.447  1.00  0.00    -0.434 A  
BRANCH   9  21
HETATM   21  C   UNL     1      -9.145   7.601  68.128  1.00  0.00    -0.132 A  
HETATM   22  C   UNL     1      -8.089   9.680  67.415  1.00  0.00    -0.110 A  
HETATM   23  H   UNL     1      -8.309  11.605  65.777  1.00  0.00     0.000 HD 
HETATM   24  O   UNL     1      -9.013  10.974  65.682  1.00  0.00    -0.197 OA 
HETATM   25  C   UNL     1      -9.090   9.867  66.474  1.00  0.00    -0.152 A  
HETATM   26  C   UNL     1     -10.121   8.945  66.336  1.00  0.00    -0.333 A  
HETATM   27  C   UNL     1     -10.145   7.813  67.156  1.00  0.00    -0.328 A  
HETATM   28  C   UNL     1      -8.108   8.551  68.233  1.00  0.00    -0.119 A  
ENDBRANCH   9  21
ENDBRANCH   6   9
TORSDOF 2
ENDMDL
MODEL      105
REMARK 921   NORMALIZED FREE ENERGY PREDICTED BY IDOCK:   -4.41 KCAL/MOL
REMARK 922        TOTAL FREE ENERGY PREDICTED BY IDOCK:   -5.68 KCAL/MOL
REMARK 923 INTER-LIGAND FREE ENERGY PREDICTED BY IDOCK:   -5.30 KCAL/MOL
REMARK 924 INTRA-LIGAND FREE ENERGY PREDICTED BY IDOCK:   -0.38 KCAL/MOL
REMARK 927      BINDING AFFINITY PREDICTED BY RF-SCORE:    0.00 PKD
ROOT
HETATM    1  O   UNL     1     -10.167   5.780  70.443  1.00  0.00    -0.194 OA 
HETATM    2  C   UNL     1      -9.907   6.947  69.788  1.00  0.00    -0.171 A  
HETATM    3  H   UNL     1     -10.439   4.995  69.982  1.00  0.00     0.000 HD 
HETATM    4  C   UNL     1      -9.510   8.095  70.462  1.00  0.00    -0.168 A  
HETATM    5  C   UNL     1      -9.295   9.282  69.746  1.00  0.00    -0.199 A  
HETATM    6  C   UNL     1      -9.479   9.341  68.348  1.00  0.00    -0.145 A  
HETATM    7  C   UNL     1      -9.883   8.152  67.706  1.00  0.00    -0.209 A  
HETATM    8  C   UNL     1     -10.079   6.963  68.415  1.00  0.00    -0.177 A  
ENDROOT
BRANCH   6   9
HETATM    9  C   UNL     1      -9.441  10.704  67.591  1.00  0.00    -0.153 C  
HETATM   10  O   UNL     1      -7.588  11.577  69.063  1.00  0.00    -0.119 OA 
HETATM   11  O   UNL     1     -10.803  11.233  67.534  1.00  0.00    -0.213 OA 
HETATM   12  C   UNL     1      -8.507  11.786  68.270  1.00  0.00    -0.161 C  
HETATM   13  C   UNL     1     -10.904  12.527  67.080  1.00  0.00    -0.254 A  
HETATM   14  H   UNL     1      -7.949  13.761  67.957  1.00  0.00     0.000 HD 
HETATM   15  C   UNL     1     -12.133  12.945  66.573  1.00  0.00    -0.375 A  
HETATM   16  C   UNL     1     -12.278  14.249  66.086  1.00  0.00    -0.430 A  
HETATM   17  N   UNL     1      -8.684  13.069  67.811  1.00  0.00    -0.176 N  
HETATM   18  C   UNL     1      -9.848  13.437  67.152  1.00  0.00    -0.237 A  
HETATM   19  C   UNL     1      -9.980  14.731  66.653  1.00  0.00    -0.272 A  
HETATM   20  C   UNL     1     -11.197  15.133  66.106  1.00  0.00    -0.271 A  
BRANCH   9  21
HETATM   21  C   UNL     1      -8.939  10.388  66.147  1.00  0.00    -0.175 A  
HETATM   22  C   UNL     1      -7.142   9.741  64.631  1.00  0.00    -0.127 A  
HETATM   23  H   UNL     1      -6.649   9.138  62.216  1.00  0.00     0.000 HD 
HETATM   24  O   UNL     1      -7.568   9.334  62.354  1.00  0.00    -0.107 OA 
HETATM   25  C   UNL     1      -8.045   9.693  63.580  1.00  0.00    -0.149 A  
HETATM   26  C   UNL     1      -9.390   9.980  63.781  1.00  0.00    -0.307 A  
HETATM   27  C   UNL     1      -9.836  10.321  65.061  1.00  0.00    -0.397 A  
HETATM   28  C   UNL     1      -7.583  10.079  65.909  1.00  0.00    -0.114 A  
ENDBRANCH   9  21
ENDBRANCH   6   9
TORSDOF 2
ENDMDL
MODEL      106
REMARK 921   NORMALIZED FREE ENERGY PREDICTED BY IDOCK:   -4.37 KCAL/MOL
REMARK 922        TOTAL FREE ENERGY PREDICTED BY IDOCK:   -5.63 KCAL/MOL
REMARK 923 INTER-LIGAND FREE ENERGY PREDICTED BY IDOCK:   -4.76 KCAL/MOL
REMARK 924 INTRA-LIGAND FREE ENERGY PREDICTED BY IDOCK:   -0.87 KCAL/MOL
REMARK 927      BINDING AFFINITY PREDICTED BY RF-SCORE:    0.00 PKD
ROOT
HETATM    1  O   UNL     1     -12.653  14.344  68.086  1.00  0.00    -0.503 OA 
HETATM    2  C   UNL     1     -11.814  13.285  67.909  1.00  0.00    -0.349 A  
HETATM    3  H   UNL     1     -12.850  14.953  67.383  1.00  0.00     0.000 HD 
HETATM    4  C   UNL     1     -11.526  12.396  68.937  1.00  0.00    -0.355 A  
HETATM    5  C   UNL     1     -10.623  11.345  68.714  1.00  0.00    -0.235 A  
HETATM    6  C   UNL     1      -9.990  11.172  67.464  1.00  0.00    -0.204 A  
HETATM    7  C   UNL     1     -10.312  12.099  66.452  1.00  0.00    -0.246 A  
HETATM    8  C   UNL     1     -11.226  13.134  66.665  1.00  0.00    -0.335 A  
ENDROOT
BRANCH   6   9
HETATM    9  C   UNL     1      -8.838  10.136  67.286  1.00  0.00    -0.132 C  
HETATM   10  O   UNL     1      -7.320  11.416  68.841  1.00  0.00    -0.104 OA 
HETATM   11  O   UNL     1      -8.618   9.938  65.855  1.00  0.00    -0.132 OA 
HETATM   12  C   UNL     1      -7.472  10.580  67.951  1.00  0.00    -0.091 C  
HETATM   13  C   UNL     1      -7.497   9.210  65.534  1.00  0.00    -0.089 A  
HETATM   14  H   UNL     1      -5.536   9.851  68.137  1.00  0.00     0.000 HD 
HETATM   15  C   UNL     1      -7.451   8.601  64.282  1.00  0.00    -0.109 A  
HETATM   16  C   UNL     1      -6.336   7.837  63.920  1.00  0.00    -0.058 A  
HETATM   17  N   UNL     1      -6.377   9.847  67.559  1.00  0.00    -0.063 N  
HETATM   18  C   UNL     1      -6.398   9.101  66.389  1.00  0.00    -0.065 A  
HETATM   19  C   UNL     1      -5.292   8.328  66.042  1.00  0.00    -0.028 A  
HETATM   20  C   UNL     1      -5.268   7.683  64.807  1.00  0.00    -0.029 A  
BRANCH   9  21
HETATM   21  C   UNL     1      -9.344   8.806  67.929  1.00  0.00    -0.155 A  
HETATM   22  C   UNL     1      -9.414   7.268  69.820  1.00  0.00    -0.149 A  
HETATM   23  H   UNL     1     -10.505   5.136  70.656  1.00  0.00     0.000 HD 
HETATM   24  O   UNL     1     -10.811   5.376  69.789  1.00  0.00    -0.297 OA 
HETATM   25  C   UNL     1     -10.342   6.485  69.150  1.00  0.00    -0.193 A  
HETATM   26  C   UNL     1     -10.788   6.836  67.881  1.00  0.00    -0.320 A  
HETATM   27  C   UNL     1     -10.295   7.995  67.275  1.00  0.00    -0.371 A  
HETATM   28  C   UNL     1      -8.921   8.426  69.220  1.00  0.00    -0.150 A  
ENDBRANCH   9  21
ENDBRANCH   6   9
TORSDOF 2
ENDMDL
MODEL      107
REMARK 921   NORMALIZED FREE ENERGY PREDICTED BY IDOCK:   -4.33 KCAL/MOL
REMARK 922        TOTAL FREE ENERGY PREDICTED BY IDOCK:   -5.59 KCAL/MOL
REMARK 923 INTER-LIGAND FREE ENERGY PREDICTED BY IDOCK:   -4.85 KCAL/MOL
REMARK 924 INTRA-LIGAND FREE ENERGY PREDICTED BY IDOCK:   -0.74 KCAL/MOL
REMARK 927      BINDING AFFINITY PREDICTED BY RF-SCORE:    0.00 PKD
ROOT
HETATM    1  O   UNL     1     -10.401   4.161  65.788  1.00  0.00    -0.424 OA 
HETATM    2  C   UNL     1     -10.172   5.446  66.182  1.00  0.00    -0.138 A  
HETATM    3  H   UNL     1     -11.110   3.643  66.152  1.00  0.00     0.000 HD 
HETATM    4  C   UNL     1      -9.136   6.203  65.651  1.00  0.00    -0.005 A  
HETATM    5  C   UNL     1      -8.917   7.508  66.121  1.00  0.00    -0.188 A  
HETATM    6  C   UNL     1      -9.726   8.071  67.131  1.00  0.00    -0.255 A  
HETATM    7  C   UNL     1     -10.765   7.265  67.641  1.00  0.00    -0.294 A  
HETATM    8  C   UNL     1     -10.997   5.972  67.161  1.00  0.00    -0.360 A  
ENDROOT
BRANCH   6   9
HETATM    9  C   UNL     1      -9.351   9.433  67.791  1.00  0.00    -0.128 C  
HETATM   10  O   UNL     1     -11.621  10.409  67.288  1.00  0.00    -0.240 OA 
HETATM   11  O   UNL     1      -8.084   9.885  67.219  1.00  0.00    -0.112 OA 
HETATM   12  C   UNL     1     -10.436  10.566  67.578  1.00  0.00    -0.239 C  
HETATM   13  C   UNL     1      -7.725  11.171  67.547  1.00  0.00    -0.116 A  
HETATM   14  H   UNL     1     -10.693  12.568  68.062  1.00  0.00     0.000 HD 
HETATM   15  C   UNL     1      -6.380  11.520  67.438  1.00  0.00    -0.091 A  
HETATM   16  C   UNL     1      -5.967  12.813  67.777  1.00  0.00    -0.133 A  
HETATM   17  N   UNL     1     -10.007  11.837  67.878  1.00  0.00    -0.177 N  
HETATM   18  C   UNL     1      -8.653  12.139  67.935  1.00  0.00    -0.167 A  
HETATM   19  C   UNL     1      -8.247  13.423  68.291  1.00  0.00    -0.160 A  
HETATM   20  C   UNL     1      -6.895  13.756  68.223  1.00  0.00    -0.109 A  
BRANCH   9  21
HETATM   21  C   UNL     1      -9.165   9.144  69.314  1.00  0.00    -0.146 A  
HETATM   22  C   UNL     1      -7.711   8.625  71.202  1.00  0.00    -0.131 A  
HETATM   23  H   UNL     1      -7.690   8.342  73.723  1.00  0.00     0.000 HD 
HETATM   24  O   UNL     1      -8.555   8.561  73.397  1.00  0.00    -0.350 OA 
HETATM   25  C   UNL     1      -8.788   8.747  72.066  1.00  0.00    -0.121 A  
HETATM   26  C   UNL     1     -10.053   9.067  71.588  1.00  0.00    -0.405 A  
HETATM   27  C   UNL     1     -10.239   9.270  70.218  1.00  0.00    -0.270 A  
HETATM   28  C   UNL     1      -7.892   8.828  69.835  1.00  0.00    -0.093 A  
ENDBRANCH   9  21
ENDBRANCH   6   9
TORSDOF 2
ENDMDL
MODEL      108
REMARK 921   NORMALIZED FREE ENERGY PREDICTED BY IDOCK:   -4.33 KCAL/MOL
REMARK 922        TOTAL FREE ENERGY PREDICTED BY IDOCK:   -5.59 KCAL/MOL
REMARK 923 INTER-LIGAND FREE ENERGY PREDICTED BY IDOCK:   -4.78 KCAL/MOL
REMARK 924 INTRA-LIGAND FREE ENERGY PREDICTED BY IDOCK:   -0.81 KCAL/MOL
REMARK 927      BINDING AFFINITY PREDICTED BY RF-SCORE:    0.00 PKD
ROOT
HETATM    1  O   UNL     1     -12.253   5.615  72.988  1.00  0.00    -0.512 OA 
HETATM    2  C   UNL     1     -11.587   6.192  71.948  1.00  0.00    -0.296 A  
HETATM    3  H   UNL     1     -11.981   4.783  73.358  1.00  0.00     0.000 HD 
HETATM    4  C   UNL     1     -11.983   7.408  71.406  1.00  0.00    -0.340 A  
HETATM    5  C   UNL     1     -11.288   7.940  70.309  1.00  0.00    -0.158 A  
HETATM    6  C   UNL     1     -10.192   7.261  69.734  1.00  0.00    -0.214 A  
HETATM    7  C   UNL     1      -9.826   6.031  70.317  1.00  0.00    -0.221 A  
HETATM    8  C   UNL     1     -10.504   5.508  71.422  1.00  0.00    -0.305 A  
ENDROOT
BRANCH   6   9
HETATM    9  C   UNL     1      -9.559   7.751  68.395  1.00  0.00    -0.152 C  
HETATM   10  O   UNL     1     -11.201   6.416  67.023  1.00  0.00    -0.373 OA 
HETATM   11  O   UNL     1      -8.118   7.519  68.459  1.00  0.00    -0.121 OA 
HETATM   12  C   UNL     1     -10.133   7.020  67.114  1.00  0.00    -0.217 C  
HETATM   13  C   UNL     1      -7.446   7.707  67.275  1.00  0.00    -0.100 A  
HETATM   14  H   UNL     1      -9.828   7.038  65.060  1.00  0.00     0.000 HD 
HETATM   15  C   UNL     1      -6.076   7.951  67.334  1.00  0.00    -0.050 A  
HETATM   16  C   UNL     1      -5.355   8.165  66.154  1.00  0.00    -0.025 A  
HETATM   17  N   UNL     1      -9.396   7.205  65.968  1.00  0.00    -0.037 N  
HETATM   18  C   UNL     1      -8.071   7.616  66.030  1.00  0.00    -0.118 A  
HETATM   19  C   UNL     1      -7.363   7.844  64.851  1.00  0.00    -0.073 A  
HETATM   20  C   UNL     1      -6.001   8.132  64.917  1.00  0.00    -0.045 A  
BRANCH   9  21
HETATM   21  C   UNL     1      -9.842   9.284  68.314  1.00  0.00    -0.179 A  
HETATM   22  C   UNL     1      -9.217  11.578  68.859  1.00  0.00     0.005 A  
HETATM   23  H   UNL     1      -9.838  14.000  68.435  1.00  0.00     0.000 HD 
HETATM   24  O   UNL     1     -10.412  13.400  67.974  1.00  0.00    -0.227 OA 
HETATM   25  C   UNL     1     -10.258  12.048  68.074  1.00  0.00    -0.198 A  
HETATM   26  C   UNL     1     -11.097  11.170  67.400  1.00  0.00    -0.370 A  
HETATM   27  C   UNL     1     -10.886   9.793  67.515  1.00  0.00    -0.286 A  
HETATM   28  C   UNL     1      -9.002  10.205  68.976  1.00  0.00    -0.168 A  
ENDBRANCH   9  21
ENDBRANCH   6   9
TORSDOF 2
ENDMDL
MODEL      109
REMARK 921   NORMALIZED FREE ENERGY PREDICTED BY IDOCK:   -4.31 KCAL/MOL
REMARK 922        TOTAL FREE ENERGY PREDICTED BY IDOCK:   -5.57 KCAL/MOL
REMARK 923 INTER-LIGAND FREE ENERGY PREDICTED BY IDOCK:   -4.64 KCAL/MOL
REMARK 924 INTRA-LIGAND FREE ENERGY PREDICTED BY IDOCK:   -0.93 KCAL/MOL
REMARK 927      BINDING AFFINITY PREDICTED BY RF-SCORE:    0.00 PKD
ROOT
HETATM    1  O   UNL     1      -6.236  10.996  65.287  1.00  0.00    -0.371 OA 
HETATM    2  C   UNL     1      -7.082  10.350  66.137  1.00  0.00    -0.130 A  
HETATM    3  H   UNL     1      -5.434  10.594  64.973  1.00  0.00     0.000 HD 
HETATM    4  C   UNL     1      -8.254  10.938  66.596  1.00  0.00    -0.145 A  
HETATM    5  C   UNL     1      -9.071  10.245  67.503  1.00  0.00    -0.146 A  
HETATM    6  C   UNL     1      -8.725   8.959  67.970  1.00  0.00    -0.133 A  
HETATM    7  C   UNL     1      -7.526   8.402  67.478  1.00  0.00    -0.094 A  
HETATM    8  C   UNL     1      -6.721   9.082  66.559  1.00  0.00    -0.075 A  
ENDROOT
BRANCH   6   9
HETATM    9  C   UNL     1      -9.522   8.286  69.129  1.00  0.00    -0.155 C  
HETATM   10  O   UNL     1     -10.172   6.332  67.674  1.00  0.00    -0.136 OA 
HETATM   11  O   UNL     1     -10.443   9.276  69.685  1.00  0.00    -0.208 OA 
HETATM   12  C   UNL     1     -10.355   7.018  68.679  1.00  0.00    -0.186 C  
HETATM   13  C   UNL     1     -11.362   8.777  70.578  1.00  0.00    -0.227 A  
HETATM   14  H   UNL     1     -11.651   5.638  69.532  1.00  0.00     0.000 HD 
HETATM   15  C   UNL     1     -11.953   9.668  71.471  1.00  0.00    -0.485 A  
HETATM   16  C   UNL     1     -12.882   9.201  72.408  1.00  0.00    -0.438 A  
HETATM   17  N   UNL     1     -11.291   6.591  69.591  1.00  0.00    -0.385 N  
HETATM   18  C   UNL     1     -11.753   7.437  70.590  1.00  0.00    -0.242 A  
HETATM   19  C   UNL     1     -12.664   6.962  71.530  1.00  0.00    -0.396 A  
HETATM   20  C   UNL     1     -13.221   7.848  72.451  1.00  0.00     0.023 A  
BRANCH   9  21
HETATM   21  C   UNL     1      -8.468   7.885  70.209  1.00  0.00    -0.128 A  
HETATM   22  C   UNL     1      -7.073   8.476  72.120  1.00  0.00    -0.102 A  
HETATM   23  H   UNL     1      -5.482   7.507  73.842  1.00  0.00     0.000 HD 
HETATM   24  O   UNL     1      -5.810   6.843  73.246  1.00  0.00    -0.052 OA 
HETATM   25  C   UNL     1      -6.671   7.155  72.236  1.00  0.00    -0.056 A  
HETATM   26  C   UNL     1      -7.150   6.184  71.365  1.00  0.00    -0.078 A  
HETATM   27  C   UNL     1      -8.049   6.547  70.358  1.00  0.00    -0.117 A  
HETATM   28  C   UNL     1      -7.971   8.843  71.118  1.00  0.00    -0.181 A  
ENDBRANCH   9  21
ENDBRANCH   6   9
TORSDOF 2
ENDMDL
MODEL      110
REMARK 921   NORMALIZED FREE ENERGY PREDICTED BY IDOCK:   -4.25 KCAL/MOL
REMARK 922        TOTAL FREE ENERGY PREDICTED BY IDOCK:   -5.50 KCAL/MOL
REMARK 923 INTER-LIGAND FREE ENERGY PREDICTED BY IDOCK:   -4.91 KCAL/MOL
REMARK 924 INTRA-LIGAND FREE ENERGY PREDICTED BY IDOCK:   -0.59 KCAL/MOL
REMARK 927      BINDING AFFINITY PREDICTED BY RF-SCORE:    0.00 PKD
ROOT
HETATM    1  O   UNL     1      -7.647   8.292  62.499  1.00  0.00    -0.102 OA 
HETATM    2  C   UNL     1      -8.179   8.435  63.745  1.00  0.00    -0.105 A  
HETATM    3  H   UNL     1      -7.100   7.550  62.267  1.00  0.00     0.000 HD 
HETATM    4  C   UNL     1      -8.978   9.520  64.083  1.00  0.00    -0.240 A  
HETATM    5  C   UNL     1      -9.468   9.641  65.393  1.00  0.00    -0.343 A  
HETATM    6  C   UNL     1      -9.162   8.684  66.384  1.00  0.00    -0.245 A  
HETATM    7  C   UNL     1      -8.348   7.600  65.995  1.00  0.00    -0.135 A  
HETATM    8  C   UNL     1      -7.875   7.467  64.686  1.00  0.00    -0.130 A  
ENDROOT
BRANCH   6   9
HETATM    9  C   UNL     1      -9.533   8.931  67.878  1.00  0.00    -0.142 C  
HETATM   10  O   UNL     1      -9.583   6.458  68.372  1.00  0.00    -0.126 OA 
HETATM   11  O   UNL     1     -10.685   9.830  67.921  1.00  0.00    -0.245 OA 
HETATM   12  C   UNL     1      -9.893   7.610  68.673  1.00  0.00    -0.171 C  
HETATM   13  C   UNL     1     -11.260   9.979  69.160  1.00  0.00    -0.149 A  
HETATM   14  H   UNL     1     -10.503   7.076  70.584  1.00  0.00     0.000 HD 
HETATM   15  C   UNL     1     -12.035  11.114  69.387  1.00  0.00    -0.420 A  
HETATM   16  C   UNL     1     -12.627  11.315  70.639  1.00  0.00    -0.377 A  
HETATM   17  N   UNL     1     -10.508   7.818  69.885  1.00  0.00    -0.227 N  
HETATM   18  C   UNL     1     -11.136   9.023  70.170  1.00  0.00    -0.207 A  
HETATM   19  C   UNL     1     -11.708   9.224  71.424  1.00  0.00    -0.431 A  
HETATM   20  C   UNL     1     -12.445  10.382  71.662  1.00  0.00    -0.471 A  
BRANCH   9  21
HETATM   21  C   UNL     1      -8.297   9.630  68.526  1.00  0.00    -0.117 A  
HETATM   22  C   UNL     1      -7.058  11.664  69.054  1.00  0.00    -0.108 A  
HETATM   23  H   UNL     1      -5.036  12.532  70.317  1.00  0.00     0.000 HD 
HETATM   24  O   UNL     1      -5.132  11.591  70.402  1.00  0.00    -0.074 OA 
HETATM   25  C   UNL     1      -6.150  10.920  69.791  1.00  0.00    -0.087 A  
HETATM   26  C   UNL     1      -6.290   9.543  69.916  1.00  0.00    -0.050 A  
HETATM   27  C   UNL     1      -7.362   8.901  69.290  1.00  0.00    -0.070 A  
HETATM   28  C   UNL     1      -8.130  11.028  68.429  1.00  0.00    -0.134 A  
ENDBRANCH   9  21
ENDBRANCH   6   9
TORSDOF 2
ENDMDL
MODEL      111
REMARK 921   NORMALIZED FREE ENERGY PREDICTED BY IDOCK:   -4.24 KCAL/MOL
REMARK 922        TOTAL FREE ENERGY PREDICTED BY IDOCK:   -5.49 KCAL/MOL
REMARK 923 INTER-LIGAND FREE ENERGY PREDICTED BY IDOCK:   -4.55 KCAL/MOL
REMARK 924 INTRA-LIGAND FREE ENERGY PREDICTED BY IDOCK:   -0.94 KCAL/MOL
REMARK 927      BINDING AFFINITY PREDICTED BY RF-SCORE:    0.00 PKD
ROOT
HETATM    1  O   UNL     1     -12.026   4.854  73.338  1.00  0.00    -0.428 OA 
HETATM    2  C   UNL     1     -11.399   5.690  72.463  1.00  0.00    -0.294 A  
HETATM    3  H   UNL     1     -11.541   4.275  73.915  1.00  0.00     0.000 HD 
HETATM    4  C   UNL     1     -12.107   6.536  71.619  1.00  0.00    -0.381 A  
HETATM    5  C   UNL     1     -11.415   7.348  70.708  1.00  0.00    -0.313 A  
HETATM    6  C   UNL     1     -10.006   7.322  70.623  1.00  0.00    -0.187 A  
HETATM    7  C   UNL     1      -9.330   6.448  71.499  1.00  0.00    -0.152 A  
HETATM    8  C   UNL     1     -10.016   5.653  72.421  1.00  0.00    -0.198 A  
ENDROOT
BRANCH   6   9
HETATM    9  C   UNL     1      -9.259   8.066  69.474  1.00  0.00    -0.152 C  
HETATM   10  O   UNL     1      -8.023   9.539  71.106  1.00  0.00    -0.315 OA 
HETATM   11  O   UNL     1     -10.252   8.520  68.502  1.00  0.00    -0.190 OA 
HETATM   12  C   UNL     1      -8.421   9.317  69.963  1.00  0.00    -0.176 C  
HETATM   13  C   UNL     1      -9.771   9.372  67.535  1.00  0.00    -0.157 A  
HETATM   14  H   UNL     1      -7.232  10.801  69.129  1.00  0.00     0.000 HD 
HETATM   15  C   UNL     1     -10.495   9.488  66.351  1.00  0.00    -0.168 A  
HETATM   16  C   UNL     1     -10.035  10.331  65.333  1.00  0.00    -0.371 A  
HETATM   17  N   UNL     1      -8.007  10.159  68.959  1.00  0.00    -0.105 N  
HETATM   18  C   UNL     1      -8.626  10.149  67.716  1.00  0.00    -0.118 A  
HETATM   19  C   UNL     1      -8.153  10.978  66.702  1.00  0.00    -0.155 A  
HETATM   20  C   UNL     1      -8.854  11.058  65.500  1.00  0.00    -0.179 A  
BRANCH   9  21
HETATM   21  C   UNL     1      -8.318   7.012  68.811  1.00  0.00    -0.122 A  
HETATM   22  C   UNL     1      -7.994   5.125  67.300  1.00  0.00    -0.100 A  
HETATM   23  H   UNL     1      -6.215   3.640  66.268  1.00  0.00     0.000 HD 
HETATM   24  O   UNL     1      -5.841   4.296  66.844  1.00  0.00    -0.021 OA 
HETATM   25  C   UNL     1      -6.626   5.191  67.510  1.00  0.00    -0.054 A  
HETATM   26  C   UNL     1      -6.078   6.151  68.353  1.00  0.00    -0.024 A  
HETATM   27  C   UNL     1      -6.921   7.061  68.997  1.00  0.00    -0.078 A  
HETATM   28  C   UNL     1      -8.839   6.032  67.939  1.00  0.00    -0.110 A  
ENDBRANCH   9  21
ENDBRANCH   6   9
TORSDOF 2
ENDMDL
MODEL      112
REMARK 921   NORMALIZED FREE ENERGY PREDICTED BY IDOCK:   -4.23 KCAL/MOL
REMARK 922        TOTAL FREE ENERGY PREDICTED BY IDOCK:   -5.49 KCAL/MOL
REMARK 923 INTER-LIGAND FREE ENERGY PREDICTED BY IDOCK:   -4.56 KCAL/MOL
REMARK 924 INTRA-LIGAND FREE ENERGY PREDICTED BY IDOCK:   -0.92 KCAL/MOL
REMARK 927      BINDING AFFINITY PREDICTED BY RF-SCORE:    0.00 PKD
ROOT
HETATM    1  O   UNL     1      -6.013  11.668  69.426  1.00  0.00    -0.063 OA 
HETATM    2  C   UNL     1      -6.847  10.697  69.894  1.00  0.00    -0.149 A  
HETATM    3  H   UNL     1      -6.297  12.309  68.785  1.00  0.00     0.000 HD 
HETATM    4  C   UNL     1      -6.431   9.759  70.831  1.00  0.00    -0.063 A  
HETATM    5  C   UNL     1      -7.317   8.755  71.250  1.00  0.00    -0.112 A  
HETATM    6  C   UNL     1      -8.628   8.669  70.735  1.00  0.00    -0.197 A  
HETATM    7  C   UNL     1      -9.006   9.642  69.786  1.00  0.00    -0.226 A  
HETATM    8  C   UNL     1      -8.132  10.655  69.382  1.00  0.00    -0.102 A  
ENDROOT
BRANCH   6   9
HETATM    9  C   UNL     1      -9.532   7.437  71.045  1.00  0.00    -0.157 C  
HETATM   10  O   UNL     1     -11.479   8.908  71.683  1.00  0.00    -0.290 OA 
HETATM   11  O   UNL     1      -8.802   6.551  71.951  1.00  0.00    -0.134 OA 
HETATM   12  C   UNL     1     -10.917   7.813  71.712  1.00  0.00    -0.239 C  
HETATM   13  C   UNL     1      -9.545   5.523  72.481  1.00  0.00    -0.148 A  
HETATM   14  H   UNL     1     -12.596   6.834  72.443  1.00  0.00     0.000 HD 
HETATM   15  C   UNL     1      -8.863   4.409  72.966  1.00  0.00    -0.116 A  
HETATM   16  C   UNL     1      -9.579   3.333  73.500  1.00  0.00    -0.139 A  
HETATM   17  N   UNL     1     -11.594   6.754  72.268  1.00  0.00    -0.278 N  
HETATM   18  C   UNL     1     -10.935   5.576  72.593  1.00  0.00    -0.270 A  
HETATM   19  C   UNL     1     -11.656   4.501  73.108  1.00  0.00    -0.221 A  
HETATM   20  C   UNL     1     -10.974   3.369  73.551  1.00  0.00    -0.328 A  
BRANCH   9  21
HETATM   21  C   UNL     1      -9.768   6.714  69.682  1.00  0.00    -0.162 A  
HETATM   22  C   UNL     1     -11.206   6.223  67.774  1.00  0.00    -0.218 A  
HETATM   23  H   UNL     1     -11.252   5.061  65.520  1.00  0.00     0.000 HD 
HETATM   24  O   UNL     1     -10.405   4.983  65.943  1.00  0.00    -0.219 OA 
HETATM   25  C   UNL     1     -10.169   5.529  67.170  1.00  0.00    -0.218 A  
HETATM   26  C   UNL     1      -8.931   5.415  67.790  1.00  0.00    -0.108 A  
HETATM   27  C   UNL     1      -8.729   6.010  69.039  1.00  0.00    -0.122 A  
HETATM   28  C   UNL     1     -11.010   6.819  69.019  1.00  0.00    -0.281 A  
ENDBRANCH   9  21
ENDBRANCH   6   9
TORSDOF 2
ENDMDL
MODEL      113
REMARK 921   NORMALIZED FREE ENERGY PREDICTED BY IDOCK:   -4.20 KCAL/MOL
REMARK 922        TOTAL FREE ENERGY PREDICTED BY IDOCK:   -5.45 KCAL/MOL
REMARK 923 INTER-LIGAND FREE ENERGY PREDICTED BY IDOCK:   -4.57 KCAL/MOL
REMARK 924 INTRA-LIGAND FREE ENERGY PREDICTED BY IDOCK:   -0.88 KCAL/MOL
REMARK 927      BINDING AFFINITY PREDICTED BY RF-SCORE:    0.00 PKD
ROOT
HETATM    1  O   UNL     1     -13.343   8.967  73.210  1.00  0.00    -0.912 OA 
HETATM    2  C   UNL     1     -12.391   8.484  72.362  1.00  0.00    -0.359 A  
HETATM    3  H   UNL     1     -13.254   8.904  74.154  1.00  0.00     0.000 HD 
HETATM    4  C   UNL     1     -12.522   8.575  70.982  1.00  0.00    -0.104 A  
HETATM    5  C   UNL     1     -11.532   8.026  70.153  1.00  0.00    -0.008 A  
HETATM    6  C   UNL     1     -10.401   7.373  70.690  1.00  0.00    -0.217 A  
HETATM    7  C   UNL     1     -10.311   7.305  72.095  1.00  0.00    -0.220 A  
HETATM    8  C   UNL     1     -11.286   7.869  72.924  1.00  0.00    -0.429 A  
ENDROOT
BRANCH   6   9
HETATM    9  C   UNL     1      -9.417   6.588  69.770  1.00  0.00    -0.150 C  
HETATM   10  O   UNL     1      -7.664   8.393  69.946  1.00  0.00    -0.087 OA 
HETATM   11  O   UNL     1     -10.131   6.212  68.551  1.00  0.00    -0.142 OA 
HETATM   12  C   UNL     1      -8.127   7.411  69.366  1.00  0.00    -0.129 C  
HETATM   13  C   UNL     1      -9.343   5.694  67.552  1.00  0.00    -0.109 A  
HETATM   14  H   UNL     1      -6.427   7.146  68.202  1.00  0.00     0.000 HD 
HETATM   15  C   UNL     1      -9.957   4.914  66.574  1.00  0.00    -0.256 A  
HETATM   16  C   UNL     1      -9.190   4.354  65.547  1.00  0.00    -0.150 A  
HETATM   17  N   UNL     1      -7.401   6.872  68.330  1.00  0.00    -0.091 N  
HETATM   18  C   UNL     1      -7.975   5.958  67.456  1.00  0.00    -0.102 A  
HETATM   19  C   UNL     1      -7.202   5.390  66.446  1.00  0.00    -0.077 A  
HETATM   20  C   UNL     1      -7.812   4.574  65.495  1.00  0.00    -0.094 A  
BRANCH   9  21
HETATM   21  C   UNL     1      -9.012   5.303  70.559  1.00  0.00    -0.162 A  
HETATM   22  C   UNL     1      -7.448   4.121  72.009  1.00  0.00    -0.069 A  
HETATM   23  H   UNL     1      -7.125   1.967  73.309  1.00  0.00     0.000 HD 
HETATM   24  O   UNL     1      -7.959   1.987  72.854  1.00  0.00    -0.050 OA 
HETATM   25  C   UNL     1      -8.327   3.052  72.087  1.00  0.00    -0.069 A  
HETATM   26  C   UNL     1      -9.547   3.081  71.422  1.00  0.00    -0.227 A  
HETATM   27  C   UNL     1      -9.890   4.205  70.665  1.00  0.00    -0.249 A  
HETATM   28  C   UNL     1      -7.787   5.245  71.256  1.00  0.00    -0.107 A  
ENDBRANCH   9  21
ENDBRANCH   6   9
TORSDOF 2
ENDMDL
MODEL      114
REMARK 921   NORMALIZED FREE ENERGY PREDICTED BY IDOCK:   -4.19 KCAL/MOL
REMARK 922        TOTAL FREE ENERGY PREDICTED BY IDOCK:   -5.43 KCAL/MOL
REMARK 923 INTER-LIGAND FREE ENERGY PREDICTED BY IDOCK:   -5.15 KCAL/MOL
REMARK 924 INTRA-LIGAND FREE ENERGY PREDICTED BY IDOCK:   -0.29 KCAL/MOL
REMARK 927      BINDING AFFINITY PREDICTED BY RF-SCORE:    0.00 PKD
ROOT
HETATM    1  O   UNL     1      -7.132  11.664  66.777  1.00  0.00    -0.227 OA 
HETATM    2  C   UNL     1      -7.645  10.732  67.629  1.00  0.00    -0.096 A  
HETATM    3  H   UNL     1      -6.557  11.426  66.059  1.00  0.00     0.000 HD 
HETATM    4  C   UNL     1      -8.486  11.081  68.678  1.00  0.00    -0.157 A  
HETATM    5  C   UNL     1      -8.955  10.088  69.552  1.00  0.00    -0.220 A  
HETATM    6  C   UNL     1      -8.585   8.735  69.395  1.00  0.00    -0.133 A  
HETATM    7  C   UNL     1      -7.730   8.428  68.316  1.00  0.00    -0.106 A  
HETATM    8  C   UNL     1      -7.277   9.412  67.432  1.00  0.00    -0.087 A  
ENDROOT
BRANCH   6   9
HETATM    9  C   UNL     1      -8.937   7.676  70.484  1.00  0.00    -0.151 C  
HETATM   10  O   UNL     1      -7.355   8.722  72.147  1.00  0.00    -0.280 OA 
HETATM   11  O   UNL     1      -8.793   6.346  69.892  1.00  0.00    -0.140 OA 
HETATM   12  C   UNL     1      -8.023   7.757  71.773  1.00  0.00    -0.094 C  
HETATM   13  C   UNL     1      -8.868   5.303  70.784  1.00  0.00    -0.135 A  
HETATM   14  H   UNL     1      -7.801   6.751  73.576  1.00  0.00     0.000 HD 
HETATM   15  C   UNL     1      -9.190   4.042  70.286  1.00  0.00    -0.210 A  
HETATM   16  C   UNL     1      -9.293   2.954  71.160  1.00  0.00    -0.211 A  
HETATM   17  N   UNL     1      -8.103   6.666  72.605  1.00  0.00    -0.102 N  
HETATM   18  C   UNL     1      -8.589   5.450  72.144  1.00  0.00    -0.126 A  
HETATM   19  C   UNL     1      -8.706   4.375  73.022  1.00  0.00    -0.104 A  
HETATM   20  C   UNL     1      -9.073   3.125  72.528  1.00  0.00    -0.128 A  
BRANCH   9  21
HETATM   21  C   UNL     1     -10.431   7.921  70.865  1.00  0.00    -0.217 A  
HETATM   22  C   UNL     1     -12.758   7.191  70.863  1.00  0.00    -0.225 A  
HETATM   23  H   UNL     1     -15.065   7.778  71.740  1.00  0.00     0.000 HD 
HETATM   24  O   UNL     1     -14.407   8.404  72.020  1.00  0.00    -0.433 OA 
HETATM   25  C   UNL     1     -13.101   8.280  71.650  1.00  0.00    -0.334 A  
HETATM   26  C   UNL     1     -12.139   9.195  72.060  1.00  0.00    -0.431 A  
HETATM   27  C   UNL     1     -10.808   9.013  71.673  1.00  0.00    -0.437 A  
HETATM   28  C   UNL     1     -11.431   7.005  70.476  1.00  0.00    -0.363 A  
ENDBRANCH   9  21
ENDBRANCH   6   9
TORSDOF 2
ENDMDL
MODEL      115
REMARK 921   NORMALIZED FREE ENERGY PREDICTED BY IDOCK:   -4.17 KCAL/MOL
REMARK 922        TOTAL FREE ENERGY PREDICTED BY IDOCK:   -5.41 KCAL/MOL
REMARK 923 INTER-LIGAND FREE ENERGY PREDICTED BY IDOCK:   -4.73 KCAL/MOL
REMARK 924 INTRA-LIGAND FREE ENERGY PREDICTED BY IDOCK:   -0.68 KCAL/MOL
REMARK 927      BINDING AFFINITY PREDICTED BY RF-SCORE:    0.00 PKD
ROOT
HETATM    1  O   UNL     1      -5.551  13.964  67.523  1.00  0.00    -0.340 OA 
HETATM    2  C   UNL     1      -6.295  12.875  67.865  1.00  0.00    -0.125 A  
HETATM    3  H   UNL     1      -5.344  14.168  66.618  1.00  0.00     0.000 HD 
HETATM    4  C   UNL     1      -6.597  12.577  69.188  1.00  0.00    -0.100 A  
HETATM    5  C   UNL     1      -7.332  11.419  69.489  1.00  0.00     0.077 A  
HETATM    6  C   UNL     1      -7.769  10.541  68.475  1.00  0.00    -0.104 A  
HETATM    7  C   UNL     1      -7.439  10.884  67.147  1.00  0.00    -0.109 A  
HETATM    8  C   UNL     1      -6.724  12.046  66.843  1.00  0.00    -0.041 A  
ENDROOT
BRANCH   6   9
HETATM    9  C   UNL     1      -8.400   9.159  68.828  1.00  0.00    -0.121 C  
HETATM   10  O   UNL     1      -6.397   8.493  70.208  1.00  0.00    -0.034 OA 
HETATM   11  O   UNL     1      -8.827   8.520  67.585  1.00  0.00    -0.135 OA 
HETATM   12  C   UNL     1      -7.412   8.182  69.586  1.00  0.00    -0.086 C  
HETATM   13  C   UNL     1      -9.214   7.207  67.710  1.00  0.00    -0.125 A  
HETATM   14  H   UNL     1      -7.430   6.248  70.343  1.00  0.00     0.000 HD 
HETATM   15  C   UNL     1     -10.036   6.673  66.721  1.00  0.00    -0.240 A  
HETATM   16  C   UNL     1     -10.468   5.345  66.816  1.00  0.00    -0.347 A  
HETATM   17  N   UNL     1      -7.827   6.873  69.641  1.00  0.00    -0.116 N  
HETATM   18  C   UNL     1      -8.780   6.388  68.754  1.00  0.00    -0.122 A  
HETATM   19  C   UNL     1      -9.218   5.071  68.865  1.00  0.00    -0.155 A  
HETATM   20  C   UNL     1     -10.077   4.552  67.897  1.00  0.00    -0.047 A  
BRANCH   9  21
HETATM   21  C   UNL     1      -9.646   9.463  69.718  1.00  0.00    -0.216 A  
HETATM   22  C   UNL     1     -11.844  10.483  69.995  1.00  0.00    -0.388 A  
HETATM   23  H   UNL     1     -13.791  10.690  71.608  1.00  0.00     0.000 HD 
HETATM   24  O   UNL     1     -13.095  10.146  71.958  1.00  0.00    -0.440 OA 
HETATM   25  C   UNL     1     -11.950   9.913  71.254  1.00  0.00    -0.402 A  
HETATM   26  C   UNL     1     -10.932   9.117  71.765  1.00  0.00    -0.429 A  
HETATM   27  C   UNL     1      -9.787   8.889  70.998  1.00  0.00    -0.321 A  
HETATM   28  C   UNL     1     -10.704  10.257  69.225  1.00  0.00    -0.265 A  
ENDBRANCH   9  21
ENDBRANCH   6   9
TORSDOF 2
ENDMDL
MODEL      116
REMARK 921   NORMALIZED FREE ENERGY PREDICTED BY IDOCK:   -4.15 KCAL/MOL
REMARK 922        TOTAL FREE ENERGY PREDICTED BY IDOCK:   -5.39 KCAL/MOL
REMARK 923 INTER-LIGAND FREE ENERGY PREDICTED BY IDOCK:   -4.76 KCAL/MOL
REMARK 924 INTRA-LIGAND FREE ENERGY PREDICTED BY IDOCK:   -0.63 KCAL/MOL
REMARK 927      BINDING AFFINITY PREDICTED BY RF-SCORE:    0.00 PKD
ROOT
HETATM    1  O   UNL     1      -8.505   8.395  73.211  1.00  0.00    -0.309 OA 
HETATM    2  C   UNL     1      -8.558   8.374  71.849  1.00  0.00    -0.186 A  
HETATM    3  H   UNL     1      -9.161   8.844  73.732  1.00  0.00     0.000 HD 
HETATM    4  C   UNL     1      -7.599   7.719  71.086  1.00  0.00    -0.079 A  
HETATM    5  C   UNL     1      -7.676   7.763  69.686  1.00  0.00    -0.101 A  
HETATM    6  C   UNL     1      -8.707   8.467  69.028  1.00  0.00    -0.142 A  
HETATM    7  C   UNL     1      -9.657   9.117  69.842  1.00  0.00    -0.206 A  
HETATM    8  C   UNL     1      -9.594   9.059  71.237  1.00  0.00    -0.361 A  
ENDROOT
BRANCH   6   9
HETATM    9  C   UNL     1      -8.670   8.685  67.484  1.00  0.00    -0.135 C  
HETATM   10  O   UNL     1      -6.169   9.014  67.497  1.00  0.00    -0.054 OA 
HETATM   11  O   UNL     1      -9.660   9.704  67.142  1.00  0.00    -0.156 OA 
HETATM   12  C   UNL     1      -7.258   9.148  66.939  1.00  0.00    -0.086 C  
HETATM   13  C   UNL     1      -9.604  10.156  65.845  1.00  0.00    -0.218 A  
HETATM   14  H   UNL     1      -6.399   9.671  65.122  1.00  0.00     0.000 HD 
HETATM   15  C   UNL     1     -10.743  10.758  65.315  1.00  0.00    -0.153 A  
HETATM   16  C   UNL     1     -10.736  11.219  63.993  1.00  0.00    -0.444 A  
HETATM   17  N   UNL     1      -7.269   9.635  65.653  1.00  0.00    -0.094 N  
HETATM   18  C   UNL     1      -8.447  10.078  65.067  1.00  0.00    -0.160 A  
HETATM   19  C   UNL     1      -8.438  10.519  63.746  1.00  0.00    -0.127 A  
HETATM   20  C   UNL     1      -9.593  11.080  63.204  1.00  0.00    -0.384 A  
BRANCH   9  21
HETATM   21  C   UNL     1      -9.076   7.322  66.840  1.00  0.00    -0.162 A  
HETATM   22  C   UNL     1      -8.479   5.323  65.576  1.00  0.00    -0.141 A  
HETATM   23  H   UNL     1      -9.381   3.094  64.769  1.00  0.00     0.000 HD 
HETATM   24  O   UNL     1     -10.027   3.580  65.268  1.00  0.00    -0.111 OA 
HETATM   25  C   UNL     1      -9.750   4.811  65.785  1.00  0.00    -0.188 A  
HETATM   26  C   UNL     1     -10.695   5.522  66.515  1.00  0.00    -0.309 A  
HETATM   27  C   UNL     1     -10.357   6.770  67.045  1.00  0.00    -0.338 A  
HETATM   28  C   UNL     1      -8.137   6.567  66.104  1.00  0.00    -0.118 A  
ENDBRANCH   9  21
ENDBRANCH   6   9
TORSDOF 2
ENDMDL
MODEL      117
REMARK 921   NORMALIZED FREE ENERGY PREDICTED BY IDOCK:   -4.14 KCAL/MOL
REMARK 922        TOTAL FREE ENERGY PREDICTED BY IDOCK:   -5.38 KCAL/MOL
REMARK 923 INTER-LIGAND FREE ENERGY PREDICTED BY IDOCK:   -4.51 KCAL/MOL
REMARK 924 INTRA-LIGAND FREE ENERGY PREDICTED BY IDOCK:   -0.87 KCAL/MOL
REMARK 927      BINDING AFFINITY PREDICTED BY RF-SCORE:    0.00 PKD
ROOT
HETATM    1  O   UNL     1      -9.148  12.984  66.041  1.00  0.00    -0.451 OA 
HETATM    2  C   UNL     1      -9.109  11.661  66.368  1.00  0.00    -0.206 A  
HETATM    3  H   UNL     1      -9.328  13.277  65.155  1.00  0.00     0.000 HD 
HETATM    4  C   UNL     1      -8.844  11.232  67.663  1.00  0.00    -0.138 A  
HETATM    5  C   UNL     1      -8.774   9.858  67.938  1.00  0.00    -0.129 A  
HETATM    6  C   UNL     1      -8.961   8.894  66.925  1.00  0.00    -0.150 A  
HETATM    7  C   UNL     1      -9.226   9.376  65.626  1.00  0.00    -0.285 A  
HETATM    8  C   UNL     1      -9.316  10.743  65.353  1.00  0.00    -0.243 A  
ENDROOT
BRANCH   6   9
HETATM    9  C   UNL     1      -8.677   7.384  67.193  1.00  0.00    -0.121 C  
HETATM   10  O   UNL     1      -6.232   7.824  67.627  1.00  0.00    -0.047 OA 
HETATM   11  O   UNL     1      -9.217   6.612  66.075  1.00  0.00    -0.130 OA 
HETATM   12  C   UNL     1      -7.140   7.041  67.349  1.00  0.00    -0.088 C  
HETATM   13  C   UNL     1      -8.865   5.283  66.063  1.00  0.00    -0.141 A  
HETATM   14  H   UNL     1      -5.956   5.365  67.663  1.00  0.00     0.000 HD 
HETATM   15  C   UNL     1      -9.664   4.403  65.337  1.00  0.00    -0.203 A  
HETATM   16  C   UNL     1      -9.352   3.039  65.310  1.00  0.00    -0.122 A  
HETATM   17  N   UNL     1      -6.840   5.701  67.282  1.00  0.00    -0.062 N  
HETATM   18  C   UNL     1      -7.724   4.799  66.706  1.00  0.00    -0.091 A  
HETATM   19  C   UNL     1      -7.416   3.440  66.697  1.00  0.00    -0.076 A  
HETATM   20  C   UNL     1      -8.242   2.556  66.006  1.00  0.00    -0.088 A  
BRANCH   9  21
HETATM   21  C   UNL     1      -9.446   7.021  68.502  1.00  0.00    -0.134 A  
HETATM   22  C   UNL     1     -11.529   6.459  69.640  1.00  0.00    -0.446 A  
HETATM   23  H   UNL     1     -12.482   5.742  71.879  1.00  0.00     0.000 HD 
HETATM   24  O   UNL     1     -11.539   5.851  71.912  1.00  0.00    -0.270 OA 
HETATM   25  C   UNL     1     -10.828   6.244  70.817  1.00  0.00    -0.281 A  
HETATM   26  C   UNL     1      -9.449   6.404  70.866  1.00  0.00    -0.185 A  
HETATM   27  C   UNL     1      -8.760   6.786  69.711  1.00  0.00    -0.141 A  
HETATM   28  C   UNL     1     -10.845   6.838  68.486  1.00  0.00    -0.280 A  
ENDBRANCH   9  21
ENDBRANCH   6   9
TORSDOF 2
ENDMDL
MODEL      118
REMARK 921   NORMALIZED FREE ENERGY PREDICTED BY IDOCK:   -4.13 KCAL/MOL
REMARK 922        TOTAL FREE ENERGY PREDICTED BY IDOCK:   -5.37 KCAL/MOL
REMARK 923 INTER-LIGAND FREE ENERGY PREDICTED BY IDOCK:   -4.61 KCAL/MOL
REMARK 924 INTRA-LIGAND FREE ENERGY PREDICTED BY IDOCK:   -0.76 KCAL/MOL
REMARK 927      BINDING AFFINITY PREDICTED BY RF-SCORE:    0.00 PKD
ROOT
HETATM    1  O   UNL     1      -7.855   8.681  74.177  1.00  0.00    -0.398 OA 
HETATM    2  C   UNL     1      -8.210   8.167  72.965  1.00  0.00    -0.189 A  
HETATM    3  H   UNL     1      -8.414   9.286  74.650  1.00  0.00     0.000 HD 
HETATM    4  C   UNL     1      -7.393   7.283  72.273  1.00  0.00    -0.072 A  
HETATM    5  C   UNL     1      -7.787   6.815  71.010  1.00  0.00    -0.101 A  
HETATM    6  C   UNL     1      -9.000   7.229  70.419  1.00  0.00    -0.151 A  
HETATM    7  C   UNL     1      -9.797   8.127  71.158  1.00  0.00    -0.207 A  
HETATM    8  C   UNL     1      -9.416   8.579  72.424  1.00  0.00    -0.350 A  
ENDROOT
BRANCH   6   9
HETATM    9  C   UNL     1      -9.331   6.872  68.937  1.00  0.00    -0.134 C  
HETATM   10  O   UNL     1     -11.658   6.112  69.542  1.00  0.00    -0.396 OA 
HETATM   11  O   UNL     1      -8.263   6.015  68.423  1.00  0.00    -0.109 OA 
HETATM   12  C   UNL     1     -10.713   6.121  68.755  1.00  0.00    -0.308 C  
HETATM   13  C   UNL     1      -8.514   5.448  67.197  1.00  0.00    -0.106 A  
HETATM   14  H   UNL     1     -11.831   5.298  67.212  1.00  0.00     0.000 HD 
HETATM   15  C   UNL     1      -7.425   5.010  66.447  1.00  0.00    -0.087 A  
HETATM   16  C   UNL     1      -7.632   4.440  65.185  1.00  0.00    -0.077 A  
HETATM   17  N   UNL     1     -10.890   5.532  67.526  1.00  0.00    -0.125 N  
HETATM   18  C   UNL     1      -9.806   5.253  66.705  1.00  0.00    -0.179 A  
HETATM   19  C   UNL     1     -10.019   4.702  65.443  1.00  0.00    -0.167 A  
HETATM   20  C   UNL     1      -8.925   4.306  64.676  1.00  0.00    -0.146 A  
BRANCH   9  21
HETATM   21  C   UNL     1      -9.343   8.222  68.155  1.00  0.00    -0.140 A  
HETATM   22  C   UNL     1      -8.179   9.902  66.824  1.00  0.00    -0.124 A  
HETATM   23  H   UNL     1      -8.531  12.039  65.502  1.00  0.00     0.000 HD 
HETATM   24  O   UNL     1      -9.341  11.715  65.879  1.00  0.00    -0.225 OA 
HETATM   25  C   UNL     1      -9.372  10.582  66.637  1.00  0.00    -0.161 A  
HETATM   26  C   UNL     1     -10.557  10.109  67.188  1.00  0.00    -0.308 A  
HETATM   27  C   UNL     1     -10.543   8.931  67.939  1.00  0.00    -0.244 A  
HETATM   28  C   UNL     1      -8.161   8.725  67.572  1.00  0.00    -0.106 A  
ENDBRANCH   9  21
ENDBRANCH   6   9
TORSDOF 2
ENDMDL
MODEL      119
REMARK 921   NORMALIZED FREE ENERGY PREDICTED BY IDOCK:   -4.11 KCAL/MOL
REMARK 922        TOTAL FREE ENERGY PREDICTED BY IDOCK:   -5.35 KCAL/MOL
REMARK 923 INTER-LIGAND FREE ENERGY PREDICTED BY IDOCK:   -5.71 KCAL/MOL
REMARK 924 INTRA-LIGAND FREE ENERGY PREDICTED BY IDOCK:    0.36 KCAL/MOL
REMARK 927      BINDING AFFINITY PREDICTED BY RF-SCORE:    0.00 PKD
ROOT
HETATM    1  O   UNL     1      -9.729  13.053  65.896  1.00  0.00    -0.356 OA 
HETATM    2  C   UNL     1      -9.635  11.901  66.619  1.00  0.00    -0.209 A  
HETATM    3  H   UNL     1      -9.082  13.745  65.968  1.00  0.00     0.000 HD 
HETATM    4  C   UNL     1     -10.580  10.888  66.513  1.00  0.00    -0.295 A  
HETATM    5  C   UNL     1     -10.460   9.739  67.311  1.00  0.00    -0.324 A  
HETATM    6  C   UNL     1      -9.398   9.589  68.228  1.00  0.00    -0.139 A  
HETATM    7  C   UNL     1      -8.463  10.642  68.301  1.00  0.00    -0.127 A  
HETATM    8  C   UNL     1      -8.570  11.779  67.494  1.00  0.00    -0.157 A  
ENDROOT
BRANCH   6   9
HETATM    9  C   UNL     1      -9.385   8.414  69.253  1.00  0.00    -0.154 C  
HETATM   10  O   UNL     1      -7.294   9.282  70.364  1.00  0.00    -0.080 OA 
HETATM   11  O   UNL     1      -9.495   7.159  68.511  1.00  0.00    -0.140 OA 
HETATM   12  C   UNL     1      -8.079   8.359  70.146  1.00  0.00    -0.108 C  
HETATM   13  C   UNL     1      -9.290   6.023  69.257  1.00  0.00    -0.133 A  
HETATM   14  H   UNL     1      -7.280   7.162  71.642  1.00  0.00     0.000 HD 
HETATM   15  C   UNL     1      -9.804   4.822  68.772  1.00  0.00    -0.218 A  
HETATM   16  C   UNL     1      -9.633   3.644  69.506  1.00  0.00    -0.207 A  
HETATM   17  N   UNL     1      -7.901   7.183  70.833  1.00  0.00    -0.094 N  
HETATM   18  C   UNL     1      -8.554   6.021  70.443  1.00  0.00    -0.133 A  
HETATM   19  C   UNL     1      -8.394   4.855  71.188  1.00  0.00    -0.114 A  
HETATM   20  C   UNL     1      -8.947   3.664  70.722  1.00  0.00    -0.157 A  
BRANCH   9  21
HETATM   21  C   UNL     1     -10.647   8.604  70.152  1.00  0.00    -0.235 A  
HETATM   22  C   UNL     1     -12.560   7.660  71.333  1.00  0.00    -0.359 A  
HETATM   23  H   UNL     1     -14.453   8.247  72.917  1.00  0.00     0.000 HD 
HETATM   24  O   UNL     1     -13.911   9.001  72.714  1.00  0.00    -0.450 OA 
HETATM   25  C   UNL     1     -12.844   8.905  71.871  1.00  0.00    -0.380 A  
HETATM   26  C   UNL     1     -12.052  10.008  71.574  1.00  0.00    -0.475 A  
HETATM   27  C   UNL     1     -10.954   9.857  70.722  1.00  0.00    -0.407 A  
HETATM   28  C   UNL     1     -11.465   7.504  70.484  1.00  0.00    -0.259 A  
ENDBRANCH   9  21
ENDBRANCH   6   9
TORSDOF 2
ENDMDL
MODEL      120
REMARK 921   NORMALIZED FREE ENERGY PREDICTED BY IDOCK:   -4.08 KCAL/MOL
REMARK 922        TOTAL FREE ENERGY PREDICTED BY IDOCK:   -5.31 KCAL/MOL
REMARK 923 INTER-LIGAND FREE ENERGY PREDICTED BY IDOCK:   -5.26 KCAL/MOL
REMARK 924 INTRA-LIGAND FREE ENERGY PREDICTED BY IDOCK:   -0.05 KCAL/MOL
REMARK 927      BINDING AFFINITY PREDICTED BY RF-SCORE:    0.00 PKD
ROOT
HETATM    1  O   UNL     1     -12.380  13.882  67.596  1.00  0.00    -0.471 OA 
HETATM    2  C   UNL     1     -11.781  12.875  68.293  1.00  0.00    -0.350 A  
HETATM    3  H   UNL     1     -13.094  14.392  67.962  1.00  0.00     0.000 HD 
HETATM    4  C   UNL     1     -10.738  12.130  67.757  1.00  0.00    -0.241 A  
HETATM    5  C   UNL     1     -10.183  11.077  68.501  1.00  0.00    -0.203 A  
HETATM    6  C   UNL     1     -10.666  10.750  69.786  1.00  0.00    -0.241 A  
HETATM    7  C   UNL     1     -11.726  11.533  70.288  1.00  0.00    -0.379 A  
HETATM    8  C   UNL     1     -12.267  12.595  69.558  1.00  0.00    -0.149 A  
ENDROOT
BRANCH   6   9
HETATM    9  C   UNL     1     -10.190   9.457  70.516  1.00  0.00    -0.271 C  
HETATM   10  O   UNL     1     -12.317   9.321  71.864  1.00  0.00    -0.351 OA 
HETATM   11  O   UNL     1      -8.854   9.703  71.056  1.00  0.00    -0.195 OA 
HETATM   12  C   UNL     1     -11.139   9.005  71.699  1.00  0.00    -0.363 C  
HETATM   13  C   UNL     1      -8.382   8.729  71.904  1.00  0.00    -0.062 A  
HETATM   14  H   UNL     1     -11.215   7.503  73.131  1.00  0.00     0.000 HD 
HETATM   15  C   UNL     1      -7.005   8.645  72.098  1.00  0.00    -0.066 A  
HETATM   16  C   UNL     1      -6.480   7.658  72.940  1.00  0.00    -0.063 A  
HETATM   17  N   UNL     1     -10.598   8.064  72.542  1.00  0.00    -0.303 N  
HETATM   18  C   UNL     1      -9.226   7.865  72.605  1.00  0.00    -0.208 A  
HETATM   19  C   UNL     1      -8.709   6.870  73.433  1.00  0.00    -0.148 A  
HETATM   20  C   UNL     1      -7.329   6.760  73.589  1.00  0.00    -0.082 A  
BRANCH   9  21
HETATM   21  C   UNL     1     -10.118   8.342  69.426  1.00  0.00    -0.198 A  
HETATM   22  C   UNL     1      -8.885   7.184  67.668  1.00  0.00    -0.119 A  
HETATM   23  H   UNL     1      -8.994   5.203  66.088  1.00  0.00     0.000 HD 
HETATM   24  O   UNL     1      -9.768   5.264  66.635  1.00  0.00    -0.139 OA 
HETATM   25  C   UNL     1      -9.917   6.265  67.549  1.00  0.00    -0.134 A  
HETATM   26  C   UNL     1     -11.048   6.356  68.350  1.00  0.00    -0.374 A  
HETATM   27  C   UNL     1     -11.146   7.387  69.288  1.00  0.00    -0.012 A  
HETATM   28  C   UNL     1      -8.978   8.213  68.604  1.00  0.00    -0.137 A  
ENDBRANCH   9  21
ENDBRANCH   6   9
TORSDOF 2
ENDMDL
MODEL      121
REMARK 921   NORMALIZED FREE ENERGY PREDICTED BY IDOCK:   -4.05 KCAL/MOL
REMARK 922        TOTAL FREE ENERGY PREDICTED BY IDOCK:   -5.28 KCAL/MOL
REMARK 923 INTER-LIGAND FREE ENERGY PREDICTED BY IDOCK:   -6.03 KCAL/MOL
REMARK 924 INTRA-LIGAND FREE ENERGY PREDICTED BY IDOCK:    0.75 KCAL/MOL
REMARK 927      BINDING AFFINITY PREDICTED BY RF-SCORE:    0.00 PKD
ROOT
HETATM    1  O   UNL     1      -8.026   6.903  72.788  1.00  0.00    -0.103 OA 
HETATM    2  C   UNL     1      -8.568   7.751  71.868  1.00  0.00    -0.114 A  
HETATM    3  H   UNL     1      -8.460   6.711  73.611  1.00  0.00     0.000 HD 
HETATM    4  C   UNL     1      -7.933   8.033  70.665  1.00  0.00    -0.096 A  
HETATM    5  C   UNL     1      -8.514   8.945  69.770  1.00  0.00    -0.131 A  
HETATM    6  C   UNL     1      -9.732   9.593  70.067  1.00  0.00    -0.280 A  
HETATM    7  C   UNL     1     -10.340   9.276  71.300  1.00  0.00    -0.397 A  
HETATM    8  C   UNL     1      -9.774   8.353  72.184  1.00  0.00    -0.370 A  
ENDROOT
BRANCH   6   9
HETATM    9  C   UNL     1     -10.262  10.753  69.170  1.00  0.00    -0.211 C  
HETATM   10  O   UNL     1     -11.260   9.138  67.510  1.00  0.00     0.079 OA 
HETATM   11  O   UNL     1      -9.155  11.669  68.905  1.00  0.00    -0.077 OA 
HETATM   12  C   UNL     1     -10.859  10.268  67.787  1.00  0.00    -0.292 C  
HETATM   13  C   UNL     1      -9.411  12.633  67.959  1.00  0.00    -0.209 A  
HETATM   14  H   UNL     1     -11.692  11.114  66.083  1.00  0.00     0.000 HD 
HETATM   15  C   UNL     1      -8.624  13.782  67.968  1.00  0.00    -0.177 A  
HETATM   16  C   UNL     1      -8.860  14.795  67.033  1.00  0.00    -0.258 A  
HETATM   17  N   UNL     1     -11.052  11.267  66.862  1.00  0.00    -0.293 N  
HETATM   18  C   UNL     1     -10.388  12.481  66.973  1.00  0.00    -0.224 A  
HETATM   19  C   UNL     1     -10.640  13.493  66.049  1.00  0.00    -0.285 A  
HETATM   20  C   UNL     1      -9.880  14.661  66.089  1.00  0.00    -0.334 A  
BRANCH   9  21
HETATM   21  C   UNL     1     -11.360  11.484  70.005  1.00  0.00    -0.222 A  
HETATM   22  C   UNL     1     -13.284  11.394  71.501  1.00  0.00    -0.333 A  
HETATM   23  H   UNL     1     -14.848  12.842  72.877  1.00  0.00     0.000 HD 
HETATM   24  O   UNL     1     -14.195  13.358  72.419  1.00  0.00    -0.637 OA 
HETATM   25  C   UNL     1     -13.262  12.776  71.614  1.00  0.00    -0.317 A  
HETATM   26  C   UNL     1     -12.308  13.531  70.943  1.00  0.00    -0.437 A  
HETATM   27  C   UNL     1     -11.357  12.887  70.146  1.00  0.00     0.166 A  
HETATM   28  C   UNL     1     -12.337  10.747  70.709  1.00  0.00    -0.480 A  
ENDBRANCH   9  21
ENDBRANCH   6   9
TORSDOF 2
ENDMDL
MODEL      122
REMARK 921   NORMALIZED FREE ENERGY PREDICTED BY IDOCK:   -4.05 KCAL/MOL
REMARK 922        TOTAL FREE ENERGY PREDICTED BY IDOCK:   -5.28 KCAL/MOL
REMARK 923 INTER-LIGAND FREE ENERGY PREDICTED BY IDOCK:   -4.92 KCAL/MOL
REMARK 924 INTRA-LIGAND FREE ENERGY PREDICTED BY IDOCK:   -0.36 KCAL/MOL
REMARK 927      BINDING AFFINITY PREDICTED BY RF-SCORE:    0.00 PKD
ROOT
HETATM    1  O   UNL     1      -9.521   5.292  65.165  1.00  0.00    -0.353 OA 
HETATM    2  C   UNL     1      -9.722   6.275  66.087  1.00  0.00     0.031 A  
HETATM    3  H   UNL     1      -8.674   5.151  64.757  1.00  0.00     0.000 HD 
HETATM    4  C   UNL     1     -10.960   6.480  66.684  1.00  0.00    -0.163 A  
HETATM    5  C   UNL     1     -11.125   7.532  67.597  1.00  0.00     0.056 A  
HETATM    6  C   UNL     1     -10.059   8.398  67.923  1.00  0.00    -0.254 A  
HETATM    7  C   UNL     1      -8.822   8.152  67.293  1.00  0.00    -0.136 A  
HETATM    8  C   UNL     1      -8.649   7.092  66.397  1.00  0.00    -0.137 A  
ENDROOT
BRANCH   6   9
HETATM    9  C   UNL     1     -10.301   9.683  68.772  1.00  0.00    -0.213 C  
HETATM   10  O   UNL     1     -11.214   8.346  70.706  1.00  0.00    -0.258 OA 
HETATM   11  O   UNL     1     -11.061  10.632  67.961  1.00  0.00    -0.259 OA 
HETATM   12  C   UNL     1     -11.094   9.420  70.117  1.00  0.00    -0.242 C  
HETATM   13  C   UNL     1     -11.531  11.731  68.639  1.00  0.00    -0.288 A  
HETATM   14  H   UNL     1     -11.830  10.519  71.717  1.00  0.00     0.000 HD 
HETATM   15  C   UNL     1     -11.853  12.866  67.898  1.00  0.00    -0.388 A  
HETATM   16  C   UNL     1     -12.320  14.013  68.549  1.00  0.00    -0.028 A  
HETATM   17  N   UNL     1     -11.581  10.550  70.728  1.00  0.00    -0.347 N  
HETATM   18  C   UNL     1     -11.740  11.733  70.020  1.00  0.00    -0.305 A  
HETATM   19  C   UNL     1     -12.189  12.877  70.677  1.00  0.00    -0.386 A  
HETATM   20  C   UNL     1     -12.467  14.025  69.938  1.00  0.00    -0.301 A  
BRANCH   9  21
HETATM   21  C   UNL     1      -8.889  10.272  69.085  1.00  0.00    -0.182 A  
HETATM   22  C   UNL     1      -7.231  12.038  68.810  1.00  0.00    -0.108 A  
HETATM   23  H   UNL     1      -4.953  12.820  69.609  1.00  0.00     0.000 HD 
HETATM   24  O   UNL     1      -5.220  12.010  70.029  1.00  0.00    -0.074 OA 
HETATM   25  C   UNL     1      -6.409  11.411  69.733  1.00  0.00    -0.139 A  
HETATM   26  C   UNL     1      -6.798  10.227  70.346  1.00  0.00    -0.109 A  
HETATM   27  C   UNL     1      -8.036   9.662  70.027  1.00  0.00    -0.190 A  
HETATM   28  C   UNL     1      -8.468  11.480  68.490  1.00  0.00    -0.143 A  
ENDBRANCH   9  21
ENDBRANCH   6   9
TORSDOF 2
ENDMDL
MODEL      123
REMARK 921   NORMALIZED FREE ENERGY PREDICTED BY IDOCK:   -4.02 KCAL/MOL
REMARK 922        TOTAL FREE ENERGY PREDICTED BY IDOCK:   -5.24 KCAL/MOL
REMARK 923 INTER-LIGAND FREE ENERGY PREDICTED BY IDOCK:   -4.42 KCAL/MOL
REMARK 924 INTRA-LIGAND FREE ENERGY PREDICTED BY IDOCK:   -0.83 KCAL/MOL
REMARK 927      BINDING AFFINITY PREDICTED BY RF-SCORE:    0.00 PKD
ROOT
HETATM    1  O   UNL     1     -10.321   1.925  73.975  1.00  0.00    -0.100 OA 
HETATM    2  C   UNL     1     -10.174   2.941  73.078  1.00  0.00    -0.146 A  
HETATM    3  H   UNL     1     -10.667   2.071  74.847  1.00  0.00     0.000 HD 
HETATM    4  C   UNL     1      -9.667   2.728  71.802  1.00  0.00    -0.225 A  
HETATM    5  C   UNL     1      -9.498   3.815  70.931  1.00  0.00    -0.236 A  
HETATM    6  C   UNL     1      -9.826   5.131  71.324  1.00  0.00    -0.239 A  
HETATM    7  C   UNL     1     -10.336   5.299  72.628  1.00  0.00    -0.247 A  
HETATM    8  C   UNL     1     -10.524   4.215  73.491  1.00  0.00    -0.257 A  
ENDROOT
BRANCH   6   9
HETATM    9  C   UNL     1      -9.443   6.352  70.433  1.00  0.00    -0.162 C  
HETATM   10  O   UNL     1      -7.067   6.343  71.279  1.00  0.00    -0.073 OA 
HETATM   11  O   UNL     1     -10.423   7.411  70.664  1.00  0.00    -0.211 OA 
HETATM   12  C   UNL     1      -7.998   6.928  70.727  1.00  0.00    -0.106 C  
HETATM   13  C   UNL     1     -10.106   8.628  70.107  1.00  0.00    -0.185 A  
HETATM   14  H   UNL     1      -6.789   8.479  70.061  1.00  0.00     0.000 HD 
HETATM   15  C   UNL     1     -11.141   9.533  69.885  1.00  0.00    -0.244 A  
HETATM   16  C   UNL     1     -10.867  10.777  69.306  1.00  0.00    -0.287 A  
HETATM   17  N   UNL     1      -7.752   8.167  70.186  1.00  0.00    -0.083 N  
HETATM   18  C   UNL     1      -8.795   9.001  69.806  1.00  0.00    -0.153 A  
HETATM   19  C   UNL     1      -8.516  10.230  69.213  1.00  0.00    -0.172 A  
HETATM   20  C   UNL     1      -9.559  11.116  68.951  1.00  0.00    -0.154 A  
BRANCH   9  21
HETATM   21  C   UNL     1      -9.538   5.861  68.955  1.00  0.00    -0.158 A  
HETATM   22  C   UNL     1     -10.846   5.510  66.926  1.00  0.00    -0.224 A  
HETATM   23  H   UNL     1     -10.667   4.783  64.503  1.00  0.00     0.000 HD 
HETATM   24  O   UNL     1      -9.826   4.760  64.944  1.00  0.00    -0.062 OA 
HETATM   25  C   UNL     1      -9.701   5.103  66.258  1.00  0.00    -0.174 A  
HETATM   26  C   UNL     1      -8.472   5.069  66.904  1.00  0.00    -0.106 A  
HETATM   27  C   UNL     1      -8.389   5.452  68.246  1.00  0.00    -0.098 A  
HETATM   28  C   UNL     1     -10.768   5.894  68.265  1.00  0.00    -0.319 A  
ENDBRANCH   9  21
ENDBRANCH   6   9
TORSDOF 2
ENDMDL
MODEL      124
REMARK 921   NORMALIZED FREE ENERGY PREDICTED BY IDOCK:   -4.01 KCAL/MOL
REMARK 922        TOTAL FREE ENERGY PREDICTED BY IDOCK:   -5.24 KCAL/MOL
REMARK 923 INTER-LIGAND FREE ENERGY PREDICTED BY IDOCK:   -5.76 KCAL/MOL
REMARK 924 INTRA-LIGAND FREE ENERGY PREDICTED BY IDOCK:    0.52 KCAL/MOL
REMARK 927      BINDING AFFINITY PREDICTED BY RF-SCORE:    0.00 PKD
ROOT
HETATM    1  O   UNL     1      -5.125  16.053  70.771  1.00  0.00    -0.171 OA 
HETATM    2  C   UNL     1      -6.293  15.786  70.121  1.00  0.00    -0.037 A  
HETATM    3  H   UNL     1      -4.788  16.937  70.856  1.00  0.00     0.000 HD 
HETATM    4  C   UNL     1      -6.786  14.493  69.997  1.00  0.00    -0.070 A  
HETATM    5  C   UNL     1      -7.973  14.268  69.283  1.00  0.00     0.125 A  
HETATM    6  C   UNL     1      -8.680  15.329  68.678  1.00  0.00    -0.182 A  
HETATM    7  C   UNL     1      -8.142  16.623  68.830  1.00  0.00    -0.235 A  
HETATM    8  C   UNL     1      -6.971  16.853  69.557  1.00  0.00    -0.073 A  
ENDROOT
BRANCH   6   9
HETATM    9  C   UNL     1      -9.876  15.050  67.717  1.00  0.00    -0.220 C  
HETATM   10  O   UNL     1     -11.405  14.468  69.636  1.00  0.00    -0.256 OA 
HETATM   11  O   UNL     1      -9.423  14.125  66.680  1.00  0.00    -0.269 OA 
HETATM   12  C   UNL     1     -11.140  14.424  68.435  1.00  0.00    -0.255 C  
HETATM   13  C   UNL     1     -10.418  13.620  65.876  1.00  0.00    -0.296 A  
HETATM   14  H   UNL     1     -13.034  13.748  67.918  1.00  0.00     0.000 HD 
HETATM   15  C   UNL     1     -10.056  13.118  64.628  1.00  0.00    -0.248 A  
HETATM   16  C   UNL     1     -11.038  12.609  63.771  1.00  0.00    -0.504 A  
HETATM   17  N   UNL     1     -12.081  13.893  67.585  1.00  0.00    -0.359 N  
HETATM   18  C   UNL     1     -11.752  13.551  66.280  1.00  0.00    -0.367 A  
HETATM   19  C   UNL     1     -12.738  13.061  65.426  1.00  0.00    -0.369 A  
HETATM   20  C   UNL     1     -12.378  12.600  64.160  1.00  0.00    -0.518 A  
BRANCH   9  21
HETATM   21  C   UNL     1     -10.247  16.422  67.071  1.00  0.00    -0.282 A  
HETATM   22  C   UNL     1     -10.689  18.810  67.294  1.00  0.00    -0.490 A  
HETATM   23  H   UNL     1     -11.151  20.917  65.960  1.00  0.00     0.000 HD 
HETATM   24  O   UNL     1     -11.034  20.159  65.399  1.00  0.00    -0.238 OA 
HETATM   25  C   UNL     1     -10.787  18.921  65.916  1.00  0.00    -0.156 A  
HETATM   26  C   UNL     1     -10.616  17.812  65.097  1.00  0.00     0.438 A  
HETATM   27  C   UNL     1     -10.342  16.568  65.672  1.00  0.00    -0.342 A  
HETATM   28  C   UNL     1     -10.414  17.571  67.872  1.00  0.00    -0.384 A  
ENDBRANCH   9  21
ENDBRANCH   6   9
TORSDOF 2
ENDMDL
MODEL      125
REMARK 921   NORMALIZED FREE ENERGY PREDICTED BY IDOCK:   -3.98 KCAL/MOL
REMARK 922        TOTAL FREE ENERGY PREDICTED BY IDOCK:   -5.20 KCAL/MOL
REMARK 923 INTER-LIGAND FREE ENERGY PREDICTED BY IDOCK:   -5.03 KCAL/MOL
REMARK 924 INTRA-LIGAND FREE ENERGY PREDICTED BY IDOCK:   -0.17 KCAL/MOL
REMARK 927      BINDING AFFINITY PREDICTED BY RF-SCORE:    0.00 PKD
ROOT
HETATM    1  O   UNL     1      -9.323   1.608  73.714  1.00  0.00    -0.067 OA 
HETATM    2  C   UNL     1      -9.549   2.664  72.883  1.00  0.00    -0.099 A  
HETATM    3  H   UNL     1      -9.698   1.564  74.586  1.00  0.00     0.000 HD 
HETATM    4  C   UNL     1      -8.999   2.728  71.609  1.00  0.00    -0.140 A  
HETATM    5  C   UNL     1      -9.229   3.858  70.809  1.00  0.00    -0.198 A  
HETATM    6  C   UNL     1     -10.005   4.942  71.273  1.00  0.00    -0.271 A  
HETATM    7  C   UNL     1     -10.542   4.833  72.572  1.00  0.00    -0.262 A  
HETATM    8  C   UNL     1     -10.331   3.701  73.364  1.00  0.00    -0.237 A  
ENDROOT
BRANCH   6   9
HETATM    9  C   UNL     1     -10.083   6.274  70.466  1.00  0.00    -0.189 C  
HETATM   10  O   UNL     1     -10.784   5.070  68.364  1.00  0.00     0.057 OA 
HETATM   11  O   UNL     1      -8.827   6.997  70.654  1.00  0.00    -0.148 OA 
HETATM   12  C   UNL     1     -10.322   6.069  68.915  1.00  0.00    -0.218 C  
HETATM   13  C   UNL     1      -8.660   8.093  69.841  1.00  0.00    -0.130 A  
HETATM   14  H   UNL     1     -10.500   7.241  67.211  1.00  0.00     0.000 HD 
HETATM   15  C   UNL     1      -7.751   9.070  70.242  1.00  0.00    -0.098 A  
HETATM   16  C   UNL     1      -7.561  10.210  69.453  1.00  0.00    -0.133 A  
HETATM   17  N   UNL     1     -10.095   7.185  68.145  1.00  0.00    -0.163 N  
HETATM   18  C   UNL     1      -9.324   8.236  68.621  1.00  0.00    -0.143 A  
HETATM   19  C   UNL     1      -9.153   9.376  67.839  1.00  0.00    -0.136 A  
HETATM   20  C   UNL     1      -8.276  10.373  68.265  1.00  0.00    -0.114 A  
BRANCH   9  21
HETATM   21  C   UNL     1     -11.258   7.093  71.089  1.00  0.00    -0.291 A  
HETATM   22  C   UNL     1     -12.070   9.102  72.208  1.00  0.00    -0.311 A  
HETATM   23  H   UNL     1     -14.181  10.263  73.004  1.00  0.00     0.000 HD 
HETATM   24  O   UNL     1     -14.368   9.429  72.588  1.00  0.00    -0.412 OA 
HETATM   25  C   UNL     1     -13.372   8.637  72.098  1.00  0.00    -0.396 A  
HETATM   26  C   UNL     1     -13.645   7.418  71.491  1.00  0.00    -0.454 A  
HETATM   27  C   UNL     1     -12.592   6.651  70.983  1.00  0.00    -0.151 A  
HETATM   28  C   UNL     1     -11.017   8.341  71.701  1.00  0.00    -0.327 A  
ENDBRANCH   9  21
ENDBRANCH   6   9
TORSDOF 2
ENDMDL
MODEL      126
REMARK 921   NORMALIZED FREE ENERGY PREDICTED BY IDOCK:   -3.96 KCAL/MOL
REMARK 922        TOTAL FREE ENERGY PREDICTED BY IDOCK:   -5.18 KCAL/MOL
REMARK 923 INTER-LIGAND FREE ENERGY PREDICTED BY IDOCK:   -4.31 KCAL/MOL
REMARK 924 INTRA-LIGAND FREE ENERGY PREDICTED BY IDOCK:   -0.87 KCAL/MOL
REMARK 927      BINDING AFFINITY PREDICTED BY RF-SCORE:    0.00 PKD
ROOT
HETATM    1  O   UNL     1     -10.013   3.702  64.996  1.00  0.00    -0.269 OA 
HETATM    2  C   UNL     1      -9.757   4.826  65.723  1.00  0.00    -0.188 A  
HETATM    3  H   UNL     1      -9.347   3.286  64.462  1.00  0.00     0.000 HD 
HETATM    4  C   UNL     1     -10.731   5.434  66.505  1.00  0.00    -0.309 A  
HETATM    5  C   UNL     1     -10.426   6.613  67.202  1.00  0.00    -0.358 A  
HETATM    6  C   UNL     1      -9.147   7.204  67.123  1.00  0.00    -0.141 A  
HETATM    7  C   UNL     1      -8.190   6.552  66.319  1.00  0.00    -0.119 A  
HETATM    8  C   UNL     1      -8.485   5.367  65.639  1.00  0.00    -0.138 A  
ENDROOT
BRANCH   6   9
HETATM    9  C   UNL     1      -8.878   8.616  67.728  1.00  0.00    -0.136 C  
HETATM   10  O   UNL     1     -10.264   9.745  65.949  1.00  0.00    -0.259 OA 
HETATM   11  O   UNL     1      -7.436   8.770  67.908  1.00  0.00    -0.091 OA 
HETATM   12  C   UNL     1      -9.405   9.807  66.828  1.00  0.00    -0.152 C  
HETATM   13  C   UNL     1      -7.023  10.039  68.239  1.00  0.00    -0.068 A  
HETATM   14  H   UNL     1      -9.420  11.883  66.868  1.00  0.00     0.000 HD 
HETATM   15  C   UNL     1      -5.782  10.181  68.856  1.00  0.00    -0.034 A  
HETATM   16  C   UNL     1      -5.329  11.452  69.225  1.00  0.00    -0.044 A  
HETATM   17  N   UNL     1      -8.924  11.047  67.176  1.00  0.00    -0.142 N  
HETATM   18  C   UNL     1      -7.773  11.178  67.940  1.00  0.00    -0.105 A  
HETATM   19  C   UNL     1      -7.336  12.446  68.320  1.00  0.00    -0.113 A  
HETATM   20  C   UNL     1      -6.114  12.580  68.977  1.00  0.00    -0.081 A  
BRANCH   9  21
HETATM   21  C   UNL     1      -9.586   8.637  69.120  1.00  0.00    -0.163 A  
HETATM   22  C   UNL     1     -11.519   9.198  70.497  1.00  0.00    -0.271 A  
HETATM   23  H   UNL     1     -12.478   8.961  72.833  1.00  0.00     0.000 HD 
HETATM   24  O   UNL     1     -11.624   8.549  72.755  1.00  0.00    -0.312 OA 
HETATM   25  C   UNL     1     -10.928   8.571  71.583  1.00  0.00    -0.292 A  
HETATM   26  C   UNL     1      -9.680   7.970  71.468  1.00  0.00    -0.213 A  
HETATM   27  C   UNL     1      -9.014   7.999  70.239  1.00  0.00    -0.147 A  
HETATM   28  C   UNL     1     -10.859   9.228  69.269  1.00  0.00    -0.170 A  
ENDBRANCH   9  21
ENDBRANCH   6   9
TORSDOF 2
ENDMDL
MODEL      127
REMARK 921   NORMALIZED FREE ENERGY PREDICTED BY IDOCK:   -3.95 KCAL/MOL
REMARK 922        TOTAL FREE ENERGY PREDICTED BY IDOCK:   -5.17 KCAL/MOL
REMARK 923 INTER-LIGAND FREE ENERGY PREDICTED BY IDOCK:   -4.33 KCAL/MOL
REMARK 924 INTRA-LIGAND FREE ENERGY PREDICTED BY IDOCK:   -0.84 KCAL/MOL
REMARK 927      BINDING AFFINITY PREDICTED BY RF-SCORE:    0.00 PKD
ROOT
HETATM    1  O   UNL     1      -5.508  11.216  65.050  1.00  0.00    -0.475 OA 
HETATM    2  C   UNL     1      -6.260  10.282  65.698  1.00  0.00    -0.113 A  
HETATM    3  H   UNL     1      -4.807  11.688  65.486  1.00  0.00     0.000 HD 
HETATM    4  C   UNL     1      -7.285   9.593  65.061  1.00  0.00    -0.116 A  
HETATM    5  C   UNL     1      -8.056   8.670  65.784  1.00  0.00    -0.114 A  
HETATM    6  C   UNL     1      -7.819   8.427  67.154  1.00  0.00    -0.100 A  
HETATM    7  C   UNL     1      -6.769   9.149  67.758  1.00  0.00    -0.065 A  
HETATM    8  C   UNL     1      -5.987  10.054  67.035  1.00  0.00    -0.051 A  
ENDROOT
BRANCH   6   9
HETATM    9  C   UNL     1      -8.805   7.562  67.997  1.00  0.00    -0.127 C  
HETATM   10  O   UNL     1     -10.676   9.226  67.688  1.00  0.00    -0.269 OA 
HETATM   11  O   UNL     1      -8.158   7.236  69.266  1.00  0.00    -0.120 OA 
HETATM   12  C   UNL     1     -10.183   8.279  68.301  1.00  0.00    -0.208 C  
HETATM   13  C   UNL     1      -8.977   6.652  70.203  1.00  0.00    -0.152 A  
HETATM   14  H   UNL     1     -11.939   7.876  69.333  1.00  0.00     0.000 HD 
HETATM   15  C   UNL     1      -8.380   5.917  71.224  1.00  0.00    -0.124 A  
HETATM   16  C   UNL     1      -9.176   5.292  72.190  1.00  0.00    -0.156 A  
HETATM   17  N   UNL     1     -10.940   7.679  69.279  1.00  0.00    -0.089 N  
HETATM   18  C   UNL     1     -10.365   6.808  70.194  1.00  0.00    -0.202 A  
HETATM   19  C   UNL     1     -11.165   6.176  71.143  1.00  0.00    -0.355 A  
HETATM   20  C   UNL     1     -10.567   5.404  72.137  1.00  0.00    -0.284 A  
BRANCH   9  21
HETATM   21  C   UNL     1      -9.047   6.254  67.179  1.00  0.00    -0.119 A  
HETATM   22  C   UNL     1     -10.519   4.841  65.843  1.00  0.00    -0.313 A  
HETATM   23  H   UNL     1     -10.576   2.718  64.455  1.00  0.00     0.000 HD 
HETATM   24  O   UNL     1      -9.712   2.886  64.814  1.00  0.00    -0.137 OA 
HETATM   25  C   UNL     1      -9.466   3.973  65.600  1.00  0.00    -0.176 A  
HETATM   26  C   UNL     1      -8.203   4.218  66.125  1.00  0.00    -0.105 A  
HETATM   27  C   UNL     1      -7.993   5.358  66.907  1.00  0.00    -0.101 A  
HETATM   28  C   UNL     1     -10.314   5.980  66.621  1.00  0.00    -0.264 A  
ENDBRANCH   9  21
ENDBRANCH   6   9
TORSDOF 2
ENDMDL
MODEL      128
REMARK 921   NORMALIZED FREE ENERGY PREDICTED BY IDOCK:   -3.93 KCAL/MOL
REMARK 922        TOTAL FREE ENERGY PREDICTED BY IDOCK:   -5.14 KCAL/MOL
REMARK 923 INTER-LIGAND FREE ENERGY PREDICTED BY IDOCK:   -4.79 KCAL/MOL
REMARK 924 INTRA-LIGAND FREE ENERGY PREDICTED BY IDOCK:   -0.36 KCAL/MOL
REMARK 927      BINDING AFFINITY PREDICTED BY RF-SCORE:    0.00 PKD
ROOT
HETATM    1  O   UNL     1      -6.771   6.292  67.889  1.00  0.00    -0.059 OA 
HETATM    2  C   UNL     1      -7.363   7.509  67.732  1.00  0.00    -0.103 A  
HETATM    3  H   UNL     1      -6.626   5.705  67.157  1.00  0.00     0.000 HD 
HETATM    4  C   UNL     1      -7.574   8.368  68.804  1.00  0.00    -0.101 A  
HETATM    5  C   UNL     1      -8.225   9.593  68.594  1.00  0.00    -0.105 A  
HETATM    6  C   UNL     1      -8.680   9.975  67.314  1.00  0.00    -0.127 A  
HETATM    7  C   UNL     1      -8.444   9.072  66.257  1.00  0.00    -0.132 A  
HETATM    8  C   UNL     1      -7.778   7.860  66.459  1.00  0.00    -0.097 A  
ENDROOT
BRANCH   6   9
HETATM    9  C   UNL     1      -9.581  11.234  67.126  1.00  0.00    -0.177 C  
HETATM   10  O   UNL     1     -11.174  10.478  68.930  1.00  0.00    -0.243 OA 
HETATM   11  O   UNL     1      -9.902  11.359  65.706  1.00  0.00    -0.214 OA 
HETATM   12  C   UNL     1     -10.933  11.179  67.947  1.00  0.00    -0.253 C  
HETATM   13  C   UNL     1     -10.858  12.301  65.407  1.00  0.00    -0.286 A  
HETATM   14  H   UNL     1     -12.624  12.353  68.219  1.00  0.00     0.000 HD 
HETATM   15  C   UNL     1     -10.899  12.798  64.106  1.00  0.00    -0.437 A  
HETATM   16  C   UNL     1     -11.846  13.769  63.762  1.00  0.00    -0.303 A  
HETATM   17  N   UNL     1     -11.871  12.113  67.575  1.00  0.00    -0.305 N  
HETATM   18  C   UNL     1     -11.807  12.734  66.335  1.00  0.00    -0.408 A  
HETATM   19  C   UNL     1     -12.741  13.713  66.004  1.00  0.00    -0.366 A  
HETATM   20  C   UNL     1     -12.751  14.241  64.714  1.00  0.00    -0.191 A  
BRANCH   9  21
HETATM   21  C   UNL     1      -8.723  12.457  67.580  1.00  0.00    -0.178 A  
HETATM   22  C   UNL     1      -6.645  13.730  67.485  1.00  0.00    -0.113 A  
HETATM   23  H   UNL     1      -5.548  15.876  68.274  1.00  0.00     0.000 HD 
HETATM   24  O   UNL     1      -6.443  15.799  68.585  1.00  0.00    -0.107 OA 
HETATM   25  C   UNL     1      -7.210  14.713  68.283  1.00  0.00    -0.117 A  
HETATM   26  C   UNL     1      -8.519  14.599  68.737  1.00  0.00    -0.161 A  
HETATM   27  C   UNL     1      -9.274  13.477  68.382  1.00  0.00    -0.159 A  
HETATM   28  C   UNL     1      -7.396  12.610  67.128  1.00  0.00    -0.043 A  
ENDBRANCH   9  21
ENDBRANCH   6   9
TORSDOF 2
ENDMDL
MODEL      129
REMARK 921   NORMALIZED FREE ENERGY PREDICTED BY IDOCK:   -3.87 KCAL/MOL
REMARK 922        TOTAL FREE ENERGY PREDICTED BY IDOCK:   -5.08 KCAL/MOL
REMARK 923 INTER-LIGAND FREE ENERGY PREDICTED BY IDOCK:   -4.19 KCAL/MOL
REMARK 924 INTRA-LIGAND FREE ENERGY PREDICTED BY IDOCK:   -0.88 KCAL/MOL
REMARK 927      BINDING AFFINITY PREDICTED BY RF-SCORE:    0.00 PKD
ROOT
HETATM    1  O   UNL     1      -9.902   3.374  63.478  1.00  0.00    -0.127 OA 
HETATM    2  C   UNL     1      -9.706   4.188  64.553  1.00  0.00    -0.165 A  
HETATM    3  H   UNL     1      -9.215   3.206  62.842  1.00  0.00     0.000 HD 
HETATM    4  C   UNL     1     -10.710   4.433  65.482  1.00  0.00    -0.126 A  
HETATM    5  C   UNL     1     -10.470   5.312  66.549  1.00  0.00    -0.354 A  
HETATM    6  C   UNL     1      -9.227   5.964  66.699  1.00  0.00    -0.147 A  
HETATM    7  C   UNL     1      -8.239   5.686  65.733  1.00  0.00    -0.122 A  
HETATM    8  C   UNL     1      -8.469   4.795  64.680  1.00  0.00    -0.139 A  
ENDROOT
BRANCH   6   9
HETATM    9  C   UNL     1      -9.037   7.091  67.760  1.00  0.00    -0.126 C  
HETATM   10  O   UNL     1     -10.403   8.724  66.407  1.00  0.00    -0.271 OA 
HETATM   11  O   UNL     1      -7.609   7.211  68.049  1.00  0.00    -0.106 OA 
HETATM   12  C   UNL     1      -9.579   8.504  67.294  1.00  0.00    -0.171 C  
HETATM   13  C   UNL     1      -7.260   8.301  68.810  1.00  0.00    -0.079 A  
HETATM   14  H   UNL     1      -9.680  10.441  68.035  1.00  0.00     0.000 HD 
HETATM   15  C   UNL     1      -6.049   8.256  69.496  1.00  0.00    -0.036 A  
HETATM   16  C   UNL     1      -5.661   9.337  70.296  1.00  0.00    -0.031 A  
HETATM   17  N   UNL     1      -9.161   9.563  68.064  1.00  0.00    -0.130 N  
HETATM   18  C   UNL     1      -8.044   9.455  68.881  1.00  0.00    -0.103 A  
HETATM   19  C   UNL     1      -7.673  10.528  69.689  1.00  0.00    -0.119 A  
HETATM   20  C   UNL     1      -6.481  10.461  70.409  1.00  0.00    -0.125 A  
BRANCH   9  21
HETATM   21  C   UNL     1      -9.794   6.618  69.041  1.00  0.00    -0.149 A  
HETATM   22  C   UNL     1      -9.878   5.255  71.061  1.00  0.00    -0.254 A  
HETATM   23  H   UNL     1     -11.266   4.788  73.132  1.00  0.00     0.000 HD 
HETATM   24  O   UNL     1     -11.660   5.455  72.583  1.00  0.00    -0.282 OA 
HETATM   25  C   UNL     1     -11.080   5.849  71.413  1.00  0.00    -0.248 A  
HETATM   26  C   UNL     1     -11.656   6.825  70.609  1.00  0.00    -0.422 A  
HETATM   27  C   UNL     1     -11.013   7.212  69.430  1.00  0.00    -0.189 A  
HETATM   28  C   UNL     1      -9.232   5.639  69.886  1.00  0.00    -0.173 A  
ENDBRANCH   9  21
ENDBRANCH   6   9
TORSDOF 2
ENDMDL
MODEL      130
REMARK 921   NORMALIZED FREE ENERGY PREDICTED BY IDOCK:   -3.86 KCAL/MOL
REMARK 922        TOTAL FREE ENERGY PREDICTED BY IDOCK:   -5.07 KCAL/MOL
REMARK 923 INTER-LIGAND FREE ENERGY PREDICTED BY IDOCK:   -4.20 KCAL/MOL
REMARK 924 INTRA-LIGAND FREE ENERGY PREDICTED BY IDOCK:   -0.87 KCAL/MOL
REMARK 927      BINDING AFFINITY PREDICTED BY RF-SCORE:    0.00 PKD
ROOT
HETATM    1  O   UNL     1     -12.047   6.330  72.401  1.00  0.00    -0.493 OA 
HETATM    2  C   UNL     1     -11.405   6.107  71.220  1.00  0.00    -0.272 A  
HETATM    3  H   UNL     1     -12.820   6.881  72.457  1.00  0.00     0.000 HD 
HETATM    4  C   UNL     1     -10.275   5.302  71.139  1.00  0.00    -0.294 A  
HETATM    5  C   UNL     1      -9.626   5.138  69.905  1.00  0.00    -0.241 A  
HETATM    6  C   UNL     1     -10.092   5.780  68.738  1.00  0.00    -0.231 A  
HETATM    7  C   UNL     1     -11.241   6.587  68.869  1.00  0.00    -0.341 A  
HETATM    8  C   UNL     1     -11.901   6.736  70.092  1.00  0.00    -0.321 A  
ENDROOT
BRANCH   6   9
HETATM    9  C   UNL     1      -9.253   5.761  67.424  1.00  0.00    -0.109 C  
HETATM   10  O   UNL     1     -11.232   4.996  66.060  1.00  0.00    -0.053 OA 
HETATM   11  O   UNL     1      -8.038   4.986  67.669  1.00  0.00    -0.098 OA 
HETATM   12  C   UNL     1     -10.015   5.130  66.189  1.00  0.00    -0.194 C  
HETATM   13  C   UNL     1      -7.293   4.704  66.548  1.00  0.00    -0.081 A  
HETATM   14  H   UNL     1      -9.634   4.705  64.192  1.00  0.00     0.000 HD 
HETATM   15  C   UNL     1      -5.948   4.387  66.722  1.00  0.00    -0.027 A  
HETATM   16  C   UNL     1      -5.149   4.108  65.607  1.00  0.00    -0.009 A  
HETATM   17  N   UNL     1      -9.214   4.825  65.114  1.00  0.00    -0.155 N  
HETATM   18  C   UNL     1      -7.842   4.677  65.264  1.00  0.00    -0.090 A  
HETATM   19  C   UNL     1      -7.049   4.417  64.149  1.00  0.00    -0.046 A  
HETATM   20  C   UNL     1      -5.693   4.144  64.322  1.00  0.00    -0.014 A  
BRANCH   9  21
HETATM   21  C   UNL     1      -8.877   7.246  67.125  1.00  0.00    -0.125 A  
HETATM   22  C   UNL     1      -9.357   9.363  66.011  1.00  0.00    -0.279 A  
HETATM   23  H   UNL     1      -8.589  11.773  65.828  1.00  0.00     0.000 HD 
HETATM   24  O   UNL     1      -8.055  11.275  66.436  1.00  0.00    -0.165 OA 
HETATM   25  C   UNL     1      -8.292   9.953  66.674  1.00  0.00    -0.125 A  
HETATM   26  C   UNL     1      -7.511   9.224  67.562  1.00  0.00    -0.088 A  
HETATM   27  C   UNL     1      -7.806   7.877  67.791  1.00  0.00    -0.123 A  
HETATM   28  C   UNL     1      -9.656   8.019  66.238  1.00  0.00    -0.223 A  
ENDBRANCH   9  21
ENDBRANCH   6   9
TORSDOF 2
ENDMDL
MODEL      131
REMARK 921   NORMALIZED FREE ENERGY PREDICTED BY IDOCK:   -3.84 KCAL/MOL
REMARK 922        TOTAL FREE ENERGY PREDICTED BY IDOCK:   -5.04 KCAL/MOL
REMARK 923 INTER-LIGAND FREE ENERGY PREDICTED BY IDOCK:   -4.15 KCAL/MOL
REMARK 924 INTRA-LIGAND FREE ENERGY PREDICTED BY IDOCK:   -0.90 KCAL/MOL
REMARK 927      BINDING AFFINITY PREDICTED BY RF-SCORE:    0.00 PKD
ROOT
HETATM    1  O   UNL     1      -5.516  11.559  65.469  1.00  0.00    -0.490 OA 
HETATM    2  C   UNL     1      -6.416  10.793  66.148  1.00  0.00    -0.129 A  
HETATM    3  H   UNL     1      -5.033  11.224  64.723  1.00  0.00     0.000 HD 
HETATM    4  C   UNL     1      -7.123  11.283  67.239  1.00  0.00    -0.114 A  
HETATM    5  C   UNL     1      -8.007  10.440  67.929  1.00  0.00    -0.102 A  
HETATM    6  C   UNL     1      -8.193   9.095  67.544  1.00  0.00    -0.108 A  
HETATM    7  C   UNL     1      -7.455   8.642  66.432  1.00  0.00    -0.087 A  
HETATM    8  C   UNL     1      -6.588   9.485  65.730  1.00  0.00    -0.075 A  
ENDROOT
BRANCH   6   9
HETATM    9  C   UNL     1      -9.013   8.113  68.435  1.00  0.00    -0.136 C  
HETATM   10  O   UNL     1     -10.677   7.679  66.590  1.00  0.00    -0.239 OA 
HETATM   11  O   UNL     1      -9.304   8.779  69.703  1.00  0.00    -0.154 OA 
HETATM   12  C   UNL     1     -10.379   7.648  67.784  1.00  0.00    -0.219 C  
HETATM   13  C   UNL     1     -10.196   8.120  70.515  1.00  0.00    -0.198 A  
HETATM   14  H   UNL     1     -11.999   6.449  68.282  1.00  0.00     0.000 HD 
HETATM   15  C   UNL     1     -10.186   8.422  71.875  1.00  0.00    -0.340 A  
HETATM   16  C   UNL     1     -11.066   7.763  72.741  1.00  0.00    -0.457 A  
HETATM   17  N   UNL     1     -11.252   7.036  68.652  1.00  0.00    -0.005 N  
HETATM   18  C   UNL     1     -11.131   7.206  70.024  1.00  0.00    -0.258 A  
HETATM   19  C   UNL     1     -11.998   6.534  70.882  1.00  0.00    -0.353 A  
HETATM   20  C   UNL     1     -11.955   6.806  72.249  1.00  0.00    -0.245 A  
BRANCH   9  21
HETATM   21  C   UNL     1      -8.090   6.880  68.689  1.00  0.00    -0.121 A  
HETATM   22  C   UNL     1      -6.349   5.780  69.996  1.00  0.00    -0.031 A  
HETATM   23  H   UNL     1      -5.092   3.592  70.258  1.00  0.00     0.000 HD 
HETATM   24  O   UNL     1      -5.733   3.553  69.558  1.00  0.00    -0.016 OA 
HETATM   25  C   UNL     1      -6.511   4.627  69.243  1.00  0.00    -0.036 A  
HETATM   26  C   UNL     1      -7.448   4.570  68.218  1.00  0.00    -0.065 A  
HETATM   27  C   UNL     1      -8.238   5.691  67.946  1.00  0.00    -0.101 A  
HETATM   28  C   UNL     1      -7.137   6.899  69.729  1.00  0.00    -0.068 A  
ENDBRANCH   9  21
ENDBRANCH   6   9
TORSDOF 2
ENDMDL
MODEL      132
REMARK 921   NORMALIZED FREE ENERGY PREDICTED BY IDOCK:   -3.82 KCAL/MOL
REMARK 922        TOTAL FREE ENERGY PREDICTED BY IDOCK:   -5.02 KCAL/MOL
REMARK 923 INTER-LIGAND FREE ENERGY PREDICTED BY IDOCK:   -5.01 KCAL/MOL
REMARK 924 INTRA-LIGAND FREE ENERGY PREDICTED BY IDOCK:   -0.01 KCAL/MOL
REMARK 927      BINDING AFFINITY PREDICTED BY RF-SCORE:    0.00 PKD
ROOT
HETATM    1  O   UNL     1     -11.839  12.491  67.006  1.00  0.00    -0.428 OA 
HETATM    2  C   UNL     1     -11.296  11.466  67.723  1.00  0.00    -0.287 A  
HETATM    3  H   UNL     1     -12.597  12.974  67.315  1.00  0.00     0.000 HD 
HETATM    4  C   UNL     1     -10.188  10.761  67.272  1.00  0.00    -0.245 A  
HETATM    5  C   UNL     1      -9.693   9.687  68.028  1.00  0.00    -0.167 A  
HETATM    6  C   UNL     1     -10.302   9.299  69.241  1.00  0.00    -0.222 A  
HETATM    7  C   UNL     1     -11.424  10.044  69.658  1.00  0.00    -0.210 A  
HETATM    8  C   UNL     1     -11.907  11.126  68.917  1.00  0.00    -0.406 A  
ENDROOT
BRANCH   6   9
HETATM    9  C   UNL     1      -9.878   7.985  69.965  1.00  0.00    -0.185 C  
HETATM   10  O   UNL     1      -9.338   6.844  67.782  1.00  0.00    -0.123 OA 
HETATM   11  O   UNL     1     -10.951   7.602  70.882  1.00  0.00    -0.241 OA 
HETATM   12  C   UNL     1      -9.598   6.776  68.983  1.00  0.00    -0.135 C  
HETATM   13  C   UNL     1     -10.818   6.354  71.442  1.00  0.00    -0.253 A  
HETATM   14  H   UNL     1      -9.058   4.775  69.110  1.00  0.00     0.000 HD 
HETATM   15  C   UNL     1     -11.508   6.093  72.624  1.00  0.00    -0.277 A  
HETATM   16  C   UNL     1     -11.390   4.841  73.238  1.00  0.00    -0.408 A  
HETATM   17  N   UNL     1      -9.521   5.546  69.591  1.00  0.00    -0.133 N  
HETATM   18  C   UNL     1     -10.066   5.337  70.851  1.00  0.00    -0.226 A  
HETATM   19  C   UNL     1      -9.930   4.094  71.465  1.00  0.00    -0.230 A  
HETATM   20  C   UNL     1     -10.585   3.851  72.670  1.00  0.00    -0.170 A  
BRANCH   9  21
HETATM   21  C   UNL     1      -8.591   8.329  70.778  1.00  0.00    -0.147 A  
HETATM   22  C   UNL     1      -7.421   8.492  72.912  1.00  0.00    -0.049 A  
HETATM   23  H   UNL     1      -5.157   8.976  73.948  1.00  0.00     0.000 HD 
HETATM   24  O   UNL     1      -5.135   9.035  73.000  1.00  0.00    -0.061 OA 
HETATM   25  C   UNL     1      -6.251   8.821  72.246  1.00  0.00    -0.061 A  
HETATM   26  C   UNL     1      -6.218   8.907  70.860  1.00  0.00    -0.047 A  
HETATM   27  C   UNL     1      -7.383   8.657  70.128  1.00  0.00    -0.053 A  
HETATM   28  C   UNL     1      -8.585   8.240  72.186  1.00  0.00    -0.249 A  
ENDBRANCH   9  21
ENDBRANCH   6   9
TORSDOF 2
ENDMDL
MODEL      133
REMARK 921   NORMALIZED FREE ENERGY PREDICTED BY IDOCK:   -3.65 KCAL/MOL
REMARK 922        TOTAL FREE ENERGY PREDICTED BY IDOCK:   -4.84 KCAL/MOL
REMARK 923 INTER-LIGAND FREE ENERGY PREDICTED BY IDOCK:   -4.00 KCAL/MOL
REMARK 924 INTRA-LIGAND FREE ENERGY PREDICTED BY IDOCK:   -0.84 KCAL/MOL
REMARK 927      BINDING AFFINITY PREDICTED BY RF-SCORE:    0.00 PKD
ROOT
HETATM    1  O   UNL     1      -9.684   2.541  64.983  1.00  0.00    -0.340 OA 
HETATM    2  C   UNL     1      -9.349   3.328  66.044  1.00  0.00    -0.117 A  
HETATM    3  H   UNL     1      -9.628   2.854  64.088  1.00  0.00     0.000 HD 
HETATM    4  C   UNL     1      -9.431   2.870  67.353  1.00  0.00    -0.132 A  
HETATM    5  C   UNL     1      -9.114   3.733  68.413  1.00  0.00    -0.194 A  
HETATM    6  C   UNL     1      -8.718   5.068  68.181  1.00  0.00    -0.106 A  
HETATM    7  C   UNL     1      -8.649   5.489  66.837  1.00  0.00    -0.110 A  
HETATM    8  C   UNL     1      -8.945   4.625  65.778  1.00  0.00    -0.134 A  
ENDROOT
BRANCH   6   9
HETATM    9  C   UNL     1      -8.570   6.077  69.361  1.00  0.00    -0.122 C  
HETATM   10  O   UNL     1      -6.072   5.740  69.459  1.00  0.00    -0.025 OA 
HETATM   11  O   UNL     1      -9.520   5.701  70.406  1.00  0.00    -0.158 OA 
HETATM   12  C   UNL     1      -7.117   6.116  69.989  1.00  0.00    -0.072 C  
HETATM   13  C   UNL     1      -9.368   6.369  71.597  1.00  0.00    -0.143 A  
HETATM   14  H   UNL     1      -6.127   7.092  71.531  1.00  0.00     0.000 HD 
HETATM   15  C   UNL     1     -10.459   6.417  72.462  1.00  0.00    -0.225 A  
HETATM   16  C   UNL     1     -10.354   7.100  73.679  1.00  0.00    -0.411 A  
HETATM   17  N   UNL     1      -7.033   6.756  71.202  1.00  0.00    -0.069 N  
HETATM   18  C   UNL     1      -8.161   6.953  71.986  1.00  0.00    -0.099 A  
HETATM   19  C   UNL     1      -8.054   7.649  73.188  1.00  0.00    -0.163 A  
HETATM   20  C   UNL     1      -9.161   7.733  74.031  1.00  0.00    -0.226 A  
BRANCH   9  21
HETATM   21  C   UNL     1      -8.948   7.478  68.787  1.00  0.00    -0.129 A  
HETATM   22  C   UNL     1     -10.640   9.135  68.204  1.00  0.00    -0.235 A  
HETATM   23  H   UNL     1     -10.945  11.512  67.373  1.00  0.00     0.000 HD 
HETATM   24  O   UNL     1     -10.028  11.279  67.456  1.00  0.00    -0.179 OA 
HETATM   25  C   UNL     1      -9.643  10.040  67.878  1.00  0.00    -0.145 A  
HETATM   26  C   UNL     1      -8.301   9.698  67.998  1.00  0.00    -0.117 A  
HETATM   27  C   UNL     1      -7.955   8.424  68.456  1.00  0.00    -0.121 A  
HETATM   28  C   UNL     1     -10.300   7.863  68.663  1.00  0.00    -0.224 A  
ENDBRANCH   9  21
ENDBRANCH   6   9
TORSDOF 2
ENDMDL
MODEL      134
REMARK 921   NORMALIZED FREE ENERGY PREDICTED BY IDOCK:   -3.62 KCAL/MOL
REMARK 922        TOTAL FREE ENERGY PREDICTED BY IDOCK:   -4.80 KCAL/MOL
REMARK 923 INTER-LIGAND FREE ENERGY PREDICTED BY IDOCK:   -5.63 KCAL/MOL
REMARK 924 INTRA-LIGAND FREE ENERGY PREDICTED BY IDOCK:    0.83 KCAL/MOL
REMARK 927      BINDING AFFINITY PREDICTED BY RF-SCORE:    0.00 PKD
ROOT
HETATM    1  O   UNL     1      -9.053   3.635  73.570  1.00  0.00    -0.094 OA 
HETATM    2  C   UNL     1      -9.373   4.595  72.658  1.00  0.00    -0.130 A  
HETATM    3  H   UNL     1      -8.445   3.800  74.282  1.00  0.00     0.000 HD 
HETATM    4  C   UNL     1     -10.262   4.354  71.618  1.00  0.00    -0.186 A  
HETATM    5  C   UNL     1     -10.527   5.364  70.681  1.00  0.00    -0.329 A  
HETATM    6  C   UNL     1      -9.904   6.628  70.767  1.00  0.00    -0.198 A  
HETATM    7  C   UNL     1      -9.009   6.828  71.838  1.00  0.00    -0.135 A  
HETATM    8  C   UNL     1      -8.759   5.829  72.784  1.00  0.00    -0.118 A  
ENDROOT
BRANCH   6   9
HETATM    9  C   UNL     1     -10.041   7.669  69.613  1.00  0.00    -0.194 C  
HETATM   10  O   UNL     1     -11.458   6.099  68.239  1.00  0.00    -0.117 OA 
HETATM   11  O   UNL     1      -8.703   8.138  69.259  1.00  0.00    -0.138 OA 
HETATM   12  C   UNL     1     -10.736   7.093  68.313  1.00  0.00    -0.153 C  
HETATM   13  C   UNL     1      -8.639   8.904  68.119  1.00  0.00    -0.130 A  
HETATM   14  H   UNL     1     -11.245   7.754  66.412  1.00  0.00     0.000 HD 
HETATM   15  C   UNL     1      -7.538   9.743  67.959  1.00  0.00    -0.082 A  
HETATM   16  C   UNL     1      -7.440  10.553  66.822  1.00  0.00    -0.115 A  
HETATM   17  N   UNL     1     -10.601   7.878  67.193  1.00  0.00    -0.336 N  
HETATM   18  C   UNL     1      -9.600   8.836  67.109  1.00  0.00    -0.175 A  
HETATM   19  C   UNL     1      -9.517   9.651  65.982  1.00  0.00    -0.284 A  
HETATM   20  C   UNL     1      -8.438  10.523  65.846  1.00  0.00    -0.164 A  
BRANCH   9  21
HETATM   21  C   UNL     1     -10.876   8.854  70.192  1.00  0.00    -0.251 A  
HETATM   22  C   UNL     1     -11.597  11.181  70.081  1.00  0.00    -0.410 A  
HETATM   23  H   UNL     1     -13.164  12.868  71.146  1.00  0.00     0.000 HD 
HETATM   24  O   UNL     1     -13.232  12.013  71.553  1.00  0.00    -0.352 OA 
HETATM   25  C   UNL     1     -12.467  10.963  71.138  1.00  0.00    -0.405 A  
HETATM   26  C   UNL     1     -12.565   9.712  71.734  1.00  0.00    -0.497 A  
HETATM   27  C   UNL     1     -11.777   8.660  71.259  1.00  0.00    -0.341 A  
HETATM   28  C   UNL     1     -10.810  10.134  69.602  1.00  0.00    -0.299 A  
ENDBRANCH   9  21
ENDBRANCH   6   9
TORSDOF 2
ENDMDL
MODEL      135
REMARK 921   NORMALIZED FREE ENERGY PREDICTED BY IDOCK:   -3.61 KCAL/MOL
REMARK 922        TOTAL FREE ENERGY PREDICTED BY IDOCK:   -4.79 KCAL/MOL
REMARK 923 INTER-LIGAND FREE ENERGY PREDICTED BY IDOCK:   -4.07 KCAL/MOL
REMARK 924 INTRA-LIGAND FREE ENERGY PREDICTED BY IDOCK:   -0.73 KCAL/MOL
REMARK 927      BINDING AFFINITY PREDICTED BY RF-SCORE:    0.00 PKD
ROOT
HETATM    1  O   UNL     1      -6.902   3.394  65.890  1.00  0.00    -0.050 OA 
HETATM    2  C   UNL     1      -7.318   4.575  66.429  1.00  0.00    -0.081 A  
HETATM    3  H   UNL     1      -6.453   3.354  65.053  1.00  0.00     0.000 HD 
HETATM    4  C   UNL     1      -7.975   4.633  67.651  1.00  0.00    -0.093 A  
HETATM    5  C   UNL     1      -8.420   5.870  68.143  1.00  0.00    -0.114 A  
HETATM    6  C   UNL     1      -8.220   7.064  67.418  1.00  0.00    -0.119 A  
HETATM    7  C   UNL     1      -7.549   6.956  66.182  1.00  0.00    -0.092 A  
HETATM    8  C   UNL     1      -7.088   5.728  65.700  1.00  0.00    -0.069 A  
ENDROOT
BRANCH   6   9
HETATM    9  C   UNL     1      -8.896   8.396  67.867  1.00  0.00    -0.138 C  
HETATM   10  O   UNL     1     -11.150   7.648  67.020  1.00  0.00    -0.171 OA 
HETATM   11  O   UNL     1      -8.112   9.509  67.332  1.00  0.00    -0.109 OA 
HETATM   12  C   UNL     1     -10.393   8.550  67.376  1.00  0.00    -0.286 C  
HETATM   13  C   UNL     1      -8.694  10.747  67.467  1.00  0.00    -0.125 A  
HETATM   14  H   UNL     1     -11.919   9.953  67.491  1.00  0.00     0.000 HD 
HETATM   15  C   UNL     1      -7.867  11.866  67.412  1.00  0.00    -0.158 A  
HETATM   16  C   UNL     1      -8.414  13.145  67.560  1.00  0.00    -0.198 A  
HETATM   17  N   UNL     1     -10.908   9.819  67.491  1.00  0.00    -0.270 N  
HETATM   18  C   UNL     1     -10.072  10.922  67.608  1.00  0.00    -0.179 A  
HETATM   19  C   UNL     1     -10.623  12.191  67.773  1.00  0.00    -0.229 A  
HETATM   20  C   UNL     1      -9.786  13.306  67.762  1.00  0.00    -0.224 A  
BRANCH   9  21
HETATM   21  C   UNL     1      -8.834   8.413  69.427  1.00  0.00    -0.142 A  
HETATM   22  C   UNL     1      -7.534   8.503  71.488  1.00  0.00    -0.123 A  
HETATM   23  H   UNL     1      -7.746   8.667  74.010  1.00  0.00     0.000 HD 
HETATM   24  O   UNL     1      -8.594   8.665  73.581  1.00  0.00    -0.319 OA 
HETATM   25  C   UNL     1      -8.706   8.572  72.225  1.00  0.00    -0.190 A  
HETATM   26  C   UNL     1      -9.945   8.568  71.597  1.00  0.00    -0.329 A  
HETATM   27  C   UNL     1     -10.009   8.494  70.202  1.00  0.00    -0.187 A  
HETATM   28  C   UNL     1      -7.593   8.431  70.096  1.00  0.00    -0.070 A  
ENDBRANCH   9  21
ENDBRANCH   6   9
TORSDOF 2
ENDMDL
MODEL      136
REMARK 921   NORMALIZED FREE ENERGY PREDICTED BY IDOCK:   -3.59 KCAL/MOL
REMARK 922        TOTAL FREE ENERGY PREDICTED BY IDOCK:   -4.77 KCAL/MOL
REMARK 923 INTER-LIGAND FREE ENERGY PREDICTED BY IDOCK:   -4.09 KCAL/MOL
REMARK 924 INTRA-LIGAND FREE ENERGY PREDICTED BY IDOCK:   -0.67 KCAL/MOL
REMARK 927      BINDING AFFINITY PREDICTED BY RF-SCORE:    0.00 PKD
ROOT
HETATM    1  O   UNL     1      -7.131   7.076  72.128  1.00  0.00    -0.071 OA 
HETATM    2  C   UNL     1      -7.372   7.912  71.080  1.00  0.00    -0.062 A  
HETATM    3  H   UNL     1      -7.809   6.842  72.751  1.00  0.00     0.000 HD 
HETATM    4  C   UNL     1      -6.381   8.254  70.169  1.00  0.00    -0.035 A  
HETATM    5  C   UNL     1      -6.671   9.153  69.130  1.00  0.00    -0.050 A  
HETATM    6  C   UNL     1      -7.953   9.726  68.991  1.00  0.00    -0.096 A  
HETATM    7  C   UNL     1      -8.927   9.350  69.939  1.00  0.00    -0.215 A  
HETATM    8  C   UNL     1      -8.646   8.441  70.962  1.00  0.00    -0.181 A  
ENDROOT
BRANCH   6   9
HETATM    9  C   UNL     1      -8.210  10.875  67.968  1.00  0.00    -0.121 C  
HETATM   10  O   UNL     1      -6.515  12.374  69.083  1.00  0.00    -0.088 OA 
HETATM   11  O   UNL     1      -9.650  11.119  67.906  1.00  0.00    -0.167 OA 
HETATM   12  C   UNL     1      -7.483  12.232  68.336  1.00  0.00    -0.122 C  
HETATM   13  C   UNL     1     -10.020  12.241  67.203  1.00  0.00    -0.205 A  
HETATM   14  H   UNL     1      -7.335  14.160  67.579  1.00  0.00     0.000 HD 
HETATM   15  C   UNL     1     -11.323  12.305  66.716  1.00  0.00    -0.395 A  
HETATM   16  C   UNL     1     -11.738  13.422  65.982  1.00  0.00    -0.398 A  
HETATM   17  N   UNL     1      -7.925  13.330  67.636  1.00  0.00    -0.162 N  
HETATM   18  C   UNL     1      -9.161  13.324  67.005  1.00  0.00    -0.237 A  
HETATM   19  C   UNL     1      -9.562  14.432  66.261  1.00  0.00    -0.321 A  
HETATM   20  C   UNL     1     -10.852  14.473  65.737  1.00  0.00    -0.317 A  
BRANCH   9  21
HETATM   21  C   UNL     1      -7.706  10.351  66.587  1.00  0.00    -0.117 A  
HETATM   22  C   UNL     1      -8.158   9.281  64.442  1.00  0.00    -0.142 A  
HETATM   23  H   UNL     1      -7.094   8.664  62.223  1.00  0.00     0.000 HD 
HETATM   24  O   UNL     1      -6.483   9.107  62.801  1.00  0.00    -0.095 OA 
HETATM   25  C   UNL     1      -6.850   9.516  64.049  1.00  0.00    -0.105 A  
HETATM   26  C   UNL     1      -5.956  10.163  64.893  1.00  0.00    -0.124 A  
HETATM   27  C   UNL     1      -6.384  10.584  66.155  1.00  0.00    -0.119 A  
HETATM   28  C   UNL     1      -8.590   9.700  65.700  1.00  0.00    -0.149 A  
ENDBRANCH   9  21
ENDBRANCH   6   9
TORSDOF 2
ENDMDL
MODEL      137
REMARK 921   NORMALIZED FREE ENERGY PREDICTED BY IDOCK:   -3.58 KCAL/MOL
REMARK 922        TOTAL FREE ENERGY PREDICTED BY IDOCK:   -4.75 KCAL/MOL
REMARK 923 INTER-LIGAND FREE ENERGY PREDICTED BY IDOCK:   -3.94 KCAL/MOL
REMARK 924 INTRA-LIGAND FREE ENERGY PREDICTED BY IDOCK:   -0.81 KCAL/MOL
REMARK 927      BINDING AFFINITY PREDICTED BY RF-SCORE:    0.00 PKD
ROOT
HETATM    1  O   UNL     1      -8.611   8.354  63.772  1.00  0.00    -0.402 OA 
HETATM    2  C   UNL     1      -8.670   7.973  65.080  1.00  0.00     0.070 A  
HETATM    3  H   UNL     1      -8.579   7.720  63.065  1.00  0.00     0.000 HD 
HETATM    4  C   UNL     1      -8.717   8.900  66.114  1.00  0.00    -0.177 A  
HETATM    5  C   UNL     1      -8.736   8.456  67.445  1.00  0.00    -0.136 A  
HETATM    6  C   UNL     1      -8.702   7.081  67.762  1.00  0.00    -0.121 A  
HETATM    7  C   UNL     1      -8.654   6.178  66.681  1.00  0.00    -0.118 A  
HETATM    8  C   UNL     1      -8.655   6.616  65.354  1.00  0.00    -0.065 A  
ENDROOT
BRANCH   6   9
HETATM    9  C   UNL     1      -8.513   6.603  69.234  1.00  0.00    -0.124 C  
HETATM   10  O   UNL     1      -6.303   7.801  69.439  1.00  0.00    -0.034 OA 
HETATM   11  O   UNL     1      -8.702   5.154  69.272  1.00  0.00    -0.095 OA 
HETATM   12  C   UNL     1      -7.090   6.944  69.839  1.00  0.00    -0.071 C  
HETATM   13  C   UNL     1      -8.365   4.555  70.463  1.00  0.00    -0.078 A  
HETATM   14  H   UNL     1      -6.055   6.646  71.614  1.00  0.00     0.000 HD 
HETATM   15  C   UNL     1      -8.917   3.308  70.745  1.00  0.00    -0.165 A  
HETATM   16  C   UNL     1      -8.614   2.669  71.952  1.00  0.00    -0.097 A  
HETATM   17  N   UNL     1      -6.787   6.281  71.005  1.00  0.00    -0.064 N  
HETATM   18  C   UNL     1      -7.464   5.124  71.366  1.00  0.00    -0.091 A  
HETATM   19  C   UNL     1      -7.171   4.502  72.577  1.00  0.00    -0.080 A  
HETATM   20  C   UNL     1      -7.760   3.274  72.875  1.00  0.00    -0.060 A  
BRANCH   9  21
HETATM   21  C   UNL     1      -9.634   7.301  70.067  1.00  0.00    -0.167 A  
HETATM   22  C   UNL     1     -10.381   9.151  71.469  1.00  0.00    -0.414 A  
HETATM   23  H   UNL     1     -12.423  10.127  72.615  1.00  0.00     0.000 HD 
HETATM   24  O   UNL     1     -12.628   9.329  72.142  1.00  0.00    -0.374 OA 
HETATM   25  C   UNL     1     -11.668   8.637  71.463  1.00  0.00    -0.305 A  
HETATM   26  C   UNL     1     -11.967   7.470  70.771  1.00  0.00    -0.224 A  
HETATM   27  C   UNL     1     -10.955   6.807  70.071  1.00  0.00    -0.344 A  
HETATM   28  C   UNL     1      -9.368   8.495  70.771  1.00  0.00    -0.206 A  
ENDBRANCH   9  21
ENDBRANCH   6   9
TORSDOF 2
ENDMDL
MODEL      138
REMARK 921   NORMALIZED FREE ENERGY PREDICTED BY IDOCK:   -3.51 KCAL/MOL
REMARK 922        TOTAL FREE ENERGY PREDICTED BY IDOCK:   -4.68 KCAL/MOL
REMARK 923 INTER-LIGAND FREE ENERGY PREDICTED BY IDOCK:   -3.82 KCAL/MOL
REMARK 924 INTRA-LIGAND FREE ENERGY PREDICTED BY IDOCK:   -0.86 KCAL/MOL
REMARK 927      BINDING AFFINITY PREDICTED BY RF-SCORE:    0.00 PKD
ROOT
HETATM    1  O   UNL     1      -7.493   1.707  65.400  1.00  0.00    -0.055 OA 
HETATM    2  C   UNL     1      -7.837   2.850  66.057  1.00  0.00    -0.081 A  
HETATM    3  H   UNL     1      -6.771   1.678  64.784  1.00  0.00     0.000 HD 
HETATM    4  C   UNL     1      -8.893   2.892  66.958  1.00  0.00    -0.160 A  
HETATM    5  C   UNL     1      -9.232   4.105  67.577  1.00  0.00    -0.184 A  
HETATM    6  C   UNL     1      -8.525   5.294  67.299  1.00  0.00    -0.106 A  
HETATM    7  C   UNL     1      -7.461   5.205  66.378  1.00  0.00    -0.087 A  
HETATM    8  C   UNL     1      -7.109   3.994  65.775  1.00  0.00    -0.067 A  
ENDROOT
BRANCH   6   9
HETATM    9  C   UNL     1      -9.034   6.671  67.827  1.00  0.00    -0.112 C  
HETATM   10  O   UNL     1     -11.251   6.406  66.653  1.00  0.00    -0.245 OA 
HETATM   11  O   UNL     1      -8.024   7.681  67.519  1.00  0.00    -0.116 OA 
HETATM   12  C   UNL     1     -10.413   7.126  67.196  1.00  0.00    -0.319 C  
HETATM   13  C   UNL     1      -8.416   8.980  67.735  1.00  0.00    -0.117 A  
HETATM   14  H   UNL     1     -11.702   8.750  67.308  1.00  0.00     0.000 HD 
HETATM   15  C   UNL     1      -7.423   9.942  67.905  1.00  0.00    -0.089 A  
HETATM   16  C   UNL     1      -7.777  11.274  68.144  1.00  0.00    -0.112 A  
HETATM   17  N   UNL     1     -10.733   8.446  67.404  1.00  0.00    -0.229 N  
HETATM   18  C   UNL     1      -9.756   9.373  67.743  1.00  0.00    -0.151 A  
HETATM   19  C   UNL     1     -10.117  10.694  67.997  1.00  0.00    -0.181 A  
HETATM   20  C   UNL     1      -9.121  11.646  68.211  1.00  0.00    -0.187 A  
BRANCH   9  21
HETATM   21  C   UNL     1      -9.172   6.521  69.375  1.00  0.00    -0.144 A  
HETATM   22  C   UNL     1     -10.571   6.235  71.352  1.00  0.00    -0.284 A  
HETATM   23  H   UNL     1     -10.480   5.862  73.859  1.00  0.00     0.000 HD 
HETATM   24  O   UNL     1      -9.613   5.915  73.476  1.00  0.00    -0.138 OA 
HETATM   25  C   UNL     1      -9.436   6.124  72.140  1.00  0.00    -0.151 A  
HETATM   26  C   UNL     1      -8.167   6.203  71.578  1.00  0.00    -0.118 A  
HETATM   27  C   UNL     1      -8.036   6.396  70.200  1.00  0.00    -0.120 A  
HETATM   28  C   UNL     1     -10.445   6.425  69.976  1.00  0.00    -0.267 A  
ENDBRANCH   9  21
ENDBRANCH   6   9
TORSDOF 2
ENDMDL
MODEL      139
REMARK 921   NORMALIZED FREE ENERGY PREDICTED BY IDOCK:   -3.45 KCAL/MOL
REMARK 922        TOTAL FREE ENERGY PREDICTED BY IDOCK:   -4.61 KCAL/MOL
REMARK 923 INTER-LIGAND FREE ENERGY PREDICTED BY IDOCK:   -3.85 KCAL/MOL
REMARK 924 INTRA-LIGAND FREE ENERGY PREDICTED BY IDOCK:   -0.76 KCAL/MOL
REMARK 927      BINDING AFFINITY PREDICTED BY RF-SCORE:    0.00 PKD
ROOT
HETATM    1  O   UNL     1      -5.595  10.810  63.336  1.00  0.00    -0.298 OA 
HETATM    2  C   UNL     1      -6.012  10.120  64.435  1.00  0.00    -0.138 A  
HETATM    3  H   UNL     1      -5.305  11.713  63.390  1.00  0.00     0.000 HD 
HETATM    4  C   UNL     1      -6.436   8.799  64.355  1.00  0.00    -0.071 A  
HETATM    5  C   UNL     1      -6.895   8.147  65.510  1.00  0.00    -0.062 A  
HETATM    6  C   UNL     1      -6.942   8.805  66.757  1.00  0.00    -0.080 A  
HETATM    7  C   UNL     1      -6.502  10.144  66.790  1.00  0.00    -0.071 A  
HETATM    8  C   UNL     1      -6.026  10.791  65.645  1.00  0.00    -0.108 A  
ENDROOT
BRANCH   6   9
HETATM    9  C   UNL     1      -7.643   8.146  67.985  1.00  0.00    -0.106 C  
HETATM   10  O   UNL     1      -5.733   8.749  69.518  1.00  0.00    -0.033 OA 
HETATM   11  O   UNL     1      -8.039   6.790  67.612  1.00  0.00    -0.114 OA 
HETATM   12  C   UNL     1      -6.731   8.070  69.276  1.00  0.00    -0.040 C  
HETATM   13  C   UNL     1      -8.484   6.008  68.651  1.00  0.00    -0.113 A  
HETATM   14  H   UNL     1      -6.861   7.350  71.219  1.00  0.00     0.000 HD 
HETATM   15  C   UNL     1      -9.282   4.907  68.345  1.00  0.00    -0.157 A  
HETATM   16  C   UNL     1      -9.770   4.093  69.372  1.00  0.00    -0.233 A  
HETATM   17  N   UNL     1      -7.201   7.238  70.264  1.00  0.00    -0.065 N  
HETATM   18  C   UNL     1      -8.131   6.247  69.981  1.00  0.00    -0.120 A  
HETATM   19  C   UNL     1      -8.626   5.450  71.011  1.00  0.00    -0.127 A  
HETATM   20  C   UNL     1      -9.461   4.377  70.704  1.00  0.00    -0.242 A  
BRANCH   9  21
HETATM   21  C   UNL     1      -8.916   9.004  68.273  1.00  0.00    -0.133 A  
HETATM   22  C   UNL     1     -11.103   9.834  67.585  1.00  0.00    -0.118 A  
HETATM   23  H   UNL     1     -13.103  11.174  68.383  1.00  0.00     0.000 HD 
HETATM   24  O   UNL     1     -12.431  11.106  69.051  1.00  0.00    -0.439 OA 
HETATM   25  C   UNL     1     -11.266  10.435  68.823  1.00  0.00    -0.241 A  
HETATM   26  C   UNL     1     -10.281  10.336  69.799  1.00  0.00    -0.262 A  
HETATM   27  C   UNL     1      -9.113   9.618  69.527  1.00  0.00    -0.209 A  
HETATM   28  C   UNL     1      -9.940   9.115  67.309  1.00  0.00    -0.270 A  
ENDBRANCH   9  21
ENDBRANCH   6   9
TORSDOF 2
ENDMDL
MODEL      140
REMARK 921   NORMALIZED FREE ENERGY PREDICTED BY IDOCK:   -3.39 KCAL/MOL
REMARK 922        TOTAL FREE ENERGY PREDICTED BY IDOCK:   -4.54 KCAL/MOL
REMARK 923 INTER-LIGAND FREE ENERGY PREDICTED BY IDOCK:   -3.79 KCAL/MOL
REMARK 924 INTRA-LIGAND FREE ENERGY PREDICTED BY IDOCK:   -0.75 KCAL/MOL
REMARK 927      BINDING AFFINITY PREDICTED BY RF-SCORE:    0.00 PKD
ROOT
HETATM    1  O   UNL     1     -12.813   9.582  72.017  1.00  0.00    -0.381 OA 
HETATM    2  C   UNL     1     -11.810   9.470  71.101  1.00  0.00    -0.358 A  
HETATM    3  H   UNL     1     -13.412  10.319  72.018  1.00  0.00     0.000 HD 
HETATM    4  C   UNL     1     -10.933   8.393  71.099  1.00  0.00    -0.292 A  
HETATM    5  C   UNL     1      -9.891   8.346  70.160  1.00  0.00    -0.183 A  
HETATM    6  C   UNL     1      -9.707   9.378  69.214  1.00  0.00    -0.173 A  
HETATM    7  C   UNL     1     -10.620  10.451  69.254  1.00  0.00    -0.259 A  
HETATM    8  C   UNL     1     -11.670  10.490  70.176  1.00  0.00    -0.410 A  
ENDROOT
BRANCH   6   9
HETATM    9  C   UNL     1      -8.433   9.423  68.316  1.00  0.00    -0.120 C  
HETATM   10  O   UNL     1      -7.236  10.950  69.928  1.00  0.00    -0.118 OA 
HETATM   11  O   UNL     1      -8.843   9.773  66.958  1.00  0.00    -0.133 OA 
HETATM   12  C   UNL     1      -7.346  10.467  68.801  1.00  0.00    -0.089 C  
HETATM   13  C   UNL     1      -7.812  10.055  66.093  1.00  0.00    -0.114 A  
HETATM   14  H   UNL     1      -5.484  11.154  68.192  1.00  0.00     0.000 HD 
HETATM   15  C   UNL     1      -8.060   9.953  64.727  1.00  0.00    -0.151 A  
HETATM   16  C   UNL     1      -7.035  10.215  63.811  1.00  0.00    -0.105 A  
HETATM   17  N   UNL     1      -6.365  10.746  67.880  1.00  0.00    -0.061 N  
HETATM   18  C   UNL     1      -6.556  10.481  66.531  1.00  0.00    -0.100 A  
HETATM   19  C   UNL     1      -5.526  10.728  65.626  1.00  0.00    -0.141 A  
HETATM   20  C   UNL     1      -5.764  10.581  64.261  1.00  0.00    -0.100 A  
BRANCH   9  21
HETATM   21  C   UNL     1      -7.838   7.980  68.329  1.00  0.00    -0.123 A  
HETATM   22  C   UNL     1      -7.822   5.695  67.476  1.00  0.00    -0.101 A  
HETATM   23  H   UNL     1      -6.566   3.495  67.605  1.00  0.00     0.000 HD 
HETATM   24  O   UNL     1      -6.175   4.161  68.158  1.00  0.00    -0.031 OA 
HETATM   25  C   UNL     1      -6.702   5.415  68.244  1.00  0.00    -0.054 A  
HETATM   26  C   UNL     1      -6.130   6.390  69.053  1.00  0.00    -0.029 A  
HETATM   27  C   UNL     1      -6.693   7.669  69.091  1.00  0.00    -0.048 A  
HETATM   28  C   UNL     1      -8.386   6.970  67.510  1.00  0.00    -0.119 A  
ENDBRANCH   9  21
ENDBRANCH   6   9
TORSDOF 2
ENDMDL
MODEL      141
REMARK 921   NORMALIZED FREE ENERGY PREDICTED BY IDOCK:   -3.37 KCAL/MOL
REMARK 922        TOTAL FREE ENERGY PREDICTED BY IDOCK:   -4.52 KCAL/MOL
REMARK 923 INTER-LIGAND FREE ENERGY PREDICTED BY IDOCK:   -4.68 KCAL/MOL
REMARK 924 INTRA-LIGAND FREE ENERGY PREDICTED BY IDOCK:    0.16 KCAL/MOL
REMARK 927      BINDING AFFINITY PREDICTED BY RF-SCORE:    0.00 PKD
ROOT
HETATM    1  O   UNL     1      -8.937   1.891  63.369  1.00  0.00    -0.087 OA 
HETATM    2  C   UNL     1      -9.095   2.743  64.420  1.00  0.00    -0.122 A  
HETATM    3  H   UNL     1      -8.198   1.296  63.310  1.00  0.00     0.000 HD 
HETATM    4  C   UNL     1     -10.175   3.613  64.505  1.00  0.00    -0.176 A  
HETATM    5  C   UNL     1     -10.270   4.499  65.589  1.00  0.00    -0.275 A  
HETATM    6  C   UNL     1      -9.286   4.533  66.599  1.00  0.00    -0.138 A  
HETATM    7  C   UNL     1      -8.208   3.632  66.472  1.00  0.00    -0.100 A  
HETATM    8  C   UNL     1      -8.121   2.735  65.403  1.00  0.00    -0.087 A  
ENDROOT
BRANCH   6   9
HETATM    9  C   UNL     1      -9.288   5.655  67.683  1.00  0.00    -0.110 C  
HETATM   10  O   UNL     1      -6.865   5.244  68.248  1.00  0.00    -0.053 OA 
HETATM   11  O   UNL     1     -10.421   5.424  68.577  1.00  0.00    -0.177 OA 
HETATM   12  C   UNL     1      -7.964   5.710  68.548  1.00  0.00    -0.100 C  
HETATM   13  C   UNL     1     -10.439   6.209  69.706  1.00  0.00    -0.239 A  
HETATM   14  H   UNL     1      -7.201   6.808  70.136  1.00  0.00     0.000 HD 
HETATM   15  C   UNL     1     -11.657   6.385  70.358  1.00  0.00    -0.440 A  
HETATM   16  C   UNL     1     -11.725   7.188  71.502  1.00  0.00    -0.324 A  
HETATM   17  N   UNL     1      -8.053   6.471  69.689  1.00  0.00    -0.123 N  
HETATM   18  C   UNL     1      -9.287   6.788  70.241  1.00  0.00    -0.159 A  
HETATM   19  C   UNL     1      -9.349   7.602  71.370  1.00  0.00    -0.157 A  
HETATM   20  C   UNL     1     -10.577   7.813  71.994  1.00  0.00    -0.279 A  
BRANCH   9  21
HETATM   21  C   UNL     1      -9.489   7.001  66.918  1.00  0.00    -0.199 A  
HETATM   22  C   UNL     1     -10.679   9.110  66.633  1.00  0.00    -0.049 A  
HETATM   23  H   UNL     1     -10.675  11.275  65.310  1.00  0.00     0.000 HD 
HETATM   24  O   UNL     1      -9.961  10.701  65.057  1.00  0.00    -0.261 OA 
HETATM   25  C   UNL     1      -9.787   9.480  65.639  1.00  0.00    -0.272 A  
HETATM   26  C   UNL     1      -8.743   8.641  65.269  1.00  0.00    -0.200 A  
HETATM   27  C   UNL     1      -8.591   7.408  65.910  1.00  0.00    -0.165 A  
HETATM   28  C   UNL     1     -10.531   7.882  67.276  1.00  0.00    -0.390 A  
ENDBRANCH   9  21
ENDBRANCH   6   9
TORSDOF 2
ENDMDL
MODEL      142
REMARK 921   NORMALIZED FREE ENERGY PREDICTED BY IDOCK:   -3.35 KCAL/MOL
REMARK 922        TOTAL FREE ENERGY PREDICTED BY IDOCK:   -4.50 KCAL/MOL
REMARK 923 INTER-LIGAND FREE ENERGY PREDICTED BY IDOCK:   -3.66 KCAL/MOL
REMARK 924 INTRA-LIGAND FREE ENERGY PREDICTED BY IDOCK:   -0.83 KCAL/MOL
REMARK 927      BINDING AFFINITY PREDICTED BY RF-SCORE:    0.00 PKD
ROOT
HETATM    1  O   UNL     1      -8.813  14.131  66.750  1.00  0.00    -0.324 OA 
HETATM    2  C   UNL     1      -8.549  12.832  67.070  1.00  0.00    -0.177 A  
HETATM    3  H   UNL     1      -8.478  14.854  67.267  1.00  0.00     0.000 HD 
HETATM    4  C   UNL     1      -9.039  11.775  66.314  1.00  0.00    -0.209 A  
HETATM    5  C   UNL     1      -8.773  10.455  66.711  1.00  0.00    -0.132 A  
HETATM    6  C   UNL     1      -8.020  10.174  67.871  1.00  0.00    -0.101 A  
HETATM    7  C   UNL     1      -7.544  11.278  68.607  1.00  0.00    -0.129 A  
HETATM    8  C   UNL     1      -7.791  12.594  68.203  1.00  0.00    -0.145 A  
ENDROOT
BRANCH   6   9
HETATM    9  C   UNL     1      -7.905   8.718  68.418  1.00  0.00    -0.104 C  
HETATM   10  O   UNL     1      -5.454   9.007  68.939  1.00  0.00    -0.036 OA 
HETATM   11  O   UNL     1      -8.460   7.808  67.418  1.00  0.00    -0.118 OA 
HETATM   12  C   UNL     1      -6.420   8.272  68.739  1.00  0.00    -0.053 C  
HETATM   13  C   UNL     1      -8.244   6.473  67.663  1.00  0.00    -0.122 A  
HETATM   14  H   UNL     1      -5.429   6.580  69.423  1.00  0.00     0.000 HD 
HETATM   15  C   UNL     1      -9.088   5.552  67.047  1.00  0.00    -0.112 A  
HETATM   16  C   UNL     1      -8.914   4.183  67.280  1.00  0.00    -0.142 A  
HETATM   17  N   UNL     1      -6.254   6.920  68.929  1.00  0.00    -0.026 N  
HETATM   18  C   UNL     1      -7.193   6.012  68.458  1.00  0.00    -0.084 A  
HETATM   19  C   UNL     1      -7.023   4.652  68.708  1.00  0.00    -0.052 A  
HETATM   20  C   UNL     1      -7.898   3.736  68.126  1.00  0.00    -0.072 A  
BRANCH   9  21
HETATM   21  C   UNL     1      -8.775   8.668  69.713  1.00  0.00    -0.132 A  
HETATM   22  C   UNL     1     -10.963   8.554  70.784  1.00  0.00    -0.282 A  
HETATM   23  H   UNL     1     -12.105   8.331  73.038  1.00  0.00     0.000 HD 
HETATM   24  O   UNL     1     -11.158   8.329  73.117  1.00  0.00    -0.142 OA 
HETATM   25  C   UNL     1     -10.352   8.450  72.024  1.00  0.00    -0.304 A  
HETATM   26  C   UNL     1      -8.967   8.448  72.139  1.00  0.00    -0.293 A  
HETATM   27  C   UNL     1      -8.182   8.551  70.987  1.00  0.00    -0.163 A  
HETATM   28  C   UNL     1     -10.183   8.655  69.632  1.00  0.00    -0.208 A  
ENDBRANCH   9  21
ENDBRANCH   6   9
TORSDOF 2
ENDMDL
MODEL      143
REMARK 921   NORMALIZED FREE ENERGY PREDICTED BY IDOCK:   -3.34 KCAL/MOL
REMARK 922        TOTAL FREE ENERGY PREDICTED BY IDOCK:   -4.48 KCAL/MOL
REMARK 923 INTER-LIGAND FREE ENERGY PREDICTED BY IDOCK:   -3.70 KCAL/MOL
REMARK 924 INTRA-LIGAND FREE ENERGY PREDICTED BY IDOCK:   -0.78 KCAL/MOL
REMARK 927      BINDING AFFINITY PREDICTED BY RF-SCORE:    0.00 PKD
ROOT
HETATM    1  O   UNL     1      -9.404   4.672  63.894  1.00  0.00    -0.298 OA 
HETATM    2  C   UNL     1      -9.256   4.981  65.213  1.00  0.00    -0.118 A  
HETATM    3  H   UNL     1     -10.253   4.471  63.518  1.00  0.00     0.000 HD 
HETATM    4  C   UNL     1      -8.015   5.275  65.764  1.00  0.00    -0.105 A  
HETATM    5  C   UNL     1      -7.911   5.547  67.137  1.00  0.00    -0.101 A  
HETATM    6  C   UNL     1      -9.043   5.521  67.980  1.00  0.00    -0.110 A  
HETATM    7  C   UNL     1     -10.281   5.218  67.377  1.00  0.00    -0.240 A  
HETATM    8  C   UNL     1     -10.391   4.967  66.006  1.00  0.00    -0.307 A  
ENDROOT
BRANCH   6   9
HETATM    9  C   UNL     1      -8.891   5.617  69.529  1.00  0.00    -0.112 C  
HETATM   10  O   UNL     1      -7.086   3.856  69.555  1.00  0.00    -0.045 OA 
HETATM   11  O   UNL     1     -10.218   5.485  70.128  1.00  0.00    -0.218 OA 
HETATM   12  C   UNL     1      -7.944   4.510  70.147  1.00  0.00    -0.063 C  
HETATM   13  C   UNL     1     -10.226   5.341  71.495  1.00  0.00    -0.212 A  
HETATM   14  H   UNL     1      -7.269   3.926  72.022  1.00  0.00     0.000 HD 
HETATM   15  C   UNL     1     -11.400   5.657  72.176  1.00  0.00    -0.277 A  
HETATM   16  C   UNL     1     -11.449   5.541  73.570  1.00  0.00     0.162 A  
HETATM   17  N   UNL     1      -8.028   4.378  71.513  1.00  0.00    -0.081 N  
HETATM   18  C   UNL     1      -9.131   4.852  72.210  1.00  0.00    -0.130 A  
HETATM   19  C   UNL     1      -9.167   4.750  73.599  1.00  0.00    -0.121 A  
HETATM   20  C   UNL     1     -10.328   5.109  74.281  1.00  0.00    -0.314 A  
BRANCH   9  21
HETATM   21  C   UNL     1      -8.321   7.040  69.825  1.00  0.00    -0.132 A  
HETATM   22  C   UNL     1      -6.449   8.481  70.430  1.00  0.00    -0.036 A  
HETATM   23  H   UNL     1      -5.770  10.910  70.705  1.00  0.00     0.000 HD 
HETATM   24  O   UNL     1      -6.676  10.822  70.432  1.00  0.00    -0.279 OA 
HETATM   25  C   UNL     1      -7.246   9.599  70.236  1.00  0.00    -0.135 A  
HETATM   26  C   UNL     1      -8.570   9.470  69.836  1.00  0.00    -0.217 A  
HETATM   27  C   UNL     1      -9.105   8.196  69.626  1.00  0.00    -0.151 A  
HETATM   28  C   UNL     1      -6.977   7.208  70.220  1.00  0.00    -0.061 A  
ENDBRANCH   9  21
ENDBRANCH   6   9
TORSDOF 2
ENDMDL
MODEL      144
REMARK 921   NORMALIZED FREE ENERGY PREDICTED BY IDOCK:   -3.29 KCAL/MOL
REMARK 922        TOTAL FREE ENERGY PREDICTED BY IDOCK:   -4.43 KCAL/MOL
REMARK 923 INTER-LIGAND FREE ENERGY PREDICTED BY IDOCK:   -3.74 KCAL/MOL
REMARK 924 INTRA-LIGAND FREE ENERGY PREDICTED BY IDOCK:   -0.68 KCAL/MOL
REMARK 927      BINDING AFFINITY PREDICTED BY RF-SCORE:    0.00 PKD
ROOT
HETATM    1  O   UNL     1      -9.788  13.344  66.461  1.00  0.00    -0.271 OA 
HETATM    2  C   UNL     1      -9.542  12.190  67.144  1.00  0.00    -0.194 A  
HETATM    3  H   UNL     1      -9.387  14.169  66.707  1.00  0.00     0.000 HD 
HETATM    4  C   UNL     1     -10.129  10.983  66.784  1.00  0.00    -0.260 A  
HETATM    5  C   UNL     1      -9.874   9.833  67.546  1.00  0.00    -0.209 A  
HETATM    6  C   UNL     1      -9.037   9.873  68.681  1.00  0.00    -0.132 A  
HETATM    7  C   UNL     1      -8.464  11.119  69.009  1.00  0.00    -0.044 A  
HETATM    8  C   UNL     1      -8.700  12.262  68.240  1.00  0.00    -0.178 A  
ENDROOT
BRANCH   6   9
HETATM    9  C   UNL     1      -8.925   8.646  69.638  1.00  0.00    -0.145 C  
HETATM   10  O   UNL     1     -11.000   9.325  70.902  1.00  0.00    -0.249 OA 
HETATM   11  O   UNL     1      -7.569   8.614  70.184  1.00  0.00    -0.063 OA 
HETATM   12  C   UNL     1      -9.953   8.679  70.841  1.00  0.00    -0.206 C  
HETATM   13  C   UNL     1      -7.374   7.712  71.203  1.00  0.00    -0.073 A  
HETATM   14  H   UNL     1     -10.425   7.526  72.502  1.00  0.00     0.000 HD 
HETATM   15  C   UNL     1      -6.071   7.295  71.464  1.00  0.00    -0.037 A  
HETATM   16  C   UNL     1      -5.828   6.366  72.482  1.00  0.00    -0.038 A  
HETATM   17  N   UNL     1      -9.684   7.789  71.853  1.00  0.00    -0.164 N  
HETATM   18  C   UNL     1      -8.417   7.243  72.005  1.00  0.00    -0.106 A  
HETATM   19  C   UNL     1      -8.185   6.305  73.009  1.00  0.00    -0.114 A  
HETATM   20  C   UNL     1      -6.885   5.856  73.238  1.00  0.00    -0.083 A  
BRANCH   9  21
HETATM   21  C   UNL     1      -9.166   7.381  68.756  1.00  0.00    -0.144 A  
HETATM   22  C   UNL     1     -10.554   5.474  68.134  1.00  0.00    -0.207 A  
HETATM   23  H   UNL     1     -10.752   3.572  66.467  1.00  0.00     0.000 HD 
HETATM   24  O   UNL     1      -9.983   4.107  66.308  1.00  0.00    -0.216 OA 
HETATM   25  C   UNL     1      -9.683   5.177  67.098  1.00  0.00    -0.157 A  
HETATM   26  C   UNL     1      -8.557   5.958  66.866  1.00  0.00    -0.111 A  
HETATM   27  C   UNL     1      -8.303   7.059  67.689  1.00  0.00    -0.117 A  
HETATM   28  C   UNL     1     -10.306   6.573  68.956  1.00  0.00    -0.226 A  
ENDBRANCH   9  21
ENDBRANCH   6   9
TORSDOF 2
ENDMDL
MODEL      145
REMARK 921   NORMALIZED FREE ENERGY PREDICTED BY IDOCK:   -3.28 KCAL/MOL
REMARK 922        TOTAL FREE ENERGY PREDICTED BY IDOCK:   -4.42 KCAL/MOL
REMARK 923 INTER-LIGAND FREE ENERGY PREDICTED BY IDOCK:   -3.57 KCAL/MOL
REMARK 924 INTRA-LIGAND FREE ENERGY PREDICTED BY IDOCK:   -0.84 KCAL/MOL
REMARK 927      BINDING AFFINITY PREDICTED BY RF-SCORE:    0.00 PKD
ROOT
HETATM    1  O   UNL     1      -7.676   1.910  65.149  1.00  0.00    -0.069 OA 
HETATM    2  C   UNL     1      -7.880   3.167  65.637  1.00  0.00    -0.085 A  
HETATM    3  H   UNL     1      -7.561   1.744  64.221  1.00  0.00     0.000 HD 
HETATM    4  C   UNL     1      -8.049   3.410  66.994  1.00  0.00    -0.083 A  
HETATM    5  C   UNL     1      -8.298   4.717  67.440  1.00  0.00    -0.104 A  
HETATM    6  C   UNL     1      -8.389   5.798  66.537  1.00  0.00    -0.111 A  
HETATM    7  C   UNL     1      -8.211   5.503  65.169  1.00  0.00    -0.141 A  
HETATM    8  C   UNL     1      -7.944   4.205  64.724  1.00  0.00    -0.093 A  
ENDROOT
BRANCH   6   9
HETATM    9  C   UNL     1      -8.869   7.203  67.014  1.00  0.00    -0.124 C  
HETATM   10  O   UNL     1     -11.011   6.256  67.949  1.00  0.00    -0.306 OA 
HETATM   11  O   UNL     1      -8.768   8.127  65.886  1.00  0.00    -0.143 OA 
HETATM   12  C   UNL     1     -10.358   7.220  67.551  1.00  0.00    -0.242 C  
HETATM   13  C   UNL     1      -9.350   9.356  66.089  1.00  0.00    -0.205 A  
HETATM   14  H   UNL     1     -11.715   8.603  68.295  1.00  0.00     0.000 HD 
HETATM   15  C   UNL     1      -8.927  10.417  65.292  1.00  0.00    -0.212 A  
HETATM   16  C   UNL     1      -9.480  11.690  65.475  1.00  0.00    -0.215 A  
HETATM   17  N   UNL     1     -10.904   8.473  67.691  1.00  0.00    -0.102 N  
HETATM   18  C   UNL     1     -10.368   9.565  67.021  1.00  0.00    -0.250 A  
HETATM   19  C   UNL     1     -10.912  10.832  67.220  1.00  0.00    -0.359 A  
HETATM   20  C   UNL     1     -10.455  11.901  66.452  1.00  0.00    -0.258 A  
BRANCH   9  21
HETATM   21  C   UNL     1      -7.883   7.641  68.142  1.00  0.00    -0.121 A  
HETATM   22  C   UNL     1      -7.383   7.940  70.510  1.00  0.00    -0.067 A  
HETATM   23  H   UNL     1      -5.532   8.576  72.124  1.00  0.00     0.000 HD 
HETATM   24  O   UNL     1      -5.241   8.601  71.220  1.00  0.00    -0.031 OA 
HETATM   25  C   UNL     1      -6.084   8.303  70.191  1.00  0.00    -0.031 A  
HETATM   26  C   UNL     1      -5.658   8.341  68.869  1.00  0.00    -0.039 A  
HETATM   27  C   UNL     1      -6.553   8.006  67.848  1.00  0.00    -0.053 A  
HETATM   28  C   UNL     1      -8.279   7.603  69.496  1.00  0.00    -0.129 A  
ENDBRANCH   9  21
ENDBRANCH   6   9
TORSDOF 2
ENDMDL
MODEL      146
REMARK 921   NORMALIZED FREE ENERGY PREDICTED BY IDOCK:   -3.14 KCAL/MOL
REMARK 922        TOTAL FREE ENERGY PREDICTED BY IDOCK:   -4.26 KCAL/MOL
REMARK 923 INTER-LIGAND FREE ENERGY PREDICTED BY IDOCK:   -3.32 KCAL/MOL
REMARK 924 INTRA-LIGAND FREE ENERGY PREDICTED BY IDOCK:   -0.94 KCAL/MOL
REMARK 927      BINDING AFFINITY PREDICTED BY RF-SCORE:    0.00 PKD
ROOT
HETATM    1  O   UNL     1      -7.597   2.594  71.909  1.00  0.00    -0.046 OA 
HETATM    2  C   UNL     1      -7.725   3.681  71.097  1.00  0.00    -0.051 A  
HETATM    3  H   UNL     1      -7.004   1.881  71.704  1.00  0.00     0.000 HD 
HETATM    4  C   UNL     1      -8.592   4.724  71.396  1.00  0.00    -0.125 A  
HETATM    5  C   UNL     1      -8.717   5.802  70.506  1.00  0.00    -0.140 A  
HETATM    6  C   UNL     1      -7.983   5.850  69.301  1.00  0.00    -0.099 A  
HETATM    7  C   UNL     1      -7.116   4.769  69.039  1.00  0.00    -0.052 A  
HETATM    8  C   UNL     1      -6.975   3.704  69.934  1.00  0.00    -0.041 A  
ENDROOT
BRANCH   6   9
HETATM    9  C   UNL     1      -8.279   6.938  68.225  1.00  0.00    -0.123 C  
HETATM   10  O   UNL     1      -5.852   7.614  68.105  1.00  0.00    -0.036 OA 
HETATM   11  O   UNL     1      -9.372   7.778  68.712  1.00  0.00    -0.146 OA 
HETATM   12  C   UNL     1      -7.039   7.865  67.896  1.00  0.00    -0.086 C  
HETATM   13  C   UNL     1      -9.612   8.909  67.969  1.00  0.00    -0.148 A  
HETATM   14  H   UNL     1      -6.606   9.494  66.684  1.00  0.00     0.000 HD 
HETATM   15  C   UNL     1     -10.867   9.504  68.074  1.00  0.00    -0.225 A  
HETATM   16  C   UNL     1     -11.160  10.649  67.324  1.00  0.00    -0.313 A  
HETATM   17  N   UNL     1      -7.343   9.005  67.192  1.00  0.00    -0.086 N  
HETATM   18  C   UNL     1      -8.640   9.501  67.161  1.00  0.00    -0.132 A  
HETATM   19  C   UNL     1      -8.929  10.630  66.398  1.00  0.00    -0.176 A  
HETATM   20  C   UNL     1     -10.200  11.198  66.471  1.00  0.00    -0.275 A  
BRANCH   9  21
HETATM   21  C   UNL     1      -8.736   6.173  66.944  1.00  0.00    -0.109 A  
HETATM   22  C   UNL     1      -8.254   5.316  64.711  1.00  0.00    -0.130 A  
HETATM   23  H   UNL     1      -9.212   3.906  62.833  1.00  0.00     0.000 HD 
HETATM   24  O   UNL     1      -9.808   3.970  63.571  1.00  0.00    -0.157 OA 
HETATM   25  C   UNL     1      -9.491   4.692  64.683  1.00  0.00    -0.046 A  
HETATM   26  C   UNL     1     -10.362   4.786  65.761  1.00  0.00    -0.268 A  
HETATM   27  C   UNL     1      -9.984   5.519  66.890  1.00  0.00    -0.204 A  
HETATM   28  C   UNL     1      -7.871   6.048  65.836  1.00  0.00    -0.106 A  
ENDBRANCH   9  21
ENDBRANCH   6   9
TORSDOF 2
ENDMDL
MODEL      147
REMARK 921   NORMALIZED FREE ENERGY PREDICTED BY IDOCK:   -3.13 KCAL/MOL
REMARK 922        TOTAL FREE ENERGY PREDICTED BY IDOCK:   -4.25 KCAL/MOL
REMARK 923 INTER-LIGAND FREE ENERGY PREDICTED BY IDOCK:   -3.73 KCAL/MOL
REMARK 924 INTRA-LIGAND FREE ENERGY PREDICTED BY IDOCK:   -0.52 KCAL/MOL
REMARK 927      BINDING AFFINITY PREDICTED BY RF-SCORE:    0.00 PKD
ROOT
HETATM    1  O   UNL     1      -8.501  11.699  68.881  1.00  0.00    -0.340 OA 
HETATM    2  C   UNL     1      -8.275  13.025  68.657  1.00  0.00     0.011 A  
HETATM    3  H   UNL     1      -7.943  11.025  68.511  1.00  0.00     0.000 HD 
HETATM    4  C   UNL     1      -9.091  14.011  69.197  1.00  0.00     0.282 A  
HETATM    5  C   UNL     1      -8.840  15.360  68.902  1.00  0.00    -0.211 A  
HETATM    6  C   UNL     1      -7.774  15.742  68.059  1.00  0.00    -0.136 A  
HETATM    7  C   UNL     1      -6.973  14.707  67.534  1.00  0.00    -0.193 A  
HETATM    8  C   UNL     1      -7.210  13.364  67.841  1.00  0.00    -0.133 A  
ENDROOT
BRANCH   6   9
HETATM    9  C   UNL     1      -7.628  17.215  67.571  1.00  0.00    -0.170 C  
HETATM   10  O   UNL     1     -10.109  17.429  67.173  1.00  0.00    -0.288 OA 
HETATM   11  O   UNL     1      -6.594  17.254  66.538  1.00  0.00    -0.205 OA 
HETATM   12  C   UNL     1      -8.961  17.826  66.975  1.00  0.00    -0.252 C  
HETATM   13  C   UNL     1      -6.492  18.447  65.862  1.00  0.00    -0.255 A  
HETATM   14  H   UNL     1      -9.594  19.606  66.114  1.00  0.00     0.000 HD 
HETATM   15  C   UNL     1      -5.293  18.728  65.211  1.00  0.00    -0.219 A  
HETATM   16  C   UNL     1      -5.140  19.937  64.524  1.00  0.00    -0.191 A  
HETATM   17  N   UNL     1      -8.794  18.994  66.270  1.00  0.00    -0.311 N  
HETATM   18  C   UNL     1      -7.550  19.353  65.767  1.00  0.00    -0.196 A  
HETATM   19  C   UNL     1      -7.400  20.567  65.099  1.00  0.00     0.122 A  
HETATM   20  C   UNL     1      -6.184  20.864  64.487  1.00  0.00    -0.317 A  
BRANCH   9  21
HETATM   21  C   UNL     1      -7.162  18.042  68.811  1.00  0.00    -0.283 A  
HETATM   22  C   UNL     1      -5.523  18.477  70.563  1.00  0.00    -0.229 A  
HETATM   23  H   UNL     1      -4.950  20.076  72.448  1.00  0.00     0.000 HD 
HETATM   24  O   UNL     1      -5.750  20.325  72.000  1.00  0.00    -0.476 OA 
HETATM   25  C   UNL     1      -6.243  19.593  70.961  1.00  0.00     0.025 A  
HETATM   26  C   UNL     1      -7.413  19.957  70.306  1.00  0.00     0.596 A  
HETATM   27  C   UNL     1      -7.868  19.187  69.231  1.00  0.00    -0.120 A  
HETATM   28  C   UNL     1      -5.972  17.707  69.491  1.00  0.00    -0.243 A  
ENDBRANCH   9  21
ENDBRANCH   6   9
TORSDOF 2
ENDMDL
MODEL      148
REMARK 921   NORMALIZED FREE ENERGY PREDICTED BY IDOCK:   -3.12 KCAL/MOL
REMARK 922        TOTAL FREE ENERGY PREDICTED BY IDOCK:   -4.25 KCAL/MOL
REMARK 923 INTER-LIGAND FREE ENERGY PREDICTED BY IDOCK:   -4.05 KCAL/MOL
REMARK 924 INTRA-LIGAND FREE ENERGY PREDICTED BY IDOCK:   -0.19 KCAL/MOL
REMARK 927      BINDING AFFINITY PREDICTED BY RF-SCORE:    0.00 PKD
ROOT
HETATM    1  O   UNL     1      -5.302   7.726  74.565  1.00  0.00    -0.065 OA 
HETATM    2  C   UNL     1      -6.263   7.566  73.612  1.00  0.00    -0.064 A  
HETATM    3  H   UNL     1      -4.671   8.435  74.528  1.00  0.00     0.000 HD 
HETATM    4  C   UNL     1      -7.186   6.529  73.666  1.00  0.00    -0.081 A  
HETATM    5  C   UNL     1      -8.130   6.385  72.638  1.00  0.00    -0.105 A  
HETATM    6  C   UNL     1      -8.161   7.270  71.539  1.00  0.00    -0.105 A  
HETATM    7  C   UNL     1      -7.206   8.307  71.527  1.00  0.00    -0.087 A  
HETATM    8  C   UNL     1      -6.277   8.464  72.559  1.00  0.00    -0.074 A  
ENDROOT
BRANCH   6   9
HETATM    9  C   UNL     1      -9.070   6.982  70.304  1.00  0.00    -0.156 C  
HETATM   10  O   UNL     1     -10.393   5.244  71.565  1.00  0.00    -0.211 OA 
HETATM   11  O   UNL     1      -8.208   6.725  69.152  1.00  0.00    -0.118 OA 
HETATM   12  C   UNL     1     -10.038   5.745  70.499  1.00  0.00    -0.208 C  
HETATM   13  C   UNL     1      -8.857   6.253  68.036  1.00  0.00    -0.112 A  
HETATM   14  H   UNL     1     -11.465   4.713  69.399  1.00  0.00     0.000 HD 
HETATM   15  C   UNL     1      -8.229   6.408  66.802  1.00  0.00    -0.110 A  
HETATM   16  C   UNL     1      -8.859   5.956  65.638  1.00  0.00    -0.126 A  
HETATM   17  N   UNL     1     -10.623   5.285  69.343  1.00  0.00    -0.218 N  
HETATM   18  C   UNL     1     -10.084   5.589  68.100  1.00  0.00    -0.172 A  
HETATM   19  C   UNL     1     -10.725   5.152  66.943  1.00  0.00    -0.148 A  
HETATM   20  C   UNL     1     -10.115   5.349  65.706  1.00  0.00     0.039 A  
BRANCH   9  21
HETATM   21  C   UNL     1      -9.899   8.283  70.060  1.00  0.00    -0.182 A  
HETATM   22  C   UNL     1     -11.523   9.928  70.836  1.00  0.00    -0.456 A  
HETATM   23  H   UNL     1     -12.618  12.135  70.229  1.00  0.00     0.000 HD 
HETATM   24  O   UNL     1     -11.995  11.853  69.570  1.00  0.00    -0.304 OA 
HETATM   25  C   UNL     1     -11.302  10.685  69.696  1.00  0.00    -0.294 A  
HETATM   26  C   UNL     1     -10.391  10.272  68.731  1.00  0.00    -0.211 A  
HETATM   27  C   UNL     1      -9.688   9.078  68.915  1.00  0.00    -0.166 A  
HETATM   28  C   UNL     1     -10.823   8.737  71.025  1.00  0.00    -0.321 A  
ENDBRANCH   9  21
ENDBRANCH   6   9
TORSDOF 2
ENDMDL
MODEL      149
REMARK 921   NORMALIZED FREE ENERGY PREDICTED BY IDOCK:   -3.09 KCAL/MOL
REMARK 922        TOTAL FREE ENERGY PREDICTED BY IDOCK:   -4.21 KCAL/MOL
REMARK 923 INTER-LIGAND FREE ENERGY PREDICTED BY IDOCK:   -3.33 KCAL/MOL
REMARK 924 INTRA-LIGAND FREE ENERGY PREDICTED BY IDOCK:   -0.88 KCAL/MOL
REMARK 927      BINDING AFFINITY PREDICTED BY RF-SCORE:    0.00 PKD
ROOT
HETATM    1  O   UNL     1      -6.826  11.203  65.793  1.00  0.00    -0.361 OA 
HETATM    2  C   UNL     1      -7.087  10.092  66.538  1.00  0.00    -0.103 A  
HETATM    3  H   UNL     1      -6.445  11.147  64.924  1.00  0.00     0.000 HD 
HETATM    4  C   UNL     1      -7.645  10.174  67.808  1.00  0.00    -0.090 A  
HETATM    5  C   UNL     1      -7.855   9.002  68.551  1.00  0.00    -0.102 A  
HETATM    6  C   UNL     1      -7.507   7.734  68.039  1.00  0.00    -0.108 A  
HETATM    7  C   UNL     1      -6.944   7.700  66.746  1.00  0.00    -0.079 A  
HETATM    8  C   UNL     1      -6.751   8.864  65.996  1.00  0.00    -0.069 A  
ENDROOT
BRANCH   6   9
HETATM    9  C   UNL     1      -7.549   6.465  68.944  1.00  0.00    -0.100 C  
HETATM   10  O   UNL     1      -5.719   7.352  70.435  1.00  0.00    -0.024 OA 
HETATM   11  O   UNL     1      -7.450   5.287  68.085  1.00  0.00    -0.074 OA 
HETATM   12  C   UNL     1      -6.388   6.407  70.018  1.00  0.00    -0.039 C  
HETATM   13  C   UNL     1      -7.266   4.097  68.749  1.00  0.00    -0.055 A  
HETATM   14  H   UNL     1      -5.722   5.121  71.505  1.00  0.00     0.000 HD 
HETATM   15  C   UNL     1      -7.606   2.920  68.085  1.00  0.00    -0.056 A  
HETATM   16  C   UNL     1      -7.449   1.688  68.729  1.00  0.00    -0.043 A  
HETATM   17  N   UNL     1      -6.218   5.181  70.616  1.00  0.00    -0.022 N  
HETATM   18  C   UNL     1      -6.713   4.025  70.029  1.00  0.00    -0.034 A  
HETATM   19  C   UNL     1      -6.570   2.803  70.682  1.00  0.00    -0.032 A  
HETATM   20  C   UNL     1      -6.953   1.631  70.032  1.00  0.00    -0.033 A  
BRANCH   9  21
HETATM   21  C   UNL     1      -8.940   6.481  69.654  1.00  0.00    -0.141 A  
HETATM   22  C   UNL     1     -10.300   6.952  71.622  1.00  0.00    -0.216 A  
HETATM   23  H   UNL     1     -12.692   7.011  72.463  1.00  0.00     0.000 HD 
HETATM   24  O   UNL     1     -12.642   6.746  71.552  1.00  0.00    -0.361 OA 
HETATM   25  C   UNL     1     -11.445   6.639  70.907  1.00  0.00    -0.347 A  
HETATM   26  C   UNL     1     -11.370   6.252  69.575  1.00  0.00    -0.475 A  
HETATM   27  C   UNL     1     -10.123   6.178  68.949  1.00  0.00    -0.211 A  
HETATM   28  C   UNL     1      -9.053   6.882  71.002  1.00  0.00    -0.155 A  
ENDBRANCH   9  21
ENDBRANCH   6   9
TORSDOF 2
ENDMDL
MODEL      150
REMARK 921   NORMALIZED FREE ENERGY PREDICTED BY IDOCK:   -3.08 KCAL/MOL
REMARK 922        TOTAL FREE ENERGY PREDICTED BY IDOCK:   -4.20 KCAL/MOL
REMARK 923 INTER-LIGAND FREE ENERGY PREDICTED BY IDOCK:   -3.79 KCAL/MOL
REMARK 924 INTRA-LIGAND FREE ENERGY PREDICTED BY IDOCK:   -0.40 KCAL/MOL
REMARK 927      BINDING AFFINITY PREDICTED BY RF-SCORE:    0.00 PKD
ROOT
HETATM    1  O   UNL     1      -8.615   2.845  63.974  1.00  0.00    -0.089 OA 
HETATM    2  C   UNL     1      -8.836   3.415  65.193  1.00  0.00    -0.124 A  
HETATM    3  H   UNL     1      -7.969   2.159  63.849  1.00  0.00     0.000 HD 
HETATM    4  C   UNL     1      -9.779   4.418  65.375  1.00  0.00    -0.203 A  
HETATM    5  C   UNL     1      -9.939   5.000  66.642  1.00  0.00    -0.246 A  
HETATM    6  C   UNL     1      -9.155   4.593  67.742  1.00  0.00    -0.136 A  
HETATM    7  C   UNL     1      -8.210   3.572  67.510  1.00  0.00    -0.090 A  
HETATM    8  C   UNL     1      -8.062   2.977  66.254  1.00  0.00    -0.082 A  
ENDROOT
BRANCH   6   9
HETATM    9  C   UNL     1      -9.191   5.381  69.087  1.00  0.00    -0.116 C  
HETATM   10  O   UNL     1      -7.906   3.574  70.289  1.00  0.00    -0.047 OA 
HETATM   11  O   UNL     1     -10.576   5.763  69.356  1.00  0.00    -0.257 OA 
HETATM   12  C   UNL     1      -8.643   4.559  70.324  1.00  0.00    -0.077 C  
HETATM   13  C   UNL     1     -10.802   6.285  70.608  1.00  0.00    -0.280 A  
HETATM   14  H   UNL     1      -8.391   4.828  72.367  1.00  0.00     0.000 HD 
HETATM   15  C   UNL     1     -11.938   7.069  70.792  1.00  0.00    -0.392 A  
HETATM   16  C   UNL     1     -12.199   7.634  72.046  1.00  0.00    -0.328 A  
HETATM   17  N   UNL     1      -8.938   5.103  71.552  1.00  0.00    -0.136 N  
HETATM   18  C   UNL     1      -9.970   6.020  71.698  1.00  0.00    -0.179 A  
HETATM   19  C   UNL     1     -10.214   6.592  72.944  1.00  0.00    -0.212 A  
HETATM   20  C   UNL     1     -11.327   7.413  73.114  1.00  0.00    -0.209 A  
BRANCH   9  21
HETATM   21  C   UNL     1      -8.326   6.663  68.865  1.00  0.00    -0.120 A  
HETATM   22  C   UNL     1      -8.170   9.039  68.339  1.00  0.00    -0.116 A  
HETATM   23  H   UNL     1      -6.539  10.976  68.188  1.00  0.00     0.000 HD 
HETATM   24  O   UNL     1      -6.112  10.170  68.455  1.00  0.00    -0.045 OA 
HETATM   25  C   UNL     1      -6.807   9.005  68.587  1.00  0.00    -0.063 A  
HETATM   26  C   UNL     1      -6.182   7.826  68.976  1.00  0.00    -0.036 A  
HETATM   27  C   UNL     1      -6.940   6.661  69.120  1.00  0.00    -0.078 A  
HETATM   28  C   UNL     1      -8.931   7.879  68.483  1.00  0.00    -0.133 A  
ENDBRANCH   9  21
ENDBRANCH   6   9
TORSDOF 2
ENDMDL
MODEL      151
REMARK 921   NORMALIZED FREE ENERGY PREDICTED BY IDOCK:   -3.05 KCAL/MOL
REMARK 922        TOTAL FREE ENERGY PREDICTED BY IDOCK:   -4.16 KCAL/MOL
REMARK 923 INTER-LIGAND FREE ENERGY PREDICTED BY IDOCK:   -3.21 KCAL/MOL
REMARK 924 INTRA-LIGAND FREE ENERGY PREDICTED BY IDOCK:   -0.95 KCAL/MOL
REMARK 927      BINDING AFFINITY PREDICTED BY RF-SCORE:    0.00 PKD
ROOT
HETATM    1  O   UNL     1      -8.989   8.304  74.064  1.00  0.00    -0.305 OA 
HETATM    2  C   UNL     1      -8.908   8.100  72.719  1.00  0.00    -0.231 A  
HETATM    3  H   UNL     1      -9.423   9.064  74.432  1.00  0.00     0.000 HD 
HETATM    4  C   UNL     1      -8.273   6.988  72.180  1.00  0.00    -0.101 A  
HETATM    5  C   UNL     1      -8.182   6.847  70.787  1.00  0.00    -0.122 A  
HETATM    6  C   UNL     1      -8.717   7.817  69.913  1.00  0.00    -0.142 A  
HETATM    7  C   UNL     1      -9.352   8.928  70.504  1.00  0.00    -0.240 A  
HETATM    8  C   UNL     1      -9.462   9.062  71.891  1.00  0.00    -0.179 A  
ENDROOT
BRANCH   6   9
HETATM    9  C   UNL     1      -8.431   7.760  68.381  1.00  0.00    -0.125 C  
HETATM   10  O   UNL     1     -10.891   7.682  67.830  1.00  0.00    -0.170 OA 
HETATM   11  O   UNL     1      -7.470   6.686  68.135  1.00  0.00    -0.091 OA 
HETATM   12  C   UNL     1      -9.720   7.496  67.500  1.00  0.00    -0.150 C  
HETATM   13  C   UNL     1      -7.274   6.374  66.810  1.00  0.00    -0.077 A  
HETATM   14  H   UNL     1     -10.196   7.247  65.495  1.00  0.00     0.000 HD 
HETATM   15  C   UNL     1      -6.096   5.717  66.463  1.00  0.00    -0.026 A  
HETATM   16  C   UNL     1      -5.847   5.394  65.124  1.00  0.00    -0.021 A  
HETATM   17  N   UNL     1      -9.464   7.143  66.197  1.00  0.00    -0.066 N  
HETATM   18  C   UNL     1      -8.223   6.645  65.823  1.00  0.00    -0.135 A  
HETATM   19  C   UNL     1      -7.975   6.342  64.486  1.00  0.00    -0.121 A  
HETATM   20  C   UNL     1      -6.776   5.725  64.135  1.00  0.00    -0.045 A  
BRANCH   9  21
HETATM   21  C   UNL     1      -7.792   9.133  68.004  1.00  0.00    -0.100 A  
HETATM   22  C   UNL     1      -7.998  11.366  67.046  1.00  0.00    -0.158 A  
HETATM   23  H   UNL     1      -6.741  13.541  66.690  1.00  0.00     0.000 HD 
HETATM   24  O   UNL     1      -6.215  12.896  67.149  1.00  0.00    -0.281 OA 
HETATM   25  C   UNL     1      -6.699  11.653  67.433  1.00  0.00    -0.108 A  
HETATM   26  C   UNL     1      -5.930  10.711  68.105  1.00  0.00    -0.046 A  
HETATM   27  C   UNL     1      -6.476   9.457  68.394  1.00  0.00    -0.053 A  
HETATM   28  C   UNL     1      -8.548  10.117  67.334  1.00  0.00    -0.122 A  
ENDBRANCH   9  21
ENDBRANCH   6   9
TORSDOF 2
ENDMDL
MODEL      152
REMARK 921   NORMALIZED FREE ENERGY PREDICTED BY IDOCK:   -3.04 KCAL/MOL
REMARK 922        TOTAL FREE ENERGY PREDICTED BY IDOCK:   -4.15 KCAL/MOL
REMARK 923 INTER-LIGAND FREE ENERGY PREDICTED BY IDOCK:   -3.70 KCAL/MOL
REMARK 924 INTRA-LIGAND FREE ENERGY PREDICTED BY IDOCK:   -0.45 KCAL/MOL
REMARK 927      BINDING AFFINITY PREDICTED BY RF-SCORE:    0.00 PKD
ROOT
HETATM    1  O   UNL     1      -8.163   4.769  64.777  1.00  0.00    -0.111 OA 
HETATM    2  C   UNL     1      -8.396   5.419  65.952  1.00  0.00    -0.123 A  
HETATM    3  H   UNL     1      -8.386   5.154  63.937  1.00  0.00     0.000 HD 
HETATM    4  C   UNL     1      -8.071   4.855  67.180  1.00  0.00    -0.107 A  
HETATM    5  C   UNL     1      -8.370   5.549  68.363  1.00  0.00    -0.098 A  
HETATM    6  C   UNL     1      -9.002   6.810  68.337  1.00  0.00    -0.124 A  
HETATM    7  C   UNL     1      -9.313   7.342  67.069  1.00  0.00    -0.181 A  
HETATM    8  C   UNL     1      -9.000   6.663  65.888  1.00  0.00    -0.096 A  
ENDROOT
BRANCH   6   9
HETATM    9  C   UNL     1      -9.516   7.476  69.650  1.00  0.00    -0.156 C  
HETATM   10  O   UNL     1      -9.537   5.270  70.872  1.00  0.00    -0.161 OA 
HETATM   11  O   UNL     1     -10.693   8.280  69.325  1.00  0.00    -0.211 OA 
HETATM   12  C   UNL     1      -9.907   6.440  70.781  1.00  0.00    -0.184 C  
HETATM   13  C   UNL     1     -11.384   8.764  70.411  1.00  0.00    -0.192 A  
HETATM   14  H   UNL     1     -10.674   6.475  72.710  1.00  0.00     0.000 HD 
HETATM   15  C   UNL     1     -12.210   9.869  70.217  1.00  0.00    -0.118 A  
HETATM   16  C   UNL     1     -12.919  10.405  71.298  1.00  0.00    -0.517 A  
HETATM   17  N   UNL     1     -10.637   6.969  71.819  1.00  0.00    -0.210 N  
HETATM   18  C   UNL     1     -11.324   8.167  71.671  1.00  0.00    -0.264 A  
HETATM   19  C   UNL     1     -12.014   8.705  72.755  1.00  0.00    -0.081 A  
HETATM   20  C   UNL     1     -12.805   9.837  72.568  1.00  0.00    -0.112 A  
BRANCH   9  21
HETATM   21  C   UNL     1      -8.365   8.408  70.147  1.00  0.00    -0.120 A  
HETATM   22  C   UNL     1      -6.309   8.729  71.418  1.00  0.00    -0.068 A  
HETATM   23  H   UNL     1      -4.498  10.426  71.943  1.00  0.00     0.000 HD 
HETATM   24  O   UNL     1      -5.152  10.776  71.349  1.00  0.00    -0.092 OA 
HETATM   25  C   UNL     1      -6.220  10.030  70.947  1.00  0.00    -0.050 A  
HETATM   26  C   UNL     1      -7.178  10.541  70.080  1.00  0.00    -0.105 A  
HETATM   27  C   UNL     1      -8.244   9.731  69.677  1.00  0.00    -0.163 A  
HETATM   28  C   UNL     1      -7.369   7.917  71.017  1.00  0.00    -0.062 A  
ENDBRANCH   9  21
ENDBRANCH   6   9
TORSDOF 2
ENDMDL
MODEL      153
REMARK 921   NORMALIZED FREE ENERGY PREDICTED BY IDOCK:   -2.99 KCAL/MOL
REMARK 922        TOTAL FREE ENERGY PREDICTED BY IDOCK:   -4.10 KCAL/MOL
REMARK 923 INTER-LIGAND FREE ENERGY PREDICTED BY IDOCK:   -3.62 KCAL/MOL
REMARK 924 INTRA-LIGAND FREE ENERGY PREDICTED BY IDOCK:   -0.47 KCAL/MOL
REMARK 927      BINDING AFFINITY PREDICTED BY RF-SCORE:    0.00 PKD
ROOT
HETATM    1  O   UNL     1     -11.469   4.621  65.287  1.00  0.00    -1.070 OA 
HETATM    2  C   UNL     1     -10.555   4.793  66.283  1.00  0.00    -0.198 A  
HETATM    3  H   UNL     1     -12.026   5.330  64.988  1.00  0.00     0.000 HD 
HETATM    4  C   UNL     1      -9.741   3.756  66.721  1.00  0.00    -0.149 A  
HETATM    5  C   UNL     1      -8.844   3.976  67.778  1.00  0.00    -0.134 A  
HETATM    6  C   UNL     1      -8.753   5.231  68.417  1.00  0.00    -0.099 A  
HETATM    7  C   UNL     1      -9.599   6.253  67.939  1.00  0.00    -0.118 A  
HETATM    8  C   UNL     1     -10.479   6.043  66.873  1.00  0.00    -0.344 A  
ENDROOT
BRANCH   6   9
HETATM    9  C   UNL     1      -7.912   5.409  69.718  1.00  0.00    -0.088 C  
HETATM   10  O   UNL     1      -5.902   4.291  68.683  1.00  0.00    -0.023 OA 
HETATM   11  O   UNL     1      -8.690   4.889  70.841  1.00  0.00    -0.115 OA 
HETATM   12  C   UNL     1      -6.516   4.664  69.682  1.00  0.00    -0.032 C  
HETATM   13  C   UNL     1      -8.002   4.786  72.026  1.00  0.00    -0.105 A  
HETATM   14  H   UNL     1      -4.892   4.366  70.941  1.00  0.00     0.000 HD 
HETATM   15  C   UNL     1      -8.740   4.742  73.207  1.00  0.00    -0.104 A  
HETATM   16  C   UNL     1      -8.081   4.653  74.438  1.00  0.00    -0.099 A  
HETATM   17  N   UNL     1      -5.894   4.549  70.903  1.00  0.00    -0.016 N  
HETATM   18  C   UNL     1      -6.611   4.677  72.085  1.00  0.00    -0.034 A  
HETATM   19  C   UNL     1      -5.947   4.605  73.307  1.00  0.00    -0.021 A  
HETATM   20  C   UNL     1      -6.686   4.606  74.488  1.00  0.00    -0.066 A  
BRANCH   9  21
HETATM   21  C   UNL     1      -7.699   6.946  69.893  1.00  0.00    -0.109 A  
HETATM   22  C   UNL     1      -6.516   8.995  69.302  1.00  0.00    -0.045 A  
HETATM   23  H   UNL     1      -6.499  11.503  69.678  1.00  0.00     0.000 HD 
HETATM   24  O   UNL     1      -7.202  11.077  70.153  1.00  0.00    -0.070 OA 
HETATM   25  C   UNL     1      -7.383   9.726  70.097  1.00  0.00    -0.155 A  
HETATM   26  C   UNL     1      -8.411   9.102  70.794  1.00  0.00    -0.256 A  
HETATM   27  C   UNL     1      -8.572   7.718  70.688  1.00  0.00    -0.127 A  
HETATM   28  C   UNL     1      -6.673   7.613  69.191  1.00  0.00    -0.048 A  
ENDBRANCH   9  21
ENDBRANCH   6   9
TORSDOF 2
ENDMDL
MODEL      154
REMARK 921   NORMALIZED FREE ENERGY PREDICTED BY IDOCK:   -2.76 KCAL/MOL
REMARK 922        TOTAL FREE ENERGY PREDICTED BY IDOCK:   -3.84 KCAL/MOL
REMARK 923 INTER-LIGAND FREE ENERGY PREDICTED BY IDOCK:   -2.96 KCAL/MOL
REMARK 924 INTRA-LIGAND FREE ENERGY PREDICTED BY IDOCK:   -0.88 KCAL/MOL
REMARK 927      BINDING AFFINITY PREDICTED BY RF-SCORE:    0.00 PKD
ROOT
HETATM    1  O   UNL     1      -6.639   7.866  64.170  1.00  0.00    -0.060 OA 
HETATM    2  C   UNL     1      -7.129   7.704  65.432  1.00  0.00    -0.063 A  
HETATM    3  H   UNL     1      -6.683   7.173  63.521  1.00  0.00     0.000 HD 
HETATM    4  C   UNL     1      -7.064   8.717  66.380  1.00  0.00    -0.083 A  
HETATM    5  C   UNL     1      -7.546   8.486  67.678  1.00  0.00    -0.098 A  
HETATM    6  C   UNL     1      -8.093   7.239  68.048  1.00  0.00    -0.120 A  
HETATM    7  C   UNL     1      -8.137   6.241  67.053  1.00  0.00    -0.109 A  
HETATM    8  C   UNL     1      -7.676   6.475  65.754  1.00  0.00    -0.092 A  
ENDROOT
BRANCH   6   9
HETATM    9  C   UNL     1      -8.432   6.923  69.537  1.00  0.00    -0.133 C  
HETATM   10  O   UNL     1     -10.912   7.068  69.100  1.00  0.00    -0.219 OA 
HETATM   11  O   UNL     1      -7.663   7.832  70.384  1.00  0.00    -0.085 OA 
HETATM   12  C   UNL     1      -9.967   7.081  69.889  1.00  0.00    -0.177 C  
HETATM   13  C   UNL     1      -8.008   7.817  71.715  1.00  0.00    -0.094 A  
HETATM   14  H   UNL     1     -11.197   6.904  71.553  1.00  0.00     0.000 HD 
HETATM   15  C   UNL     1      -7.072   8.282  72.636  1.00  0.00    -0.123 A  
HETATM   16  C   UNL     1      -7.374   8.270  74.002  1.00  0.00    -0.211 A  
HETATM   17  N   UNL     1     -10.249   7.106  71.234  1.00  0.00    -0.191 N  
HETATM   18  C   UNL     1      -9.263   7.405  72.165  1.00  0.00    -0.132 A  
HETATM   19  C   UNL     1      -9.566   7.375  73.524  1.00  0.00    -0.317 A  
HETATM   20  C   UNL     1      -8.610   7.798  74.447  1.00  0.00    -0.221 A  
BRANCH   9  21
HETATM   21  C   UNL     1      -7.969   5.453  69.788  1.00  0.00    -0.088 A  
HETATM   22  C   UNL     1      -6.181   3.837  70.157  1.00  0.00    -0.027 A  
HETATM   23  H   UNL     1      -5.735   1.401  70.707  1.00  0.00     0.000 HD 
HETATM   24  O   UNL     1      -6.665   1.591  70.659  1.00  0.00    -0.024 OA 
HETATM   25  C   UNL     1      -7.123   2.841  70.365  1.00  0.00    -0.033 A  
HETATM   26  C   UNL     1      -8.482   3.119  70.296  1.00  0.00    -0.096 A  
HETATM   27  C   UNL     1      -8.904   4.422  70.013  1.00  0.00    -0.126 A  
HETATM   28  C   UNL     1      -6.597   5.138  69.877  1.00  0.00    -0.036 A  
ENDBRANCH   9  21
ENDBRANCH   6   9
TORSDOF 2
ENDMDL
MODEL      155
REMARK 921   NORMALIZED FREE ENERGY PREDICTED BY IDOCK:   -2.62 KCAL/MOL
REMARK 922        TOTAL FREE ENERGY PREDICTED BY IDOCK:   -3.68 KCAL/MOL
REMARK 923 INTER-LIGAND FREE ENERGY PREDICTED BY IDOCK:   -4.69 KCAL/MOL
REMARK 924 INTRA-LIGAND FREE ENERGY PREDICTED BY IDOCK:    1.01 KCAL/MOL
REMARK 927      BINDING AFFINITY PREDICTED BY RF-SCORE:    0.00 PKD
ROOT
HETATM    1  O   UNL     1     -10.762   3.825  73.063  1.00  0.00    -0.172 OA 
HETATM    2  C   UNL     1     -10.576   4.954  72.322  1.00  0.00    -0.185 A  
HETATM    3  H   UNL     1     -10.594   3.803  73.998  1.00  0.00     0.000 HD 
HETATM    4  C   UNL     1     -10.823   4.985  70.956  1.00  0.00     0.047 A  
HETATM    5  C   UNL     1     -10.576   6.162  70.232  1.00  0.00    -0.319 A  
HETATM    6  C   UNL     1     -10.074   7.321  70.862  1.00  0.00    -0.192 A  
HETATM    7  C   UNL     1      -9.838   7.242  72.250  1.00  0.00    -0.182 A  
HETATM    8  C   UNL     1     -10.102   6.078  72.976  1.00  0.00    -0.195 A  
ENDROOT
BRANCH   6   9
HETATM    9  C   UNL     1      -9.607   8.551  70.023  1.00  0.00    -0.169 C  
HETATM   10  O   UNL     1     -10.003   7.336  67.849  1.00  0.00    -0.146 OA 
HETATM   11  O   UNL     1      -8.307   8.984  70.531  1.00  0.00    -0.143 OA 
HETATM   12  C   UNL     1      -9.471   8.253  68.475  1.00  0.00    -0.146 C  
HETATM   13  C   UNL     1      -7.668   9.928  69.763  1.00  0.00    -0.155 A  
HETATM   14  H   UNL     1      -8.901   9.261  66.752  1.00  0.00     0.000 HD 
HETATM   15  C   UNL     1      -6.687  10.708  70.370  1.00  0.00    -0.017 A  
HETATM   16  C   UNL     1      -6.022  11.692  69.630  1.00  0.00    -0.106 A  
HETATM   17  N   UNL     1      -8.784   9.207  67.763  1.00  0.00    -0.121 N  
HETATM   18  C   UNL     1      -7.932  10.098  68.402  1.00  0.00    -0.102 A  
HETATM   19  C   UNL     1      -7.286  11.086  67.663  1.00  0.00    -0.093 A  
HETATM   20  C   UNL     1      -6.336  11.895  68.284  1.00  0.00    -0.051 A  
BRANCH   9  21
HETATM   21  C   UNL     1     -10.666   9.672  70.266  1.00  0.00    -0.335 A  
HETATM   22  C   UNL     1     -12.435  10.645  71.635  1.00  0.00    -0.416 A  
HETATM   23  H   UNL     1     -13.951  12.668  71.845  1.00  0.00     0.000 HD 
HETATM   24  O   UNL     1     -13.376  12.730  71.091  1.00  0.00    -0.060 OA 
HETATM   25  C   UNL     1     -12.487  11.741  70.789  1.00  0.00    -0.312 A  
HETATM   26  C   UNL     1     -11.647  11.833  69.686  1.00  0.00    -0.393 A  
HETATM   27  C   UNL     1     -10.736  10.804  69.429  1.00  0.00    -0.272 A  
HETATM   28  C   UNL     1     -11.526   9.617  71.383  1.00  0.00    -0.455 A  
ENDBRANCH   9  21
ENDBRANCH   6   9
TORSDOF 2
ENDMDL
MODEL      156
REMARK 921   NORMALIZED FREE ENERGY PREDICTED BY IDOCK:   -2.62 KCAL/MOL
REMARK 922        TOTAL FREE ENERGY PREDICTED BY IDOCK:   -3.68 KCAL/MOL
REMARK 923 INTER-LIGAND FREE ENERGY PREDICTED BY IDOCK:   -3.14 KCAL/MOL
REMARK 924 INTRA-LIGAND FREE ENERGY PREDICTED BY IDOCK:   -0.55 KCAL/MOL
REMARK 927      BINDING AFFINITY PREDICTED BY RF-SCORE:    0.00 PKD
ROOT
HETATM    1  O   UNL     1      -6.652  16.901  70.285  1.00  0.00     0.259 OA 
HETATM    2  C   UNL     1      -7.070  15.785  69.624  1.00  0.00    -0.150 A  
HETATM    3  H   UNL     1      -7.089  17.739  70.183  1.00  0.00     0.000 HD 
HETATM    4  C   UNL     1      -6.430  14.560  69.772  1.00  0.00    -0.154 A  
HETATM    5  C   UNL     1      -6.874  13.451  69.037  1.00  0.00    -0.103 A  
HETATM    6  C   UNL     1      -7.958  13.550  68.139  1.00  0.00    -0.149 A  
HETATM    7  C   UNL     1      -8.576  14.812  68.020  1.00  0.00    -0.166 A  
HETATM    8  C   UNL     1      -8.148  15.914  68.766  1.00  0.00    -0.190 A  
ENDROOT
BRANCH   6   9
HETATM    9  C   UNL     1      -8.312  12.375  67.176  1.00  0.00    -0.181 C  
HETATM   10  O   UNL     1      -5.885  11.747  66.900  1.00  0.00    -0.133 OA 
HETATM   11  O   UNL     1      -9.181  12.893  66.122  1.00  0.00    -0.154 OA 
HETATM   12  C   UNL     1      -7.048  11.699  66.503  1.00  0.00     0.049 C  
HETATM   13  C   UNL     1      -9.412  12.025  65.080  1.00  0.00     0.010 A  
HETATM   14  H   UNL     1      -6.649  10.183  65.141  1.00  0.00     0.000 HD 
HETATM   15  C   UNL     1     -10.541  12.238  64.293  1.00  0.00    -0.387 A  
HETATM   16  C   UNL     1     -10.824  11.370  63.232  1.00  0.00    -0.292 A  
HETATM   17  N   UNL     1      -7.334  10.878  65.438  1.00  0.00     0.071 N  
HETATM   18  C   UNL     1      -8.541  10.982  64.760  1.00  0.00     0.084 A  
HETATM   19  C   UNL     1      -8.824  10.104  63.716  1.00  0.00    -0.245 A  
HETATM   20  C   UNL     1      -9.978  10.293  62.958  1.00  0.00     0.076 A  
BRANCH   9  21
HETATM   21  C   UNL     1      -9.091  11.328  68.033  1.00  0.00    -0.156 A  
HETATM   22  C   UNL     1     -11.197  10.462  68.906  1.00  0.00    -0.290 A  
HETATM   23  H   UNL     1     -12.206   8.549  70.232  1.00  0.00     0.000 HD 
HETATM   24  O   UNL     1     -11.265   8.457  70.134  1.00  0.00    -0.233 OA 
HETATM   25  C   UNL     1     -10.525   9.385  69.462  1.00  0.00    -0.218 A  
HETATM   26  C   UNL     1      -9.149   9.251  69.318  1.00  0.00    -0.151 A  
HETATM   27  C   UNL     1      -8.436  10.217  68.602  1.00  0.00    -0.122 A  
HETATM   28  C   UNL     1     -10.490  11.427  68.189  1.00  0.00    -0.212 A  
ENDBRANCH   9  21
ENDBRANCH   6   9
TORSDOF 2
ENDMDL
MODEL      157
REMARK 921   NORMALIZED FREE ENERGY PREDICTED BY IDOCK:   -2.60 KCAL/MOL
REMARK 922        TOTAL FREE ENERGY PREDICTED BY IDOCK:   -3.66 KCAL/MOL
REMARK 923 INTER-LIGAND FREE ENERGY PREDICTED BY IDOCK:   -3.65 KCAL/MOL
REMARK 924 INTRA-LIGAND FREE ENERGY PREDICTED BY IDOCK:   -0.01 KCAL/MOL
REMARK 927      BINDING AFFINITY PREDICTED BY RF-SCORE:    0.00 PKD
ROOT
HETATM    1  O   UNL     1     -12.880   6.244  72.145  1.00  0.00    -0.470 OA 
HETATM    2  C   UNL     1     -12.375   7.331  71.497  1.00  0.00    -0.362 A  
HETATM    3  H   UNL     1     -12.821   5.369  71.779  1.00  0.00     0.000 HD 
HETATM    4  C   UNL     1     -12.462   8.611  72.031  1.00  0.00    -0.433 A  
HETATM    5  C   UNL     1     -11.963   9.703  71.305  1.00  0.00    -0.462 A  
HETATM    6  C   UNL     1     -11.376   9.533  70.032  1.00  0.00    -0.204 A  
HETATM    7  C   UNL     1     -11.310   8.217  69.530  1.00  0.00     0.283 A  
HETATM    8  C   UNL     1     -11.789   7.125  70.260  1.00  0.00    -0.178 A  
ENDROOT
BRANCH   6   9
HETATM    9  C   UNL     1     -11.015  10.764  69.146  1.00  0.00    -0.244 C  
HETATM   10  O   UNL     1     -11.464  12.374  71.035  1.00  0.00     0.906 OA 
HETATM   11  O   UNL     1     -11.782  10.674  67.905  1.00  0.00    -0.506 OA 
HETATM   12  C   UNL     1     -11.324  12.157  69.831  1.00  0.00    -0.031 C  
HETATM   13  C   UNL     1     -11.730  11.793  67.107  1.00  0.00    -0.188 A  
HETATM   14  H   UNL     1     -11.191  14.174  69.359  1.00  0.00     0.000 HD 
HETATM   15  C   UNL     1     -12.032  11.645  65.756  1.00  0.00     0.389 A  
HETATM   16  C   UNL     1     -11.976  12.754  64.904  1.00  0.00    -0.451 A  
HETATM   17  N   UNL     1     -11.304  13.235  68.979  1.00  0.00    -0.270 N  
HETATM   18  C   UNL     1     -11.435  13.063  67.607  1.00  0.00    -0.324 A  
HETATM   19  C   UNL     1     -11.362  14.169  66.763  1.00  0.00    -0.353 A  
HETATM   20  C   UNL     1     -11.621  14.009  65.403  1.00  0.00    -0.329 A  
BRANCH   9  21
HETATM   21  C   UNL     1      -9.491  10.644  68.831  1.00  0.00    -0.199 A  
HETATM   22  C   UNL     1      -7.192  10.367  69.598  1.00  0.00    -0.148 A  
HETATM   23  H   UNL     1      -4.811  10.048  68.784  1.00  0.00     0.000 HD 
HETATM   24  O   UNL     1      -5.428  10.113  68.064  1.00  0.00    -0.039 OA 
HETATM   25  C   UNL     1      -6.761  10.298  68.283  1.00  0.00    -0.057 A  
HETATM   26  C   UNL     1      -7.663  10.394  67.230  1.00  0.00    -0.099 A  
HETATM   27  C   UNL     1      -9.024  10.561  67.504  1.00  0.00    -0.137 A  
HETATM   28  C   UNL     1      -8.549  10.532  69.876  1.00  0.00     0.257 A  
ENDBRANCH   9  21
ENDBRANCH   6   9
TORSDOF 2
ENDMDL
MODEL      158
REMARK 921   NORMALIZED FREE ENERGY PREDICTED BY IDOCK:   -2.60 KCAL/MOL
REMARK 922        TOTAL FREE ENERGY PREDICTED BY IDOCK:   -3.66 KCAL/MOL
REMARK 923 INTER-LIGAND FREE ENERGY PREDICTED BY IDOCK:   -3.43 KCAL/MOL
REMARK 924 INTRA-LIGAND FREE ENERGY PREDICTED BY IDOCK:   -0.22 KCAL/MOL
REMARK 927      BINDING AFFINITY PREDICTED BY RF-SCORE:    0.00 PKD
ROOT
HETATM    1  O   UNL     1      -7.826   4.256  63.871  1.00  0.00    -0.080 OA 
HETATM    2  C   UNL     1      -7.899   4.887  65.077  1.00  0.00    -0.092 A  
HETATM    3  H   UNL     1      -8.326   4.550  63.118  1.00  0.00     0.000 HD 
HETATM    4  C   UNL     1      -7.168   4.457  66.177  1.00  0.00    -0.076 A  
HETATM    5  C   UNL     1      -7.311   5.116  67.407  1.00  0.00    -0.082 A  
HETATM    6  C   UNL     1      -8.190   6.210  67.557  1.00  0.00    -0.109 A  
HETATM    7  C   UNL     1      -8.911   6.611  66.414  1.00  0.00    -0.161 A  
HETATM    8  C   UNL     1      -8.756   5.968  65.183  1.00  0.00    -0.017 A  
ENDROOT
BRANCH   6   9
HETATM    9  C   UNL     1      -8.499   6.802  68.967  1.00  0.00    -0.128 C  
HETATM   10  O   UNL     1      -6.813   5.289  70.075  1.00  0.00    -0.048 OA 
HETATM   11  O   UNL     1      -9.945   6.760  69.174  1.00  0.00    -0.155 OA 
HETATM   12  C   UNL     1      -7.795   6.026  70.153  1.00  0.00    -0.101 C  
HETATM   13  C   UNL     1     -10.358   7.056  70.451  1.00  0.00    -0.202 A  
HETATM   14  H   UNL     1      -7.711   6.121  72.226  1.00  0.00     0.000 HD 
HETATM   15  C   UNL     1     -11.674   7.476  70.630  1.00  0.00    -0.240 A  
HETATM   16  C   UNL     1     -12.133   7.803  71.911  1.00  0.00    -0.341 A  
HETATM   17  N   UNL     1      -8.279   6.327  71.404  1.00  0.00    -0.121 N  
HETATM   18  C   UNL     1      -9.530   6.906  71.566  1.00  0.00    -0.155 A  
HETATM   19  C   UNL     1      -9.975   7.246  72.842  1.00  0.00    -0.257 A  
HETATM   20  C   UNL     1     -11.278   7.709  73.011  1.00  0.00    -0.388 A  
BRANCH   9  21
HETATM   21  C   UNL     1      -8.016   8.287  68.932  1.00  0.00    -0.113 A  
HETATM   22  C   UNL     1      -8.519  10.666  68.745  1.00  0.00    -0.149 A  
HETATM   23  H   UNL     1      -7.471  12.973  68.877  1.00  0.00     0.000 HD 
HETATM   24  O   UNL     1      -6.835  12.283  69.030  1.00  0.00    -0.097 OA 
HETATM   25  C   UNL     1      -7.188  10.967  68.993  1.00  0.00    -0.101 A  
HETATM   26  C   UNL     1      -6.258   9.959  69.216  1.00  0.00    -0.040 A  
HETATM   27  C   UNL     1      -6.672   8.624  69.191  1.00  0.00    -0.047 A  
HETATM   28  C   UNL     1      -8.936   9.336  68.721  1.00  0.00    -0.132 A  
ENDBRANCH   9  21
ENDBRANCH   6   9
TORSDOF 2
ENDMDL
MODEL      159
REMARK 921   NORMALIZED FREE ENERGY PREDICTED BY IDOCK:   -2.53 KCAL/MOL
REMARK 922        TOTAL FREE ENERGY PREDICTED BY IDOCK:   -3.59 KCAL/MOL
REMARK 923 INTER-LIGAND FREE ENERGY PREDICTED BY IDOCK:   -3.32 KCAL/MOL
REMARK 924 INTRA-LIGAND FREE ENERGY PREDICTED BY IDOCK:   -0.27 KCAL/MOL
REMARK 927      BINDING AFFINITY PREDICTED BY RF-SCORE:    0.00 PKD
ROOT
HETATM    1  O   UNL     1      -6.206   7.194  72.216  1.00  0.00    -0.044 OA 
HETATM    2  C   UNL     1      -6.836   7.781  71.159  1.00  0.00    -0.049 A  
HETATM    3  H   UNL     1      -5.413   7.557  72.593  1.00  0.00     0.000 HD 
HETATM    4  C   UNL     1      -7.994   7.249  70.607  1.00  0.00    -0.099 A  
HETATM    5  C   UNL     1      -8.581   7.869  69.493  1.00  0.00    -0.137 A  
HETATM    6  C   UNL     1      -8.016   9.024  68.912  1.00  0.00    -0.100 A  
HETATM    7  C   UNL     1      -6.840   9.528  69.505  1.00  0.00    -0.054 A  
HETATM    8  C   UNL     1      -6.265   8.924  70.627  1.00  0.00    -0.042 A  
ENDROOT
BRANCH   6   9
HETATM    9  C   UNL     1      -8.551   9.584  67.558  1.00  0.00    -0.126 C  
HETATM   10  O   UNL     1     -10.472   7.949  67.534  1.00  0.00    -0.241 OA 
HETATM   11  O   UNL     1      -7.443   9.609  66.604  1.00  0.00    -0.093 OA 
HETATM   12  C   UNL     1      -9.733   8.733  66.938  1.00  0.00    -0.210 C  
HETATM   13  C   UNL     1      -7.801   9.882  65.305  1.00  0.00    -0.131 A  
HETATM   14  H   UNL     1     -10.924   8.753  65.237  1.00  0.00     0.000 HD 
HETATM   15  C   UNL     1      -6.817  10.363  64.445  1.00  0.00     0.004 A  
HETATM   16  C   UNL     1      -7.140  10.670  63.118  1.00  0.00     0.096 A  
HETATM   17  N   UNL     1     -10.017   9.015  65.623  1.00  0.00    -0.049 N  
HETATM   18  C   UNL     1      -9.087   9.653  64.812  1.00  0.00    -0.231 A  
HETATM   19  C   UNL     1      -9.421   9.971  63.498  1.00  0.00    -0.241 A  
HETATM   20  C   UNL     1      -8.445  10.494  62.652  1.00  0.00    -0.216 A  
BRANCH   9  21
HETATM   21  C   UNL     1      -9.029  11.042  67.846  1.00  0.00    -0.144 A  
HETATM   22  C   UNL     1     -10.706  12.579  68.725  1.00  0.00    -0.235 A  
HETATM   23  H   UNL     1     -11.151  15.029  69.206  1.00  0.00     0.000 HD 
HETATM   24  O   UNL     1     -10.289  14.891  68.832  1.00  0.00    -0.230 OA 
HETATM   25  C   UNL     1      -9.853  13.646  68.489  1.00  0.00    -0.196 A  
HETATM   26  C   UNL     1      -8.592  13.443  67.940  1.00  0.00    -0.184 A  
HETATM   27  C   UNL     1      -8.179  12.145  67.625  1.00  0.00    -0.163 A  
HETATM   28  C   UNL     1     -10.298  11.282  68.414  1.00  0.00    -0.207 A  
ENDBRANCH   9  21
ENDBRANCH   6   9
TORSDOF 2
ENDMDL
MODEL      160
REMARK 921   NORMALIZED FREE ENERGY PREDICTED BY IDOCK:   -2.47 KCAL/MOL
REMARK 922        TOTAL FREE ENERGY PREDICTED BY IDOCK:   -3.52 KCAL/MOL
REMARK 923 INTER-LIGAND FREE ENERGY PREDICTED BY IDOCK:   -3.23 KCAL/MOL
REMARK 924 INTRA-LIGAND FREE ENERGY PREDICTED BY IDOCK:   -0.29 KCAL/MOL
REMARK 927      BINDING AFFINITY PREDICTED BY RF-SCORE:    0.00 PKD
ROOT
HETATM    1  O   UNL     1      -7.024   7.409  63.907  1.00  0.00    -0.054 OA 
HETATM    2  C   UNL     1      -7.118   7.728  65.228  1.00  0.00    -0.060 A  
HETATM    3  H   UNL     1      -7.764   7.065  63.419  1.00  0.00     0.000 HD 
HETATM    4  C   UNL     1      -6.037   8.230  65.942  1.00  0.00    -0.045 A  
HETATM    5  C   UNL     1      -6.174   8.504  67.311  1.00  0.00    -0.056 A  
HETATM    6  C   UNL     1      -7.391   8.274  67.988  1.00  0.00    -0.096 A  
HETATM    7  C   UNL     1      -8.460   7.763  67.224  1.00  0.00    -0.118 A  
HETATM    8  C   UNL     1      -8.332   7.508  65.856  1.00  0.00    -0.140 A  
ENDROOT
BRANCH   6   9
HETATM    9  C   UNL     1      -7.476   8.382  69.542  1.00  0.00    -0.088 C  
HETATM   10  O   UNL     1      -5.919  10.366  69.583  1.00  0.00    -0.042 OA 
HETATM   11  O   UNL     1      -7.191   7.065  70.108  1.00  0.00    -0.071 OA 
HETATM   12  C   UNL     1      -6.467   9.430  70.165  1.00  0.00    -0.058 C  
HETATM   13  C   UNL     1      -7.024   7.043  71.473  1.00  0.00    -0.065 A  
HETATM   14  H   UNL     1      -5.928  10.125  72.046  1.00  0.00     0.000 HD 
HETATM   15  C   UNL     1      -7.200   5.828  72.131  1.00  0.00    -0.089 A  
HETATM   16  C   UNL     1      -7.055   5.762  73.522  1.00  0.00    -0.086 A  
HETATM   17  N   UNL     1      -6.304   9.332  71.526  1.00  0.00    -0.063 N  
HETATM   18  C   UNL     1      -6.643   8.169  72.205  1.00  0.00    -0.073 A  
HETATM   19  C   UNL     1      -6.514   8.115  73.591  1.00  0.00    -0.130 A  
HETATM   20  C   UNL     1      -6.735   6.908  74.252  1.00  0.00    -0.082 A  
BRANCH   9  21
HETATM   21  C   UNL     1      -8.947   8.787  69.871  1.00  0.00    -0.152 A  
HETATM   22  C   UNL     1     -11.112   8.257  70.860  1.00  0.00    -0.289 A  
HETATM   23  H   UNL     1     -13.391   9.238  71.391  1.00  0.00     0.000 HD 
HETATM   24  O   UNL     1     -12.821   9.869  70.966  1.00  0.00    -0.337 OA 
HETATM   25  C   UNL     1     -11.553   9.542  70.586  1.00  0.00    -0.283 A  
HETATM   26  C   UNL     1     -10.720  10.465  69.965  1.00  0.00    -0.321 A  
HETATM   27  C   UNL     1      -9.420  10.090  69.614  1.00  0.00    -0.247 A  
HETATM   28  C   UNL     1      -9.816   7.879  70.513  1.00  0.00    -0.186 A  
ENDBRANCH   9  21
ENDBRANCH   6   9
TORSDOF 2
ENDMDL
MODEL      161
REMARK 921   NORMALIZED FREE ENERGY PREDICTED BY IDOCK:   -2.38 KCAL/MOL
REMARK 922        TOTAL FREE ENERGY PREDICTED BY IDOCK:   -3.41 KCAL/MOL
REMARK 923 INTER-LIGAND FREE ENERGY PREDICTED BY IDOCK:   -2.73 KCAL/MOL
REMARK 924 INTRA-LIGAND FREE ENERGY PREDICTED BY IDOCK:   -0.68 KCAL/MOL
REMARK 927      BINDING AFFINITY PREDICTED BY RF-SCORE:    0.00 PKD
ROOT
HETATM    1  O   UNL     1      -6.920   5.637  64.634  1.00  0.00    -0.049 OA 
HETATM    2  C   UNL     1      -7.216   5.603  65.964  1.00  0.00    -0.073 A  
HETATM    3  H   UNL     1      -7.302   5.022  64.018  1.00  0.00     0.000 HD 
HETATM    4  C   UNL     1      -6.657   6.501  66.865  1.00  0.00    -0.051 A  
HETATM    5  C   UNL     1      -6.963   6.397  68.230  1.00  0.00    -0.080 A  
HETATM    6  C   UNL     1      -7.827   5.392  68.716  1.00  0.00    -0.087 A  
HETATM    7  C   UNL     1      -8.371   4.504  67.765  1.00  0.00    -0.099 A  
HETATM    8  C   UNL     1      -8.083   4.617  66.402  1.00  0.00    -0.103 A  
ENDROOT
BRANCH   6   9
HETATM    9  C   UNL     1      -7.998   5.154  70.248  1.00  0.00    -0.082 C  
HETATM   10  O   UNL     1      -6.431   3.178  70.210  1.00  0.00    -0.030 OA 
HETATM   11  O   UNL     1      -9.428   5.100  70.545  1.00  0.00    -0.153 OA 
HETATM   12  C   UNL     1      -7.323   3.819  70.765  1.00  0.00    -0.037 C  
HETATM   13  C   UNL     1      -9.741   4.690  71.819  1.00  0.00    -0.169 A  
HETATM   14  H   UNL     1      -7.124   2.781  72.553  1.00  0.00     0.000 HD 
HETATM   15  C   UNL     1     -10.994   5.032  72.325  1.00  0.00    -0.161 A  
HETATM   16  C   UNL     1     -11.349   4.649  73.623  1.00  0.00    -0.269 A  
HETATM   17  N   UNL     1      -7.708   3.432  72.027  1.00  0.00    -0.057 N  
HETATM   18  C   UNL     1      -8.879   3.913  72.596  1.00  0.00    -0.102 A  
HETATM   19  C   UNL     1      -9.219   3.543  73.895  1.00  0.00    -0.098 A  
HETATM   20  C   UNL     1     -10.455   3.924  74.414  1.00  0.00    -0.269 A  
BRANCH   9  21
HETATM   21  C   UNL     1      -7.361   6.391  70.956  1.00  0.00    -0.083 A  
HETATM   22  C   UNL     1      -7.541   8.683  71.769  1.00  0.00    -0.125 A  
HETATM   23  H   UNL     1      -6.306  10.468  73.082  1.00  0.00     0.000 HD 
HETATM   24  O   UNL     1      -5.803   9.665  73.012  1.00  0.00    -0.307 OA 
HETATM   25  C   UNL     1      -6.280   8.581  72.337  1.00  0.00    -0.072 A  
HETATM   26  C   UNL     1      -5.545   7.407  72.235  1.00  0.00    -0.037 A  
HETATM   27  C   UNL     1      -6.085   6.314  71.551  1.00  0.00    -0.040 A  
HETATM   28  C   UNL     1      -8.085   7.594  71.088  1.00  0.00    -0.098 A  
ENDBRANCH   9  21
ENDBRANCH   6   9
TORSDOF 2
ENDMDL
MODEL      162
REMARK 921   NORMALIZED FREE ENERGY PREDICTED BY IDOCK:   -2.28 KCAL/MOL
REMARK 922        TOTAL FREE ENERGY PREDICTED BY IDOCK:   -3.30 KCAL/MOL
REMARK 923 INTER-LIGAND FREE ENERGY PREDICTED BY IDOCK:   -3.10 KCAL/MOL
REMARK 924 INTRA-LIGAND FREE ENERGY PREDICTED BY IDOCK:   -0.20 KCAL/MOL
REMARK 927      BINDING AFFINITY PREDICTED BY RF-SCORE:    0.00 PKD
ROOT
HETATM    1  O   UNL     1     -10.548   6.239  68.706  1.00  0.00    -0.205 OA 
HETATM    2  C   UNL     1     -10.066   7.466  68.361  1.00  0.00    -0.177 A  
HETATM    3  H   UNL     1     -11.194   6.128  69.395  1.00  0.00     0.000 HD 
HETATM    4  C   UNL     1      -9.121   7.628  67.355  1.00  0.00    -0.136 A  
HETATM    5  C   UNL     1      -8.627   8.909  67.066  1.00  0.00    -0.120 A  
HETATM    6  C   UNL     1      -9.064  10.044  67.781  1.00  0.00    -0.137 A  
HETATM    7  C   UNL     1     -10.022   9.832  68.793  1.00  0.00    -0.179 A  
HETATM    8  C   UNL     1     -10.531   8.560  69.070  1.00  0.00    -0.216 A  
ENDROOT
BRANCH   6   9
HETATM    9  C   UNL     1      -8.362  11.425  67.599  1.00  0.00    -0.129 C  
HETATM   10  O   UNL     1      -6.866  10.529  65.777  1.00  0.00    -0.130 OA 
HETATM   11  O   UNL     1      -7.919  11.890  68.911  1.00  0.00    -0.079 OA 
HETATM   12  C   UNL     1      -7.112  11.383  66.628  1.00  0.00    -0.103 C  
HETATM   13  C   UNL     1      -7.101  12.995  68.891  1.00  0.00    -0.068 A  
HETATM   14  H   UNL     1      -5.670  12.692  65.909  1.00  0.00     0.000 HD 
HETATM   15  C   UNL     1      -7.004  13.757  70.053  1.00  0.00     0.332 A  
HETATM   16  C   UNL     1      -6.196  14.899  70.072  1.00  0.00    -0.156 A  
HETATM   17  N   UNL     1      -6.303  12.493  66.683  1.00  0.00     0.550 N  
HETATM   18  C   UNL     1      -6.337  13.348  67.777  1.00  0.00    -0.161 A  
HETATM   19  C   UNL     1      -5.543  14.492  67.783  1.00  0.00    -0.055 A  
HETATM   20  C   UNL     1      -5.483  15.278  68.933  1.00  0.00    -0.098 A  
BRANCH   9  21
HETATM   21  C   UNL     1      -9.448  12.396  67.037  1.00  0.00    -0.211 A  
HETATM   22  C   UNL     1     -10.999  13.031  65.265  1.00  0.00    -0.307 A  
HETATM   23  H   UNL     1     -12.838  14.677  64.679  1.00  0.00     0.000 HD 
HETATM   24  O   UNL     1     -12.496  14.823  65.553  1.00  0.00    -0.173 OA 
HETATM   25  C   UNL     1     -11.492  14.053  66.062  1.00  0.00    -0.338 A  
HETATM   26  C   UNL     1     -10.990  14.266  67.340  1.00  0.00    -0.301 A  
HETATM   27  C   UNL     1      -9.975  13.437  67.828  1.00  0.00    -0.233 A  
HETATM   28  C   UNL     1      -9.988  12.201  65.748  1.00  0.00    -0.271 A  
ENDBRANCH   9  21
ENDBRANCH   6   9
TORSDOF 2
ENDMDL
MODEL      163
REMARK 921   NORMALIZED FREE ENERGY PREDICTED BY IDOCK:   -2.11 KCAL/MOL
REMARK 922        TOTAL FREE ENERGY PREDICTED BY IDOCK:   -3.11 KCAL/MOL
REMARK 923 INTER-LIGAND FREE ENERGY PREDICTED BY IDOCK:   -2.60 KCAL/MOL
REMARK 924 INTRA-LIGAND FREE ENERGY PREDICTED BY IDOCK:   -0.51 KCAL/MOL
REMARK 927      BINDING AFFINITY PREDICTED BY RF-SCORE:    0.00 PKD
ROOT
HETATM    1  O   UNL     1      -5.554   7.646  73.178  1.00  0.00    -0.044 OA 
HETATM    2  C   UNL     1      -6.131   8.105  72.032  1.00  0.00    -0.047 A  
HETATM    3  H   UNL     1      -4.887   8.142  73.639  1.00  0.00     0.000 HD 
HETATM    4  C   UNL     1      -7.105   7.380  71.358  1.00  0.00    -0.063 A  
HETATM    5  C   UNL     1      -7.638   7.878  70.159  1.00  0.00    -0.083 A  
HETATM    6  C   UNL     1      -7.200   9.104  69.614  1.00  0.00    -0.061 A  
HETATM    7  C   UNL     1      -6.209   9.805  70.332  1.00  0.00    -0.082 A  
HETATM    8  C   UNL     1      -5.691   9.320  71.536  1.00  0.00    -0.069 A  
ENDROOT
BRANCH   6   9
HETATM    9  C   UNL     1      -7.641   9.548  68.185  1.00  0.00    -0.079 C  
HETATM   10  O   UNL     1     -10.085   9.369  68.782  1.00  0.00    -0.180 OA 
HETATM   11  O   UNL     1      -6.940   8.714  67.210  1.00  0.00    -0.073 OA 
HETATM   12  C   UNL     1      -9.198   9.424  67.930  1.00  0.00    -0.129 C  
HETATM   13  C   UNL     1      -7.378   8.845  65.914  1.00  0.00    -0.093 A  
HETATM   14  H   UNL     1     -10.540   9.746  66.379  1.00  0.00     0.000 HD 
HETATM   15  C   UNL     1      -6.513   8.460  64.892  1.00  0.00    -0.064 A  
HETATM   16  C   UNL     1      -6.910   8.590  63.557  1.00  0.00    -0.088 A  
HETATM   17  N   UNL     1      -9.575   9.515  66.612  1.00  0.00    -0.174 N  
HETATM   18  C   UNL     1      -8.659   9.297  65.591  1.00  0.00    -0.153 A  
HETATM   19  C   UNL     1      -9.056   9.444  64.264  1.00  0.00    -0.159 A  
HETATM   20  C   UNL     1      -8.171   9.101  63.243  1.00  0.00    -0.177 A  
BRANCH   9  21
HETATM   21  C   UNL     1      -7.186  11.033  68.030  1.00  0.00    -0.086 A  
HETATM   22  C   UNL     1      -7.554  13.409  68.443  1.00  0.00    -0.133 A  
HETATM   23  H   UNL     1      -6.496  15.698  68.170  1.00  0.00     0.000 HD 
HETATM   24  O   UNL     1      -5.939  15.006  67.834  1.00  0.00    -0.138 OA 
HETATM   25  C   UNL     1      -6.323  13.699  67.873  1.00  0.00    -0.156 A  
HETATM   26  C   UNL     1      -5.508  12.687  67.382  1.00  0.00    -0.074 A  
HETATM   27  C   UNL     1      -5.936  11.358  67.465  1.00  0.00    -0.064 A  
HETATM   28  C   UNL     1      -7.983  12.085  68.529  1.00  0.00    -0.132 A  
ENDBRANCH   9  21
ENDBRANCH   6   9
TORSDOF 2
ENDMDL
MODEL      164
REMARK 921   NORMALIZED FREE ENERGY PREDICTED BY IDOCK:   -2.02 KCAL/MOL
REMARK 922        TOTAL FREE ENERGY PREDICTED BY IDOCK:   -3.02 KCAL/MOL
REMARK 923 INTER-LIGAND FREE ENERGY PREDICTED BY IDOCK:   -4.55 KCAL/MOL
REMARK 924 INTRA-LIGAND FREE ENERGY PREDICTED BY IDOCK:    1.53 KCAL/MOL
REMARK 927      BINDING AFFINITY PREDICTED BY RF-SCORE:    0.00 PKD
ROOT
HETATM    1  O   UNL     1     -10.012  10.079  65.779  1.00  0.00    -0.258 OA 
HETATM    2  C   UNL     1      -9.873  11.370  66.193  1.00  0.00    -0.222 A  
HETATM    3  H   UNL     1     -10.644   9.829  65.115  1.00  0.00     0.000 HD 
HETATM    4  C   UNL     1      -8.950  11.736  67.164  1.00  0.00    -0.177 A  
HETATM    5  C   UNL     1      -8.876  13.072  67.584  1.00  0.00    -0.191 A  
HETATM    6  C   UNL     1      -9.727  14.061  67.046  1.00  0.00    -0.256 A  
HETATM    7  C   UNL     1     -10.649  13.643  66.064  1.00  0.00    -0.290 A  
HETATM    8  C   UNL     1     -10.711  12.316  65.629  1.00  0.00    -0.302 A  
ENDROOT
BRANCH   6   9
HETATM    9  C   UNL     1      -9.783  15.492  67.662  1.00  0.00    -0.212 C  
HETATM   10  O   UNL     1     -11.947  14.995  68.858  1.00  0.00    -0.304 OA 
HETATM   11  O   UNL     1      -9.611  16.462  66.582  1.00  0.00    -0.232 OA 
HETATM   12  C   UNL     1     -11.138  15.810  68.417  1.00  0.00    -0.341 C  
HETATM   13  C   UNL     1      -9.843  17.771  66.934  1.00  0.00    -0.312 A  
HETATM   14  H   UNL     1     -12.006  17.403  69.427  1.00  0.00     0.000 HD 
HETATM   15  C   UNL     1      -9.285  18.768  66.138  1.00  0.00    -0.157 A  
HETATM   16  C   UNL     1      -9.482  20.114  66.468  1.00  0.00    -0.497 A  
HETATM   17  N   UNL     1     -11.339  17.140  68.702  1.00  0.00     0.092 N  
HETATM   18  C   UNL     1     -10.647  18.130  68.017  1.00  0.00    -0.341 A  
HETATM   19  C   UNL     1     -10.834  19.467  68.362  1.00  0.00     0.184 A  
HETATM   20  C   UNL     1     -10.237  20.462  67.590  1.00  0.00    -0.410 A  
BRANCH   9  21
HETATM   21  C   UNL     1      -8.579  15.589  68.651  1.00  0.00    -0.179 A  
HETATM   22  C   UNL     1      -7.030  14.521  70.202  1.00  0.00     0.047 A  
HETATM   23  H   UNL     1      -4.974  14.948  71.626  1.00  0.00     0.000 HD 
HETATM   24  O   UNL     1      -5.246  15.725  71.151  1.00  0.00    -0.156 OA 
HETATM   25  C   UNL     1      -6.338  15.715  70.335  1.00  0.00     0.110 A  
HETATM   26  C   UNL     1      -6.737  16.851  69.642  1.00  0.00    -0.081 A  
HETATM   27  C   UNL     1      -7.850  16.787  68.799  1.00  0.00    -0.243 A  
HETATM   28  C   UNL     1      -8.140  14.452  69.361  1.00  0.00     0.180 A  
ENDBRANCH   9  21
ENDBRANCH   6   9
TORSDOF 2
ENDMDL
MODEL      165
REMARK 921   NORMALIZED FREE ENERGY PREDICTED BY IDOCK:   -2.01 KCAL/MOL
REMARK 922        TOTAL FREE ENERGY PREDICTED BY IDOCK:   -3.00 KCAL/MOL
REMARK 923 INTER-LIGAND FREE ENERGY PREDICTED BY IDOCK:   -2.76 KCAL/MOL
REMARK 924 INTRA-LIGAND FREE ENERGY PREDICTED BY IDOCK:   -0.24 KCAL/MOL
REMARK 927      BINDING AFFINITY PREDICTED BY RF-SCORE:    0.00 PKD
ROOT
HETATM    1  O   UNL     1      -7.225   4.553  73.257  1.00  0.00    -0.075 OA 
HETATM    2  C   UNL     1      -7.628   4.504  71.955  1.00  0.00    -0.088 A  
HETATM    3  H   UNL     1      -7.803   4.850  73.950  1.00  0.00     0.000 HD 
HETATM    4  C   UNL     1      -6.783   4.070  70.941  1.00  0.00    -0.032 A  
HETATM    5  C   UNL     1      -7.234   4.077  69.612  1.00  0.00    -0.049 A  
HETATM    6  C   UNL     1      -8.530   4.523  69.277  1.00  0.00    -0.092 A  
HETATM    7  C   UNL     1      -9.351   4.954  70.339  1.00  0.00    -0.213 A  
HETATM    8  C   UNL     1      -8.912   4.930  71.666  1.00  0.00    -0.161 A  
ENDROOT
BRANCH   6   9
HETATM    9  C   UNL     1      -8.948   4.724  67.788  1.00  0.00    -0.111 C  
HETATM   10  O   UNL     1     -11.055   5.943  68.447  1.00  0.00    -0.268 OA 
HETATM   11  O   UNL     1      -8.891   3.427  67.117  1.00  0.00    -0.114 OA 
HETATM   12  C   UNL     1     -10.403   5.322  67.608  1.00  0.00    -0.146 C  
HETATM   13  C   UNL     1      -9.429   3.401  65.853  1.00  0.00    -0.112 A  
HETATM   14  H   UNL     1     -11.682   5.834  66.055  1.00  0.00     0.000 HD 
HETATM   15  C   UNL     1      -9.028   2.382  64.993  1.00  0.00    -0.126 A  
HETATM   16  C   UNL     1      -9.539   2.326  63.692  1.00  0.00    -0.117 A  
HETATM   17  N   UNL     1     -10.910   5.228  66.334  1.00  0.00    -0.238 N  
HETATM   18  C   UNL     1     -10.388   4.321  65.422  1.00  0.00    -0.197 A  
HETATM   19  C   UNL     1     -10.888   4.282  64.123  1.00  0.00     0.043 A  
HETATM   20  C   UNL     1     -10.451   3.287  63.251  1.00  0.00    -0.224 A  
BRANCH   9  21
HETATM   21  C   UNL     1      -7.889   5.686  67.163  1.00  0.00    -0.101 A  
HETATM   22  C   UNL     1      -5.963   6.048  65.711  1.00  0.00    -0.029 A  
HETATM   23  H   UNL     1      -4.475   7.856  64.736  1.00  0.00     0.000 HD 
HETATM   24  O   UNL     1      -5.153   8.217  65.295  1.00  0.00    -0.031 OA 
HETATM   25  C   UNL     1      -6.055   7.414  65.928  1.00  0.00    -0.038 A  
HETATM   26  C   UNL     1      -7.047   7.941  66.747  1.00  0.00    -0.077 A  
HETATM   27  C   UNL     1      -7.964   7.080  67.357  1.00  0.00    -0.112 A  
HETATM   28  C   UNL     1      -6.876   5.186  66.317  1.00  0.00    -0.058 A  
ENDBRANCH   9  21
ENDBRANCH   6   9
TORSDOF 2
ENDMDL
MODEL      166
REMARK 921   NORMALIZED FREE ENERGY PREDICTED BY IDOCK:   -1.69 KCAL/MOL
REMARK 922        TOTAL FREE ENERGY PREDICTED BY IDOCK:   -2.65 KCAL/MOL
REMARK 923 INTER-LIGAND FREE ENERGY PREDICTED BY IDOCK:   -2.44 KCAL/MOL
REMARK 924 INTRA-LIGAND FREE ENERGY PREDICTED BY IDOCK:   -0.21 KCAL/MOL
REMARK 927      BINDING AFFINITY PREDICTED BY RF-SCORE:    0.00 PKD
ROOT
HETATM    1  O   UNL     1     -10.189   5.597  66.129  1.00  0.00    -0.362 OA 
HETATM    2  C   UNL     1     -10.380   6.880  66.549  1.00  0.00    -0.045 A  
HETATM    3  H   UNL     1     -10.323   4.854  66.706  1.00  0.00     0.000 HD 
HETATM    4  C   UNL     1     -10.184   7.966  65.705  1.00  0.00     1.576 A  
HETATM    5  C   UNL     1     -10.354   9.269  66.198  1.00  0.00    -0.118 A  
HETATM    6  C   UNL     1     -10.714   9.505  67.542  1.00  0.00    -0.311 A  
HETATM    7  C   UNL     1     -10.902   8.372  68.361  1.00  0.00     0.031 A  
HETATM    8  C   UNL     1     -10.752   7.073  67.867  1.00  0.00    -0.274 A  
ENDROOT
BRANCH   6   9
HETATM    9  C   UNL     1     -10.698  10.947  68.135  1.00  0.00    -0.214 C  
HETATM   10  O   UNL     1     -11.536  10.139  70.372  1.00  0.00    -0.273 OA 
HETATM   11  O   UNL     1     -11.425  11.826  67.221  1.00  0.00    -0.360 OA 
HETATM   12  C   UNL     1     -11.356  11.055  69.570  1.00  0.00    -0.287 C  
HETATM   13  C   UNL     1     -11.676  13.088  67.704  1.00  0.00    -0.366 A  
HETATM   14  H   UNL     1     -11.762  12.528  70.977  1.00  0.00     0.000 HD 
HETATM   15  C   UNL     1     -11.941  14.098  66.782  1.00  0.00    -0.475 A  
HETATM   16  C   UNL     1     -12.186  15.401  67.229  1.00  0.00     0.699 A  
HETATM   17  N   UNL     1     -11.627  12.338  69.984  1.00  0.00    -0.219 N  
HETATM   18  C   UNL     1     -11.721  13.378  69.069  1.00  0.00    -0.323 A  
HETATM   19  C   UNL     1     -11.948  14.676  69.521  1.00  0.00    -0.361 A  
HETATM   20  C   UNL     1     -12.168  15.694  68.594  1.00  0.00     0.090 A  
BRANCH   9  21
HETATM   21  C   UNL     1      -9.198  11.377  68.195  1.00  0.00    -0.178 A  
HETATM   22  C   UNL     1      -6.932  11.024  69.023  1.00  0.00    -0.097 A  
HETATM   23  H   UNL     1      -4.546  11.859  68.812  1.00  0.00     0.000 HD 
HETATM   24  O   UNL     1      -5.142  12.338  68.249  1.00  0.00    -0.052 OA 
HETATM   25  C   UNL     1      -6.475  12.055  68.217  1.00  0.00    -0.053 A  
HETATM   26  C   UNL     1      -7.348  12.756  67.394  1.00  0.00    -0.135 A  
HETATM   27  C   UNL     1      -8.703  12.415  67.379  1.00  0.00    -0.183 A  
HETATM   28  C   UNL     1      -8.283  10.679  69.010  1.00  0.00    -0.151 A  
ENDBRANCH   9  21
ENDBRANCH   6   9
TORSDOF 2
ENDMDL
MODEL      167
REMARK 921   NORMALIZED FREE ENERGY PREDICTED BY IDOCK:   -1.42 KCAL/MOL
REMARK 922        TOTAL FREE ENERGY PREDICTED BY IDOCK:   -2.34 KCAL/MOL
REMARK 923 INTER-LIGAND FREE ENERGY PREDICTED BY IDOCK:   -1.63 KCAL/MOL
REMARK 924 INTRA-LIGAND FREE ENERGY PREDICTED BY IDOCK:   -0.71 KCAL/MOL
REMARK 927      BINDING AFFINITY PREDICTED BY RF-SCORE:    0.00 PKD
ROOT
HETATM    1  O   UNL     1     -10.719   5.025  63.821  1.00  0.00     0.479 OA 
HETATM    2  C   UNL     1     -10.083   5.039  65.026  1.00  0.00     0.322 A  
HETATM    3  H   UNL     1     -11.331   5.706  63.568  1.00  0.00     0.000 HD 
HETATM    4  C   UNL     1      -9.187   4.044  65.397  1.00  0.00    -0.150 A  
HETATM    5  C   UNL     1      -8.590   4.083  66.666  1.00  0.00    -0.109 A  
HETATM    6  C   UNL     1      -8.884   5.113  67.585  1.00  0.00    -0.105 A  
HETATM    7  C   UNL     1      -9.798   6.101  67.166  1.00  0.00    -0.169 A  
HETATM    8  C   UNL     1     -10.380   6.075  65.895  1.00  0.00     0.391 A  
ENDROOT
BRANCH   6   9
HETATM    9  C   UNL     1      -8.381   5.039  69.060  1.00  0.00    -0.086 C  
HETATM   10  O   UNL     1      -6.237   6.238  68.489  1.00  0.00    -0.029 OA 
HETATM   11  O   UNL     1      -8.487   3.651  69.509  1.00  0.00    -0.062 OA 
HETATM   12  C   UNL     1      -6.885   5.519  69.250  1.00  0.00    -0.061 C  
HETATM   13  C   UNL     1      -7.889   3.386  70.718  1.00  0.00    -0.050 A  
HETATM   14  H   UNL     1      -5.503   5.694  70.789  1.00  0.00     0.000 HD 
HETATM   15  C   UNL     1      -8.311   2.259  71.420  1.00  0.00    -0.076 A  
HETATM   16  C   UNL     1      -7.741   1.958  72.662  1.00  0.00    -0.044 A  
HETATM   17  N   UNL     1      -6.323   5.186  70.459  1.00  0.00    -0.025 N  
HETATM   18  C   UNL     1      -6.856   4.168  71.237  1.00  0.00    -0.035 A  
HETATM   19  C   UNL     1      -6.295   3.884  72.481  1.00  0.00    -0.017 A  
HETATM   20  C   UNL     1      -6.751   2.782  73.201  1.00  0.00    -0.026 A  
BRANCH   9  21
HETATM   21  C   UNL     1      -9.347   5.936  69.896  1.00  0.00    -0.173 A  
HETATM   22  C   UNL     1     -11.300   6.163  71.339  1.00  0.00    -0.336 A  
HETATM   23  H   UNL     1     -12.604   7.833  72.733  1.00  0.00     0.000 HD 
HETATM   24  O   UNL     1     -11.851   8.232  72.312  1.00  0.00    -0.340 OA 
HETATM   25  C   UNL     1     -11.020   7.510  71.507  1.00  0.00    -0.229 A  
HETATM   26  C   UNL     1      -9.919   8.092  70.891  1.00  0.00    -0.214 A  
HETATM   27  C   UNL     1      -9.083   7.307  70.093  1.00  0.00    -0.148 A  
HETATM   28  C   UNL     1     -10.467   5.375  70.545  1.00  0.00    -0.335 A  
ENDBRANCH   9  21
ENDBRANCH   6   9
TORSDOF 2
ENDMDL
MODEL      168
REMARK 921   NORMALIZED FREE ENERGY PREDICTED BY IDOCK:   -1.34 KCAL/MOL
REMARK 922        TOTAL FREE ENERGY PREDICTED BY IDOCK:   -2.25 KCAL/MOL
REMARK 923 INTER-LIGAND FREE ENERGY PREDICTED BY IDOCK:   -2.08 KCAL/MOL
REMARK 924 INTRA-LIGAND FREE ENERGY PREDICTED BY IDOCK:   -0.17 KCAL/MOL
REMARK 927      BINDING AFFINITY PREDICTED BY RF-SCORE:    0.00 PKD
ROOT
HETATM    1  O   UNL     1      -6.575   9.099  74.414  1.00  0.00    -0.355 OA 
HETATM    2  C   UNL     1      -6.964   8.877  73.127  1.00  0.00     0.286 A  
HETATM    3  H   UNL     1      -5.931   9.761  74.637  1.00  0.00     0.000 HD 
HETATM    4  C   UNL     1      -7.905   7.909  72.800  1.00  0.00    -0.157 A  
HETATM    5  C   UNL     1      -8.240   7.691  71.455  1.00  0.00    -0.102 A  
HETATM    6  C   UNL     1      -7.636   8.433  70.417  1.00  0.00    -0.072 A  
HETATM    7  C   UNL     1      -6.687   9.404  70.796  1.00  0.00    -0.105 A  
HETATM    8  C   UNL     1      -6.365   9.636  72.137  1.00  0.00     0.456 A  
ENDROOT
BRANCH   6   9
HETATM    9  C   UNL     1      -7.857   8.046  68.923  1.00  0.00    -0.113 C  
HETATM   10  O   UNL     1      -9.618   6.345  69.525  1.00  0.00    -0.144 OA 
HETATM   11  O   UNL     1      -6.554   7.749  68.330  1.00  0.00    -0.051 OA 
HETATM   12  C   UNL     1      -8.802   6.793  68.720  1.00  0.00    -0.131 C  
HETATM   13  C   UNL     1      -6.600   7.193  67.074  1.00  0.00    -0.059 A  
HETATM   14  H   UNL     1      -9.543   5.655  67.150  1.00  0.00     0.000 HD 
HETATM   15  C   UNL     1      -5.465   7.295  66.273  1.00  0.00    -0.024 A  
HETATM   16  C   UNL     1      -5.474   6.757  64.981  1.00  0.00    -0.027 A  
HETATM   17  N   UNL     1      -8.774   6.249  67.458  1.00  0.00    -0.107 N  
HETATM   18  C   UNL     1      -7.713   6.497  66.597  1.00  0.00    -0.099 A  
HETATM   19  C   UNL     1      -7.735   5.973  65.307  1.00  0.00    -0.093 A  
HETATM   20  C   UNL     1      -6.613   6.116  64.492  1.00  0.00    -0.038 A  
BRANCH   9  21
HETATM   21  C   UNL     1      -8.472   9.304  68.233  1.00  0.00    -0.120 A  
HETATM   22  C   UNL     1     -10.267  10.945  68.049  1.00  0.00    -0.202 A  
HETATM   23  H   UNL     1     -10.947  13.077  66.853  1.00  0.00     0.000 HD 
HETATM   24  O   UNL     1     -10.089  12.774  66.580  1.00  0.00    -0.235 OA 
HETATM   25  C   UNL     1      -9.538  11.637  67.094  1.00  0.00    -0.175 A  
HETATM   26  C   UNL     1      -8.283  11.193  66.695  1.00  0.00    -0.158 A  
HETATM   27  C   UNL     1      -7.750  10.034  67.266  1.00  0.00    -0.095 A  
HETATM   28  C   UNL     1      -9.739   9.790  68.623  1.00  0.00    -0.162 A  
ENDBRANCH   9  21
ENDBRANCH   6   9
TORSDOF 2
ENDMDL
MODEL      169
REMARK 921   NORMALIZED FREE ENERGY PREDICTED BY IDOCK:   -1.13 KCAL/MOL
REMARK 922        TOTAL FREE ENERGY PREDICTED BY IDOCK:   -2.02 KCAL/MOL
REMARK 923 INTER-LIGAND FREE ENERGY PREDICTED BY IDOCK:   -1.67 KCAL/MOL
REMARK 924 INTRA-LIGAND FREE ENERGY PREDICTED BY IDOCK:   -0.35 KCAL/MOL
REMARK 927      BINDING AFFINITY PREDICTED BY RF-SCORE:    0.00 PKD
ROOT
HETATM    1  O   UNL     1     -13.921  16.377  74.381  1.00  0.00     0.604 OA 
HETATM    2  C   UNL     1     -13.128  15.924  73.370  1.00  0.00    -0.587 A  
HETATM    3  H   UNL     1     -14.866  16.434  74.292  1.00  0.00     0.000 HD 
HETATM    4  C   UNL     1     -11.747  15.840  73.500  1.00  0.00    -0.214 A  
HETATM    5  C   UNL     1     -10.971  15.406  72.415  1.00  0.00     0.314 A  
HETATM    6  C   UNL     1     -11.563  15.055  71.182  1.00  0.00    -0.377 A  
HETATM    7  C   UNL     1     -12.967  15.155  71.096  1.00  0.00    -0.488 A  
HETATM    8  C   UNL     1     -13.743  15.569  72.182  1.00  0.00    -0.614 A  
ENDROOT
BRANCH   6   9
HETATM    9  C   UNL     1     -10.686  14.775  69.924  1.00  0.00    -0.113 C  
HETATM   10  O   UNL     1     -12.327  13.074  69.042  1.00  0.00    -0.126 OA 
HETATM   11  O   UNL     1      -9.323  14.490  70.370  1.00  0.00     1.044 OA 
HETATM   12  C   UNL     1     -11.195  13.559  69.048  1.00  0.00    -0.269 C  
HETATM   13  C   UNL     1      -8.478  14.020  69.393  1.00  0.00     0.548 A  
HETATM   14  H   UNL     1     -10.621  12.545  67.329  1.00  0.00     0.000 HD 
HETATM   15  C   UNL     1      -7.106  14.152  69.599  1.00  0.00     0.046 A  
HETATM   16  C   UNL     1      -6.209  13.703  68.623  1.00  0.00    -0.088 A  
HETATM   17  N   UNL     1     -10.292  13.100  68.119  1.00  0.00    -0.238 N  
HETATM   18  C   UNL     1      -8.938  13.382  68.239  1.00  0.00    -0.176 A  
HETATM   19  C   UNL     1      -8.052  12.947  67.256  1.00  0.00    -0.164 A  
HETATM   20  C   UNL     1      -6.682  13.121  67.445  1.00  0.00    -0.107 A  
BRANCH   9  21
HETATM   21  C   UNL     1     -10.698  16.089  69.081  1.00  0.00    -0.272 A  
HETATM   22  C   UNL     1     -11.089  17.237  66.965  1.00  0.00     0.250 A  
HETATM   23  H   UNL     1     -11.164  19.534  65.892  1.00  0.00     0.000 HD 
HETATM   24  O   UNL     1     -10.952  19.580  66.817  1.00  0.00    -0.436 OA 
HETATM   25  C   UNL     1     -10.851  18.455  67.581  1.00  0.00    -0.259 A  
HETATM   26  C   UNL     1     -10.541  18.522  68.934  1.00  0.00     0.220 A  
HETATM   27  C   UNL     1     -10.470  17.344  69.683  1.00  0.00     0.142 A  
HETATM   28  C   UNL     1     -11.021  16.059  67.708  1.00  0.00    -0.307 A  
ENDBRANCH   9  21
ENDBRANCH   6   9
TORSDOF 2
ENDMDL
MODEL      170
REMARK 921   NORMALIZED FREE ENERGY PREDICTED BY IDOCK:   -0.32 KCAL/MOL
REMARK 922        TOTAL FREE ENERGY PREDICTED BY IDOCK:   -1.12 KCAL/MOL
REMARK 923 INTER-LIGAND FREE ENERGY PREDICTED BY IDOCK:   -0.95 KCAL/MOL
REMARK 924 INTRA-LIGAND FREE ENERGY PREDICTED BY IDOCK:   -0.17 KCAL/MOL
REMARK 927      BINDING AFFINITY PREDICTED BY RF-SCORE:    0.00 PKD
ROOT
HETATM    1  O   UNL     1      -6.221   8.448  74.453  1.00  0.00    -0.112 OA 
HETATM    2  C   UNL     1      -6.578   7.656  73.403  1.00  0.00    -0.069 A  
HETATM    3  H   UNL     1      -5.949   9.350  74.333  1.00  0.00     0.000 HD 
HETATM    4  C   UNL     1      -6.975   6.337  73.578  1.00  0.00    -0.079 A  
HETATM    5  C   UNL     1      -7.293   5.552  72.459  1.00  0.00    -0.095 A  
HETATM    6  C   UNL     1      -7.211   6.071  71.150  1.00  0.00    -0.075 A  
HETATM    7  C   UNL     1      -6.802   7.414  71.020  1.00  0.00    -0.054 A  
HETATM    8  C   UNL     1      -6.505   8.204  72.134  1.00  0.00    -0.063 A  
ENDROOT
BRANCH   6   9
HETATM    9  C   UNL     1      -7.362   5.140  69.908  1.00  0.00    -0.060 C  
HETATM   10  O   UNL     1      -7.842   3.131  71.355  1.00  0.00    -0.053 OA 
HETATM   11  O   UNL     1      -6.184   5.315  69.059  1.00  0.00    -0.030 OA 
HETATM   12  C   UNL     1      -7.498   3.606  70.273  1.00  0.00    -0.041 C  
HETATM   13  C   UNL     1      -6.070   4.411  68.030  1.00  0.00    -0.031 A  
HETATM   14  H   UNL     1      -7.687   1.793  69.279  1.00  0.00     0.000 HD 
HETATM   15  C   UNL     1      -5.273   4.759  66.942  1.00  0.00    -0.008 A  
HETATM   16  C   UNL     1      -5.141   3.876  65.865  1.00  0.00    -0.009 A  
HETATM   17  N   UNL     1      -7.329   2.745  69.214  1.00  0.00    -0.044 N  
HETATM   18  C   UNL     1      -6.679   3.155  68.058  1.00  0.00    -0.045 A  
HETATM   19  C   UNL     1      -6.566   2.277  66.982  1.00  0.00    -0.039 A  
HETATM   20  C   UNL     1      -5.803   2.646  65.875  1.00  0.00    -0.022 A  
BRANCH   9  21
HETATM   21  C   UNL     1      -8.634   5.629  69.147  1.00  0.00    -0.105 A  
HETATM   22  C   UNL     1      -9.654   6.683  67.199  1.00  0.00    -0.168 A  
HETATM   23  H   UNL     1     -11.890   7.236  66.134  1.00  0.00     0.000 HD 
HETATM   24  O   UNL     1     -11.992   6.781  66.962  1.00  0.00     1.137 OA 
HETATM   25  C   UNL     1     -10.914   6.402  67.705  1.00  0.00    -0.332 A  
HETATM   26  C   UNL     1     -11.064   5.738  68.917  1.00  0.00    -0.136 A  
HETATM   27  C   UNL     1      -9.928   5.348  69.632  1.00  0.00    -0.297 A  
HETATM   28  C   UNL     1      -8.519   6.295  67.908  1.00  0.00    -0.117 A  
ENDBRANCH   9  21
ENDBRANCH   6   9
TORSDOF 2
ENDMDL
MODEL      171
REMARK 921   NORMALIZED FREE ENERGY PREDICTED BY IDOCK:    1.16 KCAL/MOL
REMARK 922        TOTAL FREE ENERGY PREDICTED BY IDOCK:    0.54 KCAL/MOL
REMARK 923 INTER-LIGAND FREE ENERGY PREDICTED BY IDOCK:    1.33 KCAL/MOL
REMARK 924 INTRA-LIGAND FREE ENERGY PREDICTED BY IDOCK:   -0.78 KCAL/MOL
REMARK 927      BINDING AFFINITY PREDICTED BY RF-SCORE:    0.00 PKD
ROOT
HETATM    1  O   UNL     1     -11.549   8.528  70.150  1.00  0.00    -0.463 OA 
HETATM    2  C   UNL     1     -11.256   9.739  69.597  1.00  0.00    -0.178 A  
HETATM    3  H   UNL     1     -12.290   8.009  69.860  1.00  0.00     0.000 HD 
HETATM    4  C   UNL     1     -10.172  10.498  70.021  1.00  0.00    -0.024 A  
HETATM    5  C   UNL     1      -9.938  11.757  69.447  1.00  0.00     0.456 A  
HETATM    6  C   UNL     1     -10.787  12.278  68.447  1.00  0.00    -0.257 A  
HETATM    7  C   UNL     1     -11.874  11.473  68.048  1.00  0.00    -0.287 A  
HETATM    8  C   UNL     1     -12.098  10.210  68.605  1.00  0.00     0.776 A  
ENDROOT
BRANCH   6   9
HETATM    9  C   UNL     1     -10.644  13.754  67.965  1.00  0.00    -0.252 C  
HETATM   10  O   UNL     1     -12.183  14.593  69.778  1.00  0.00    -0.313 OA 
HETATM   11  O   UNL     1     -10.920  13.795  66.530  1.00  0.00    -0.296 OA 
HETATM   12  C   UNL     1     -11.622  14.762  68.696  1.00  0.00    -0.319 C  
HETATM   13  C   UNL     1     -11.037  15.057  65.996  1.00  0.00    -0.329 A  
HETATM   14  H   UNL     1     -12.087  16.784  68.631  1.00  0.00     0.000 HD 
HETATM   15  C   UNL     1     -10.847  15.205  64.624  1.00  0.00    -0.285 A  
HETATM   16  C   UNL     1     -10.941  16.473  64.041  1.00  0.00     1.342 A  
HETATM   17  N   UNL     1     -11.736  15.992  68.093  1.00  0.00    -0.188 N  
HETATM   18  C   UNL     1     -11.382  16.171  66.763  1.00  0.00     0.300 A  
HETATM   19  C   UNL     1     -11.461  17.440  66.193  1.00  0.00     1.438 A  
HETATM   20  C   UNL     1     -11.226  17.592  64.827  1.00  0.00     1.133 A  
BRANCH   9  21
HETATM   21  C   UNL     1      -9.159  14.158  68.226  1.00  0.00    -0.190 A  
HETATM   22  C   UNL     1      -6.847  14.309  67.465  1.00  0.00    -0.158 A  
HETATM   23  H   UNL     1      -4.559  15.198  68.105  1.00  0.00     0.000 HD 
HETATM   24  O   UNL     1      -5.214  15.390  68.767  1.00  0.00    -0.094 OA 
HETATM   25  C   UNL     1      -6.509  14.990  68.624  1.00  0.00    -0.087 A  
HETATM   26  C   UNL     1      -7.467  15.270  69.592  1.00  0.00    -0.181 A  
HETATM   27  C   UNL     1      -8.788  14.860  69.391  1.00  0.00    -0.046 A  
HETATM   28  C   UNL     1      -8.164  13.900  67.259  1.00  0.00    -0.176 A  
ENDBRANCH   9  21
ENDBRANCH   6   9
TORSDOF 2
ENDMDL
MODEL      172
REMARK 921   NORMALIZED FREE ENERGY PREDICTED BY IDOCK:    6.61 KCAL/MOL
REMARK 922        TOTAL FREE ENERGY PREDICTED BY IDOCK:    6.63 KCAL/MOL
REMARK 923 INTER-LIGAND FREE ENERGY PREDICTED BY IDOCK:    6.43 KCAL/MOL
REMARK 924 INTRA-LIGAND FREE ENERGY PREDICTED BY IDOCK:    0.20 KCAL/MOL
REMARK 927      BINDING AFFINITY PREDICTED BY RF-SCORE:    0.00 PKD
ROOT
HETATM    1  O   UNL     1     -12.765   6.047  66.533  1.00  0.00     3.744 OA 
HETATM    2  C   UNL     1     -11.706   6.849  66.839  1.00  0.00     1.570 A  
HETATM    3  H   UNL     1     -13.286   5.625  67.206  1.00  0.00     0.000 HD 
HETATM    4  C   UNL     1     -10.943   7.466  65.856  1.00  0.00     2.948 A  
HETATM    5  C   UNL     1      -9.838   8.249  66.223  1.00  0.00    -0.227 A  
HETATM    6  C   UNL     1      -9.476   8.422  67.576  1.00  0.00    -0.182 A  
HETATM    7  C   UNL     1     -10.279   7.777  68.539  1.00  0.00    -0.227 A  
HETATM    8  C   UNL     1     -11.392   7.013  68.177  1.00  0.00     0.159 A  
ENDROOT
BRANCH   6   9
HETATM    9  C   UNL     1      -8.135   9.117  67.964  1.00  0.00    -0.105 C  
HETATM   10  O   UNL     1      -7.463   7.197  69.455  1.00  0.00    -0.090 OA 
HETATM   11  O   UNL     1      -8.436  10.476  68.411  1.00  0.00    -0.117 OA 
HETATM   12  C   UNL     1      -7.339   8.372  69.112  1.00  0.00    -0.079 C  
HETATM   13  C   UNL     1      -7.381  11.147  68.982  1.00  0.00    -0.120 A  
HETATM   14  H   UNL     1      -5.585   8.629  70.192  1.00  0.00     0.000 HD 
HETATM   15  C   UNL     1      -7.436  12.538  69.018  1.00  0.00     0.088 A  
HETATM   16  C   UNL     1      -6.377  13.263  69.576  1.00  0.00    -0.104 A  
HETATM   17  N   UNL     1      -6.325   9.107  69.679  1.00  0.00    -0.039 N  
HETATM   18  C   UNL     1      -6.295  10.490  69.563  1.00  0.00    -0.064 A  
HETATM   19  C   UNL     1      -5.229  11.205  70.106  1.00  0.00    -0.062 A  
HETATM   20  C   UNL     1      -5.266  12.598  70.099  1.00  0.00    -0.100 A  
BRANCH   9  21
HETATM   21  C   UNL     1      -7.278   9.171  66.660  1.00  0.00    -0.085 A  
HETATM   22  C   UNL     1      -6.244   8.037  64.765  1.00  0.00    -0.049 A  
HETATM   23  H   UNL     1      -4.961   8.446  62.615  1.00  0.00     0.000 HD 
HETATM   24  O   UNL     1      -5.169   9.256  63.065  1.00  0.00    -0.067 OA 
HETATM   25  C   UNL     1      -5.848   9.260  64.248  1.00  0.00    -0.071 A  
HETATM   26  C   UNL     1      -6.153  10.446  64.906  1.00  0.00    -0.108 A  
HETATM   27  C   UNL     1      -6.870  10.401  66.105  1.00  0.00    -0.125 A  
HETATM   28  C   UNL     1      -6.961   7.988  65.960  1.00  0.00    -0.058 A  
ENDBRANCH   9  21
ENDBRANCH   6   9
TORSDOF 2
ENDMDL
MODEL      173
REMARK 921   NORMALIZED FREE ENERGY PREDICTED BY IDOCK:    8.53 KCAL/MOL
REMARK 922        TOTAL FREE ENERGY PREDICTED BY IDOCK:    8.77 KCAL/MOL
REMARK 923 INTER-LIGAND FREE ENERGY PREDICTED BY IDOCK:    7.39 KCAL/MOL
REMARK 924 INTRA-LIGAND FREE ENERGY PREDICTED BY IDOCK:    1.38 KCAL/MOL
REMARK 927      BINDING AFFINITY PREDICTED BY RF-SCORE:    0.00 PKD
ROOT
HETATM    1  O   UNL     1      -5.125  15.024  73.678  1.00  0.00    -0.051 OA 
HETATM    2  C   UNL     1      -6.002  15.157  72.643  1.00  0.00     1.007 A  
HETATM    3  H   UNL     1      -4.219  15.302  73.609  1.00  0.00     0.000 HD 
HETATM    4  C   UNL     1      -7.326  14.751  72.745  1.00  0.00     4.776 A  
HETATM    5  C   UNL     1      -8.177  14.872  71.636  1.00  0.00     4.449 A  
HETATM    6  C   UNL     1      -7.716  15.393  70.408  1.00  0.00     0.865 A  
HETATM    7  C   UNL     1      -6.365  15.792  70.351  1.00  0.00     0.145 A  
HETATM    8  C   UNL     1      -5.520  15.691  71.460  1.00  0.00     0.211 A  
ENDROOT
BRANCH   6   9
HETATM    9  C   UNL     1      -8.604  15.331  69.127  1.00  0.00    -0.235 C  
HETATM   10  O   UNL     1     -10.650  16.082  70.395  1.00  0.00    -0.262 OA 
HETATM   11  O   UNL     1      -8.420  14.021  68.507  1.00  0.00    -0.160 OA 
HETATM   12  C   UNL     1     -10.146  15.547  69.408  1.00  0.00    -0.266 C  
HETATM   13  C   UNL     1      -9.292  13.736  67.483  1.00  0.00    -0.222 A  
HETATM   14  H   UNL     1     -11.923  15.575  68.334  1.00  0.00     0.000 HD 
HETATM   15  C   UNL     1      -8.922  12.755  66.566  1.00  0.00    -0.098 A  
HETATM   16  C   UNL     1      -9.772  12.443  65.498  1.00  0.00    -0.150 A  
HETATM   17  N   UNL     1     -10.974  15.202  68.367  1.00  0.00    -0.260 N  
HETATM   18  C   UNL     1     -10.538  14.353  67.359  1.00  0.00    -0.270 A  
HETATM   19  C   UNL     1     -11.382  14.060  66.290  1.00  0.00    -0.336 A  
HETATM   20  C   UNL     1     -10.990  13.110  65.349  1.00  0.00    -0.298 A  
BRANCH   9  21
HETATM   21  C   UNL     1      -8.069  16.444  68.171  1.00  0.00    -0.165 A  
HETATM   22  C   UNL     1      -6.201  17.686  67.213  1.00  0.00    -0.172 A  
HETATM   23  H   UNL     1      -5.615  19.439  65.476  1.00  0.00     0.000 HD 
HETATM   24  O   UNL     1      -6.547  19.256  65.497  1.00  0.00    -0.241 OA 
HETATM   25  C   UNL     1      -7.076  18.350  66.368  1.00  0.00    -0.239 A  
HETATM   26  C   UNL     1      -8.439  18.083  66.398  1.00  0.00    -0.262 A  
HETATM   27  C   UNL     1      -8.933  17.129  67.293  1.00  0.00    -0.228 A  
HETATM   28  C   UNL     1      -6.689  16.732  68.106  1.00  0.00    -0.152 A  
ENDBRANCH   9  21
ENDBRANCH   6   9
TORSDOF 2
ENDMDL
MODEL      174
REMARK 921   NORMALIZED FREE ENERGY PREDICTED BY IDOCK:    8.70 KCAL/MOL
REMARK 922        TOTAL FREE ENERGY PREDICTED BY IDOCK:    8.96 KCAL/MOL
REMARK 923 INTER-LIGAND FREE ENERGY PREDICTED BY IDOCK:    9.50 KCAL/MOL
REMARK 924 INTRA-LIGAND FREE ENERGY PREDICTED BY IDOCK:   -0.54 KCAL/MOL
REMARK 927      BINDING AFFINITY PREDICTED BY RF-SCORE:    0.00 PKD
ROOT
HETATM    1  O   UNL     1      -5.125  15.024  73.678  1.00  0.00    -0.051 OA 
HETATM    2  C   UNL     1      -5.997  15.156  72.639  1.00  0.00     1.007 A  
HETATM    3  H   UNL     1      -4.220  15.307  73.615  1.00  0.00     0.000 HD 
HETATM    4  C   UNL     1      -7.319  14.742  72.732  1.00  0.00     4.776 A  
HETATM    5  C   UNL     1      -8.165  14.862  71.618  1.00  0.00     4.449 A  
HETATM    6  C   UNL     1      -7.700  15.391  70.395  1.00  0.00     0.865 A  
HETATM    7  C   UNL     1      -6.351  15.798  70.348  1.00  0.00     0.145 A  
HETATM    8  C   UNL     1      -5.512  15.698  71.461  1.00  0.00     0.211 A  
ENDROOT
BRANCH   6   9
HETATM    9  C   UNL     1      -8.580  15.330  69.109  1.00  0.00    -0.235 C  
HETATM   10  O   UNL     1      -7.053  13.636  68.032  1.00  0.00    -0.099 OA 
HETATM   11  O   UNL     1      -8.800  16.697  68.640  1.00  0.00    -0.231 OA 
HETATM   12  C   UNL     1      -7.935  14.489  67.934  1.00  0.00    -0.147 C  
HETATM   13  C   UNL     1      -9.385  16.798  67.400  1.00  0.00    -0.233 A  
HETATM   14  H   UNL     1      -8.392  13.966  65.977  1.00  0.00     0.000 HD 
HETATM   15  C   UNL     1     -10.029  17.990  67.078  1.00  0.00    -0.330 A  
HETATM   16  C   UNL     1     -10.651  18.132  65.833  1.00  0.00    -0.247 A  
HETATM   17  N   UNL     1      -8.530  14.665  66.707  1.00  0.00    -0.175 N  
HETATM   18  C   UNL     1      -9.315  15.780  66.447  1.00  0.00    -0.301 A  
HETATM   19  C   UNL     1      -9.947  15.907  65.212  1.00  0.00    -0.121 A  
HETATM   20  C   UNL     1     -10.628  17.084  64.910  1.00  0.00     0.263 A  
BRANCH   9  21
HETATM   21  C   UNL     1      -9.941  14.697  69.541  1.00  0.00     0.041 A  
HETATM   22  C   UNL     1     -12.183  14.942  70.468  1.00  0.00    -0.388 A  
HETATM   23  H   UNL     1     -14.330  13.674  70.935  1.00  0.00     0.000 HD 
HETATM   24  O   UNL     1     -13.671  13.122  70.530  1.00  0.00     0.858 OA 
HETATM   25  C   UNL     1     -12.438  13.605  70.206  1.00  0.00    -0.265 A  
HETATM   26  C   UNL     1     -11.474  12.797  69.614  1.00  0.00    -0.255 A  
HETATM   27  C   UNL     1     -10.232  13.343  69.278  1.00  0.00     0.299 A  
HETATM   28  C   UNL     1     -10.946  15.491  70.133  1.00  0.00    -0.336 A  
ENDBRANCH   9  21
ENDBRANCH   6   9
TORSDOF 2
ENDMDL
MODEL      175
REMARK 921   NORMALIZED FREE ENERGY PREDICTED BY IDOCK:    9.65 KCAL/MOL
REMARK 922        TOTAL FREE ENERGY PREDICTED BY IDOCK:   10.02 KCAL/MOL
REMARK 923 INTER-LIGAND FREE ENERGY PREDICTED BY IDOCK:    9.77 KCAL/MOL
REMARK 924 INTRA-LIGAND FREE ENERGY PREDICTED BY IDOCK:    0.25 KCAL/MOL
REMARK 927      BINDING AFFINITY PREDICTED BY RF-SCORE:    0.00 PKD
ROOT
HETATM    1  O   UNL     1     -13.801  10.634  68.553  1.00  0.00     5.019 OA 
HETATM    2  C   UNL     1     -12.779  11.535  68.552  1.00  0.00     1.614 A  
HETATM    3  H   UNL     1     -13.651   9.703  68.675  1.00  0.00     0.000 HD 
HETATM    4  C   UNL     1     -12.999  12.895  68.373  1.00  0.00     2.339 A  
HETATM    5  C   UNL     1     -11.908  13.777  68.339  1.00  0.00    -0.411 A  
HETATM    6  C   UNL     1     -10.583  13.313  68.477  1.00  0.00    -0.270 A  
HETATM    7  C   UNL     1     -10.408  11.925  68.656  1.00  0.00    -0.218 A  
HETATM    8  C   UNL     1     -11.494  11.047  68.710  1.00  0.00    -0.372 A  
ENDROOT
BRANCH   6   9
HETATM    9  C   UNL     1      -9.371  14.263  68.231  1.00  0.00    -0.208 C  
HETATM   10  O   UNL     1      -8.192  12.546  66.809  1.00  0.00    -0.116 OA 
HETATM   11  O   UNL     1      -8.908  14.758  69.526  1.00  0.00    -0.036 OA 
HETATM   12  C   UNL     1      -8.156  13.570  67.490  1.00  0.00    -0.186 C  
HETATM   13  C   UNL     1      -7.717  15.444  69.494  1.00  0.00    -0.210 A  
HETATM   14  H   UNL     1      -6.247  14.075  66.849  1.00  0.00     0.000 HD 
HETATM   15  C   UNL     1      -7.435  16.312  70.547  1.00  0.00     2.080 A  
HETATM   16  C   UNL     1      -6.242  17.042  70.547  1.00  0.00     0.591 A  
HETATM   17  N   UNL     1      -6.978  14.279  67.530  1.00  0.00    -0.184 N  
HETATM   18  C   UNL     1      -6.771  15.267  68.482  1.00  0.00    -0.112 A  
HETATM   19  C   UNL     1      -5.588  16.003  68.467  1.00  0.00    -0.103 A  
HETATM   20  C   UNL     1      -5.330  16.904  69.499  1.00  0.00    -0.153 A  
BRANCH   9  21
HETATM   21  C   UNL     1      -9.915  15.453  67.379  1.00  0.00    -0.229 A  
HETATM   22  C   UNL     1      -9.991  16.680  65.273  1.00  0.00     0.243 A  
HETATM   23  H   UNL     1     -11.149  18.602  64.090  1.00  0.00     0.000 HD 
HETATM   24  O   UNL     1     -11.473  18.482  64.976  1.00  0.00     0.350 OA 
HETATM   25  C   UNL     1     -10.975  17.508  65.790  1.00  0.00     0.185 A  
HETATM   26  C   UNL     1     -11.448  17.332  67.084  1.00  0.00     0.858 A  
HETATM   27  C   UNL     1     -10.923  16.304  67.874  1.00  0.00    -0.310 A  
HETATM   28  C   UNL     1      -9.466  15.653  66.056  1.00  0.00    -0.390 A  
ENDBRANCH   9  21
ENDBRANCH   6   9
TORSDOF 2
ENDMDL
MODEL      176
REMARK 921   NORMALIZED FREE ENERGY PREDICTED BY IDOCK:   10.08 KCAL/MOL
REMARK 922        TOTAL FREE ENERGY PREDICTED BY IDOCK:   10.50 KCAL/MOL
REMARK 923 INTER-LIGAND FREE ENERGY PREDICTED BY IDOCK:   10.90 KCAL/MOL
REMARK 924 INTRA-LIGAND FREE ENERGY PREDICTED BY IDOCK:   -0.40 KCAL/MOL
REMARK 927      BINDING AFFINITY PREDICTED BY RF-SCORE:    0.00 PKD
ROOT
HETATM    1  O   UNL     1     -13.850  10.633  68.556  1.00  0.00     5.019 OA 
HETATM    2  C   UNL     1     -13.081  11.751  68.685  1.00  0.00     3.218 A  
HETATM    3  H   UNL     1     -13.482   9.759  68.626  1.00  0.00     0.000 HD 
HETATM    4  C   UNL     1     -13.618  13.028  68.582  1.00  0.00     6.071 A  
HETATM    5  C   UNL     1     -12.776  14.146  68.682  1.00  0.00     0.792 A  
HETATM    6  C   UNL     1     -11.386  14.005  68.878  1.00  0.00    -0.314 A  
HETATM    7  C   UNL     1     -10.886  12.690  68.976  1.00  0.00    -0.192 A  
HETATM    8  C   UNL     1     -11.725  11.575  68.897  1.00  0.00    -0.403 A  
ENDROOT
BRANCH   6   9
HETATM    9  C   UNL     1     -10.433  15.235  68.780  1.00  0.00    -0.237 C  
HETATM   10  O   UNL     1     -10.944  15.939  71.147  1.00  0.00    -0.248 OA 
HETATM   11  O   UNL     1     -10.780  15.987  67.575  1.00  0.00    -0.312 OA 
HETATM   12  C   UNL     1     -10.517  16.209  70.025  1.00  0.00    -0.215 C  
HETATM   13  C   UNL     1     -10.168  17.212  67.458  1.00  0.00    -0.323 A  
HETATM   14  H   UNL     1      -9.668  17.999  70.646  1.00  0.00     0.000 HD 
HETATM   15  C   UNL     1     -10.077  17.777  66.188  1.00  0.00    -0.308 A  
HETATM   16  C   UNL     1      -9.447  19.015  66.020  1.00  0.00    -0.133 A  
HETATM   17  N   UNL     1      -9.929  17.437  69.836  1.00  0.00     0.425 N  
HETATM   18  C   UNL     1      -9.684  17.922  68.559  1.00  0.00    -0.351 A  
HETATM   19  C   UNL     1      -9.041  19.148  68.397  1.00  0.00    -0.405 A  
HETATM   20  C   UNL     1      -8.911  19.689  67.119  1.00  0.00    -0.385 A  
BRANCH   9  21
HETATM   21  C   UNL     1      -8.989  14.660  68.641  1.00  0.00    -0.184 A  
HETATM   22  C   UNL     1      -6.761  14.302  69.566  1.00  0.00    -0.130 A  
HETATM   23  H   UNL     1      -4.550  13.136  69.129  1.00  0.00     0.000 HD 
HETATM   24  O   UNL     1      -5.179  12.980  68.434  1.00  0.00    -0.061 OA 
HETATM   25  C   UNL     1      -6.429  13.524  68.468  1.00  0.00    -0.090 A  
HETATM   26  C   UNL     1      -7.348  13.296  67.451  1.00  0.00    -0.125 A  
HETATM   27  C   UNL     1      -8.625  13.857  67.540  1.00  0.00    -0.195 A  
HETATM   28  C   UNL     1      -8.034  14.862  69.660  1.00  0.00    -0.010 A  
ENDBRANCH   9  21
ENDBRANCH   6   9
TORSDOF 2
ENDMDL
MODEL      177
REMARK 921   NORMALIZED FREE ENERGY PREDICTED BY IDOCK:   30.77 KCAL/MOL
REMARK 922        TOTAL FREE ENERGY PREDICTED BY IDOCK:   33.61 KCAL/MOL
REMARK 923 INTER-LIGAND FREE ENERGY PREDICTED BY IDOCK:   33.69 KCAL/MOL
REMARK 924 INTRA-LIGAND FREE ENERGY PREDICTED BY IDOCK:   -0.08 KCAL/MOL
REMARK 927      BINDING AFFINITY PREDICTED BY RF-SCORE:    0.00 PKD
ROOT
HETATM    1  O   UNL     1      -9.892  14.995  73.379  1.00  0.00     4.356 OA 
HETATM    2  C   UNL     1     -10.032  15.026  72.024  1.00  0.00     3.276 A  
HETATM    3  H   UNL     1     -10.641  14.933  73.960  1.00  0.00     0.000 HD 
HETATM    4  C   UNL     1      -8.936  15.116  71.174  1.00  0.00     2.953 A  
HETATM    5  C   UNL     1      -9.136  15.187  69.787  1.00  0.00     0.025 A  
HETATM    6  C   UNL     1     -10.433  15.175  69.230  1.00  0.00    -0.261 A  
HETATM    7  C   UNL     1     -11.514  15.082  70.130  1.00  0.00    -0.314 A  
HETATM    8  C   UNL     1     -11.317  14.992  71.511  1.00  0.00    -0.330 A  
ENDROOT
BRANCH   6   9
HETATM    9  C   UNL     1     -10.656  15.462  67.713  1.00  0.00    -0.274 C  
HETATM   10  O   UNL     1      -9.364  17.624  67.836  1.00  0.00    -0.258 OA 
HETATM   11  O   UNL     1     -12.085  15.339  67.430  1.00  0.00    -0.005 OA 
HETATM   12  C   UNL     1     -10.171  16.898  67.257  1.00  0.00    -0.297 C  
HETATM   13  C   UNL     1     -12.467  15.765  66.180  1.00  0.00     1.829 A  
HETATM   14  H   UNL     1     -10.137  18.038  65.522  1.00  0.00     0.000 HD 
HETATM   15  C   UNL     1     -13.671  15.285  65.668  1.00  0.00     2.934 A  
HETATM   16  C   UNL     1     -14.092  15.679  64.393  1.00  0.00     4.482 A  
HETATM   17  N   UNL     1     -10.621  17.291  66.019  1.00  0.00    -0.282 N  
HETATM   18  C   UNL     1     -11.727  16.686  65.436  1.00  0.00     1.154 A  
HETATM   19  C   UNL     1     -12.131  17.070  64.160  1.00  0.00     3.054 A  
HETATM   20  C   UNL     1     -13.313  16.553  63.632  1.00  0.00     5.780 A  
BRANCH   9  21
HETATM   21  C   UNL     1      -9.871  14.356  66.939  1.00  0.00    -0.263 A  
HETATM   22  C   UNL     1      -8.439  13.693  65.080  1.00  0.00     4.225 A  
HETATM   23  H   UNL     1      -7.141  11.735  64.122  1.00  0.00     0.000 HD 
HETATM   24  O   UNL     1      -7.586  11.506  64.930  1.00  0.00     0.978 OA 
HETATM   25  C   UNL     1      -8.349  12.413  65.604  1.00  0.00     1.246 A  
HETATM   26  C   UNL     1      -9.000  12.079  66.786  1.00  0.00    -0.198 A  
HETATM   27  C   UNL     1      -9.753  13.048  67.454  1.00  0.00    -0.213 A  
HETATM   28  C   UNL     1      -9.188  14.664  65.743  1.00  0.00     0.093 A  
ENDBRANCH   9  21
ENDBRANCH   6   9
TORSDOF 2
ENDMDL
MODEL      178
REMARK 921   NORMALIZED FREE ENERGY PREDICTED BY IDOCK:   38.38 KCAL/MOL
REMARK 922        TOTAL FREE ENERGY PREDICTED BY IDOCK:   42.12 KCAL/MOL
REMARK 923 INTER-LIGAND FREE ENERGY PREDICTED BY IDOCK:   42.63 KCAL/MOL
REMARK 924 INTRA-LIGAND FREE ENERGY PREDICTED BY IDOCK:   -0.51 KCAL/MOL
REMARK 927      BINDING AFFINITY PREDICTED BY RF-SCORE:    0.00 PKD
ROOT
HETATM    1  O   UNL     1      -5.138  15.024  73.758  1.00  0.00     0.006 OA 
HETATM    2  C   UNL     1      -6.320  14.871  73.097  1.00  0.00     1.545 A  
HETATM    3  H   UNL     1      -4.369  15.388  73.335  1.00  0.00     0.000 HD 
HETATM    4  C   UNL     1      -7.445  14.340  73.716  1.00  0.00     5.637 A  
HETATM    5  C   UNL     1      -8.626  14.165  72.978  1.00  0.00    10.154 A  
HETATM    6  C   UNL     1      -8.699  14.512  71.612  1.00  0.00     5.546 A  
HETATM    7  C   UNL     1      -7.533  15.047  71.027  1.00  0.00     1.721 A  
HETATM    8  C   UNL     1      -6.361  15.241  71.764  1.00  0.00     1.245 A  
ENDROOT
BRANCH   6   9
HETATM    9  C   UNL     1      -9.940  14.124  70.752  1.00  0.00     2.844 C  
HETATM   10  O   UNL     1     -11.300  16.032  71.685  1.00  0.00    -0.361 OA 
HETATM   11  O   UNL     1     -10.214  12.703  70.959  1.00  0.00     5.355 OA 
HETATM   12  C   UNL     1     -11.245  14.947  71.106  1.00  0.00    -0.143 C  
HETATM   13  C   UNL     1     -11.402  12.258  70.430  1.00  0.00     0.600 A  
HETATM   14  H   UNL     1     -13.230  15.029  70.505  1.00  0.00     0.000 HD 
HETATM   15  C   UNL     1     -11.534  10.894  70.180  1.00  0.00    -0.405 A  
HETATM   16  C   UNL     1     -12.720  10.398  69.627  1.00  0.00     0.276 A  
HETATM   17  N   UNL     1     -12.409  14.431  70.590  1.00  0.00    -0.328 N  
HETATM   18  C   UNL     1     -12.483  13.106  70.182  1.00  0.00    -0.122 A  
HETATM   19  C   UNL     1     -13.661  12.622  69.616  1.00  0.00     3.511 A  
HETATM   20  C   UNL     1     -13.773  11.264  69.326  1.00  0.00     4.617 A  
BRANCH   9  21
HETATM   21  C   UNL     1      -9.534  14.370  69.264  1.00  0.00     0.137 A  
HETATM   22  C   UNL     1      -8.924  13.496  67.071  1.00  0.00    -0.237 A  
HETATM   23  H   UNL     1      -8.435  14.189  64.680  1.00  0.00     0.000 HD 
HETATM   24  O   UNL     1      -8.644  14.935  65.231  1.00  0.00     1.832 OA 
HETATM   25  C   UNL     1      -8.928  14.783  66.556  1.00  0.00    -0.233 A  
HETATM   26  C   UNL     1      -9.233  15.873  67.363  1.00  0.00    -0.207 A  
HETATM   27  C   UNL     1      -9.541  15.666  68.711  1.00  0.00    -0.215 A  
HETATM   28  C   UNL     1      -9.231  13.285  68.415  1.00  0.00    -0.145 A  
ENDBRANCH   9  21
ENDBRANCH   6   9
TORSDOF 2
ENDMDL
MODEL      179
REMARK 921   NORMALIZED FREE ENERGY PREDICTED BY IDOCK:   79.66 KCAL/MOL
REMARK 922        TOTAL FREE ENERGY PREDICTED BY IDOCK:   88.22 KCAL/MOL
REMARK 923 INTER-LIGAND FREE ENERGY PREDICTED BY IDOCK:   88.76 KCAL/MOL
REMARK 924 INTRA-LIGAND FREE ENERGY PREDICTED BY IDOCK:   -0.54 KCAL/MOL
REMARK 927      BINDING AFFINITY PREDICTED BY RF-SCORE:    0.00 PKD
ROOT
HETATM    1  O   UNL     1     -11.216  11.943  74.513  1.00  0.00    15.862 OA 
HETATM    2  C   UNL     1     -10.731  12.517  73.375  1.00  0.00    17.205 A  
HETATM    3  H   UNL     1     -10.722  11.291  74.997  1.00  0.00     0.000 HD 
HETATM    4  C   UNL     1     -11.453  13.470  72.668  1.00  0.00     3.658 A  
HETATM    5  C   UNL     1     -10.927  14.000  71.480  1.00  0.00     2.328 A  
HETATM    6  C   UNL     1      -9.676  13.581  70.979  1.00  0.00     6.847 A  
HETATM    7  C   UNL     1      -8.979  12.612  71.730  1.00  0.00    19.670 A  
HETATM    8  C   UNL     1      -9.492  12.097  72.924  1.00  0.00    24.524 A  
ENDROOT
BRANCH   6   9
HETATM    9  C   UNL     1      -9.194  14.016  69.560  1.00  0.00     0.780 C  
HETATM   10  O   UNL     1      -6.776  13.614  70.155  1.00  0.00     0.049 OA 
HETATM   11  O   UNL     1      -9.790  15.315  69.253  1.00  0.00    -0.229 OA 
HETATM   12  C   UNL     1      -7.622  14.137  69.429  1.00  0.00     0.137 C  
HETATM   13  C   UNL     1      -9.299  15.927  68.125  1.00  0.00    -0.198 A  
HETATM   14  H   UNL     1      -6.228  14.669  67.984  1.00  0.00     0.000 HD 
HETATM   15  C   UNL     1     -10.086  16.903  67.518  1.00  0.00    -0.282 A  
HETATM   16  C   UNL     1      -9.632  17.541  66.358  1.00  0.00    -0.283 A  
HETATM   17  N   UNL     1      -7.187  14.800  68.306  1.00  0.00    -0.107 N  
HETATM   18  C   UNL     1      -8.035  15.644  67.602  1.00  0.00    -0.153 A  
HETATM   19  C   UNL     1      -7.584  16.264  66.439  1.00  0.00    -0.131 A  
HETATM   20  C   UNL     1      -8.393  17.207  65.808  1.00  0.00     0.223 A  
BRANCH   9  21
HETATM   21  C   UNL     1      -9.737  12.941  68.567  1.00  0.00    -0.129 A  
HETATM   22  C   UNL     1     -11.458  12.176  67.017  1.00  0.00    -0.415 A  
HETATM   23  H   UNL     1     -12.014  10.345  65.351  1.00  0.00     0.000 HD 
HETATM   24  O   UNL     1     -11.160  10.218  65.749  1.00  0.00     0.277 OA 
HETATM   25  C   UNL     1     -10.672  11.085  66.682  1.00  0.00    -0.249 A  
HETATM   26  C   UNL     1      -9.424  10.899  67.263  1.00  0.00    -0.176 A  
HETATM   27  C   UNL     1      -8.956  11.826  68.199  1.00  0.00    -0.181 A  
HETATM   28  C   UNL     1     -10.995  13.105  67.948  1.00  0.00    -0.271 A  
ENDBRANCH   9  21
ENDBRANCH   6   9
TORSDOF 2
ENDMDL
