MODEL        1
REMARK 921   NORMALIZED FREE ENERGY PREDICTED BY IDOCK:   -6.26 KCAL/MOL
REMARK 922        TOTAL FREE ENERGY PREDICTED BY IDOCK:  -10.35 KCAL/MOL
REMARK 923 INTER-LIGAND FREE ENERGY PREDICTED BY IDOCK:   -9.18 KCAL/MOL
REMARK 924 INTRA-LIGAND FREE ENERGY PREDICTED BY IDOCK:   -1.17 KCAL/MOL
REMARK 927      BINDING AFFINITY PREDICTED BY RF-SCORE:    0.00 PKD
ROOT
HETATM    1  C   UNL     1     -12.370  12.487  64.954  1.00  0.00    -0.539 C  
HETATM    2  C   UNL     1     -11.077  12.520  65.811  1.00  0.00    -0.343 C  
HETATM    3  C   UNL     1     -10.101  11.516  65.131  1.00  0.00    -0.313 C  
ENDROOT
BRANCH   2   4
HETATM    4  C   UNL     1     -11.360  12.034  67.262  1.00  0.00    -0.394 A  
HETATM    5  C   UNL     1     -11.130  10.704  67.670  1.00  0.00    -0.385 A  
HETATM    6  C   UNL     1     -11.349  10.299  68.993  1.00  0.00    -0.237 A  
HETATM    7  C   UNL     1     -11.849  12.925  68.235  1.00  0.00    -0.372 A  
HETATM    8  C   UNL     1     -12.035  12.524  69.564  1.00  0.00    -0.329 A  
HETATM    9  C   UNL     1     -11.806  11.208  69.946  1.00  0.00    -0.363 A  
BRANCH   9  10
HETATM   10  O   UNL     1     -11.998  10.699  71.202  1.00  0.00    -0.342 OA 
BRANCH  10  11
HETATM   11  C   UNL     1     -11.372   9.442  71.460  1.00  0.00    -0.394 C  
BRANCH  11  12
HETATM   12  C   UNL     1     -12.336   8.578  72.201  1.00  0.00    -0.382 C  
HETATM   13  O   UNL     1     -13.019   7.610  71.393  1.00  0.00    -0.339 OA 
HETATM   14  C   UNL     1     -13.817   8.665  71.954  1.00  0.00    -0.432 C  
ENDBRANCH  11  12
ENDBRANCH  10  11
ENDBRANCH   9  10
ENDBRANCH   2   4
BRANCH   2  15
HETATM   15  C   UNL     1     -10.549  13.975  65.736  1.00  0.00    -0.303 A  
HETATM   16  C   UNL     1      -8.956  15.695  66.448  1.00  0.00    -0.362 A  
HETATM   17  C   UNL     1      -9.679  16.684  65.791  1.00  0.00    -0.160 A  
HETATM   18  C   UNL     1      -9.378  14.361  66.411  1.00  0.00    -0.284 A  
HETATM   19  C   UNL     1     -11.281  14.997  65.099  1.00  0.00    -0.391 A  
HETATM   20  C   UNL     1     -10.850  16.332  65.127  1.00  0.00    -0.333 A  
BRANCH  17  21
HETATM   21  O   UNL     1      -9.345  18.011  65.734  1.00  0.00    -0.489 OA 
BRANCH  21  22
HETATM   22  C   UNL     1     -10.358  18.921  66.170  1.00  0.00    -0.460 C  
BRANCH  22  23
HETATM   23  C   UNL     1     -10.432  18.884  67.659  1.00  0.00    -0.443 C  
HETATM   24  C   UNL     1      -9.225  19.126  68.522  1.00  0.00    -0.376 C  
HETATM   25  O   UNL     1     -10.208  20.148  68.297  1.00  0.00    -0.420 OA 
ENDBRANCH  22  23
ENDBRANCH  21  22
ENDBRANCH  17  21
ENDBRANCH   2  15
TORSDOF 8
ENDMDL
MODEL        2
REMARK 921   NORMALIZED FREE ENERGY PREDICTED BY IDOCK:   -6.24 KCAL/MOL
REMARK 922        TOTAL FREE ENERGY PREDICTED BY IDOCK:  -10.32 KCAL/MOL
REMARK 923 INTER-LIGAND FREE ENERGY PREDICTED BY IDOCK:   -9.22 KCAL/MOL
REMARK 924 INTRA-LIGAND FREE ENERGY PREDICTED BY IDOCK:   -1.10 KCAL/MOL
REMARK 927      BINDING AFFINITY PREDICTED BY RF-SCORE:    0.00 PKD
ROOT
HETATM    1  C   UNL     1     -12.530  12.587  64.899  1.00  0.00    -0.524 C  
HETATM    2  C   UNL     1     -11.125  12.487  65.551  1.00  0.00    -0.336 C  
HETATM    3  C   UNL     1     -10.275  11.618  64.578  1.00  0.00    -0.337 C  
ENDROOT
BRANCH   2   4
HETATM    4  C   UNL     1     -11.202  11.762  66.926  1.00  0.00    -0.387 A  
HETATM    5  C   UNL     1     -11.896  12.306  68.027  1.00  0.00    -0.368 A  
HETATM    6  C   UNL     1     -11.991  11.616  69.242  1.00  0.00    -0.382 A  
HETATM    7  C   UNL     1     -10.585  10.513  67.115  1.00  0.00    -0.319 A  
HETATM    8  C   UNL     1     -10.709   9.811  68.321  1.00  0.00    -0.277 A  
HETATM    9  C   UNL     1     -11.395  10.365  69.396  1.00  0.00    -0.250 A  
BRANCH   9  10
HETATM   10  O   UNL     1     -11.540   9.790  70.629  1.00  0.00    -0.275 OA 
BRANCH  10  11
HETATM   11  C   UNL     1     -12.663  10.236  71.389  1.00  0.00    -0.442 C  
BRANCH  11  12
HETATM   12  C   UNL     1     -13.167   9.092  72.202  1.00  0.00    -0.458 C  
HETATM   13  O   UNL     1     -12.145   8.258  72.765  1.00  0.00    -0.353 OA 
HETATM   14  C   UNL     1     -12.980   7.669  71.755  1.00  0.00    -0.328 C  
ENDBRANCH  11  12
ENDBRANCH  10  11
ENDBRANCH   9  10
ENDBRANCH   2   4
BRANCH   2  15
HETATM   15  C   UNL     1     -10.589  13.938  65.644  1.00  0.00    -0.306 A  
HETATM   16  C   UNL     1      -9.136  15.601  66.704  1.00  0.00    -0.313 A  
HETATM   17  C   UNL     1      -9.736  16.631  65.987  1.00  0.00    -0.278 A  
HETATM   18  C   UNL     1      -9.549  14.275  66.526  1.00  0.00    -0.313 A  
HETATM   19  C   UNL     1     -11.201  15.000  64.948  1.00  0.00    -0.423 A  
HETATM   20  C   UNL     1     -10.779  16.326  65.118  1.00  0.00    -0.350 A  
BRANCH  17  21
HETATM   21  O   UNL     1      -9.395  17.955  66.058  1.00  0.00    -0.508 OA 
BRANCH  21  22
HETATM   22  C   UNL     1     -10.479  18.879  65.930  1.00  0.00    -0.391 C  
BRANCH  22  23
HETATM   23  C   UNL     1     -10.698  19.550  67.244  1.00  0.00    -0.484 C  
HETATM   24  C   UNL     1      -9.638  19.579  68.310  1.00  0.00    -0.379 C  
HETATM   25  O   UNL     1      -9.885  20.711  67.462  1.00  0.00    -0.441 OA 
ENDBRANCH  22  23
ENDBRANCH  21  22
ENDBRANCH  17  21
ENDBRANCH   2  15
TORSDOF 8
ENDMDL
MODEL        3
REMARK 921   NORMALIZED FREE ENERGY PREDICTED BY IDOCK:   -6.12 KCAL/MOL
REMARK 922        TOTAL FREE ENERGY PREDICTED BY IDOCK:  -10.16 KCAL/MOL
REMARK 923 INTER-LIGAND FREE ENERGY PREDICTED BY IDOCK:   -8.98 KCAL/MOL
REMARK 924 INTRA-LIGAND FREE ENERGY PREDICTED BY IDOCK:   -1.18 KCAL/MOL
REMARK 927      BINDING AFFINITY PREDICTED BY RF-SCORE:    0.00 PKD
ROOT
HETATM    1  C   UNL     1      -9.867  11.683  65.342  1.00  0.00    -0.268 C  
HETATM    2  C   UNL     1     -10.989  12.615  65.872  1.00  0.00    -0.310 C  
HETATM    3  C   UNL     1     -12.176  12.444  64.879  1.00  0.00    -0.485 C  
ENDROOT
BRANCH   2   4
HETATM    4  C   UNL     1     -10.532  14.102  65.850  1.00  0.00    -0.313 A  
HETATM    5  C   UNL     1     -11.247  15.101  65.157  1.00  0.00    -0.392 A  
HETATM    6  C   UNL     1     -10.843  16.442  65.189  1.00  0.00    -0.289 A  
HETATM    7  C   UNL     1      -9.379  14.510  66.546  1.00  0.00    -0.307 A  
HETATM    8  C   UNL     1      -8.996  15.856  66.601  1.00  0.00    -0.301 A  
HETATM    9  C   UNL     1      -9.712  16.825  65.909  1.00  0.00    -0.217 A  
BRANCH   9  10
HETATM   10  O   UNL     1      -9.404  18.157  65.858  1.00  0.00    -0.517 OA 
BRANCH  10  11
HETATM   11  C   UNL     1     -10.439  19.047  66.277  1.00  0.00    -0.457 C  
BRANCH  11  12
HETATM   12  C   UNL     1      -9.922  19.875  67.403  1.00  0.00    -0.423 C  
HETATM   13  O   UNL     1      -8.713  19.388  68.002  1.00  0.00    -0.303 OA 
HETATM   14  C   UNL     1      -9.898  19.355  68.814  1.00  0.00    -0.456 C  
ENDBRANCH  11  12
ENDBRANCH  10  11
ENDBRANCH   9  10
ENDBRANCH   2   4
BRANCH   2  15
HETATM   15  C   UNL     1     -11.345  12.097  67.288  1.00  0.00    -0.398 A  
HETATM   16  C   UNL     1     -11.982  12.538  69.613  1.00  0.00    -0.339 A  
HETATM   17  C   UNL     1     -11.797  11.201  69.952  1.00  0.00    -0.363 A  
HETATM   18  C   UNL     1     -11.770  12.975  68.300  1.00  0.00    -0.390 A  
HETATM   19  C   UNL     1     -11.139  10.753  67.659  1.00  0.00    -0.384 A  
HETATM   20  C   UNL     1     -11.363  10.314  68.972  1.00  0.00    -0.237 A  
BRANCH  17  21
HETATM   21  O   UNL     1     -12.002  10.659  71.191  1.00  0.00    -0.342 OA 
BRANCH  21  22
HETATM   22  C   UNL     1     -13.200   9.890  71.338  1.00  0.00    -0.400 C  
BRANCH  22  23
HETATM   23  C   UNL     1     -12.898   8.678  72.152  1.00  0.00    -0.391 C  
HETATM   24  C   UNL     1     -12.319   7.432  71.542  1.00  0.00    -0.353 C  
HETATM   25  O   UNL     1     -11.502   8.368  72.262  1.00  0.00    -0.342 OA 
ENDBRANCH  22  23
ENDBRANCH  21  22
ENDBRANCH  17  21
ENDBRANCH   2  15
TORSDOF 8
ENDMDL
MODEL        4
REMARK 921   NORMALIZED FREE ENERGY PREDICTED BY IDOCK:   -6.12 KCAL/MOL
REMARK 922        TOTAL FREE ENERGY PREDICTED BY IDOCK:  -10.15 KCAL/MOL
REMARK 923 INTER-LIGAND FREE ENERGY PREDICTED BY IDOCK:   -8.91 KCAL/MOL
REMARK 924 INTRA-LIGAND FREE ENERGY PREDICTED BY IDOCK:   -1.24 KCAL/MOL
REMARK 927      BINDING AFFINITY PREDICTED BY RF-SCORE:    0.00 PKD
ROOT
HETATM    1  C   UNL     1     -10.308  11.333  64.965  1.00  0.00    -0.359 C  
HETATM    2  C   UNL     1     -11.173  12.316  65.800  1.00  0.00    -0.378 C  
HETATM    3  C   UNL     1     -12.533  12.414  65.049  1.00  0.00    -0.393 C  
ENDROOT
BRANCH   2   4
HETATM    4  C   UNL     1     -10.523  13.729  65.840  1.00  0.00    -0.300 A  
HETATM    5  C   UNL     1     -11.135  14.857  65.255  1.00  0.00    -0.382 A  
HETATM    6  C   UNL     1     -10.555  16.129  65.342  1.00  0.00    -0.399 A  
HETATM    7  C   UNL     1      -9.291  13.936  66.486  1.00  0.00    -0.264 A  
HETATM    8  C   UNL     1      -8.730  15.214  66.599  1.00  0.00    -0.308 A  
HETATM    9  C   UNL     1      -9.346  16.313  66.012  1.00  0.00    -0.326 A  
BRANCH   9  10
HETATM   10  O   UNL     1      -8.866  17.594  66.023  1.00  0.00    -0.502 OA 
BRANCH  10  11
HETATM   11  C   UNL     1      -8.786  18.212  67.308  1.00  0.00    -0.251 C  
BRANCH  11  12
HETATM   12  C   UNL     1      -9.561  19.486  67.267  1.00  0.00    -0.337 C  
HETATM   13  O   UNL     1     -10.981  19.322  67.150  1.00  0.00    -0.476 OA 
HETATM   14  C   UNL     1     -10.302  19.915  66.032  1.00  0.00    -0.486 C  
ENDBRANCH  11  12
ENDBRANCH  10  11
ENDBRANCH   9  10
ENDBRANCH   2   4
BRANCH   2  15
HETATM   15  C   UNL     1     -11.332  11.667  67.198  1.00  0.00    -0.373 A  
HETATM   16  C   UNL     1     -11.952  11.843  69.562  1.00  0.00    -0.355 A  
HETATM   17  C   UNL     1     -11.440  10.576  69.824  1.00  0.00    -0.294 A  
HETATM   18  C   UNL     1     -11.909  12.374  68.267  1.00  0.00    -0.364 A  
HETATM   19  C   UNL     1     -10.796  10.397  67.492  1.00  0.00    -0.358 A  
HETATM   20  C   UNL     1     -10.851   9.862  68.787  1.00  0.00    -0.240 A  
BRANCH  17  21
HETATM   21  O   UNL     1     -11.455   9.947  71.040  1.00  0.00    -0.334 OA 
BRANCH  21  22
HETATM   22  C   UNL     1     -11.648   8.531  71.000  1.00  0.00    -0.279 C  
BRANCH  22  23
HETATM   23  C   UNL     1     -12.704   8.160  71.986  1.00  0.00    -0.323 C  
HETATM   24  C   UNL     1     -14.153   8.491  71.763  1.00  0.00    -0.444 C  
HETATM   25  O   UNL     1     -13.634   7.174  71.519  1.00  0.00    -0.380 OA 
ENDBRANCH  22  23
ENDBRANCH  21  22
ENDBRANCH  17  21
ENDBRANCH   2  15
TORSDOF 8
ENDMDL
MODEL        5
REMARK 921   NORMALIZED FREE ENERGY PREDICTED BY IDOCK:   -6.08 KCAL/MOL
REMARK 922        TOTAL FREE ENERGY PREDICTED BY IDOCK:  -10.10 KCAL/MOL
REMARK 923 INTER-LIGAND FREE ENERGY PREDICTED BY IDOCK:   -8.84 KCAL/MOL
REMARK 924 INTRA-LIGAND FREE ENERGY PREDICTED BY IDOCK:   -1.26 KCAL/MOL
REMARK 927      BINDING AFFINITY PREDICTED BY RF-SCORE:    0.00 PKD
ROOT
HETATM    1  C   UNL     1     -10.255  11.528  65.007  1.00  0.00    -0.328 C  
HETATM    2  C   UNL     1     -11.111  12.493  65.870  1.00  0.00    -0.334 C  
HETATM    3  C   UNL     1     -12.507  12.541  65.183  1.00  0.00    -0.451 C  
ENDROOT
BRANCH   2   4
HETATM    4  C   UNL     1     -10.504  13.927  65.865  1.00  0.00    -0.309 A  
HETATM    5  C   UNL     1     -11.160  15.021  65.263  1.00  0.00    -0.391 A  
HETATM    6  C   UNL     1     -10.618  16.312  65.310  1.00  0.00    -0.357 A  
HETATM    7  C   UNL     1      -9.269  14.186  66.486  1.00  0.00    -0.247 A  
HETATM    8  C   UNL     1      -8.746  15.483  66.560  1.00  0.00    -0.340 A  
HETATM    9  C   UNL     1      -9.405  16.548  65.957  1.00  0.00    -0.267 A  
BRANCH   9  10
HETATM   10  O   UNL     1      -8.965  17.844  65.929  1.00  0.00    -0.512 OA 
BRANCH  10  11
HETATM   11  C   UNL     1      -8.852  18.485  67.200  1.00  0.00    -0.270 C  
BRANCH  11  12
HETATM   12  C   UNL     1      -9.699  19.712  67.186  1.00  0.00    -0.355 C  
HETATM   13  O   UNL     1     -11.112  19.467  67.166  1.00  0.00    -0.445 OA 
HETATM   14  C   UNL     1     -10.542  20.070  65.993  1.00  0.00    -0.367 C  
ENDBRANCH  11  12
ENDBRANCH  10  11
ENDBRANCH   9  10
ENDBRANCH   2   4
BRANCH   2  15
HETATM   15  C   UNL     1     -11.185  11.857  67.281  1.00  0.00    -0.376 A  
HETATM   16  C   UNL     1     -10.998   9.895  68.737  1.00  0.00    -0.217 A  
HETATM   17  C   UNL     1     -11.517  10.606  69.815  1.00  0.00    -0.302 A  
HETATM   18  C   UNL     1     -10.825  10.515  67.494  1.00  0.00    -0.357 A  
HETATM   19  C   UNL     1     -11.734  12.549  68.379  1.00  0.00    -0.375 A  
HETATM   20  C   UNL     1     -11.896  11.931  69.627  1.00  0.00    -0.406 A  
BRANCH  17  21
HETATM   21  O   UNL     1     -11.702  10.113  71.079  1.00  0.00    -0.337 OA 
BRANCH  21  22
HETATM   22  C   UNL     1     -13.045  10.153  71.567  1.00  0.00    -0.429 C  
BRANCH  22  23
HETATM   23  C   UNL     1     -13.392   8.817  72.133  1.00  0.00    -0.423 C  
HETATM   24  C   UNL     1     -13.099   7.540  71.397  1.00  0.00    -0.325 C  
HETATM   25  O   UNL     1     -12.262   8.001  72.468  1.00  0.00    -0.318 OA 
ENDBRANCH  22  23
ENDBRANCH  21  22
ENDBRANCH  17  21
ENDBRANCH   2  15
TORSDOF 8
ENDMDL
MODEL        6
REMARK 921   NORMALIZED FREE ENERGY PREDICTED BY IDOCK:   -6.08 KCAL/MOL
REMARK 922        TOTAL FREE ENERGY PREDICTED BY IDOCK:  -10.09 KCAL/MOL
REMARK 923 INTER-LIGAND FREE ENERGY PREDICTED BY IDOCK:   -8.96 KCAL/MOL
REMARK 924 INTRA-LIGAND FREE ENERGY PREDICTED BY IDOCK:   -1.13 KCAL/MOL
REMARK 927      BINDING AFFINITY PREDICTED BY RF-SCORE:    0.00 PKD
ROOT
HETATM    1  C   UNL     1     -10.072  11.627  64.730  1.00  0.00    -0.304 C  
HETATM    2  C   UNL     1     -11.058  12.461  65.591  1.00  0.00    -0.343 C  
HETATM    3  C   UNL     1     -12.415  12.417  64.829  1.00  0.00    -0.480 C  
ENDROOT
BRANCH   2   4
HETATM    4  C   UNL     1     -10.591  13.942  65.691  1.00  0.00    -0.306 A  
HETATM    5  C   UNL     1     -11.310  15.001  65.100  1.00  0.00    -0.372 A  
HETATM    6  C   UNL     1     -10.896  16.332  65.241  1.00  0.00    -0.310 A  
HETATM    7  C   UNL     1      -9.424  14.281  66.400  1.00  0.00    -0.297 A  
HETATM    8  C   UNL     1      -9.032  15.615  66.567  1.00  0.00    -0.343 A  
HETATM    9  C   UNL     1      -9.752  16.645  65.973  1.00  0.00    -0.278 A  
BRANCH   9  10
HETATM   10  O   UNL     1      -9.435  17.975  66.033  1.00  0.00    -0.504 OA 
BRANCH  10  11
HETATM   11  C   UNL     1     -10.530  18.877  65.876  1.00  0.00    -0.391 C  
BRANCH  11  12
HETATM   12  C   UNL     1     -10.880  19.432  67.215  1.00  0.00    -0.448 C  
HETATM   13  O   UNL     1      -9.932  20.369  67.745  1.00  0.00    -0.406 OA 
HETATM   14  C   UNL     1     -10.060  19.115  68.435  1.00  0.00    -0.418 C  
ENDBRANCH  11  12
ENDBRANCH  10  11
ENDBRANCH   9  10
ENDBRANCH   2   4
BRANCH   2  15
HETATM   15  C   UNL     1     -11.145  11.744  66.962  1.00  0.00    -0.358 A  
HETATM   16  C   UNL     1     -10.783   9.753  68.343  1.00  0.00    -0.262 A  
HETATM   17  C   UNL     1     -11.480  10.323  69.404  1.00  0.00    -0.186 A  
HETATM   18  C   UNL     1     -10.609  10.458  67.146  1.00  0.00    -0.319 A  
HETATM   19  C   UNL     1     -11.869  12.291  68.040  1.00  0.00    -0.368 A  
HETATM   20  C   UNL     1     -12.033  11.588  69.242  1.00  0.00    -0.397 A  
BRANCH  17  21
HETATM   21  O   UNL     1     -11.685   9.740  70.626  1.00  0.00    -0.272 OA 
BRANCH  21  22
HETATM   22  C   UNL     1     -12.611  10.413  71.483  1.00  0.00    -0.439 C  
BRANCH  22  23
HETATM   23  C   UNL     1     -13.391   9.395  72.244  1.00  0.00    -0.461 C  
HETATM   24  C   UNL     1     -14.183   8.320  71.553  1.00  0.00    -0.403 C  
HETATM   25  O   UNL     1     -12.894   8.055  72.126  1.00  0.00    -0.301 OA 
ENDBRANCH  22  23
ENDBRANCH  21  22
ENDBRANCH  17  21
ENDBRANCH   2  15
TORSDOF 8
ENDMDL
MODEL        7
REMARK 921   NORMALIZED FREE ENERGY PREDICTED BY IDOCK:   -6.05 KCAL/MOL
REMARK 922        TOTAL FREE ENERGY PREDICTED BY IDOCK:  -10.05 KCAL/MOL
REMARK 923 INTER-LIGAND FREE ENERGY PREDICTED BY IDOCK:   -8.80 KCAL/MOL
REMARK 924 INTRA-LIGAND FREE ENERGY PREDICTED BY IDOCK:   -1.25 KCAL/MOL
REMARK 927      BINDING AFFINITY PREDICTED BY RF-SCORE:    0.00 PKD
ROOT
HETATM    1  C   UNL     1     -10.109  11.369  65.133  1.00  0.00    -0.319 C  
HETATM    2  C   UNL     1     -11.065  12.328  65.891  1.00  0.00    -0.360 C  
HETATM    3  C   UNL     1     -12.377  12.357  65.053  1.00  0.00    -0.441 C  
ENDROOT
BRANCH   2   4
HETATM    4  C   UNL     1     -10.477  13.768  65.947  1.00  0.00    -0.300 A  
HETATM    5  C   UNL     1      -9.220  14.047  66.522  1.00  0.00    -0.240 A  
HETATM    6  C   UNL     1      -8.689  15.343  66.520  1.00  0.00    -0.335 A  
HETATM    7  C   UNL     1     -11.184  14.854  65.401  1.00  0.00    -0.359 A  
HETATM    8  C   UNL     1     -10.636  16.143  65.372  1.00  0.00    -0.399 A  
HETATM    9  C   UNL     1      -9.398  16.399  65.947  1.00  0.00    -0.227 A  
BRANCH   9  10
HETATM   10  O   UNL     1      -8.789  17.623  66.015  1.00  0.00    -0.502 OA 
BRANCH  10  11
HETATM   11  C   UNL     1      -8.821  18.258  67.294  1.00  0.00    -0.255 C  
BRANCH  11  12
HETATM   12  C   UNL     1      -9.653  19.490  67.188  1.00  0.00    -0.331 C  
HETATM   13  O   UNL     1     -11.066  19.257  67.101  1.00  0.00    -0.425 OA 
HETATM   14  C   UNL     1     -10.427  19.810  65.939  1.00  0.00    -0.486 C  
ENDBRANCH  11  12
ENDBRANCH  10  11
ENDBRANCH   9  10
ENDBRANCH   2   4
BRANCH   2  15
HETATM   15  C   UNL     1     -11.289  11.696  67.288  1.00  0.00    -0.372 A  
HETATM   16  C   UNL     1     -11.938  11.919  69.641  1.00  0.00    -0.365 A  
HETATM   17  C   UNL     1     -11.511  10.623  69.915  1.00  0.00    -0.317 A  
HETATM   18  C   UNL     1     -11.839  12.441  68.346  1.00  0.00    -0.361 A  
HETATM   19  C   UNL     1     -10.839  10.396  67.595  1.00  0.00    -0.361 A  
HETATM   20  C   UNL     1     -10.950   9.870  68.890  1.00  0.00    -0.214 A  
BRANCH  17  21
HETATM   21  O   UNL     1     -11.587  10.001  71.132  1.00  0.00    -0.355 OA 
BRANCH  21  22
HETATM   22  C   UNL     1     -12.876  10.011  71.751  1.00  0.00    -0.446 C  
BRANCH  22  23
HETATM   23  C   UNL     1     -13.181   8.640  72.252  1.00  0.00    -0.372 C  
HETATM   24  C   UNL     1     -13.120   7.433  71.358  1.00  0.00    -0.350 C  
HETATM   25  O   UNL     1     -12.057   7.750  72.270  1.00  0.00    -0.311 OA 
ENDBRANCH  22  23
ENDBRANCH  21  22
ENDBRANCH  17  21
ENDBRANCH   2  15
TORSDOF 8
ENDMDL
MODEL        8
REMARK 921   NORMALIZED FREE ENERGY PREDICTED BY IDOCK:   -6.03 KCAL/MOL
REMARK 922        TOTAL FREE ENERGY PREDICTED BY IDOCK:  -10.02 KCAL/MOL
REMARK 923 INTER-LIGAND FREE ENERGY PREDICTED BY IDOCK:   -8.87 KCAL/MOL
REMARK 924 INTRA-LIGAND FREE ENERGY PREDICTED BY IDOCK:   -1.14 KCAL/MOL
REMARK 927      BINDING AFFINITY PREDICTED BY RF-SCORE:    0.00 PKD
ROOT
HETATM    1  C   UNL     1     -12.433  12.623  65.421  1.00  0.00    -0.421 C  
HETATM    2  C   UNL     1     -11.112  12.488  66.223  1.00  0.00    -0.336 C  
HETATM    3  C   UNL     1     -10.260  11.439  65.451  1.00  0.00    -0.320 C  
ENDROOT
BRANCH   2   4
HETATM    4  C   UNL     1     -11.386  11.948  67.657  1.00  0.00    -0.372 A  
HETATM    5  C   UNL     1     -11.185  10.597  68.005  1.00  0.00    -0.373 A  
HETATM    6  C   UNL     1     -11.395  10.141  69.313  1.00  0.00    -0.211 A  
HETATM    7  C   UNL     1     -11.835  12.809  68.675  1.00  0.00    -0.341 A  
HETATM    8  C   UNL     1     -12.013  12.357  69.989  1.00  0.00    -0.372 A  
HETATM    9  C   UNL     1     -11.813  11.020  70.311  1.00  0.00    -0.367 A  
BRANCH   9  10
HETATM   10  O   UNL     1     -11.999  10.463  71.547  1.00  0.00    -0.333 OA 
BRANCH  10  11
HETATM   11  C   UNL     1     -13.357  10.226  71.919  1.00  0.00    -0.383 C  
BRANCH  11  12
HETATM   12  C   UNL     1     -13.471   8.827  72.423  1.00  0.00    -0.401 C  
HETATM   13  O   UNL     1     -12.441   7.938  71.967  1.00  0.00    -0.306 OA 
HETATM   14  C   UNL     1     -13.775   7.682  71.498  1.00  0.00    -0.361 C  
ENDBRANCH  11  12
ENDBRANCH  10  11
ENDBRANCH   9  10
ENDBRANCH   2   4
BRANCH   2  15
HETATM   15  C   UNL     1     -10.453  13.891  66.205  1.00  0.00    -0.297 A  
HETATM   16  C   UNL     1     -10.389  16.196  65.376  1.00  0.00    -0.356 A  
HETATM   17  C   UNL     1      -9.153  16.413  65.978  1.00  0.00    -0.282 A  
HETATM   18  C   UNL     1     -11.032  14.958  65.497  1.00  0.00    -0.355 A  
HETATM   19  C   UNL     1      -9.190  14.124  66.785  1.00  0.00    -0.282 A  
HETATM   20  C   UNL     1      -8.552  15.368  66.672  1.00  0.00    -0.318 A  
BRANCH  17  21
HETATM   21  O   UNL     1      -8.450  17.586  65.951  1.00  0.00    -0.533 OA 
BRANCH  21  22
HETATM   22  C   UNL     1      -8.488  18.357  67.155  1.00  0.00    -0.254 C  
BRANCH  22  23
HETATM   23  C   UNL     1      -9.210  19.634  66.887  1.00  0.00    -0.350 C  
HETATM   24  C   UNL     1     -10.487  19.676  66.095  1.00  0.00    -0.524 C  
HETATM   25  O   UNL     1     -10.488  19.740  67.529  1.00  0.00    -0.424 OA 
ENDBRANCH  22  23
ENDBRANCH  21  22
ENDBRANCH  17  21
ENDBRANCH   2  15
TORSDOF 8
ENDMDL
MODEL        9
REMARK 921   NORMALIZED FREE ENERGY PREDICTED BY IDOCK:   -5.93 KCAL/MOL
REMARK 922        TOTAL FREE ENERGY PREDICTED BY IDOCK:   -9.87 KCAL/MOL
REMARK 923 INTER-LIGAND FREE ENERGY PREDICTED BY IDOCK:   -8.66 KCAL/MOL
REMARK 924 INTRA-LIGAND FREE ENERGY PREDICTED BY IDOCK:   -1.21 KCAL/MOL
REMARK 927      BINDING AFFINITY PREDICTED BY RF-SCORE:    0.00 PKD
ROOT
HETATM    1  C   UNL     1     -12.527  12.504  64.709  1.00  0.00    -0.532 C  
HETATM    2  C   UNL     1     -11.140  12.461  65.406  1.00  0.00    -0.344 C  
HETATM    3  C   UNL     1     -10.245  11.567  64.498  1.00  0.00    -0.338 C  
ENDROOT
BRANCH   2   4
HETATM    4  C   UNL     1     -11.246  11.796  66.809  1.00  0.00    -0.388 A  
HETATM    5  C   UNL     1     -10.687  10.532  67.089  1.00  0.00    -0.323 A  
HETATM    6  C   UNL     1     -10.753   9.972  68.371  1.00  0.00    -0.271 A  
HETATM    7  C   UNL     1     -11.900  12.452  67.867  1.00  0.00    -0.370 A  
HETATM    8  C   UNL     1     -11.937  11.904  69.156  1.00  0.00    -0.336 A  
HETATM    9  C   UNL     1     -11.383  10.655  69.411  1.00  0.00    -0.284 A  
BRANCH   9  10
HETATM   10  O   UNL     1     -11.400  10.008  70.616  1.00  0.00    -0.297 OA 
BRANCH  10  11
HETATM   11  C   UNL     1     -10.158   9.435  71.027  1.00  0.00    -0.283 C  
BRANCH  11  12
HETATM   12  C   UNL     1     -10.418   8.054  71.525  1.00  0.00    -0.217 C  
HETATM   13  O   UNL     1     -11.620   7.451  71.026  1.00  0.00    -0.275 OA 
HETATM   14  C   UNL     1     -11.580   7.751  72.430  1.00  0.00    -0.356 C  
ENDBRANCH  11  12
ENDBRANCH  10  11
ENDBRANCH   9  10
ENDBRANCH   2   4
BRANCH   2  15
HETATM   15  C   UNL     1     -10.635  13.925  65.450  1.00  0.00    -0.344 A  
HETATM   16  C   UNL     1      -9.080  15.609  66.315  1.00  0.00    -0.376 A  
HETATM   17  C   UNL     1      -9.810  16.635  65.722  1.00  0.00    -0.211 A  
HETATM   18  C   UNL     1      -9.481  14.276  66.171  1.00  0.00    -0.250 A  
HETATM   19  C   UNL     1     -11.373  14.981  64.880  1.00  0.00    -0.419 A  
HETATM   20  C   UNL     1     -10.965  16.316  65.016  1.00  0.00    -0.311 A  
BRANCH  17  21
HETATM   21  O   UNL     1      -9.496  17.966  65.772  1.00  0.00    -0.511 OA 
BRANCH  21  22
HETATM   22  C   UNL     1     -10.441  18.798  66.451  1.00  0.00    -0.429 C  
BRANCH  22  23
HETATM   23  C   UNL     1     -10.215  18.684  67.921  1.00  0.00    -0.392 C  
HETATM   24  C   UNL     1      -8.964  19.200  68.576  1.00  0.00    -0.363 C  
HETATM   25  O   UNL     1     -10.196  19.936  68.619  1.00  0.00    -0.447 OA 
ENDBRANCH  22  23
ENDBRANCH  21  22
ENDBRANCH  17  21
ENDBRANCH   2  15
TORSDOF 8
ENDMDL
MODEL       10
REMARK 921   NORMALIZED FREE ENERGY PREDICTED BY IDOCK:   -5.88 KCAL/MOL
REMARK 922        TOTAL FREE ENERGY PREDICTED BY IDOCK:   -9.80 KCAL/MOL
REMARK 923 INTER-LIGAND FREE ENERGY PREDICTED BY IDOCK:   -8.77 KCAL/MOL
REMARK 924 INTRA-LIGAND FREE ENERGY PREDICTED BY IDOCK:   -1.04 KCAL/MOL
REMARK 927      BINDING AFFINITY PREDICTED BY RF-SCORE:    0.00 PKD
ROOT
HETATM    1  C   UNL     1     -12.476  12.473  64.711  1.00  0.00    -0.532 C  
HETATM    2  C   UNL     1     -11.109  12.475  65.447  1.00  0.00    -0.337 C  
HETATM    3  C   UNL     1     -10.132  11.705  64.511  1.00  0.00    -0.321 C  
ENDROOT
BRANCH   2   4
HETATM    4  C   UNL     1     -11.207  11.713  66.800  1.00  0.00    -0.371 A  
HETATM    5  C   UNL     1     -11.696  12.321  67.974  1.00  0.00    -0.417 A  
HETATM    6  C   UNL     1     -11.818  11.604  69.171  1.00  0.00    -0.390 A  
HETATM    7  C   UNL     1     -10.821  10.364  66.894  1.00  0.00    -0.229 A  
HETATM    8  C   UNL     1     -10.975   9.641  68.084  1.00  0.00    -0.185 A  
HETATM    9  C   UNL     1     -11.455  10.260  69.232  1.00  0.00    -0.160 A  
BRANCH   9  10
HETATM   10  O   UNL     1     -11.604   9.663  70.455  1.00  0.00    -0.258 OA 
BRANCH  10  11
HETATM   11  C   UNL     1     -12.750  10.068  71.203  1.00  0.00    -0.387 C  
BRANCH  11  12
HETATM   12  C   UNL     1     -13.135   8.955  72.117  1.00  0.00    -0.421 C  
HETATM   13  O   UNL     1     -12.032   8.223  72.671  1.00  0.00    -0.399 OA 
HETATM   14  C   UNL     1     -12.883   7.518  71.752  1.00  0.00    -0.327 C  
ENDBRANCH  11  12
ENDBRANCH  10  11
ENDBRANCH   9  10
ENDBRANCH   2   4
BRANCH   2  15
HETATM   15  C   UNL     1     -10.706  13.963  65.601  1.00  0.00    -0.292 A  
HETATM   16  C   UNL     1     -10.933  16.306  64.921  1.00  0.00    -0.321 A  
HETATM   17  C   UNL     1      -9.843  16.673  65.704  1.00  0.00    -0.114 A  
HETATM   18  C   UNL     1     -11.363  14.975  64.880  1.00  0.00    -0.419 A  
HETATM   19  C   UNL     1      -9.589  14.352  66.366  1.00  0.00    -0.320 A  
HETATM   20  C   UNL     1      -9.166  15.689  66.416  1.00  0.00    -0.346 A  
BRANCH  17  21
HETATM   21  O   UNL     1      -9.355  17.944  65.843  1.00  0.00    -0.520 OA 
BRANCH  21  22
HETATM   22  C   UNL     1     -10.339  18.968  66.017  1.00  0.00    -0.446 C  
BRANCH  22  23
HETATM   23  C   UNL     1     -10.756  18.997  67.449  1.00  0.00    -0.473 C  
HETATM   24  C   UNL     1      -9.755  18.967  68.570  1.00  0.00    -0.387 C  
HETATM   25  O   UNL     1     -10.381  20.189  68.152  1.00  0.00    -0.394 OA 
ENDBRANCH  22  23
ENDBRANCH  21  22
ENDBRANCH  17  21
ENDBRANCH   2  15
TORSDOF 8
ENDMDL
MODEL       11
REMARK 921   NORMALIZED FREE ENERGY PREDICTED BY IDOCK:   -5.85 KCAL/MOL
REMARK 922        TOTAL FREE ENERGY PREDICTED BY IDOCK:   -9.75 KCAL/MOL
REMARK 923 INTER-LIGAND FREE ENERGY PREDICTED BY IDOCK:   -8.57 KCAL/MOL
REMARK 924 INTRA-LIGAND FREE ENERGY PREDICTED BY IDOCK:   -1.19 KCAL/MOL
REMARK 927      BINDING AFFINITY PREDICTED BY RF-SCORE:    0.00 PKD
ROOT
HETATM    1  C   UNL     1     -10.381  11.803  64.226  1.00  0.00    -0.359 C  
HETATM    2  C   UNL     1     -11.250  12.510  65.300  1.00  0.00    -0.341 C  
HETATM    3  C   UNL     1     -12.704  12.483  64.744  1.00  0.00    -0.415 C  
ENDROOT
BRANCH   2   4
HETATM    4  C   UNL     1     -10.812  13.992  65.479  1.00  0.00    -0.311 A  
HETATM    5  C   UNL     1      -9.660  14.356  66.206  1.00  0.00    -0.321 A  
HETATM    6  C   UNL     1      -9.259  15.694  66.316  1.00  0.00    -0.365 A  
HETATM    7  C   UNL     1     -11.555  15.036  64.898  1.00  0.00    -0.374 A  
HETATM    8  C   UNL     1     -11.133  16.369  64.983  1.00  0.00    -0.216 A  
HETATM    9  C   UNL     1      -9.997  16.707  65.707  1.00  0.00    -0.243 A  
BRANCH   9  10
HETATM   10  O   UNL     1      -9.520  17.977  65.892  1.00  0.00    -0.520 OA 
BRANCH  10  11
HETATM   11  C   UNL     1     -10.506  18.972  66.166  1.00  0.00    -0.467 C  
BRANCH  11  12
HETATM   12  C   UNL     1     -10.078  19.741  67.370  1.00  0.00    -0.422 C  
HETATM   13  O   UNL     1      -8.735  19.484  67.802  1.00  0.00    -0.304 OA 
HETATM   14  C   UNL     1      -9.791  19.057  68.678  1.00  0.00    -0.413 C  
ENDBRANCH  11  12
ENDBRANCH  10  11
ENDBRANCH   9  10
ENDBRANCH   2   4
BRANCH   2  15
HETATM   15  C   UNL     1     -11.112  11.662  66.590  1.00  0.00    -0.364 A  
HETATM   16  C   UNL     1     -10.350   9.627  67.722  1.00  0.00    -0.286 A  
HETATM   17  C   UNL     1     -11.023   9.984  68.887  1.00  0.00    -0.207 A  
HETATM   18  C   UNL     1     -10.385  10.460  66.597  1.00  0.00    -0.292 A  
HETATM   19  C   UNL     1     -11.807  11.991  67.771  1.00  0.00    -0.308 A  
HETATM   20  C   UNL     1     -11.762  11.162  68.901  1.00  0.00    -0.406 A  
BRANCH  17  21
HETATM   21  O   UNL     1     -11.034   9.265  70.052  1.00  0.00    -0.231 OA 
BRANCH  21  22
HETATM   22  C   UNL     1     -11.813   9.823  71.114  1.00  0.00    -0.382 C  
BRANCH  22  23
HETATM   23  C   UNL     1     -12.704   8.763  71.666  1.00  0.00    -0.348 C  
HETATM   24  C   UNL     1     -13.868   9.087  72.561  1.00  0.00    -0.424 C  
HETATM   25  O   UNL     1     -14.048   8.796  71.167  1.00  0.00    -0.249 OA 
ENDBRANCH  22  23
ENDBRANCH  21  22
ENDBRANCH  17  21
ENDBRANCH   2  15
TORSDOF 8
ENDMDL
MODEL       12
REMARK 921   NORMALIZED FREE ENERGY PREDICTED BY IDOCK:   -5.79 KCAL/MOL
REMARK 922        TOTAL FREE ENERGY PREDICTED BY IDOCK:   -9.67 KCAL/MOL
REMARK 923 INTER-LIGAND FREE ENERGY PREDICTED BY IDOCK:   -8.54 KCAL/MOL
REMARK 924 INTRA-LIGAND FREE ENERGY PREDICTED BY IDOCK:   -1.12 KCAL/MOL
REMARK 927      BINDING AFFINITY PREDICTED BY RF-SCORE:    0.00 PKD
ROOT
HETATM    1  C   UNL     1     -10.156  11.586  65.179  1.00  0.00    -0.313 C  
HETATM    2  C   UNL     1     -11.070  12.595  65.924  1.00  0.00    -0.323 C  
HETATM    3  C   UNL     1     -12.368  12.690  65.070  1.00  0.00    -0.561 C  
ENDROOT
BRANCH   2   4
HETATM    4  C   UNL     1     -10.409  14.003  65.983  1.00  0.00    -0.312 A  
HETATM    5  C   UNL     1      -9.144  14.219  66.566  1.00  0.00    -0.212 A  
HETATM    6  C   UNL     1      -8.547  15.486  66.568  1.00  0.00    -0.320 A  
HETATM    7  C   UNL     1     -11.056  15.124  65.432  1.00  0.00    -0.371 A  
HETATM    8  C   UNL     1     -10.443  16.383  65.406  1.00  0.00    -0.333 A  
HETATM    9  C   UNL     1      -9.197  16.576  65.990  1.00  0.00    -0.260 A  
BRANCH   9  10
HETATM   10  O   UNL     1      -8.527  17.767  66.062  1.00  0.00    -0.496 OA 
BRANCH  10  11
HETATM   11  C   UNL     1      -8.283  18.259  67.380  1.00  0.00    -0.237 C  
BRANCH  11  12
HETATM   12  C   UNL     1      -7.087  19.149  67.337  1.00  0.00    -0.208 C  
HETATM   13  O   UNL     1      -7.042  20.146  68.368  1.00  0.00    -0.292 OA 
HETATM   14  C   UNL     1      -7.210  20.614  67.020  1.00  0.00    -0.316 C  
ENDBRANCH  11  12
ENDBRANCH  10  11
ENDBRANCH   9  10
ENDBRANCH   2   4
BRANCH   2  15
HETATM   15  C   UNL     1     -11.342  11.980  67.319  1.00  0.00    -0.394 A  
HETATM   16  C   UNL     1     -11.905  12.254  69.688  1.00  0.00    -0.393 A  
HETATM   17  C   UNL     1     -11.642  10.911  69.940  1.00  0.00    -0.331 A  
HETATM   18  C   UNL     1     -11.768  12.776  68.397  1.00  0.00    -0.380 A  
HETATM   19  C   UNL     1     -11.056  10.629  67.603  1.00  0.00    -0.385 A  
HETATM   20  C   UNL     1     -11.204  10.105  68.895  1.00  0.00    -0.220 A  
BRANCH  17  21
HETATM   21  O   UNL     1     -11.770  10.289  71.153  1.00  0.00    -0.358 OA 
BRANCH  21  22
HETATM   22  C   UNL     1     -13.111  10.016  71.567  1.00  0.00    -0.433 C  
BRANCH  22  23
HETATM   23  C   UNL     1     -13.160   8.655  72.175  1.00  0.00    -0.383 C  
HETATM   24  C   UNL     1     -12.741   7.428  71.415  1.00  0.00    -0.369 C  
HETATM   25  O   UNL     1     -11.876   8.048  72.378  1.00  0.00    -0.345 OA 
ENDBRANCH  22  23
ENDBRANCH  21  22
ENDBRANCH  17  21
ENDBRANCH   2  15
TORSDOF 8
ENDMDL
MODEL       13
REMARK 921   NORMALIZED FREE ENERGY PREDICTED BY IDOCK:   -5.74 KCAL/MOL
REMARK 922        TOTAL FREE ENERGY PREDICTED BY IDOCK:   -9.59 KCAL/MOL
REMARK 923 INTER-LIGAND FREE ENERGY PREDICTED BY IDOCK:   -8.67 KCAL/MOL
REMARK 924 INTRA-LIGAND FREE ENERGY PREDICTED BY IDOCK:   -0.92 KCAL/MOL
REMARK 927      BINDING AFFINITY PREDICTED BY RF-SCORE:    0.00 PKD
ROOT
HETATM    1  C   UNL     1     -11.688  15.132  72.184  1.00  0.00    -0.502 C  
HETATM    2  C   UNL     1     -12.333  14.539  70.903  1.00  0.00    -0.415 C  
HETATM    3  C   UNL     1     -13.768  15.137  70.844  1.00  0.00    -0.352 C  
ENDROOT
BRANCH   2   4
HETATM    4  C   UNL     1     -12.443  12.990  71.005  1.00  0.00    -0.385 A  
HETATM    5  C   UNL     1     -13.182  12.351  72.022  1.00  0.00    -0.514 A  
HETATM    6  C   UNL     1     -13.306  10.957  72.068  1.00  0.00    -0.394 A  
HETATM    7  C   UNL     1     -11.812  12.161  70.060  1.00  0.00    -0.383 A  
HETATM    8  C   UNL     1     -11.965  10.769  70.090  1.00  0.00    -0.432 A  
HETATM    9  C   UNL     1     -12.695  10.159  71.103  1.00  0.00    -0.396 A  
BRANCH   9  10
HETATM   10  O   UNL     1     -12.871   8.810  71.255  1.00  0.00    -0.302 OA 
BRANCH  10  11
HETATM   11  C   UNL     1     -12.094   8.198  72.285  1.00  0.00    -0.364 C  
BRANCH  11  12
HETATM   12  C   UNL     1     -10.894   7.571  71.661  1.00  0.00    -0.219 C  
HETATM   13  O   UNL     1     -11.150   6.869  70.436  1.00  0.00    -0.264 OA 
HETATM   14  C   UNL     1     -10.748   6.078  71.565  1.00  0.00    -0.255 C  
ENDBRANCH  11  12
ENDBRANCH  10  11
ENDBRANCH   9  10
ENDBRANCH   2   4
BRANCH   2  15
HETATM   15  C   UNL     1     -11.458  15.021  69.719  1.00  0.00    -0.324 A  
HETATM   16  C   UNL     1      -9.521  16.264  68.878  1.00  0.00    -0.252 A  
HETATM   17  C   UNL     1      -9.947  16.103  67.563  1.00  0.00    -0.243 A  
HETATM   18  C   UNL     1     -10.259  15.722  69.936  1.00  0.00    -0.277 A  
HETATM   19  C   UNL     1     -11.885  14.893  68.382  1.00  0.00    -0.309 A  
HETATM   20  C   UNL     1     -11.138  15.427  67.321  1.00  0.00    -0.302 A  
BRANCH  17  21
HETATM   21  O   UNL     1      -9.293  16.563  66.452  1.00  0.00    -0.250 OA 
BRANCH  21  22
HETATM   22  C   UNL     1      -8.986  17.960  66.450  1.00  0.00    -0.227 C  
BRANCH  22  23
HETATM   23  C   UNL     1     -10.239  18.727  66.191  1.00  0.00    -0.421 C  
HETATM   24  C   UNL     1     -10.911  19.540  67.262  1.00  0.00    -0.437 C  
HETATM   25  O   UNL     1     -10.088  20.151  66.257  1.00  0.00    -0.452 OA 
ENDBRANCH  22  23
ENDBRANCH  21  22
ENDBRANCH  17  21
ENDBRANCH   2  15
TORSDOF 8
ENDMDL
MODEL       14
REMARK 921   NORMALIZED FREE ENERGY PREDICTED BY IDOCK:   -5.71 KCAL/MOL
REMARK 922        TOTAL FREE ENERGY PREDICTED BY IDOCK:   -9.55 KCAL/MOL
REMARK 923 INTER-LIGAND FREE ENERGY PREDICTED BY IDOCK:   -8.57 KCAL/MOL
REMARK 924 INTRA-LIGAND FREE ENERGY PREDICTED BY IDOCK:   -0.99 KCAL/MOL
REMARK 927      BINDING AFFINITY PREDICTED BY RF-SCORE:    0.00 PKD
ROOT
HETATM    1  C   UNL     1     -13.794  15.110  70.962  1.00  0.00    -0.423 C  
HETATM    2  C   UNL     1     -12.333  14.588  70.986  1.00  0.00    -0.417 C  
HETATM    3  C   UNL     1     -11.711  15.149  72.298  1.00  0.00    -0.496 C  
ENDROOT
BRANCH   2   4
HETATM    4  C   UNL     1     -11.526  15.141  69.776  1.00  0.00    -0.321 A  
HETATM    5  C   UNL     1     -10.307  15.832  69.935  1.00  0.00    -0.313 A  
HETATM    6  C   UNL     1      -9.574  16.282  68.830  1.00  0.00    -0.242 A  
HETATM    7  C   UNL     1     -11.985  14.953  68.460  1.00  0.00    -0.275 A  
HETATM    8  C   UNL     1     -11.234  15.376  67.356  1.00  0.00    -0.287 A  
HETATM    9  C   UNL     1     -10.036  16.059  67.534  1.00  0.00    -0.247 A  
BRANCH   9  10
HETATM   10  O   UNL     1      -9.246  16.554  66.532  1.00  0.00    -0.236 OA 
BRANCH  10  11
HETATM   11  C   UNL     1      -8.899  17.934  66.645  1.00  0.00    -0.268 C  
BRANCH  11  12
HETATM   12  C   UNL     1     -10.088  18.752  66.273  1.00  0.00    -0.409 C  
HETATM   13  O   UNL     1      -9.857  20.167  66.235  1.00  0.00    -0.431 OA 
HETATM   14  C   UNL     1     -10.741  19.682  67.259  1.00  0.00    -0.458 C  
ENDBRANCH  11  12
ENDBRANCH  10  11
ENDBRANCH   9  10
ENDBRANCH   2   4
BRANCH   2  15
HETATM   15  C   UNL     1     -12.430  13.041  71.011  1.00  0.00    -0.385 A  
HETATM   16  C   UNL     1     -13.259  10.982  72.049  1.00  0.00    -0.447 A  
HETATM   17  C   UNL     1     -12.461  10.203  71.217  1.00  0.00    -0.406 A  
HETATM   18  C   UNL     1     -13.251  12.378  71.939  1.00  0.00    -0.486 A  
HETATM   19  C   UNL     1     -11.611  12.234  70.197  1.00  0.00    -0.177 A  
HETATM   20  C   UNL     1     -11.628  10.835  70.300  1.00  0.00    -0.427 A  
BRANCH  17  21
HETATM   21  O   UNL     1     -12.410   8.835  71.216  1.00  0.00    -0.295 OA 
BRANCH  21  22
HETATM   22  C   UNL     1     -11.962   8.233  72.433  1.00  0.00    -0.384 C  
BRANCH  22  23
HETATM   23  C   UNL     1     -11.001   7.141  72.105  1.00  0.00    -0.241 C  
HETATM   24  C   UNL     1     -11.259   6.160  70.995  1.00  0.00    -0.296 C  
HETATM   25  O   UNL     1     -10.366   7.271  70.826  1.00  0.00    -0.202 OA 
ENDBRANCH  22  23
ENDBRANCH  21  22
ENDBRANCH  17  21
ENDBRANCH   2  15
TORSDOF 8
ENDMDL
MODEL       15
REMARK 921   NORMALIZED FREE ENERGY PREDICTED BY IDOCK:   -5.68 KCAL/MOL
REMARK 922        TOTAL FREE ENERGY PREDICTED BY IDOCK:   -9.51 KCAL/MOL
REMARK 923 INTER-LIGAND FREE ENERGY PREDICTED BY IDOCK:   -8.96 KCAL/MOL
REMARK 924 INTRA-LIGAND FREE ENERGY PREDICTED BY IDOCK:   -0.56 KCAL/MOL
REMARK 927      BINDING AFFINITY PREDICTED BY RF-SCORE:    0.00 PKD
ROOT
HETATM    1  C   UNL     1     -11.895  15.311  72.369  1.00  0.00    -0.532 C  
HETATM    2  C   UNL     1     -12.620  14.719  71.130  1.00  0.00    -0.407 C  
HETATM    3  C   UNL     1     -14.098  15.196  71.245  1.00  0.00    -0.537 C  
ENDROOT
BRANCH   2   4
HETATM    4  C   UNL     1     -12.595  13.164  71.164  1.00  0.00    -0.403 A  
HETATM    5  C   UNL     1     -13.376  12.416  72.070  1.00  0.00    -0.511 A  
HETATM    6  C   UNL     1     -13.373  11.015  72.052  1.00  0.00    -0.393 A  
HETATM    7  C   UNL     1     -11.791  12.438  70.266  1.00  0.00    -0.315 A  
HETATM    8  C   UNL     1     -11.815  11.039  70.230  1.00  0.00    -0.456 A  
HETATM    9  C   UNL     1     -12.589  10.320  71.133  1.00  0.00    -0.400 A  
BRANCH   9  10
HETATM   10  O   UNL     1     -12.654   8.955  71.216  1.00  0.00    -0.312 OA 
BRANCH  10  11
HETATM   11  C   UNL     1     -12.063   8.379  72.382  1.00  0.00    -0.378 C  
BRANCH  11  12
HETATM   12  C   UNL     1     -11.117   7.311  71.952  1.00  0.00    -0.238 C  
HETATM   13  O   UNL     1     -11.657   6.371  71.012  1.00  0.00    -0.324 OA 
HETATM   14  C   UNL     1     -11.340   5.870  72.320  1.00  0.00    -0.298 C  
ENDBRANCH  11  12
ENDBRANCH  10  11
ENDBRANCH   9  10
ENDBRANCH   2   4
BRANCH   2  15
HETATM   15  C   UNL     1     -11.915  15.324  69.890  1.00  0.00    -0.373 A  
HETATM   16  C   UNL     1     -11.421  15.268  67.491  1.00  0.00    -0.271 A  
HETATM   17  C   UNL     1     -10.471  16.275  67.630  1.00  0.00    -0.295 A  
HETATM   18  C   UNL     1     -12.139  14.809  68.602  1.00  0.00    -0.223 A  
HETATM   19  C   UNL     1     -10.930  16.324  70.012  1.00  0.00    -0.356 A  
HETATM   20  C   UNL     1     -10.220  16.792  68.897  1.00  0.00    -0.304 A  
BRANCH  17  21
HETATM   21  O   UNL     1      -9.734  16.820  66.613  1.00  0.00    -0.245 OA 
BRANCH  21  22
HETATM   22  C   UNL     1      -9.853  18.237  66.456  1.00  0.00    -0.361 C  
BRANCH  22  23
HETATM   23  C   UNL     1      -8.486  18.829  66.376  1.00  0.00    -0.284 C  
HETATM   24  C   UNL     1      -7.287  18.146  66.971  1.00  0.00    -0.206 C  
HETATM   25  O   UNL     1      -7.564  18.089  65.564  1.00  0.00    -0.530 OA 
ENDBRANCH  22  23
ENDBRANCH  21  22
ENDBRANCH  17  21
ENDBRANCH   2  15
TORSDOF 8
ENDMDL
MODEL       16
REMARK 921   NORMALIZED FREE ENERGY PREDICTED BY IDOCK:   -5.64 KCAL/MOL
REMARK 922        TOTAL FREE ENERGY PREDICTED BY IDOCK:   -9.44 KCAL/MOL
REMARK 923 INTER-LIGAND FREE ENERGY PREDICTED BY IDOCK:   -8.46 KCAL/MOL
REMARK 924 INTRA-LIGAND FREE ENERGY PREDICTED BY IDOCK:   -0.98 KCAL/MOL
REMARK 927      BINDING AFFINITY PREDICTED BY RF-SCORE:    0.00 PKD
ROOT
HETATM    1  C   UNL     1     -10.728   7.745  69.640  1.00  0.00    -0.223 C  
HETATM    2  C   UNL     1     -10.152   9.182  69.749  1.00  0.00    -0.211 C  
HETATM    3  C   UNL     1      -8.904   9.062  70.672  1.00  0.00    -0.259 C  
ENDROOT
BRANCH   2   4
HETATM    4  C   UNL     1     -11.178  10.140  70.421  1.00  0.00    -0.402 A  
HETATM    5  C   UNL     1     -11.299  11.495  70.050  1.00  0.00    -0.222 A  
HETATM    6  C   UNL     1     -12.261  12.329  70.636  1.00  0.00    -0.378 A  
HETATM    7  C   UNL     1     -12.044   9.675  71.427  1.00  0.00    -0.472 A  
HETATM    8  C   UNL     1     -13.025  10.502  71.987  1.00  0.00    -0.490 A  
HETATM    9  C   UNL     1     -13.126  11.836  71.611  1.00  0.00    -0.338 A  
BRANCH   9  10
HETATM   10  O   UNL     1     -14.015  12.743  72.123  1.00  0.00    -0.326 OA 
BRANCH  10  11
HETATM   11  C   UNL     1     -13.726  14.113  71.847  1.00  0.00    -0.437 C  
BRANCH  11  12
HETATM   12  C   UNL     1     -13.115  14.721  73.063  1.00  0.00    -0.513 C  
HETATM   13  O   UNL     1     -13.487  16.085  73.306  1.00  0.00    -0.598 OA 
HETATM   14  C   UNL     1     -12.114  15.839  72.964  1.00  0.00    -0.495 C  
ENDBRANCH  11  12
ENDBRANCH  10  11
ENDBRANCH   9  10
ENDBRANCH   2   4
BRANCH   2  15
HETATM   15  C   UNL     1      -9.765   9.600  68.308  1.00  0.00    -0.162 A  
HETATM   16  C   UNL     1      -8.539  11.075  66.783  1.00  0.00    -0.152 A  
HETATM   17  C   UNL     1      -9.195  10.534  65.681  1.00  0.00    -0.186 A  
HETATM   18  C   UNL     1      -8.812  10.607  68.073  1.00  0.00    -0.130 A  
HETATM   19  C   UNL     1     -10.436   9.085  67.181  1.00  0.00    -0.333 A  
HETATM   20  C   UNL     1     -10.153   9.547  65.888  1.00  0.00    -0.284 A  
BRANCH  17  21
HETATM   21  O   UNL     1      -8.987  10.891  64.376  1.00  0.00    -0.179 OA 
BRANCH  21  22
HETATM   22  C   UNL     1     -10.162  11.233  63.635  1.00  0.00    -0.392 C  
BRANCH  22  23
HETATM   23  C   UNL     1     -10.688  12.534  64.140  1.00  0.00    -0.391 C  
HETATM   24  C   UNL     1     -11.931  13.163  63.575  1.00  0.00    -0.513 C  
HETATM   25  O   UNL     1     -11.949  12.443  64.817  1.00  0.00    -0.378 OA 
ENDBRANCH  22  23
ENDBRANCH  21  22
ENDBRANCH  17  21
ENDBRANCH   2  15
TORSDOF 8
ENDMDL
MODEL       17
REMARK 921   NORMALIZED FREE ENERGY PREDICTED BY IDOCK:   -5.64 KCAL/MOL
REMARK 922        TOTAL FREE ENERGY PREDICTED BY IDOCK:   -9.44 KCAL/MOL
REMARK 923 INTER-LIGAND FREE ENERGY PREDICTED BY IDOCK:   -8.27 KCAL/MOL
REMARK 924 INTRA-LIGAND FREE ENERGY PREDICTED BY IDOCK:   -1.16 KCAL/MOL
REMARK 927      BINDING AFFINITY PREDICTED BY RF-SCORE:    0.00 PKD
ROOT
HETATM    1  C   UNL     1     -12.534  12.692  65.156  1.00  0.00    -0.531 C  
HETATM    2  C   UNL     1     -11.040  12.604  65.568  1.00  0.00    -0.329 C  
HETATM    3  C   UNL     1     -10.234  12.724  64.241  1.00  0.00    -0.352 C  
ENDROOT
BRANCH   2   4
HETATM    4  C   UNL     1     -10.724  11.226  66.219  1.00  0.00    -0.312 A  
HETATM    5  C   UNL     1     -11.137  10.898  67.526  1.00  0.00    -0.375 A  
HETATM    6  C   UNL     1     -10.882   9.635  68.076  1.00  0.00    -0.250 A  
HETATM    7  C   UNL     1     -10.019  10.240  65.506  1.00  0.00    -0.364 A  
HETATM    8  C   UNL     1      -9.794   8.967  66.047  1.00  0.00    -0.312 A  
HETATM    9  C   UNL     1     -10.206   8.664  67.339  1.00  0.00    -0.262 A  
BRANCH   9  10
HETATM   10  O   UNL     1     -10.000   7.473  67.981  1.00  0.00    -0.159 OA 
BRANCH  10  11
HETATM   11  C   UNL     1      -9.571   7.570  69.339  1.00  0.00    -0.155 C  
BRANCH  11  12
HETATM   12  C   UNL     1     -10.298   6.542  70.138  1.00  0.00    -0.201 C  
HETATM   13  O   UNL     1     -11.401   5.924  69.461  1.00  0.00    -0.361 OA 
HETATM   14  C   UNL     1     -11.716   6.756  70.589  1.00  0.00    -0.386 C  
ENDBRANCH  11  12
ENDBRANCH  10  11
ENDBRANCH   9  10
ENDBRANCH   2   4
BRANCH   2  15
HETATM   15  C   UNL     1     -10.782  13.808  66.509  1.00  0.00    -0.284 A  
HETATM   16  C   UNL     1     -11.631  15.554  68.004  1.00  0.00    -0.276 A  
HETATM   17  C   UNL     1     -10.375  16.149  68.075  1.00  0.00    -0.271 A  
HETATM   18  C   UNL     1     -11.827  14.396  67.242  1.00  0.00    -0.434 A  
HETATM   19  C   UNL     1      -9.525  14.442  66.574  1.00  0.00    -0.309 A  
HETATM   20  C   UNL     1      -9.327  15.595  67.347  1.00  0.00    -0.214 A  
BRANCH  17  21
HETATM   21  O   UNL     1     -10.061  17.261  68.809  1.00  0.00    -0.301 OA 
BRANCH  21  22
HETATM   22  C   UNL     1      -9.448  18.328  68.081  1.00  0.00    -0.303 C  
BRANCH  22  23
HETATM   23  C   UNL     1     -10.473  18.965  67.205  1.00  0.00    -0.438 C  
HETATM   24  C   UNL     1     -10.103  19.959  66.139  1.00  0.00    -0.504 C  
HETATM   25  O   UNL     1     -10.392  18.589  65.823  1.00  0.00    -0.590 OA 
ENDBRANCH  22  23
ENDBRANCH  21  22
ENDBRANCH  17  21
ENDBRANCH   2  15
TORSDOF 8
ENDMDL
MODEL       18
REMARK 921   NORMALIZED FREE ENERGY PREDICTED BY IDOCK:   -5.63 KCAL/MOL
REMARK 922        TOTAL FREE ENERGY PREDICTED BY IDOCK:   -9.43 KCAL/MOL
REMARK 923 INTER-LIGAND FREE ENERGY PREDICTED BY IDOCK:   -8.49 KCAL/MOL
REMARK 924 INTRA-LIGAND FREE ENERGY PREDICTED BY IDOCK:   -0.94 KCAL/MOL
REMARK 927      BINDING AFFINITY PREDICTED BY RF-SCORE:    0.00 PKD
ROOT
HETATM    1  C   UNL     1     -12.289  11.895  63.611  1.00  0.00    -0.591 C  
HETATM    2  C   UNL     1     -10.892  12.069  64.263  1.00  0.00    -0.389 C  
HETATM    3  C   UNL     1      -9.868  11.606  63.186  1.00  0.00    -0.407 C  
ENDROOT
BRANCH   2   4
HETATM    4  C   UNL     1     -10.746  11.155  65.514  1.00  0.00    -0.251 A  
HETATM    5  C   UNL     1     -11.310  11.490  66.762  1.00  0.00    -0.309 A  
HETATM    6  C   UNL     1     -11.205  10.630  67.864  1.00  0.00    -0.376 A  
HETATM    7  C   UNL     1     -10.050   9.935  65.435  1.00  0.00    -0.270 A  
HETATM    8  C   UNL     1      -9.976   9.064  66.529  1.00  0.00    -0.355 A  
HETATM    9  C   UNL     1     -10.534   9.414  67.752  1.00  0.00    -0.254 A  
BRANCH   9  10
HETATM   10  O   UNL     1     -10.483   8.662  68.895  1.00  0.00    -0.215 OA 
BRANCH  10  11
HETATM   11  C   UNL     1     -11.030   9.275  70.062  1.00  0.00    -0.229 C  
BRANCH  11  12
HETATM   12  C   UNL     1     -11.380   8.204  71.038  1.00  0.00    -0.269 C  
HETATM   13  O   UNL     1     -12.019   8.667  72.236  1.00  0.00    -0.364 OA 
HETATM   14  C   UNL     1     -10.703   8.110  72.377  1.00  0.00    -0.334 C  
ENDBRANCH  11  12
ENDBRANCH  10  11
ENDBRANCH   9  10
ENDBRANCH   2   4
BRANCH   2  15
HETATM   15  C   UNL     1     -10.750  13.580  64.579  1.00  0.00    -0.431 A  
HETATM   16  C   UNL     1      -9.608  15.407  65.746  1.00  0.00    -0.368 A  
HETATM   17  C   UNL     1     -10.587  16.314  65.352  1.00  0.00    -0.352 A  
HETATM   18  C   UNL     1      -9.684  14.064  65.356  1.00  0.00    -0.109 A  
HETATM   19  C   UNL     1     -11.744  14.510  64.214  1.00  0.00    -0.312 A  
HETATM   20  C   UNL     1     -11.661  15.857  64.596  1.00  0.00    -0.200 A  
BRANCH  17  21
HETATM   21  O   UNL     1     -10.600  17.650  65.649  1.00  0.00    -0.565 OA 
BRANCH  21  22
HETATM   22  C   UNL     1     -10.015  18.009  66.904  1.00  0.00    -0.340 C  
BRANCH  22  23
HETATM   23  C   UNL     1     -10.712  19.217  67.432  1.00  0.00    -0.486 C  
HETATM   24  C   UNL     1     -10.084  20.111  68.464  1.00  0.00    -0.272 C  
HETATM   25  O   UNL     1     -10.098  20.462  67.072  1.00  0.00    -0.445 OA 
ENDBRANCH  22  23
ENDBRANCH  21  22
ENDBRANCH  17  21
ENDBRANCH   2  15
TORSDOF 8
ENDMDL
MODEL       19
REMARK 921   NORMALIZED FREE ENERGY PREDICTED BY IDOCK:   -5.62 KCAL/MOL
REMARK 922        TOTAL FREE ENERGY PREDICTED BY IDOCK:   -9.42 KCAL/MOL
REMARK 923 INTER-LIGAND FREE ENERGY PREDICTED BY IDOCK:   -8.20 KCAL/MOL
REMARK 924 INTRA-LIGAND FREE ENERGY PREDICTED BY IDOCK:   -1.21 KCAL/MOL
REMARK 927      BINDING AFFINITY PREDICTED BY RF-SCORE:    0.00 PKD
ROOT
HETATM    1  C   UNL     1     -12.733  15.395  69.633  1.00  0.00     0.047 C  
HETATM    2  C   UNL     1     -11.586  14.379  69.384  1.00  0.00    -0.349 C  
HETATM    3  C   UNL     1     -10.302  15.055  69.947  1.00  0.00    -0.141 C  
ENDROOT
BRANCH   2   4
HETATM    4  C   UNL     1     -11.389  14.127  67.861  1.00  0.00    -0.318 A  
HETATM    5  C   UNL     1     -10.124  14.193  67.243  1.00  0.00    -0.256 A  
HETATM    6  C   UNL     1      -9.962  13.917  65.879  1.00  0.00    -0.317 A  
HETATM    7  C   UNL     1     -12.484  13.804  67.039  1.00  0.00    -0.146 A  
HETATM    8  C   UNL     1     -12.315  13.498  65.683  1.00  0.00    -0.522 A  
HETATM    9  C   UNL     1     -11.059  13.571  65.091  1.00  0.00    -0.316 A  
BRANCH   9  10
HETATM   10  O   UNL     1     -10.787  13.337  63.771  1.00  0.00    -0.259 OA 
BRANCH  10  11
HETATM   11  C   UNL     1     -10.969  11.991  63.333  1.00  0.00    -0.403 C  
BRANCH  11  12
HETATM   12  C   UNL     1      -9.628  11.397  63.063  1.00  0.00    -0.376 C  
HETATM   13  O   UNL     1      -9.656  10.113  62.424  1.00  0.00    -0.276 OA 
HETATM   14  C   UNL     1      -9.162  10.156  63.772  1.00  0.00    -0.281 C  
ENDBRANCH  11  12
ENDBRANCH  10  11
ENDBRANCH   9  10
ENDBRANCH   2   4
BRANCH   2  15
HETATM   15  C   UNL     1     -11.961  13.104  70.180  1.00  0.00    -0.381 A  
HETATM   16  C   UNL     1     -12.005  10.662  70.381  1.00  0.00    -0.436 A  
HETATM   17  C   UNL     1     -12.820  10.736  71.506  1.00  0.00    -0.462 A  
HETATM   18  C   UNL     1     -11.574  11.828  69.736  1.00  0.00    -0.372 A  
HETATM   19  C   UNL     1     -12.808  13.155  71.305  1.00  0.00    -0.384 A  
HETATM   20  C   UNL     1     -13.229  11.987  71.957  1.00  0.00    -0.481 A  
BRANCH  17  21
HETATM   21  O   UNL     1     -13.275   9.668  72.231  1.00  0.00    -0.433 OA 
BRANCH  21  22
HETATM   22  C   UNL     1     -14.000   8.684  71.490  1.00  0.00    -0.348 C  
BRANCH  22  23
HETATM   23  C   UNL     1     -13.329   7.362  71.658  1.00  0.00    -0.364 C  
HETATM   24  C   UNL     1     -12.151   6.955  70.819  1.00  0.00    -0.349 C  
HETATM   25  O   UNL     1     -11.989   7.436  72.162  1.00  0.00    -0.286 OA 
ENDBRANCH  22  23
ENDBRANCH  21  22
ENDBRANCH  17  21
ENDBRANCH   2  15
TORSDOF 8
ENDMDL
MODEL       20
REMARK 921   NORMALIZED FREE ENERGY PREDICTED BY IDOCK:   -5.59 KCAL/MOL
REMARK 922        TOTAL FREE ENERGY PREDICTED BY IDOCK:   -9.37 KCAL/MOL
REMARK 923 INTER-LIGAND FREE ENERGY PREDICTED BY IDOCK:   -8.29 KCAL/MOL
REMARK 924 INTRA-LIGAND FREE ENERGY PREDICTED BY IDOCK:   -1.09 KCAL/MOL
REMARK 927      BINDING AFFINITY PREDICTED BY RF-SCORE:    0.00 PKD
ROOT
HETATM    1  C   UNL     1     -10.118  14.892  69.939  1.00  0.00     0.034 C  
HETATM    2  C   UNL     1     -11.470  14.413  69.346  1.00  0.00    -0.330 C  
HETATM    3  C   UNL     1     -12.465  15.588  69.576  1.00  0.00    -0.081 C  
ENDROOT
BRANCH   2   4
HETATM    4  C   UNL     1     -11.996  13.160  70.105  1.00  0.00    -0.381 A  
HETATM    5  C   UNL     1     -11.688  11.846  69.694  1.00  0.00    -0.413 A  
HETATM    6  C   UNL     1     -12.134  10.733  70.418  1.00  0.00    -0.443 A  
HETATM    7  C   UNL     1     -12.794  13.299  71.254  1.00  0.00    -0.398 A  
HETATM    8  C   UNL     1     -13.211  12.184  71.993  1.00  0.00    -0.496 A  
HETATM    9  C   UNL     1     -12.901  10.897  71.570  1.00  0.00    -0.454 A  
BRANCH   9  10
HETATM   10  O   UNL     1     -13.292   9.741  72.189  1.00  0.00    -0.434 OA 
BRANCH  10  11
HETATM   11  C   UNL     1     -12.282   8.740  72.320  1.00  0.00    -0.358 C  
BRANCH  11  12
HETATM   12  C   UNL     1     -12.784   7.479  71.702  1.00  0.00    -0.355 C  
HETATM   13  O   UNL     1     -12.059   6.298  72.072  1.00  0.00    -0.337 OA 
HETATM   14  C   UNL     1     -11.962   6.715  70.701  1.00  0.00    -0.343 C  
ENDBRANCH  11  12
ENDBRANCH  10  11
ENDBRANCH   9  10
ENDBRANCH   2   4
BRANCH   2  15
HETATM   15  C   UNL     1     -11.213  14.163  67.838  1.00  0.00    -0.299 A  
HETATM   16  C   UNL     1     -12.067  13.743  65.580  1.00  0.00    -0.444 A  
HETATM   17  C   UNL     1     -10.783  13.492  65.106  1.00  0.00    -0.341 A  
HETATM   18  C   UNL     1     -12.276  14.084  66.922  1.00  0.00    -0.415 A  
HETATM   19  C   UNL     1      -9.925  13.879  67.343  1.00  0.00    -0.240 A  
HETATM   20  C   UNL     1      -9.716  13.549  65.996  1.00  0.00    -0.233 A  
BRANCH  17  21
HETATM   21  O   UNL     1     -10.459  13.181  63.813  1.00  0.00    -0.281 OA 
BRANCH  21  22
HETATM   22  C   UNL     1     -10.613  11.805  63.453  1.00  0.00    -0.420 C  
BRANCH  22  23
HETATM   23  C   UNL     1      -9.307  11.291  62.947  1.00  0.00    -0.352 C  
HETATM   24  C   UNL     1      -8.506  10.269  63.705  1.00  0.00    -0.183 C  
HETATM   25  O   UNL     1      -9.317   9.906  62.577  1.00  0.00    -0.291 OA 
ENDBRANCH  22  23
ENDBRANCH  21  22
ENDBRANCH  17  21
ENDBRANCH   2  15
TORSDOF 8
ENDMDL
MODEL       21
REMARK 921   NORMALIZED FREE ENERGY PREDICTED BY IDOCK:   -5.57 KCAL/MOL
REMARK 922        TOTAL FREE ENERGY PREDICTED BY IDOCK:   -9.34 KCAL/MOL
REMARK 923 INTER-LIGAND FREE ENERGY PREDICTED BY IDOCK:   -8.97 KCAL/MOL
REMARK 924 INTRA-LIGAND FREE ENERGY PREDICTED BY IDOCK:   -0.37 KCAL/MOL
REMARK 927      BINDING AFFINITY PREDICTED BY RF-SCORE:    0.00 PKD
ROOT
HETATM    1  C   UNL     1     -10.354  14.124  64.985  1.00  0.00    -0.443 C  
HETATM    2  C   UNL     1     -11.439  13.474  65.886  1.00  0.00    -0.338 C  
HETATM    3  C   UNL     1     -12.782  13.662  65.122  1.00  0.00    -0.443 C  
ENDROOT
BRANCH   2   4
HETATM    4  C   UNL     1     -11.537  14.209  67.254  1.00  0.00    -0.399 A  
HETATM    5  C   UNL     1     -12.023  13.576  68.417  1.00  0.00    -0.378 A  
HETATM    6  C   UNL     1     -12.060  14.242  69.649  1.00  0.00    -0.396 A  
HETATM    7  C   UNL     1     -11.121  15.546  67.383  1.00  0.00    -0.285 A  
HETATM    8  C   UNL     1     -11.129  16.198  68.622  1.00  0.00    -0.356 A  
HETATM    9  C   UNL     1     -11.616  15.559  69.756  1.00  0.00    -0.334 A  
BRANCH   9  10
HETATM   10  O   UNL     1     -11.711  16.114  71.003  1.00  0.00    -0.410 OA 
BRANCH  10  11
HETATM   11  C   UNL     1     -11.479  15.222  72.094  1.00  0.00    -0.407 C  
BRANCH  11  12
HETATM   12  C   UNL     1     -12.619  15.338  73.049  1.00  0.00    -0.430 C  
HETATM   13  O   UNL     1     -13.579  14.275  72.970  1.00  0.00    -0.643 OA 
HETATM   14  C   UNL     1     -14.023  15.581  72.568  1.00  0.00    -0.555 C  
ENDBRANCH  11  12
ENDBRANCH  10  11
ENDBRANCH   9  10
ENDBRANCH   2   4
BRANCH   2  15
HETATM   15  C   UNL     1     -11.052  11.978  66.012  1.00  0.00    -0.364 A  
HETATM   16  C   UNL     1     -10.815   9.954  67.372  1.00  0.00    -0.293 A  
HETATM   17  C   UNL     1     -10.157   9.297  66.337  1.00  0.00    -0.267 A  
HETATM   18  C   UNL     1     -11.265  11.269  67.206  1.00  0.00    -0.364 A  
HETATM   19  C   UNL     1     -10.360  11.303  64.987  1.00  0.00    -0.359 A  
HETATM   20  C   UNL     1      -9.920   9.981  65.150  1.00  0.00    -0.350 A  
BRANCH  17  21
HETATM   21  O   UNL     1      -9.701   8.006  66.376  1.00  0.00    -0.221 OA 
BRANCH  21  22
HETATM   22  C   UNL     1      -9.123   7.594  67.617  1.00  0.00    -0.129 C  
BRANCH  22  23
HETATM   23  C   UNL     1      -9.835   6.375  68.099  1.00  0.00    -0.127 C  
HETATM   24  C   UNL     1     -11.085   6.459  68.930  1.00  0.00    -0.348 C  
HETATM   25  O   UNL     1     -11.133   6.178  67.523  1.00  0.00    -0.330 OA 
ENDBRANCH  22  23
ENDBRANCH  21  22
ENDBRANCH  17  21
ENDBRANCH   2  15
TORSDOF 8
ENDMDL
MODEL       22
REMARK 921   NORMALIZED FREE ENERGY PREDICTED BY IDOCK:   -5.51 KCAL/MOL
REMARK 922        TOTAL FREE ENERGY PREDICTED BY IDOCK:   -9.26 KCAL/MOL
REMARK 923 INTER-LIGAND FREE ENERGY PREDICTED BY IDOCK:   -8.19 KCAL/MOL
REMARK 924 INTRA-LIGAND FREE ENERGY PREDICTED BY IDOCK:   -1.07 KCAL/MOL
REMARK 927      BINDING AFFINITY PREDICTED BY RF-SCORE:    0.00 PKD
ROOT
HETATM    1  C   UNL     1     -10.248  12.488  64.885  1.00  0.00    -0.301 C  
HETATM    2  C   UNL     1     -11.128  12.981  66.065  1.00  0.00    -0.301 C  
HETATM    3  C   UNL     1     -12.564  13.127  65.481  1.00  0.00    -0.468 C  
ENDROOT
BRANCH   2   4
HETATM    4  C   UNL     1     -10.651  14.374  66.568  1.00  0.00    -0.296 A  
HETATM    5  C   UNL     1     -11.441  15.183  67.411  1.00  0.00    -0.284 A  
HETATM    6  C   UNL     1     -10.973  16.413  67.889  1.00  0.00    -0.298 A  
HETATM    7  C   UNL     1      -9.387  14.875  66.206  1.00  0.00    -0.329 A  
HETATM    8  C   UNL     1      -8.910  16.091  66.712  1.00  0.00    -0.288 A  
HETATM    9  C   UNL     1      -9.706  16.875  67.539  1.00  0.00    -0.249 A  
BRANCH   9  10
HETATM   10  O   UNL     1      -9.359  18.095  68.052  1.00  0.00    -0.270 OA 
BRANCH  10  11
HETATM   11  C   UNL     1     -10.347  19.119  67.931  1.00  0.00    -0.414 C  
BRANCH  11  12
HETATM   12  C   UNL     1      -9.821  20.175  67.019  1.00  0.00    -0.455 C  
HETATM   13  O   UNL     1      -9.885  19.852  65.623  1.00  0.00    -0.349 OA 
HETATM   14  C   UNL     1      -8.576  19.961  66.205  1.00  0.00    -0.312 C  
ENDBRANCH  11  12
ENDBRANCH  10  11
ENDBRANCH   9  10
ENDBRANCH   2   4
BRANCH   2  15
HETATM   15  C   UNL     1     -11.057  11.874  67.146  1.00  0.00    -0.347 A  
HETATM   16  C   UNL     1     -10.503   9.578  67.802  1.00  0.00    -0.309 A  
HETATM   17  C   UNL     1     -11.105   9.753  69.044  1.00  0.00    -0.107 A  
HETATM   18  C   UNL     1     -10.470  10.626  66.874  1.00  0.00    -0.304 A  
HETATM   19  C   UNL     1     -11.684  12.020  68.400  1.00  0.00    -0.390 A  
HETATM   20  C   UNL     1     -11.706  10.974  69.333  1.00  0.00    -0.394 A  
BRANCH  17  21
HETATM   21  O   UNL     1     -11.170   8.813  70.036  1.00  0.00    -0.215 OA 
BRANCH  21  22
HETATM   22  C   UNL     1     -10.988   9.306  71.366  1.00  0.00    -0.359 C  
BRANCH  22  23
HETATM   23  C   UNL     1     -11.956   8.621  72.271  1.00  0.00    -0.368 C  
HETATM   24  C   UNL     1     -13.420   8.964  72.277  1.00  0.00    -0.455 C  
HETATM   25  O   UNL     1     -12.922   7.802  71.597  1.00  0.00    -0.331 OA 
ENDBRANCH  22  23
ENDBRANCH  21  22
ENDBRANCH  17  21
ENDBRANCH   2  15
TORSDOF 8
ENDMDL
MODEL       23
REMARK 921   NORMALIZED FREE ENERGY PREDICTED BY IDOCK:   -5.45 KCAL/MOL
REMARK 922        TOTAL FREE ENERGY PREDICTED BY IDOCK:   -9.17 KCAL/MOL
REMARK 923 INTER-LIGAND FREE ENERGY PREDICTED BY IDOCK:   -8.02 KCAL/MOL
REMARK 924 INTRA-LIGAND FREE ENERGY PREDICTED BY IDOCK:   -1.15 KCAL/MOL
REMARK 927      BINDING AFFINITY PREDICTED BY RF-SCORE:    0.00 PKD
ROOT
HETATM    1  C   UNL     1     -10.447  12.873  64.098  1.00  0.00    -0.429 C  
HETATM    2  C   UNL     1     -11.096  12.789  65.505  1.00  0.00    -0.318 C  
HETATM    3  C   UNL     1     -12.632  12.855  65.260  1.00  0.00    -0.502 C  
ENDROOT
BRANCH   2   4
HETATM    4  C   UNL     1     -10.679  14.005  66.382  1.00  0.00    -0.278 A  
HETATM    5  C   UNL     1      -9.381  14.555  66.341  1.00  0.00    -0.300 A  
HETATM    6  C   UNL     1      -9.040  15.679  67.104  1.00  0.00    -0.227 A  
HETATM    7  C   UNL     1     -11.604  14.618  67.246  1.00  0.00    -0.404 A  
HETATM    8  C   UNL     1     -11.269  15.761  67.984  1.00  0.00    -0.338 A  
HETATM    9  C   UNL     1      -9.983  16.285  67.932  1.00  0.00    -0.241 A  
BRANCH   9  10
HETATM   10  O   UNL     1      -9.536  17.367  68.642  1.00  0.00    -0.272 OA 
BRANCH  10  11
HETATM   11  C   UNL     1     -10.232  18.591  68.405  1.00  0.00    -0.372 C  
BRANCH  11  12
HETATM   12  C   UNL     1      -9.768  19.153  67.104  1.00  0.00    -0.327 C  
HETATM   13  O   UNL     1      -9.967  20.566  66.955  1.00  0.00    -0.453 OA 
HETATM   14  C   UNL     1     -10.738  19.709  66.098  1.00  0.00    -0.416 C  
ENDBRANCH  11  12
ENDBRANCH  10  11
ENDBRANCH   9  10
ENDBRANCH   2   4
BRANCH   2  15
HETATM   15  C   UNL     1     -10.666  11.423  66.096  1.00  0.00    -0.320 A  
HETATM   16  C   UNL     1      -9.578   9.243  65.832  1.00  0.00    -0.345 A  
HETATM   17  C   UNL     1     -10.043   8.824  67.075  1.00  0.00    -0.265 A  
HETATM   18  C   UNL     1      -9.876  10.525  65.357  1.00  0.00    -0.335 A  
HETATM   19  C   UNL     1     -11.147  10.968  67.340  1.00  0.00    -0.370 A  
HETATM   20  C   UNL     1     -10.838   9.687  67.820  1.00  0.00    -0.278 A  
BRANCH  17  21
HETATM   21  O   UNL     1      -9.790   7.608  67.651  1.00  0.00    -0.149 OA 
BRANCH  21  22
HETATM   22  C   UNL     1     -10.884   6.688  67.655  1.00  0.00    -0.315 C  
BRANCH  22  23
HETATM   23  C   UNL     1     -11.047   6.139  69.032  1.00  0.00    -0.367 C  
HETATM   24  C   UNL     1      -9.879   5.957  69.960  1.00  0.00    -0.175 C  
HETATM   25  O   UNL     1     -10.770   7.076  70.082  1.00  0.00    -0.224 OA 
ENDBRANCH  22  23
ENDBRANCH  21  22
ENDBRANCH  17  21
ENDBRANCH   2  15
TORSDOF 8
ENDMDL
MODEL       24
REMARK 921   NORMALIZED FREE ENERGY PREDICTED BY IDOCK:   -5.41 KCAL/MOL
REMARK 922        TOTAL FREE ENERGY PREDICTED BY IDOCK:   -9.10 KCAL/MOL
REMARK 923 INTER-LIGAND FREE ENERGY PREDICTED BY IDOCK:   -8.10 KCAL/MOL
REMARK 924 INTRA-LIGAND FREE ENERGY PREDICTED BY IDOCK:   -1.00 KCAL/MOL
REMARK 927      BINDING AFFINITY PREDICTED BY RF-SCORE:    0.00 PKD
ROOT
HETATM    1  C   UNL     1     -10.653  14.343  64.926  1.00  0.00    -0.456 C  
HETATM    2  C   UNL     1     -11.193  13.061  65.615  1.00  0.00    -0.310 C  
HETATM    3  C   UNL     1     -12.529  12.728  64.888  1.00  0.00    -0.563 C  
ENDROOT
BRANCH   2   4
HETATM    4  C   UNL     1     -11.496  13.325  67.118  1.00  0.00    -0.380 A  
HETATM    5  C   UNL     1     -11.784  12.282  68.023  1.00  0.00    -0.417 A  
HETATM    6  C   UNL     1     -12.009  12.538  69.382  1.00  0.00    -0.315 A  
HETATM    7  C   UNL     1     -11.475  14.632  67.637  1.00  0.00    -0.364 A  
HETATM    8  C   UNL     1     -11.669  14.880  69.002  1.00  0.00    -0.347 A  
HETATM    9  C   UNL     1     -11.955  13.840  69.877  1.00  0.00    -0.347 A  
BRANCH   9  10
HETATM   10  O   UNL     1     -12.204  13.972  71.216  1.00  0.00    -0.350 OA 
BRANCH  10  11
HETATM   11  C   UNL     1     -12.650  15.262  71.636  1.00  0.00    -0.375 C  
BRANCH  11  12
HETATM   12  C   UNL     1     -13.193  15.146  73.020  1.00  0.00    -0.503 C  
HETATM   13  O   UNL     1     -13.709  16.368  73.568  1.00  0.00    -0.555 OA 
HETATM   14  C   UNL     1     -12.528  15.829  74.183  1.00  0.00    -0.655 C  
ENDBRANCH  11  12
ENDBRANCH  10  11
ENDBRANCH   9  10
ENDBRANCH   2   4
BRANCH   2  15
HETATM   15  C   UNL     1     -10.122  11.965  65.381  1.00  0.00    -0.285 A  
HETATM   16  C   UNL     1      -9.390   9.919  64.249  1.00  0.00    -0.313 A  
HETATM   17  C   UNL     1      -8.276   9.821  65.077  1.00  0.00    -0.142 A  
HETATM   18  C   UNL     1     -10.291  10.981  64.392  1.00  0.00    -0.424 A  
HETATM   19  C   UNL     1      -9.002  11.832  66.225  1.00  0.00    -0.176 A  
HETATM   20  C   UNL     1      -8.093  10.774  66.073  1.00  0.00    -0.158 A  
BRANCH  17  21
HETATM   21  O   UNL     1      -7.317   8.846  65.008  1.00  0.00    -0.092 OA 
BRANCH  21  22
HETATM   22  C   UNL     1      -7.787   7.541  64.661  1.00  0.00    -0.130 C  
BRANCH  22  23
HETATM   23  C   UNL     1      -8.041   6.772  65.913  1.00  0.00    -0.123 C  
HETATM   24  C   UNL     1      -9.359   6.836  66.633  1.00  0.00    -0.165 C  
HETATM   25  O   UNL     1      -9.018   5.730  65.783  1.00  0.00    -0.156 OA 
ENDBRANCH  22  23
ENDBRANCH  21  22
ENDBRANCH  17  21
ENDBRANCH   2  15
TORSDOF 8
ENDMDL
MODEL       25
REMARK 921   NORMALIZED FREE ENERGY PREDICTED BY IDOCK:   -5.41 KCAL/MOL
REMARK 922        TOTAL FREE ENERGY PREDICTED BY IDOCK:   -9.10 KCAL/MOL
REMARK 923 INTER-LIGAND FREE ENERGY PREDICTED BY IDOCK:   -7.94 KCAL/MOL
REMARK 924 INTRA-LIGAND FREE ENERGY PREDICTED BY IDOCK:   -1.16 KCAL/MOL
REMARK 927      BINDING AFFINITY PREDICTED BY RF-SCORE:    0.00 PKD
ROOT
HETATM    1  C   UNL     1     -12.648  13.605  65.431  1.00  0.00    -0.533 C  
HETATM    2  C   UNL     1     -11.196  13.950  65.857  1.00  0.00    -0.297 C  
HETATM    3  C   UNL     1     -10.716  15.043  64.859  1.00  0.00    -0.420 C  
ENDROOT
BRANCH   2   4
HETATM    4  C   UNL     1     -10.268  12.708  65.718  1.00  0.00    -0.288 A  
HETATM    5  C   UNL     1      -9.177  12.481  66.583  1.00  0.00    -0.223 A  
HETATM    6  C   UNL     1      -8.382  11.333  66.469  1.00  0.00    -0.168 A  
HETATM    7  C   UNL     1     -10.500  11.745  64.719  1.00  0.00    -0.341 A  
HETATM    8  C   UNL     1      -9.724  10.583  64.629  1.00  0.00    -0.369 A  
HETATM    9  C   UNL     1      -8.650  10.380  65.488  1.00  0.00    -0.169 A  
BRANCH   9  10
HETATM   10  O   UNL     1      -7.801   9.307  65.461  1.00  0.00    -0.097 OA 
BRANCH  10  11
HETATM   11  C   UNL     1      -7.721   8.616  64.214  1.00  0.00    -0.128 C  
BRANCH  11  12
HETATM   12  C   UNL     1      -7.868   7.155  64.474  1.00  0.00    -0.121 C  
HETATM   13  O   UNL     1      -8.495   6.827  65.722  1.00  0.00    -0.141 OA 
HETATM   14  C   UNL     1      -7.110   6.474  65.580  1.00  0.00    -0.064 C  
ENDBRANCH  11  12
ENDBRANCH  10  11
ENDBRANCH   9  10
ENDBRANCH   2   4
BRANCH   2  15
HETATM   15  C   UNL     1     -11.290  14.494  67.305  1.00  0.00    -0.363 A  
HETATM   16  C   UNL     1     -12.104  14.278  69.606  1.00  0.00    -0.396 A  
HETATM   17  C   UNL     1     -11.666  15.561  69.917  1.00  0.00    -0.352 A  
HETATM   18  C   UNL     1     -11.909  13.750  68.324  1.00  0.00    -0.413 A  
HETATM   19  C   UNL     1     -10.877  15.801  67.634  1.00  0.00    -0.310 A  
HETATM   20  C   UNL     1     -11.064  16.324  68.922  1.00  0.00    -0.345 A  
BRANCH  17  21
HETATM   21  O   UNL     1     -11.776  16.166  71.140  1.00  0.00    -0.430 OA 
BRANCH  21  22
HETATM   22  C   UNL     1     -11.575  15.313  72.270  1.00  0.00    -0.435 C  
BRANCH  22  23
HETATM   23  C   UNL     1     -12.791  15.363  73.133  1.00  0.00    -0.493 C  
HETATM   24  C   UNL     1     -14.165  15.571  72.561  1.00  0.00    -0.415 C  
HETATM   25  O   UNL     1     -13.698  14.268  72.945  1.00  0.00    -0.629 OA 
ENDBRANCH  22  23
ENDBRANCH  21  22
ENDBRANCH  17  21
ENDBRANCH   2  15
TORSDOF 8
ENDMDL
MODEL       26
REMARK 921   NORMALIZED FREE ENERGY PREDICTED BY IDOCK:   -5.39 KCAL/MOL
REMARK 922        TOTAL FREE ENERGY PREDICTED BY IDOCK:   -9.08 KCAL/MOL
REMARK 923 INTER-LIGAND FREE ENERGY PREDICTED BY IDOCK:   -8.21 KCAL/MOL
REMARK 924 INTRA-LIGAND FREE ENERGY PREDICTED BY IDOCK:   -0.87 KCAL/MOL
REMARK 927      BINDING AFFINITY PREDICTED BY RF-SCORE:    0.00 PKD
ROOT
HETATM    1  C   UNL     1     -10.666  15.047  65.324  1.00  0.00    -0.406 C  
HETATM    2  C   UNL     1     -11.458  13.847  65.908  1.00  0.00    -0.328 C  
HETATM    3  C   UNL     1     -12.861  13.908  65.238  1.00  0.00    -0.437 C  
ENDROOT
BRANCH   2   4
HETATM    4  C   UNL     1     -11.634  13.995  67.447  1.00  0.00    -0.397 A  
HETATM    5  C   UNL     1     -11.588  15.247  68.094  1.00  0.00    -0.344 A  
HETATM    6  C   UNL     1     -11.795  15.363  69.475  1.00  0.00    -0.370 A  
HETATM    7  C   UNL     1     -11.866  12.867  68.256  1.00  0.00    -0.372 A  
HETATM    8  C   UNL     1     -12.105  12.990  69.630  1.00  0.00    -0.304 A  
HETATM    9  C   UNL     1     -12.051  14.233  70.250  1.00  0.00    -0.335 A  
BRANCH   9  10
HETATM   10  O   UNL     1     -12.224  14.463  71.589  1.00  0.00    -0.344 OA 
BRANCH  10  11
HETATM   11  C   UNL     1     -12.462  15.822  71.955  1.00  0.00    -0.457 C  
BRANCH  11  12
HETATM   12  C   UNL     1     -13.115  15.841  73.296  1.00  0.00    -0.584 C  
HETATM   13  O   UNL     1     -12.529  16.752  74.236  1.00  0.00    -0.645 OA 
HETATM   14  C   UNL     1     -12.399  15.351  74.524  1.00  0.00    -0.545 C  
ENDBRANCH  11  12
ENDBRANCH  10  11
ENDBRANCH   9  10
ENDBRANCH   2   4
BRANCH   2  15
HETATM   15  C   UNL     1     -10.677  12.574  65.493  1.00  0.00    -0.303 A  
HETATM   16  C   UNL     1      -8.775  11.058  65.792  1.00  0.00    -0.179 A  
HETATM   17  C   UNL     1      -9.101  10.367  64.629  1.00  0.00    -0.222 A  
HETATM   18  C   UNL     1      -9.558  12.136  66.222  1.00  0.00    -0.246 A  
HETATM   19  C   UNL     1     -10.973  11.877  64.305  1.00  0.00    -0.411 A  
HETATM   20  C   UNL     1     -10.195  10.790  63.882  1.00  0.00    -0.377 A  
BRANCH  17  21
HETATM   21  O   UNL     1      -8.428   9.284  64.132  1.00  0.00    -0.173 OA 
BRANCH  21  22
HETATM   22  C   UNL     1      -7.986   9.402  62.777  1.00  0.00    -0.130 C  
BRANCH  22  23
HETATM   23  C   UNL     1      -6.504   9.230  62.737  1.00  0.00    -0.093 C  
HETATM   24  C   UNL     1      -5.567  10.280  63.266  1.00  0.00    -0.142 C  
HETATM   25  O   UNL     1      -5.886   9.103  64.025  1.00  0.00    -0.069 OA 
ENDBRANCH  22  23
ENDBRANCH  21  22
ENDBRANCH  17  21
ENDBRANCH   2  15
TORSDOF 8
ENDMDL
MODEL       27
REMARK 921   NORMALIZED FREE ENERGY PREDICTED BY IDOCK:   -5.32 KCAL/MOL
REMARK 922        TOTAL FREE ENERGY PREDICTED BY IDOCK:   -8.98 KCAL/MOL
REMARK 923 INTER-LIGAND FREE ENERGY PREDICTED BY IDOCK:   -7.95 KCAL/MOL
REMARK 924 INTRA-LIGAND FREE ENERGY PREDICTED BY IDOCK:   -1.03 KCAL/MOL
REMARK 927      BINDING AFFINITY PREDICTED BY RF-SCORE:    0.00 PKD
ROOT
HETATM    1  C   UNL     1     -11.001   7.854  72.812  1.00  0.00    -0.456 C  
HETATM    2  C   UNL     1     -11.771   7.906  71.465  1.00  0.00    -0.317 C  
HETATM    3  C   UNL     1     -13.035   7.022  71.674  1.00  0.00    -0.400 C  
ENDROOT
BRANCH   2   4
HETATM    4  C   UNL     1     -10.919   7.294  70.316  1.00  0.00    -0.281 A  
HETATM    5  C   UNL     1      -9.510   7.352  70.308  1.00  0.00    -0.165 A  
HETATM    6  C   UNL     1      -8.761   6.755  69.286  1.00  0.00    -0.135 A  
HETATM    7  C   UNL     1     -11.536   6.636  69.236  1.00  0.00    -0.253 A  
HETATM    8  C   UNL     1     -10.783   6.012  68.234  1.00  0.00    -0.352 A  
HETATM    9  C   UNL     1      -9.395   6.084  68.242  1.00  0.00    -0.116 A  
BRANCH   9  10
HETATM   10  O   UNL     1      -8.565   5.551  67.293  1.00  0.00    -0.110 OA 
BRANCH  10  11
HETATM   11  C   UNL     1      -8.782   6.007  65.957  1.00  0.00    -0.152 C  
BRANCH  11  12
HETATM   12  C   UNL     1      -9.019   4.820  65.086  1.00  0.00    -0.152 C  
HETATM   13  O   UNL     1     -10.340   4.266  65.170  1.00  0.00    -0.241 OA 
HETATM   14  C   UNL     1      -9.264   3.455  65.669  1.00  0.00    -0.154 C  
ENDBRANCH  11  12
ENDBRANCH  10  11
ENDBRANCH   9  10
ENDBRANCH   2   4
BRANCH   2  15
HETATM   15  C   UNL     1     -12.140   9.394  71.238  1.00  0.00    -0.424 A  
HETATM   16  C   UNL     1     -11.665  11.567  70.210  1.00  0.00    -0.379 A  
HETATM   17  C   UNL     1     -12.662  12.178  70.964  1.00  0.00    -0.228 A  
HETATM   18  C   UNL     1     -11.417  10.195  70.338  1.00  0.00    -0.400 A  
HETATM   19  C   UNL     1     -13.127  10.039  72.011  1.00  0.00    -0.541 A  
HETATM   20  C   UNL     1     -13.382  11.411  71.873  1.00  0.00    -0.409 A  
BRANCH  17  21
HETATM   21  O   UNL     1     -13.010  13.500  70.900  1.00  0.00    -0.251 OA 
BRANCH  21  22
HETATM   22  C   UNL     1     -13.908  13.952  71.918  1.00  0.00    -0.431 C  
BRANCH  22  23
HETATM   23  C   UNL     1     -13.132  14.705  72.945  1.00  0.00    -0.513 C  
HETATM   24  C   UNL     1     -12.281  15.891  72.588  1.00  0.00    -0.502 C  
HETATM   25  O   UNL     1     -13.586  16.047  73.166  1.00  0.00    -0.589 OA 
ENDBRANCH  22  23
ENDBRANCH  21  22
ENDBRANCH  17  21
ENDBRANCH   2  15
TORSDOF 8
ENDMDL
MODEL       28
REMARK 921   NORMALIZED FREE ENERGY PREDICTED BY IDOCK:   -5.29 KCAL/MOL
REMARK 922        TOTAL FREE ENERGY PREDICTED BY IDOCK:   -8.93 KCAL/MOL
REMARK 923 INTER-LIGAND FREE ENERGY PREDICTED BY IDOCK:   -7.75 KCAL/MOL
REMARK 924 INTRA-LIGAND FREE ENERGY PREDICTED BY IDOCK:   -1.18 KCAL/MOL
REMARK 927      BINDING AFFINITY PREDICTED BY RF-SCORE:    0.00 PKD
ROOT
HETATM    1  C   UNL     1      -8.963   9.901  69.710  1.00  0.00    -0.242 C  
HETATM    2  C   UNL     1     -10.484   9.609  69.811  1.00  0.00    -0.263 C  
HETATM    3  C   UNL     1     -10.898   9.062  68.414  1.00  0.00    -0.062 C  
ENDROOT
BRANCH   2   4
HETATM    4  C   UNL     1     -11.282  10.915  70.091  1.00  0.00    -0.317 A  
HETATM    5  C   UNL     1     -12.253  11.003  71.110  1.00  0.00    -0.415 A  
HETATM    6  C   UNL     1     -12.927  12.202  71.374  1.00  0.00    -0.357 A  
HETATM    7  C   UNL     1     -11.046  12.077  69.334  1.00  0.00    -0.198 A  
HETATM    8  C   UNL     1     -11.698  13.283  69.622  1.00  0.00    -0.369 A  
HETATM    9  C   UNL     1     -12.655  13.347  70.628  1.00  0.00    -0.253 A  
BRANCH   9  10
HETATM   10  O   UNL     1     -13.382  14.457  70.965  1.00  0.00    -0.361 OA 
BRANCH  10  11
HETATM   11  C   UNL     1     -13.922  14.463  72.287  1.00  0.00    -0.513 C  
BRANCH  11  12
HETATM   12  C   UNL     1     -13.554  15.752  72.940  1.00  0.00    -0.577 C  
HETATM   13  O   UNL     1     -12.244  16.239  72.615  1.00  0.00    -0.495 OA 
HETATM   14  C   UNL     1     -12.464  15.825  73.973  1.00  0.00    -0.645 C  
ENDBRANCH  11  12
ENDBRANCH  10  11
ENDBRANCH   9  10
ENDBRANCH   2   4
BRANCH   2  15
HETATM   15  C   UNL     1     -10.644   8.536  70.919  1.00  0.00    -0.252 A  
HETATM   16  C   UNL     1      -9.939   7.573  73.059  1.00  0.00    -0.321 A  
HETATM   17  C   UNL     1     -10.761   6.467  72.869  1.00  0.00    -0.249 A  
HETATM   18  C   UNL     1      -9.891   8.596  72.104  1.00  0.00    -0.387 A  
HETATM   19  C   UNL     1     -11.449   7.395  70.735  1.00  0.00    -0.313 A  
HETATM   20  C   UNL     1     -11.505   6.376  71.697  1.00  0.00    -0.354 A  
BRANCH  17  21
HETATM   21  O   UNL     1     -10.910   5.426  73.745  1.00  0.00    -0.284 OA 
BRANCH  21  22
HETATM   22  C   UNL     1      -9.739   4.636  73.970  1.00  0.00    -0.138 C  
BRANCH  22  23
HETATM   23  C   UNL     1     -10.121   3.194  73.955  1.00  0.00    -0.128 C  
HETATM   24  C   UNL     1     -11.409   2.718  73.346  1.00  0.00    -0.123 C  
HETATM   25  O   UNL     1     -10.159   2.602  72.650  1.00  0.00    -0.138 OA 
ENDBRANCH  22  23
ENDBRANCH  21  22
ENDBRANCH  17  21
ENDBRANCH   2  15
TORSDOF 8
ENDMDL
MODEL       29
REMARK 921   NORMALIZED FREE ENERGY PREDICTED BY IDOCK:   -5.29 KCAL/MOL
REMARK 922        TOTAL FREE ENERGY PREDICTED BY IDOCK:   -8.93 KCAL/MOL
REMARK 923 INTER-LIGAND FREE ENERGY PREDICTED BY IDOCK:   -7.62 KCAL/MOL
REMARK 924 INTRA-LIGAND FREE ENERGY PREDICTED BY IDOCK:   -1.31 KCAL/MOL
REMARK 927      BINDING AFFINITY PREDICTED BY RF-SCORE:    0.00 PKD
ROOT
HETATM    1  C   UNL     1      -9.694  11.874  66.093  1.00  0.00    -0.251 C  
HETATM    2  C   UNL     1     -10.788  12.575  66.941  1.00  0.00    -0.280 C  
HETATM    3  C   UNL     1     -12.024  12.704  66.003  1.00  0.00    -0.478 C  
ENDROOT
BRANCH   2   4
HETATM    4  C   UNL     1     -10.332  14.002  67.363  1.00  0.00    -0.259 A  
HETATM    5  C   UNL     1      -9.124  14.235  68.051  1.00  0.00    -0.191 A  
HETATM    6  C   UNL     1      -8.711  15.533  68.381  1.00  0.00    -0.174 A  
HETATM    7  C   UNL     1     -11.116  15.128  67.051  1.00  0.00    -0.328 A  
HETATM    8  C   UNL     1     -10.684  16.426  67.354  1.00  0.00    -0.278 A  
HETATM    9  C   UNL     1      -9.492  16.634  68.036  1.00  0.00    -0.224 A  
BRANCH   9  10
HETATM   10  O   UNL     1      -8.997  17.851  68.421  1.00  0.00    -0.272 OA 
BRANCH  10  11
HETATM   11  C   UNL     1      -9.960  18.898  68.542  1.00  0.00    -0.406 C  
BRANCH  11  12
HETATM   12  C   UNL     1      -9.597  19.986  67.589  1.00  0.00    -0.389 C  
HETATM   13  O   UNL     1      -9.874  19.696  66.212  1.00  0.00    -0.388 OA 
HETATM   14  C   UNL     1      -8.492  19.813  66.585  1.00  0.00    -0.333 C  
ENDBRANCH  11  12
ENDBRANCH  10  11
ENDBRANCH   9  10
ENDBRANCH   2   4
BRANCH   2  15
HETATM   15  C   UNL     1     -11.071  11.635  68.140  1.00  0.00    -0.298 A  
HETATM   16  C   UNL     1     -12.194  11.193  70.272  1.00  0.00    -0.436 A  
HETATM   17  C   UNL     1     -11.453  10.031  70.459  1.00  0.00    -0.330 A  
HETATM   18  C   UNL     1     -12.014  11.976  69.125  1.00  0.00    -0.326 A  
HETATM   19  C   UNL     1     -10.313  10.468  68.362  1.00  0.00    -0.199 A  
HETATM   20  C   UNL     1     -10.504   9.679  69.505  1.00  0.00    -0.240 A  
BRANCH  17  21
HETATM   21  O   UNL     1     -11.567   9.176  71.522  1.00  0.00    -0.314 OA 
BRANCH  21  22
HETATM   22  C   UNL     1     -12.732   8.347  71.525  1.00  0.00    -0.308 C  
BRANCH  22  23
HETATM   23  C   UNL     1     -12.311   6.925  71.680  1.00  0.00    -0.371 C  
HETATM   24  C   UNL     1     -11.233   6.316  70.826  1.00  0.00    -0.324 C  
HETATM   25  O   UNL     1     -10.974   6.750  72.170  1.00  0.00    -0.225 OA 
ENDBRANCH  22  23
ENDBRANCH  21  22
ENDBRANCH  17  21
ENDBRANCH   2  15
TORSDOF 8
ENDMDL
MODEL       30
REMARK 921   NORMALIZED FREE ENERGY PREDICTED BY IDOCK:   -5.27 KCAL/MOL
REMARK 922        TOTAL FREE ENERGY PREDICTED BY IDOCK:   -8.91 KCAL/MOL
REMARK 923 INTER-LIGAND FREE ENERGY PREDICTED BY IDOCK:   -8.28 KCAL/MOL
REMARK 924 INTRA-LIGAND FREE ENERGY PREDICTED BY IDOCK:   -0.62 KCAL/MOL
REMARK 927      BINDING AFFINITY PREDICTED BY RF-SCORE:    0.00 PKD
ROOT
HETATM    1  C   UNL     1     -14.094  15.043  71.180  1.00  0.00    -0.423 C  
HETATM    2  C   UNL     1     -12.609  14.598  71.112  1.00  0.00    -0.404 C  
HETATM    3  C   UNL     1     -11.956  15.125  72.423  1.00  0.00    -0.488 C  
ENDROOT
BRANCH   2   4
HETATM    4  C   UNL     1     -11.889  15.255  69.899  1.00  0.00    -0.363 A  
HETATM    5  C   UNL     1     -12.031  14.767  68.583  1.00  0.00    -0.292 A  
HETATM    6  C   UNL     1     -11.410  15.401  67.499  1.00  0.00    -0.269 A  
HETATM    7  C   UNL     1     -11.071  16.385  70.074  1.00  0.00    -0.300 A  
HETATM    8  C   UNL     1     -10.478  17.035  68.984  1.00  0.00    -0.337 A  
HETATM    9  C   UNL     1     -10.627  16.537  67.696  1.00  0.00    -0.321 A  
BRANCH   9  10
HETATM   10  O   UNL     1     -10.059  17.064  66.568  1.00  0.00    -0.289 OA 
BRANCH  10  11
HETATM   11  C   UNL     1      -9.019  16.283  65.979  1.00  0.00    -0.290 C  
BRANCH  11  12
HETATM   12  C   UNL     1      -7.715  16.724  66.552  1.00  0.00    -0.299 C  
HETATM   13  O   UNL     1      -7.670  18.101  66.955  1.00  0.00    -0.211 OA 
HETATM   14  C   UNL     1      -6.843  17.723  65.843  1.00  0.00    -0.255 C  
ENDBRANCH  11  12
ENDBRANCH  10  11
ENDBRANCH   9  10
ENDBRANCH   2   4
BRANCH   2  15
HETATM   15  C   UNL     1     -12.626  13.050  71.059  1.00  0.00    -0.386 A  
HETATM   16  C   UNL     1     -13.333  10.901  72.001  1.00  0.00    -0.394 A  
HETATM   17  C   UNL     1     -12.507  10.207  71.121  1.00  0.00    -0.387 A  
HETATM   18  C   UNL     1     -13.399  12.298  71.961  1.00  0.00    -0.491 A  
HETATM   19  C   UNL     1     -11.777  12.328  70.196  1.00  0.00    -0.280 A  
HETATM   20  C   UNL     1     -11.721  10.927  70.229  1.00  0.00    -0.437 A  
BRANCH  17  21
HETATM   21  O   UNL     1     -12.386   8.845  71.050  1.00  0.00    -0.270 OA 
BRANCH  21  22
HETATM   22  C   UNL     1     -11.046   8.346  71.015  1.00  0.00    -0.258 C  
BRANCH  22  23
HETATM   23  C   UNL     1     -10.506   8.318  72.405  1.00  0.00    -0.334 C  
HETATM   24  C   UNL     1      -9.375   7.411  72.801  1.00  0.00    -0.156 C  
HETATM   25  O   UNL     1      -9.163   8.805  72.531  1.00  0.00    -0.347 OA 
ENDBRANCH  22  23
ENDBRANCH  21  22
ENDBRANCH  17  21
ENDBRANCH   2  15
TORSDOF 8
ENDMDL
MODEL       31
REMARK 921   NORMALIZED FREE ENERGY PREDICTED BY IDOCK:   -5.25 KCAL/MOL
REMARK 922        TOTAL FREE ENERGY PREDICTED BY IDOCK:   -8.88 KCAL/MOL
REMARK 923 INTER-LIGAND FREE ENERGY PREDICTED BY IDOCK:   -7.65 KCAL/MOL
REMARK 924 INTRA-LIGAND FREE ENERGY PREDICTED BY IDOCK:   -1.23 KCAL/MOL
REMARK 927      BINDING AFFINITY PREDICTED BY RF-SCORE:    0.00 PKD
ROOT
HETATM    1  C   UNL     1     -12.646  12.555  64.625  1.00  0.00    -0.507 C  
HETATM    2  C   UNL     1     -11.320  12.553  65.431  1.00  0.00    -0.363 C  
HETATM    3  C   UNL     1     -11.693  12.019  66.845  1.00  0.00    -0.342 C  
ENDROOT
BRANCH   2   4
HETATM    4  C   UNL     1     -10.758  13.997  65.577  1.00  0.00    -0.317 A  
HETATM    5  C   UNL     1     -11.344  15.104  64.929  1.00  0.00    -0.402 A  
HETATM    6  C   UNL     1     -10.850  16.402  65.110  1.00  0.00    -0.289 A  
HETATM    7  C   UNL     1      -9.636  14.253  66.386  1.00  0.00    -0.317 A  
HETATM    8  C   UNL     1      -9.164  15.556  66.591  1.00  0.00    -0.299 A  
HETATM    9  C   UNL     1      -9.754  16.633  65.940  1.00  0.00    -0.237 A  
BRANCH   9  10
HETATM   10  O   UNL     1      -9.349  17.937  66.032  1.00  0.00    -0.508 OA 
BRANCH  10  11
HETATM   11  C   UNL     1     -10.377  18.915  65.873  1.00  0.00    -0.355 C  
BRANCH  11  12
HETATM   12  C   UNL     1     -10.782  19.397  67.225  1.00  0.00    -0.490 C  
HETATM   13  O   UNL     1      -9.918  20.392  67.793  1.00  0.00    -0.406 OA 
HETATM   14  C   UNL     1      -9.947  19.112  68.443  1.00  0.00    -0.418 C  
ENDBRANCH  11  12
ENDBRANCH  10  11
ENDBRANCH   9  10
ENDBRANCH   2   4
BRANCH   2  15
HETATM   15  C   UNL     1     -10.364  11.588  64.685  1.00  0.00    -0.349 A  
HETATM   16  C   UNL     1      -9.204  10.913  62.636  1.00  0.00    -0.357 A  
HETATM   17  C   UNL     1      -8.786   9.724  63.225  1.00  0.00    -0.226 A  
HETATM   18  C   UNL     1      -9.971  11.834  63.359  1.00  0.00    -0.446 A  
HETATM   19  C   UNL     1      -9.952  10.367  65.254  1.00  0.00    -0.376 A  
HETATM   20  C   UNL     1      -9.174   9.450  64.533  1.00  0.00    -0.155 A  
BRANCH  17  21
HETATM   21  O   UNL     1      -8.011   8.767  62.626  1.00  0.00    -0.133 OA 
BRANCH  21  22
HETATM   22  C   UNL     1      -7.046   8.136  63.472  1.00  0.00    -0.086 C  
BRANCH  22  23
HETATM   23  C   UNL     1      -7.101   6.662  63.250  1.00  0.00    -0.055 C  
HETATM   24  C   UNL     1      -8.031   5.774  64.028  1.00  0.00    -0.121 C  
HETATM   25  O   UNL     1      -8.334   6.191  62.688  1.00  0.00    -0.095 OA 
ENDBRANCH  22  23
ENDBRANCH  21  22
ENDBRANCH  17  21
ENDBRANCH   2  15
TORSDOF 8
ENDMDL
MODEL       32
REMARK 921   NORMALIZED FREE ENERGY PREDICTED BY IDOCK:   -5.25 KCAL/MOL
REMARK 922        TOTAL FREE ENERGY PREDICTED BY IDOCK:   -8.87 KCAL/MOL
REMARK 923 INTER-LIGAND FREE ENERGY PREDICTED BY IDOCK:   -7.82 KCAL/MOL
REMARK 924 INTRA-LIGAND FREE ENERGY PREDICTED BY IDOCK:   -1.05 KCAL/MOL
REMARK 927      BINDING AFFINITY PREDICTED BY RF-SCORE:    0.00 PKD
ROOT
HETATM    1  C   UNL     1     -10.185  11.635  63.679  1.00  0.00    -0.451 C  
HETATM    2  C   UNL     1     -11.211  12.260  64.661  1.00  0.00    -0.363 C  
HETATM    3  C   UNL     1     -12.599  12.096  63.974  1.00  0.00    -0.507 C  
ENDROOT
BRANCH   2   4
HETATM    4  C   UNL     1     -10.932  13.777  64.863  1.00  0.00    -0.378 A  
HETATM    5  C   UNL     1     -11.754  14.777  64.303  1.00  0.00    -0.272 A  
HETATM    6  C   UNL     1     -11.511  16.137  64.536  1.00  0.00    -0.233 A  
HETATM    7  C   UNL     1      -9.841  14.210  65.639  1.00  0.00    -0.278 A  
HETATM    8  C   UNL     1      -9.620  15.569  65.896  1.00  0.00    -0.383 A  
HETATM    9  C   UNL     1     -10.439  16.539  65.331  1.00  0.00    -0.269 A  
BRANCH   9  10
HETATM   10  O   UNL     1     -10.289  17.891  65.479  1.00  0.00    -0.616 OA 
BRANCH  10  11
HETATM   11  C   UNL     1     -10.306  18.371  66.824  1.00  0.00    -0.394 C  
BRANCH  11  12
HETATM   12  C   UNL     1      -9.116  19.246  67.027  1.00  0.00    -0.295 C  
HETATM   13  O   UNL     1      -8.787  20.083  65.910  1.00  0.00    -0.310 OA 
HETATM   14  C   UNL     1      -7.851  19.045  66.240  1.00  0.00    -0.287 C  
ENDBRANCH  11  12
ENDBRANCH  10  11
ENDBRANCH   9  10
ENDBRANCH   2   4
BRANCH   2  15
HETATM   15  C   UNL     1     -11.114  11.432  65.967  1.00  0.00    -0.235 A  
HETATM   16  C   UNL     1     -11.604  11.166  68.354  1.00  0.00    -0.376 A  
HETATM   17  C   UNL     1     -10.779  10.048  68.432  1.00  0.00    -0.234 A  
HETATM   18  C   UNL     1     -11.777  11.839  67.138  1.00  0.00    -0.267 A  
HETATM   19  C   UNL     1     -10.264  10.314  66.075  1.00  0.00    -0.298 A  
HETATM   20  C   UNL     1     -10.100   9.633  67.291  1.00  0.00    -0.267 A  
BRANCH  17  21
HETATM   21  O   UNL     1     -10.560   9.298  69.555  1.00  0.00    -0.217 OA 
BRANCH  21  22
HETATM   22  C   UNL     1      -9.280   9.467  70.170  1.00  0.00    -0.234 C  
BRANCH  22  23
HETATM   23  C   UNL     1      -9.068   8.364  71.152  1.00  0.00    -0.174 C  
HETATM   24  C   UNL     1      -7.696   7.969  71.622  1.00  0.00    -0.091 C  
HETATM   25  O   UNL     1      -8.559   8.790  72.423  1.00  0.00    -0.395 OA 
ENDBRANCH  22  23
ENDBRANCH  21  22
ENDBRANCH  17  21
ENDBRANCH   2  15
TORSDOF 8
ENDMDL
MODEL       33
REMARK 921   NORMALIZED FREE ENERGY PREDICTED BY IDOCK:   -5.23 KCAL/MOL
REMARK 922        TOTAL FREE ENERGY PREDICTED BY IDOCK:   -8.84 KCAL/MOL
REMARK 923 INTER-LIGAND FREE ENERGY PREDICTED BY IDOCK:   -7.69 KCAL/MOL
REMARK 924 INTRA-LIGAND FREE ENERGY PREDICTED BY IDOCK:   -1.15 KCAL/MOL
REMARK 927      BINDING AFFINITY PREDICTED BY RF-SCORE:    0.00 PKD
ROOT
HETATM    1  C   UNL     1     -11.679  12.139  66.930  1.00  0.00    -0.374 C  
HETATM    2  C   UNL     1     -11.393  12.561  65.464  1.00  0.00    -0.368 C  
HETATM    3  C   UNL     1     -12.776  12.557  64.751  1.00  0.00    -0.415 C  
ENDROOT
BRANCH   2   4
HETATM    4  C   UNL     1     -10.467  11.527  64.760  1.00  0.00    -0.354 A  
HETATM    5  C   UNL     1      -9.942  10.404  65.432  1.00  0.00    -0.362 A  
HETATM    6  C   UNL     1      -9.149   9.460  64.767  1.00  0.00    -0.248 A  
HETATM    7  C   UNL     1     -10.131  11.671  63.402  1.00  0.00    -0.468 A  
HETATM    8  C   UNL     1      -9.364  10.710  62.732  1.00  0.00    -0.348 A  
HETATM    9  C   UNL     1      -8.853   9.611  63.414  1.00  0.00    -0.232 A  
BRANCH   9  10
HETATM   10  O   UNL     1      -8.058   8.638  62.871  1.00  0.00    -0.159 OA 
BRANCH  10  11
HETATM   11  C   UNL     1      -7.715   7.563  63.747  1.00  0.00    -0.126 C  
BRANCH  11  12
HETATM   12  C   UNL     1      -7.713   6.296  62.961  1.00  0.00    -0.093 C  
HETATM   13  O   UNL     1      -8.375   5.194  63.596  1.00  0.00    -0.125 OA 
HETATM   14  C   UNL     1      -6.952   5.085  63.426  1.00  0.00    -0.046 C  
ENDBRANCH  11  12
ENDBRANCH  10  11
ENDBRANCH   9  10
ENDBRANCH   2   4
BRANCH   2  15
HETATM   15  C   UNL     1     -10.787  13.986  65.537  1.00  0.00    -0.311 A  
HETATM   16  C   UNL     1      -9.195  15.568  66.520  1.00  0.00    -0.324 A  
HETATM   17  C   UNL     1      -9.793  16.634  65.853  1.00  0.00    -0.273 A  
HETATM   18  C   UNL     1      -9.678  14.265  66.354  1.00  0.00    -0.315 A  
HETATM   19  C   UNL     1     -11.393  15.083  64.893  1.00  0.00    -0.419 A  
HETATM   20  C   UNL     1     -10.901  16.386  65.050  1.00  0.00    -0.289 A  
BRANCH  17  21
HETATM   21  O   UNL     1      -9.388  17.940  65.916  1.00  0.00    -0.520 OA 
BRANCH  21  22
HETATM   22  C   UNL     1     -10.430  18.900  66.112  1.00  0.00    -0.457 C  
BRANCH  22  23
HETATM   23  C   UNL     1     -10.028  19.830  67.207  1.00  0.00    -0.400 C  
HETATM   24  C   UNL     1      -8.900  19.511  68.148  1.00  0.00    -0.330 C  
HETATM   25  O   UNL     1      -8.728  20.413  67.044  1.00  0.00    -0.332 OA 
ENDBRANCH  22  23
ENDBRANCH  21  22
ENDBRANCH  17  21
ENDBRANCH   2  15
TORSDOF 8
ENDMDL
MODEL       34
REMARK 921   NORMALIZED FREE ENERGY PREDICTED BY IDOCK:   -5.21 KCAL/MOL
REMARK 922        TOTAL FREE ENERGY PREDICTED BY IDOCK:   -8.82 KCAL/MOL
REMARK 923 INTER-LIGAND FREE ENERGY PREDICTED BY IDOCK:   -7.88 KCAL/MOL
REMARK 924 INTRA-LIGAND FREE ENERGY PREDICTED BY IDOCK:   -0.94 KCAL/MOL
REMARK 927      BINDING AFFINITY PREDICTED BY RF-SCORE:    0.00 PKD
ROOT
HETATM    1  C   UNL     1      -8.884  12.723  66.865  1.00  0.00    -0.194 C  
HETATM    2  C   UNL     1     -10.244  12.135  67.325  1.00  0.00    -0.216 C  
HETATM    3  C   UNL     1     -11.084  11.959  66.026  1.00  0.00    -0.369 C  
ENDROOT
BRANCH   2   4
HETATM    4  C   UNL     1     -10.987  13.127  68.266  1.00  0.00    -0.278 A  
HETATM    5  C   UNL     1     -11.066  14.509  67.995  1.00  0.00    -0.289 A  
HETATM    6  C   UNL     1     -11.778  15.378  68.832  1.00  0.00    -0.377 A  
HETATM    7  C   UNL     1     -11.630  12.669  69.431  1.00  0.00    -0.369 A  
HETATM    8  C   UNL     1     -12.368  13.535  70.247  1.00  0.00    -0.370 A  
HETATM    9  C   UNL     1     -12.430  14.894  69.965  1.00  0.00    -0.275 A  
BRANCH   9  10
HETATM   10  O   UNL     1     -13.083  15.834  70.715  1.00  0.00    -0.522 OA 
BRANCH  10  11
HETATM   11  C   UNL     1     -13.968  15.321  71.712  1.00  0.00    -0.539 C  
BRANCH  11  12
HETATM   12  C   UNL     1     -13.534  15.841  73.040  1.00  0.00    -0.583 C  
HETATM   13  O   UNL     1     -12.233  16.445  73.054  1.00  0.00    -0.509 OA 
HETATM   14  C   UNL     1     -12.387  15.221  73.790  1.00  0.00    -0.605 C  
ENDBRANCH  11  12
ENDBRANCH  10  11
ENDBRANCH   9  10
ENDBRANCH   2   4
BRANCH   2  15
HETATM   15  C   UNL     1      -9.921  10.774  67.991  1.00  0.00    -0.183 A  
HETATM   16  C   UNL     1     -10.506   8.437  68.438  1.00  0.00    -0.208 A  
HETATM   17  C   UNL     1      -9.475   8.322  69.366  1.00  0.00    -0.159 A  
HETATM   18  C   UNL     1     -10.717   9.640  67.754  1.00  0.00    -0.316 A  
HETATM   19  C   UNL     1      -8.900  10.643  68.953  1.00  0.00    -0.160 A  
HETATM   20  C   UNL     1      -8.682   9.434  69.629  1.00  0.00    -0.172 A  
BRANCH  17  21
HETATM   21  O   UNL     1      -9.159   7.191  70.068  1.00  0.00    -0.145 OA 
BRANCH  21  22
HETATM   22  C   UNL     1     -10.243   6.579  70.773  1.00  0.00    -0.187 C  
BRANCH  22  23
HETATM   23  C   UNL     1     -10.792   7.557  71.756  1.00  0.00    -0.227 C  
HETATM   24  C   UNL     1     -10.760   7.301  73.237  1.00  0.00    -0.383 C  
HETATM   25  O   UNL     1      -9.807   8.167  72.602  1.00  0.00    -0.248 OA 
ENDBRANCH  22  23
ENDBRANCH  21  22
ENDBRANCH  17  21
ENDBRANCH   2  15
TORSDOF 8
ENDMDL
MODEL       35
REMARK 921   NORMALIZED FREE ENERGY PREDICTED BY IDOCK:   -5.21 KCAL/MOL
REMARK 922        TOTAL FREE ENERGY PREDICTED BY IDOCK:   -8.81 KCAL/MOL
REMARK 923 INTER-LIGAND FREE ENERGY PREDICTED BY IDOCK:   -7.79 KCAL/MOL
REMARK 924 INTRA-LIGAND FREE ENERGY PREDICTED BY IDOCK:   -1.02 KCAL/MOL
REMARK 927      BINDING AFFINITY PREDICTED BY RF-SCORE:    0.00 PKD
ROOT
HETATM    1  C   UNL     1     -13.193   6.991  71.469  1.00  0.00    -0.382 C  
HETATM    2  C   UNL     1     -11.900   7.848  71.498  1.00  0.00    -0.322 C  
HETATM    3  C   UNL     1     -11.284   7.626  72.910  1.00  0.00    -0.426 C  
ENDROOT
BRANCH   2   4
HETATM    4  C   UNL     1     -12.232   9.359  71.332  1.00  0.00    -0.438 A  
HETATM    5  C   UNL     1     -13.153  10.025  72.167  1.00  0.00    -0.482 A  
HETATM    6  C   UNL     1     -13.404  11.396  72.030  1.00  0.00    -0.388 A  
HETATM    7  C   UNL     1     -11.602  10.128  70.337  1.00  0.00    -0.396 A  
HETATM    8  C   UNL     1     -11.831  11.506  70.224  1.00  0.00    -0.431 A  
HETATM    9  C   UNL     1     -12.745  12.143  71.054  1.00  0.00    -0.228 A  
BRANCH   9  10
HETATM   10  O   UNL     1     -13.078  13.469  71.002  1.00  0.00    -0.250 OA 
BRANCH  10  11
HETATM   11  C   UNL     1     -13.559  14.033  72.223  1.00  0.00    -0.525 C  
BRANCH  11  12
HETATM   12  C   UNL     1     -12.502  14.925  72.779  1.00  0.00    -0.358 C  
HETATM   13  O   UNL     1     -12.350  14.861  74.204  1.00  0.00    -0.544 OA 
HETATM   14  C   UNL     1     -12.846  16.095  73.660  1.00  0.00    -0.558 C  
ENDBRANCH  11  12
ENDBRANCH  10  11
ENDBRANCH   9  10
ENDBRANCH   2   4
BRANCH   2  15
HETATM   15  C   UNL     1     -10.987   7.287  70.378  1.00  0.00    -0.273 A  
HETATM   16  C   UNL     1     -10.696   5.938  68.354  1.00  0.00    -0.323 A  
HETATM   17  C   UNL     1      -9.312   6.067  68.427  1.00  0.00    -0.119 A  
HETATM   18  C   UNL     1     -11.519   6.548  69.307  1.00  0.00    -0.307 A  
HETATM   19  C   UNL     1      -9.583   7.384  70.448  1.00  0.00    -0.165 A  
HETATM   20  C   UNL     1      -8.760   6.782  69.485  1.00  0.00    -0.133 A  
BRANCH  17  21
HETATM   21  O   UNL     1      -8.415   5.542  67.537  1.00  0.00    -0.107 OA 
BRANCH  21  22
HETATM   22  C   UNL     1      -8.745   4.250  67.019  1.00  0.00    -0.109 C  
BRANCH  22  23
HETATM   23  C   UNL     1      -8.997   4.369  65.554  1.00  0.00    -0.135 C  
HETATM   24  C   UNL     1      -9.564   3.233  64.748  1.00  0.00    -0.149 C  
HETATM   25  O   UNL     1     -10.382   4.329  65.184  1.00  0.00    -0.241 OA 
ENDBRANCH  22  23
ENDBRANCH  21  22
ENDBRANCH  17  21
ENDBRANCH   2  15
TORSDOF 8
ENDMDL
MODEL       36
REMARK 921   NORMALIZED FREE ENERGY PREDICTED BY IDOCK:   -5.21 KCAL/MOL
REMARK 922        TOTAL FREE ENERGY PREDICTED BY IDOCK:   -8.81 KCAL/MOL
REMARK 923 INTER-LIGAND FREE ENERGY PREDICTED BY IDOCK:   -7.67 KCAL/MOL
REMARK 924 INTRA-LIGAND FREE ENERGY PREDICTED BY IDOCK:   -1.14 KCAL/MOL
REMARK 927      BINDING AFFINITY PREDICTED BY RF-SCORE:    0.00 PKD
ROOT
HETATM    1  C   UNL     1     -11.578  12.009  66.659  1.00  0.00    -0.389 C  
HETATM    2  C   UNL     1     -10.497  12.143  67.764  1.00  0.00    -0.222 C  
HETATM    3  C   UNL     1      -9.172  11.646  67.114  1.00  0.00    -0.176 C  
ENDROOT
BRANCH   2   4
HETATM    4  C   UNL     1     -10.829  11.229  68.979  1.00  0.00    -0.268 A  
HETATM    5  C   UNL     1      -9.915  10.278  69.479  1.00  0.00    -0.252 A  
HETATM    6  C   UNL     1     -10.217   9.497  70.602  1.00  0.00    -0.364 A  
HETATM    7  C   UNL     1     -12.066  11.334  69.640  1.00  0.00    -0.391 A  
HETATM    8  C   UNL     1     -12.351  10.575  70.782  1.00  0.00    -0.474 A  
HETATM    9  C   UNL     1     -11.439   9.640  71.257  1.00  0.00    -0.392 A  
BRANCH   9  10
HETATM   10  O   UNL     1     -11.631   8.816  72.334  1.00  0.00    -0.352 OA 
BRANCH  10  11
HETATM   11  C   UNL     1     -10.472   8.121  72.793  1.00  0.00    -0.315 C  
BRANCH  11  12
HETATM   12  C   UNL     1     -10.790   6.666  72.860  1.00  0.00    -0.262 C  
HETATM   13  O   UNL     1     -10.575   5.946  71.637  1.00  0.00    -0.225 OA 
HETATM   14  C   UNL     1     -11.935   6.076  72.083  1.00  0.00    -0.202 C  
ENDBRANCH  11  12
ENDBRANCH  10  11
ENDBRANCH   9  10
ENDBRANCH   2   4
BRANCH   2  15
HETATM   15  C   UNL     1     -10.433  13.650  68.121  1.00  0.00    -0.250 A  
HETATM   16  C   UNL     1     -11.537  15.824  68.361  1.00  0.00    -0.343 A  
HETATM   17  C   UNL     1     -10.316  16.459  68.563  1.00  0.00    -0.270 A  
HETATM   18  C   UNL     1     -11.594  14.440  68.155  1.00  0.00    -0.360 A  
HETATM   19  C   UNL     1      -9.205  14.317  68.302  1.00  0.00    -0.197 A  
HETATM   20  C   UNL     1      -9.150  15.701  68.520  1.00  0.00    -0.196 A  
BRANCH  17  21
HETATM   21  O   UNL     1     -10.144  17.795  68.803  1.00  0.00    -0.358 OA 
BRANCH  21  22
HETATM   22  C   UNL     1     -10.566  18.670  67.753  1.00  0.00    -0.385 C  
BRANCH  22  23
HETATM   23  C   UNL     1      -9.411  19.517  67.338  1.00  0.00    -0.321 C  
HETATM   24  C   UNL     1      -8.378  19.031  66.361  1.00  0.00    -0.307 C  
HETATM   25  O   UNL     1      -9.433  19.919  65.962  1.00  0.00    -0.396 OA 
ENDBRANCH  22  23
ENDBRANCH  21  22
ENDBRANCH  17  21
ENDBRANCH   2  15
TORSDOF 8
ENDMDL
MODEL       37
REMARK 921   NORMALIZED FREE ENERGY PREDICTED BY IDOCK:   -5.18 KCAL/MOL
REMARK 922        TOTAL FREE ENERGY PREDICTED BY IDOCK:   -8.77 KCAL/MOL
REMARK 923 INTER-LIGAND FREE ENERGY PREDICTED BY IDOCK:   -7.86 KCAL/MOL
REMARK 924 INTRA-LIGAND FREE ENERGY PREDICTED BY IDOCK:   -0.91 KCAL/MOL
REMARK 927      BINDING AFFINITY PREDICTED BY RF-SCORE:    0.00 PKD
ROOT
HETATM    1  C   UNL     1     -13.121   7.246  71.420  1.00  0.00    -0.412 C  
HETATM    2  C   UNL     1     -11.765   8.001  71.438  1.00  0.00    -0.320 C  
HETATM    3  C   UNL     1     -11.205   7.818  72.878  1.00  0.00    -0.434 C  
ENDROOT
BRANCH   2   4
HETATM    4  C   UNL     1     -11.974   9.521  71.174  1.00  0.00    -0.429 A  
HETATM    5  C   UNL     1     -11.295  10.208  70.147  1.00  0.00    -0.372 A  
HETATM    6  C   UNL     1     -11.532  11.566  69.897  1.00  0.00    -0.340 A  
HETATM    7  C   UNL     1     -12.875  10.268  71.954  1.00  0.00    -0.528 A  
HETATM    8  C   UNL     1     -13.134  11.617  71.681  1.00  0.00    -0.456 A  
HETATM    9  C   UNL     1     -12.451  12.278  70.666  1.00  0.00    -0.236 A  
BRANCH   9  10
HETATM   10  O   UNL     1     -12.592  13.601  70.343  1.00  0.00    -0.298 OA 
BRANCH  10  11
HETATM   11  C   UNL     1     -11.826  14.513  71.130  1.00  0.00    -0.292 C  
BRANCH  11  12
HETATM   12  C   UNL     1     -12.689  15.680  71.472  1.00  0.00    -0.457 C  
HETATM   13  O   UNL     1     -12.398  16.292  72.737  1.00  0.00    -0.482 OA 
HETATM   14  C   UNL     1     -13.665  15.626  72.615  1.00  0.00    -0.579 C  
ENDBRANCH  11  12
ENDBRANCH  10  11
ENDBRANCH   9  10
ENDBRANCH   2   4
BRANCH   2  15
HETATM   15  C   UNL     1     -10.872   7.306  70.380  1.00  0.00    -0.265 A  
HETATM   16  C   UNL     1      -8.718   7.090  69.231  1.00  0.00    -0.136 A  
HETATM   17  C   UNL     1      -9.263   6.201  68.308  1.00  0.00    -0.114 A  
HETATM   18  C   UNL     1      -9.508   7.623  70.256  1.00  0.00    -0.161 A  
HETATM   19  C   UNL     1     -11.408   6.425  69.420  1.00  0.00    -0.443 A  
HETATM   20  C   UNL     1     -10.613   5.882  68.400  1.00  0.00    -0.314 A  
BRANCH  17  21
HETATM   21  O   UNL     1      -8.581   5.597  67.287  1.00  0.00    -0.111 OA 
BRANCH  21  22
HETATM   22  C   UNL     1      -8.984   5.974  65.968  1.00  0.00    -0.147 C  
BRANCH  22  23
HETATM   23  C   UNL     1      -9.109   4.744  65.133  1.00  0.00    -0.155 C  
HETATM   24  C   UNL     1      -9.380   3.395  65.737  1.00  0.00    -0.144 C  
HETATM   25  O   UNL     1     -10.421   4.166  65.118  1.00  0.00    -0.230 OA 
ENDBRANCH  22  23
ENDBRANCH  21  22
ENDBRANCH  17  21
ENDBRANCH   2  15
TORSDOF 8
ENDMDL
MODEL       38
REMARK 921   NORMALIZED FREE ENERGY PREDICTED BY IDOCK:   -5.16 KCAL/MOL
REMARK 922        TOTAL FREE ENERGY PREDICTED BY IDOCK:   -8.75 KCAL/MOL
REMARK 923 INTER-LIGAND FREE ENERGY PREDICTED BY IDOCK:   -7.72 KCAL/MOL
REMARK 924 INTRA-LIGAND FREE ENERGY PREDICTED BY IDOCK:   -1.03 KCAL/MOL
REMARK 927      BINDING AFFINITY PREDICTED BY RF-SCORE:    0.00 PKD
ROOT
HETATM    1  C   UNL     1     -13.008   7.048  71.596  1.00  0.00    -0.400 C  
HETATM    2  C   UNL     1     -11.694   7.872  71.526  1.00  0.00    -0.317 C  
HETATM    3  C   UNL     1     -11.036   7.728  72.929  1.00  0.00    -0.457 C  
ENDROOT
BRANCH   2   4
HETATM    4  C   UNL     1     -11.998   9.377  71.270  1.00  0.00    -0.430 A  
HETATM    5  C   UNL     1     -11.369  10.108  70.241  1.00  0.00    -0.387 A  
HETATM    6  C   UNL     1     -11.691  11.450  69.999  1.00  0.00    -0.416 A  
HETATM    7  C   UNL     1     -12.937  10.065  72.059  1.00  0.00    -0.514 A  
HETATM    8  C   UNL     1     -13.280  11.396  71.793  1.00  0.00    -0.472 A  
HETATM    9  C   UNL     1     -12.646  12.102  70.777  1.00  0.00    -0.216 A  
BRANCH   9  10
HETATM   10  O   UNL     1     -12.870  13.414  70.460  1.00  0.00    -0.164 OA 
BRANCH  10  11
HETATM   11  C   UNL     1     -12.008  14.358  71.096  1.00  0.00    -0.316 C  
BRANCH  11  12
HETATM   12  C   UNL     1     -12.839  15.255  71.950  1.00  0.00    -0.368 C  
HETATM   13  O   UNL     1     -13.567  14.588  72.991  1.00  0.00    -0.586 OA 
HETATM   14  C   UNL     1     -14.341  15.182  71.935  1.00  0.00    -0.596 C  
ENDBRANCH  11  12
ENDBRANCH  10  11
ENDBRANCH   9  10
ENDBRANCH   2   4
BRANCH   2  15
HETATM   15  C   UNL     1     -10.834   7.216  70.417  1.00  0.00    -0.269 A  
HETATM   16  C   UNL     1     -10.619   5.653  68.542  1.00  0.00    -0.259 A  
HETATM   17  C   UNL     1      -9.239   5.833  68.507  1.00  0.00    -0.121 A  
HETATM   18  C   UNL     1     -11.403   6.342  69.474  1.00  0.00    -0.475 A  
HETATM   19  C   UNL     1      -9.433   7.363  70.381  1.00  0.00    -0.165 A  
HETATM   20  C   UNL     1      -8.650   6.681  69.438  1.00  0.00    -0.135 A  
BRANCH  17  21
HETATM   21  O   UNL     1      -8.381   5.237  67.623  1.00  0.00    -0.106 OA 
BRANCH  21  22
HETATM   22  C   UNL     1      -7.656   6.128  66.771  1.00  0.00    -0.099 C  
BRANCH  22  23
HETATM   23  C   UNL     1      -8.616   6.797  65.846  1.00  0.00    -0.147 C  
HETATM   24  C   UNL     1      -8.939   8.261  65.955  1.00  0.00    -0.181 C  
HETATM   25  O   UNL     1      -8.022   7.763  64.969  1.00  0.00    -0.121 OA 
ENDBRANCH  22  23
ENDBRANCH  21  22
ENDBRANCH  17  21
ENDBRANCH   2  15
TORSDOF 8
ENDMDL
MODEL       39
REMARK 921   NORMALIZED FREE ENERGY PREDICTED BY IDOCK:   -5.11 KCAL/MOL
REMARK 922        TOTAL FREE ENERGY PREDICTED BY IDOCK:   -8.67 KCAL/MOL
REMARK 923 INTER-LIGAND FREE ENERGY PREDICTED BY IDOCK:   -7.66 KCAL/MOL
REMARK 924 INTRA-LIGAND FREE ENERGY PREDICTED BY IDOCK:   -1.01 KCAL/MOL
REMARK 927      BINDING AFFINITY PREDICTED BY RF-SCORE:    0.00 PKD
ROOT
HETATM    1  C   UNL     1     -12.745  12.944  64.864  1.00  0.00    -0.474 C  
HETATM    2  C   UNL     1     -11.224  12.669  65.012  1.00  0.00    -0.331 C  
HETATM    3  C   UNL     1     -10.735  12.258  63.593  1.00  0.00    -0.513 C  
ENDROOT
BRANCH   2   4
HETATM    4  C   UNL     1     -10.968  11.485  65.989  1.00  0.00    -0.316 A  
HETATM    5  C   UNL     1     -10.153  10.386  65.645  1.00  0.00    -0.337 A  
HETATM    6  C   UNL     1      -9.899   9.353  66.557  1.00  0.00    -0.325 A  
HETATM    7  C   UNL     1     -11.537  11.479  67.275  1.00  0.00    -0.280 A  
HETATM    8  C   UNL     1     -11.254  10.461  68.195  1.00  0.00    -0.333 A  
HETATM    9  C   UNL     1     -10.452   9.384  67.836  1.00  0.00    -0.243 A  
BRANCH   9  10
HETATM   10  O   UNL     1     -10.147   8.317  68.636  1.00  0.00    -0.186 OA 
BRANCH  10  11
HETATM   11  C   UNL     1     -10.653   8.382  69.970  1.00  0.00    -0.235 C  
BRANCH  11  12
HETATM   12  C   UNL     1     -10.252   7.138  70.688  1.00  0.00    -0.195 C  
HETATM   13  O   UNL     1      -9.364   6.281  69.956  1.00  0.00    -0.153 OA 
HETATM   14  C   UNL     1     -10.686   5.781  70.208  1.00  0.00    -0.309 C  
ENDBRANCH  11  12
ENDBRANCH  10  11
ENDBRANCH   9  10
ENDBRANCH   2   4
BRANCH   2  15
HETATM   15  C   UNL     1     -10.589  14.004  65.476  1.00  0.00    -0.327 A  
HETATM   16  C   UNL     1     -10.436  16.445  65.333  1.00  0.00    -0.333 A  
HETATM   17  C   UNL     1      -9.305  16.454  66.144  1.00  0.00    -0.325 A  
HETATM   18  C   UNL     1     -11.073  15.240  65.015  1.00  0.00    -0.436 A  
HETATM   19  C   UNL     1      -9.428  14.034  66.273  1.00  0.00    -0.249 A  
HETATM   20  C   UNL     1      -8.797  15.243  66.601  1.00  0.00    -0.328 A  
BRANCH  17  21
HETATM   21  O   UNL     1      -8.621  17.571  66.543  1.00  0.00    -0.246 OA 
BRANCH  21  22
HETATM   22  C   UNL     1      -7.204  17.526  66.354  1.00  0.00    -0.291 C  
BRANCH  22  23
HETATM   23  C   UNL     1      -6.736  18.867  65.899  1.00  0.00    -0.255 C  
HETATM   24  C   UNL     1      -5.305  19.125  65.520  1.00  0.00    -0.157 C  
HETATM   25  O   UNL     1      -6.321  18.918  64.528  1.00  0.00    -0.486 OA 
ENDBRANCH  22  23
ENDBRANCH  21  22
ENDBRANCH  17  21
ENDBRANCH   2  15
TORSDOF 8
ENDMDL
MODEL       40
REMARK 921   NORMALIZED FREE ENERGY PREDICTED BY IDOCK:   -5.11 KCAL/MOL
REMARK 922        TOTAL FREE ENERGY PREDICTED BY IDOCK:   -8.67 KCAL/MOL
REMARK 923 INTER-LIGAND FREE ENERGY PREDICTED BY IDOCK:   -8.02 KCAL/MOL
REMARK 924 INTRA-LIGAND FREE ENERGY PREDICTED BY IDOCK:   -0.65 KCAL/MOL
REMARK 927      BINDING AFFINITY PREDICTED BY RF-SCORE:    0.00 PKD
ROOT
HETATM    1  C   UNL     1     -12.781  13.570  65.392  1.00  0.00    -0.495 C  
HETATM    2  C   UNL     1     -11.311  13.436  65.871  1.00  0.00    -0.327 C  
HETATM    3  C   UNL     1     -10.471  13.209  64.580  1.00  0.00    -0.411 C  
ENDROOT
BRANCH   2   4
HETATM    4  C   UNL     1     -11.141  12.198  66.799  1.00  0.00    -0.349 A  
HETATM    5  C   UNL     1     -10.218  11.169  66.522  1.00  0.00    -0.275 A  
HETATM    6  C   UNL     1     -10.049  10.086  67.394  1.00  0.00    -0.256 A  
HETATM    7  C   UNL     1     -11.905  12.070  67.973  1.00  0.00    -0.338 A  
HETATM    8  C   UNL     1     -11.711  11.003  68.859  1.00  0.00    -0.400 A  
HETATM    9  C   UNL     1     -10.798   9.996  68.566  1.00  0.00    -0.231 A  
BRANCH   9  10
HETATM   10  O   UNL     1     -10.560   8.890  69.335  1.00  0.00    -0.227 OA 
BRANCH  10  11
HETATM   11  C   UNL     1      -9.426   8.971  70.199  1.00  0.00    -0.195 C  
BRANCH  11  12
HETATM   12  C   UNL     1      -9.897   8.845  71.609  1.00  0.00    -0.317 C  
HETATM   13  O   UNL     1      -8.851   8.740  72.585  1.00  0.00    -0.394 OA 
HETATM   14  C   UNL     1      -9.682   7.583  72.398  1.00  0.00    -0.161 C  
ENDBRANCH  11  12
ENDBRANCH  10  11
ENDBRANCH   9  10
ENDBRANCH   2   4
BRANCH   2  15
HETATM   15  C   UNL     1     -10.959  14.779  66.559  1.00  0.00    -0.325 A  
HETATM   16  C   UNL     1     -11.189  16.320  68.449  1.00  0.00    -0.349 A  
HETATM   17  C   UNL     1     -10.508  17.319  67.760  1.00  0.00    -0.371 A  
HETATM   18  C   UNL     1     -11.401  15.068  67.861  1.00  0.00    -0.344 A  
HETATM   19  C   UNL     1     -10.294  15.813  65.870  1.00  0.00    -0.372 A  
HETATM   20  C   UNL     1     -10.073  17.063  66.464  1.00  0.00    -0.318 A  
BRANCH  17  21
HETATM   21  O   UNL     1     -10.219  18.566  68.246  1.00  0.00    -0.361 OA 
BRANCH  21  22
HETATM   22  C   UNL     1      -9.077  19.204  67.667  1.00  0.00    -0.297 C  
BRANCH  22  23
HETATM   23  C   UNL     1      -8.019  19.335  68.710  1.00  0.00    -0.357 C  
HETATM   24  C   UNL     1      -6.661  18.710  68.551  1.00  0.00    -0.258 C  
HETATM   25  O   UNL     1      -6.880  20.108  68.308  1.00  0.00    -0.291 OA 
ENDBRANCH  22  23
ENDBRANCH  21  22
ENDBRANCH  17  21
ENDBRANCH   2  15
TORSDOF 8
ENDMDL
MODEL       41
REMARK 921   NORMALIZED FREE ENERGY PREDICTED BY IDOCK:   -5.10 KCAL/MOL
REMARK 922        TOTAL FREE ENERGY PREDICTED BY IDOCK:   -8.65 KCAL/MOL
REMARK 923 INTER-LIGAND FREE ENERGY PREDICTED BY IDOCK:   -7.67 KCAL/MOL
REMARK 924 INTRA-LIGAND FREE ENERGY PREDICTED BY IDOCK:   -0.99 KCAL/MOL
REMARK 927      BINDING AFFINITY PREDICTED BY RF-SCORE:    0.00 PKD
ROOT
HETATM    1  C   UNL     1     -12.874   6.601  71.703  1.00  0.00    -0.234 C  
HETATM    2  C   UNL     1     -11.579   7.446  71.574  1.00  0.00    -0.304 C  
HETATM    3  C   UNL     1     -10.846   7.297  72.939  1.00  0.00    -0.380 C  
ENDROOT
BRANCH   2   4
HETATM    4  C   UNL     1     -11.917   8.949  71.353  1.00  0.00    -0.374 A  
HETATM    5  C   UNL     1     -12.875   9.629  72.133  1.00  0.00    -0.460 A  
HETATM    6  C   UNL     1     -13.132  10.994  71.947  1.00  0.00    -0.525 A  
HETATM    7  C   UNL     1     -11.256   9.696  70.361  1.00  0.00    -0.342 A  
HETATM    8  C   UNL     1     -11.491  11.068  70.200  1.00  0.00    -0.383 A  
HETATM    9  C   UNL     1     -12.443  11.719  70.976  1.00  0.00    -0.309 A  
BRANCH   9  10
HETATM   10  O   UNL     1     -12.784  13.040  70.874  1.00  0.00    -0.299 OA 
BRANCH  10  11
HETATM   11  C   UNL     1     -13.438  13.598  72.014  1.00  0.00    -0.484 C  
BRANCH  11  12
HETATM   12  C   UNL     1     -12.627  14.748  72.507  1.00  0.00    -0.349 C  
HETATM   13  O   UNL     1     -12.486  14.816  73.934  1.00  0.00    -0.491 OA 
HETATM   14  C   UNL     1     -13.247  15.861  73.306  1.00  0.00    -0.595 C  
ENDBRANCH  11  12
ENDBRANCH  10  11
ENDBRANCH   9  10
ENDBRANCH   2   4
BRANCH   2  15
HETATM   15  C   UNL     1     -10.768   6.816  70.413  1.00  0.00    -0.281 A  
HETATM   16  C   UNL     1      -8.619   6.356  69.330  1.00  0.00    -0.125 A  
HETATM   17  C   UNL     1      -9.259   5.860  68.198  1.00  0.00    -0.116 A  
HETATM   18  C   UNL     1      -9.363   6.815  70.423  1.00  0.00    -0.163 A  
HETATM   19  C   UNL     1     -11.395   6.334  69.247  1.00  0.00    -0.411 A  
HETATM   20  C   UNL     1     -10.649   5.863  68.157  1.00  0.00    -0.312 A  
BRANCH  17  21
HETATM   21  O   UNL     1      -8.636   5.358  67.087  1.00  0.00    -0.110 OA 
BRANCH  21  22
HETATM   22  C   UNL     1      -9.329   5.552  65.851  1.00  0.00    -0.125 C  
BRANCH  22  23
HETATM   23  C   UNL     1      -9.154   4.337  65.004  1.00  0.00    -0.146 C  
HETATM   24  C   UNL     1     -10.200   3.895  64.019  1.00  0.00    -0.208 C  
HETATM   25  O   UNL     1      -9.023   4.603  63.602  1.00  0.00    -0.140 OA 
ENDBRANCH  22  23
ENDBRANCH  21  22
ENDBRANCH  17  21
ENDBRANCH   2  15
TORSDOF 8
ENDMDL
MODEL       42
REMARK 921   NORMALIZED FREE ENERGY PREDICTED BY IDOCK:   -5.09 KCAL/MOL
REMARK 922        TOTAL FREE ENERGY PREDICTED BY IDOCK:   -8.64 KCAL/MOL
REMARK 923 INTER-LIGAND FREE ENERGY PREDICTED BY IDOCK:   -7.50 KCAL/MOL
REMARK 924 INTRA-LIGAND FREE ENERGY PREDICTED BY IDOCK:   -1.14 KCAL/MOL
REMARK 927      BINDING AFFINITY PREDICTED BY RF-SCORE:    0.00 PKD
ROOT
HETATM    1  C   UNL     1      -7.907   9.415  67.761  1.00  0.00    -0.095 C  
HETATM    2  C   UNL     1      -9.457   9.500  67.762  1.00  0.00    -0.151 C  
HETATM    3  C   UNL     1      -9.924   8.607  66.576  1.00  0.00    -0.353 C  
ENDROOT
BRANCH   2   4
HETATM    4  C   UNL     1      -9.932  10.959  67.504  1.00  0.00    -0.201 A  
HETATM    5  C   UNL     1     -11.294  11.293  67.350  1.00  0.00    -0.349 A  
HETATM    6  C   UNL     1     -11.703  12.619  67.164  1.00  0.00    -0.438 A  
HETATM    7  C   UNL     1      -9.005  12.015  67.431  1.00  0.00    -0.176 A  
HETATM    8  C   UNL     1      -9.421  13.343  67.278  1.00  0.00    -0.234 A  
HETATM    9  C   UNL     1     -10.767  13.651  67.124  1.00  0.00    -0.277 A  
BRANCH   9  10
HETATM   10  O   UNL     1     -11.279  14.905  66.924  1.00  0.00    -0.335 OA 
BRANCH  10  11
HETATM   11  C   UNL     1     -10.455  15.794  66.169  1.00  0.00    -0.317 C  
BRANCH  11  12
HETATM   12  C   UNL     1     -10.805  15.651  64.726  1.00  0.00    -0.355 C  
HETATM   13  O   UNL     1     -11.466  16.788  64.153  1.00  0.00    -1.171 OA 
HETATM   14  C   UNL     1     -12.236  15.581  64.269  1.00  0.00    -0.066 C  
ENDBRANCH  11  12
ENDBRANCH  10  11
ENDBRANCH   9  10
ENDBRANCH   2   4
BRANCH   2  15
HETATM   15  C   UNL     1      -9.918   8.930  69.127  1.00  0.00    -0.192 A  
HETATM   16  C   UNL     1     -11.185   7.279  70.421  1.00  0.00    -0.302 A  
HETATM   17  C   UNL     1     -10.957   7.980  71.601  1.00  0.00    -0.239 A  
HETATM   18  C   UNL     1     -10.663   7.742  69.207  1.00  0.00    -0.156 A  
HETATM   19  C   UNL     1      -9.722   9.638  70.330  1.00  0.00    -0.304 A  
HETATM   20  C   UNL     1     -10.234   9.168  71.548  1.00  0.00    -0.403 A  
BRANCH  17  21
HETATM   21  O   UNL     1     -11.391   7.608  72.844  1.00  0.00    -0.369 OA 
BRANCH  21  22
HETATM   22  C   UNL     1     -10.417   6.964  73.670  1.00  0.00    -0.369 C  
BRANCH  22  23
HETATM   23  C   UNL     1     -10.407   5.506  73.356  1.00  0.00    -0.219 C  
HETATM   24  C   UNL     1      -9.591   4.525  74.151  1.00  0.00    -0.120 C  
HETATM   25  O   UNL     1     -11.004   4.676  74.361  1.00  0.00    -0.316 OA 
ENDBRANCH  22  23
ENDBRANCH  21  22
ENDBRANCH  17  21
ENDBRANCH   2  15
TORSDOF 8
ENDMDL
MODEL       43
REMARK 921   NORMALIZED FREE ENERGY PREDICTED BY IDOCK:   -5.07 KCAL/MOL
REMARK 922        TOTAL FREE ENERGY PREDICTED BY IDOCK:   -8.61 KCAL/MOL
REMARK 923 INTER-LIGAND FREE ENERGY PREDICTED BY IDOCK:   -7.30 KCAL/MOL
REMARK 924 INTRA-LIGAND FREE ENERGY PREDICTED BY IDOCK:   -1.31 KCAL/MOL
REMARK 927      BINDING AFFINITY PREDICTED BY RF-SCORE:    0.00 PKD
ROOT
HETATM    1  C   UNL     1     -12.828  12.621  64.872  1.00  0.00    -0.312 C  
HETATM    2  C   UNL     1     -11.455  12.527  65.590  1.00  0.00    -0.400 C  
HETATM    3  C   UNL     1     -11.771  12.021  67.028  1.00  0.00    -0.341 C  
ENDROOT
BRANCH   2   4
HETATM    4  C   UNL     1     -10.786  13.929  65.692  1.00  0.00    -0.292 A  
HETATM    5  C   UNL     1      -9.512  14.116  66.266  1.00  0.00    -0.264 A  
HETATM    6  C   UNL     1      -8.908  15.379  66.306  1.00  0.00    -0.302 A  
HETATM    7  C   UNL     1     -11.433  15.072  65.190  1.00  0.00    -0.339 A  
HETATM    8  C   UNL     1     -10.813  16.328  65.203  1.00  0.00    -0.333 A  
HETATM    9  C   UNL     1      -9.558  16.493  65.777  1.00  0.00    -0.156 A  
BRANCH   9  10
HETATM   10  O   UNL     1      -8.881  17.677  65.883  1.00  0.00    -0.521 OA 
BRANCH  10  11
HETATM   11  C   UNL     1      -8.809  18.231  67.197  1.00  0.00    -0.260 C  
BRANCH  11  12
HETATM   12  C   UNL     1      -9.513  19.545  67.195  1.00  0.00    -0.332 C  
HETATM   13  O   UNL     1     -10.944  19.461  67.137  1.00  0.00    -0.483 OA 
HETATM   14  C   UNL     1     -10.281  20.022  65.993  1.00  0.00    -0.458 C  
ENDBRANCH  11  12
ENDBRANCH  10  11
ENDBRANCH   9  10
ENDBRANCH   2   4
BRANCH   2  15
HETATM   15  C   UNL     1     -10.620  11.498  64.787  1.00  0.00    -0.362 A  
HETATM   16  C   UNL     1      -9.111   9.568  64.733  1.00  0.00    -0.271 A  
HETATM   17  C   UNL     1      -8.908   9.724  63.365  1.00  0.00    -0.241 A  
HETATM   18  C   UNL     1      -9.962  10.435  65.429  1.00  0.00    -0.362 A  
HETATM   19  C   UNL     1     -10.379  11.653  63.407  1.00  0.00    -0.482 A  
HETATM   20  C   UNL     1      -9.536  10.778  62.709  1.00  0.00    -0.358 A  
BRANCH  17  21
HETATM   21  O   UNL     1      -8.125   8.921  62.580  1.00  0.00    -0.145 OA 
BRANCH  21  22
HETATM   22  C   UNL     1      -7.510   7.816  63.248  1.00  0.00    -0.116 C  
BRANCH  22  23
HETATM   23  C   UNL     1      -6.030   7.934  63.112  1.00  0.00    -0.067 C  
HETATM   24  C   UNL     1      -5.301   9.214  63.415  1.00  0.00    -0.067 C  
HETATM   25  O   UNL     1      -5.332   8.124  64.350  1.00  0.00    -0.036 OA 
ENDBRANCH  22  23
ENDBRANCH  21  22
ENDBRANCH  17  21
ENDBRANCH   2  15
TORSDOF 8
ENDMDL
MODEL       44
REMARK 921   NORMALIZED FREE ENERGY PREDICTED BY IDOCK:   -5.05 KCAL/MOL
REMARK 922        TOTAL FREE ENERGY PREDICTED BY IDOCK:   -8.58 KCAL/MOL
REMARK 923 INTER-LIGAND FREE ENERGY PREDICTED BY IDOCK:   -7.91 KCAL/MOL
REMARK 924 INTRA-LIGAND FREE ENERGY PREDICTED BY IDOCK:   -0.67 KCAL/MOL
REMARK 927      BINDING AFFINITY PREDICTED BY RF-SCORE:    0.00 PKD
ROOT
HETATM    1  C   UNL     1     -12.629  14.202  65.781  1.00  0.00    -0.475 C  
HETATM    2  C   UNL     1     -11.236  13.832  66.357  1.00  0.00    -0.321 C  
HETATM    3  C   UNL     1     -10.438  13.231  65.164  1.00  0.00    -0.346 C  
ENDROOT
BRANCH   2   4
HETATM    4  C   UNL     1     -11.365  12.749  67.467  1.00  0.00    -0.361 A  
HETATM    5  C   UNL     1     -11.892  13.035  68.743  1.00  0.00    -0.355 A  
HETATM    6  C   UNL     1     -12.041  12.034  69.711  1.00  0.00    -0.317 A  
HETATM    7  C   UNL     1     -10.969  11.421  67.223  1.00  0.00    -0.336 A  
HETATM    8  C   UNL     1     -11.150  10.417  68.183  1.00  0.00    -0.344 A  
HETATM    9  C   UNL     1     -11.667  10.720  69.436  1.00  0.00    -0.306 A  
BRANCH   9  10
HETATM   10  O   UNL     1     -11.845   9.829  70.460  1.00  0.00    -0.266 OA 
BRANCH  10  11
HETATM   11  C   UNL     1     -12.775  10.226  71.469  1.00  0.00    -0.452 C  
BRANCH  11  12
HETATM   12  C   UNL     1     -13.186   9.015  72.234  1.00  0.00    -0.460 C  
HETATM   13  O   UNL     1     -12.104   8.170  72.650  1.00  0.00    -0.359 OA 
HETATM   14  C   UNL     1     -13.008   7.632  71.671  1.00  0.00    -0.350 C  
ENDBRANCH  11  12
ENDBRANCH  10  11
ENDBRANCH   9  10
ENDBRANCH   2   4
BRANCH   2  15
HETATM   15  C   UNL     1     -10.611  15.160  66.857  1.00  0.00    -0.297 A  
HETATM   16  C   UNL     1     -10.038  17.511  66.478  1.00  0.00    -0.331 A  
HETATM   17  C   UNL     1      -9.290  17.552  67.651  1.00  0.00    -0.244 A  
HETATM   18  C   UNL     1     -10.697  16.337  66.095  1.00  0.00    -0.198 A  
HETATM   19  C   UNL     1      -9.827  15.216  68.027  1.00  0.00    -0.213 A  
HETATM   20  C   UNL     1      -9.178  16.396  68.416  1.00  0.00    -0.217 A  
BRANCH  17  21
HETATM   21  O   UNL     1      -8.631  18.649  68.137  1.00  0.00    -0.290 OA 
BRANCH  21  22
HETATM   22  C   UNL     1      -7.204  18.597  68.057  1.00  0.00    -0.246 C  
BRANCH  22  23
HETATM   23  C   UNL     1      -6.653  19.935  68.417  1.00  0.00    -0.286 C  
HETATM   24  C   UNL     1      -6.136  20.239  69.795  1.00  0.00    -0.350 C  
HETATM   25  O   UNL     1      -5.248  19.941  68.707  1.00  0.00    -0.190 OA 
ENDBRANCH  22  23
ENDBRANCH  21  22
ENDBRANCH  17  21
ENDBRANCH   2  15
TORSDOF 8
ENDMDL
MODEL       45
REMARK 921   NORMALIZED FREE ENERGY PREDICTED BY IDOCK:   -5.03 KCAL/MOL
REMARK 922        TOTAL FREE ENERGY PREDICTED BY IDOCK:   -8.55 KCAL/MOL
REMARK 923 INTER-LIGAND FREE ENERGY PREDICTED BY IDOCK:   -7.32 KCAL/MOL
REMARK 924 INTRA-LIGAND FREE ENERGY PREDICTED BY IDOCK:   -1.23 KCAL/MOL
REMARK 927      BINDING AFFINITY PREDICTED BY RF-SCORE:    0.00 PKD
ROOT
HETATM    1  C   UNL     1      -9.648  15.061  69.425  1.00  0.00    -0.145 C  
HETATM    2  C   UNL     1     -10.640  15.645  68.383  1.00  0.00    -0.252 C  
HETATM    3  C   UNL     1     -11.981  15.839  69.148  1.00  0.00    -0.312 C  
ENDROOT
BRANCH   2   4
HETATM    4  C   UNL     1     -10.873  14.641  67.217  1.00  0.00    -0.305 A  
HETATM    5  C   UNL     1     -11.885  13.660  67.257  1.00  0.00    -0.429 A  
HETATM    6  C   UNL     1     -12.107  12.796  66.177  1.00  0.00    -0.429 A  
HETATM    7  C   UNL     1     -10.078  14.690  66.057  1.00  0.00    -0.330 A  
HETATM    8  C   UNL     1     -10.324  13.846  64.966  1.00  0.00    -0.418 A  
HETATM    9  C   UNL     1     -11.325  12.883  65.027  1.00  0.00    -0.305 A  
BRANCH   9  10
HETATM   10  O   UNL     1     -11.621  11.981  64.042  1.00  0.00    -0.367 OA 
BRANCH  10  11
HETATM   11  C   UNL     1     -10.498  11.363  63.412  1.00  0.00    -0.390 C  
BRANCH  11  12
HETATM   12  C   UNL     1      -9.958  10.321  64.331  1.00  0.00    -0.261 C  
HETATM   13  O   UNL     1      -8.646  10.592  64.843  1.00  0.00    -0.178 OA 
HETATM   14  C   UNL     1      -8.774   9.475  63.949  1.00  0.00    -0.216 C  
ENDBRANCH  11  12
ENDBRANCH  10  11
ENDBRANCH   9  10
ENDBRANCH   2   4
BRANCH   2  15
HETATM   15  C   UNL     1     -10.036  16.997  67.926  1.00  0.00    -0.306 A  
HETATM   16  C   UNL     1     -10.233  19.095  66.676  1.00  0.00    -0.491 A  
HETATM   17  C   UNL     1      -8.890  19.388  66.891  1.00  0.00    -0.306 A  
HETATM   18  C   UNL     1     -10.798  17.924  67.195  1.00  0.00    -0.149 A  
HETATM   19  C   UNL     1      -8.672  17.300  68.109  1.00  0.00    -0.243 A  
HETATM   20  C   UNL     1      -8.110  18.479  67.599  1.00  0.00    -0.262 A  
BRANCH  17  21
HETATM   21  O   UNL     1      -8.241  20.512  66.459  1.00  0.00    -0.171 OA 
BRANCH  21  22
HETATM   22  C   UNL     1      -6.904  20.677  66.940  1.00  0.00    -0.293 C  
BRANCH  22  23
HETATM   23  C   UNL     1      -5.977  20.745  65.774  1.00  0.00    -0.233 C  
HETATM   24  C   UNL     1      -5.713  19.554  64.896  1.00  0.00    -0.217 C  
HETATM   25  O   UNL     1      -6.615  20.598  64.498  1.00  0.00    -0.315 OA 
ENDBRANCH  22  23
ENDBRANCH  21  22
ENDBRANCH  17  21
ENDBRANCH   2  15
TORSDOF 8
ENDMDL
MODEL       46
REMARK 921   NORMALIZED FREE ENERGY PREDICTED BY IDOCK:   -5.01 KCAL/MOL
REMARK 922        TOTAL FREE ENERGY PREDICTED BY IDOCK:   -8.53 KCAL/MOL
REMARK 923 INTER-LIGAND FREE ENERGY PREDICTED BY IDOCK:   -7.25 KCAL/MOL
REMARK 924 INTRA-LIGAND FREE ENERGY PREDICTED BY IDOCK:   -1.28 KCAL/MOL
REMARK 927      BINDING AFFINITY PREDICTED BY RF-SCORE:    0.00 PKD
ROOT
HETATM    1  C   UNL     1     -10.202  10.621  65.284  1.00  0.00    -0.351 C  
HETATM    2  C   UNL     1      -9.529  11.043  66.617  1.00  0.00    -0.207 C  
HETATM    3  C   UNL     1      -7.998  11.028  66.335  1.00  0.00    -0.161 C  
ENDROOT
BRANCH   2   4
HETATM    4  C   UNL     1      -9.838  10.016  67.744  1.00  0.00    -0.185 A  
HETATM    5  C   UNL     1     -10.293   8.710  67.470  1.00  0.00    -0.336 A  
HETATM    6  C   UNL     1     -10.522   7.786  68.498  1.00  0.00    -0.202 A  
HETATM    7  C   UNL     1      -9.654  10.356  69.097  1.00  0.00    -0.226 A  
HETATM    8  C   UNL     1      -9.852   9.420  70.119  1.00  0.00    -0.272 A  
HETATM    9  C   UNL     1     -10.305   8.139  69.829  1.00  0.00    -0.216 A  
BRANCH   9  10
HETATM   10  O   UNL     1     -10.574   7.162  70.749  1.00  0.00    -0.218 OA 
BRANCH  10  11
HETATM   11  C   UNL     1     -11.900   6.635  70.720  1.00  0.00    -0.383 C  
BRANCH  11  12
HETATM   12  C   UNL     1     -12.670   7.231  71.850  1.00  0.00    -0.277 C  
HETATM   13  O   UNL     1     -14.095   7.197  71.691  1.00  0.00    -0.400 OA 
HETATM   14  C   UNL     1     -13.472   8.491  71.675  1.00  0.00    -0.346 C  
ENDBRANCH  11  12
ENDBRANCH  10  11
ENDBRANCH   9  10
ENDBRANCH   2   4
BRANCH   2  15
HETATM   15  C   UNL     1     -10.043  12.473  66.923  1.00  0.00    -0.232 A  
HETATM   16  C   UNL     1     -11.895  14.061  67.143  1.00  0.00    -0.444 A  
HETATM   17  C   UNL     1     -11.010  15.127  67.270  1.00  0.00    -0.327 A  
HETATM   18  C   UNL     1     -11.418  12.755  66.983  1.00  0.00    -0.397 A  
HETATM   19  C   UNL     1      -9.164  13.570  67.028  1.00  0.00    -0.248 A  
HETATM   20  C   UNL     1      -9.643  14.877  67.199  1.00  0.00    -0.229 A  
BRANCH  17  21
HETATM   21  O   UNL     1     -11.362  16.436  67.460  1.00  0.00    -0.100 OA 
BRANCH  21  22
HETATM   22  C   UNL     1     -10.462  17.207  68.260  1.00  0.00    -0.373 C  
BRANCH  22  23
HETATM   23  C   UNL     1     -10.344  18.573  67.673  1.00  0.00    -0.410 C  
HETATM   24  C   UNL     1      -9.128  19.008  66.905  1.00  0.00    -0.303 C  
HETATM   25  O   UNL     1     -10.335  18.606  66.240  1.00  0.00    -0.406 OA 
ENDBRANCH  22  23
ENDBRANCH  21  22
ENDBRANCH  17  21
ENDBRANCH   2  15
TORSDOF 8
ENDMDL
MODEL       47
REMARK 921   NORMALIZED FREE ENERGY PREDICTED BY IDOCK:   -5.01 KCAL/MOL
REMARK 922        TOTAL FREE ENERGY PREDICTED BY IDOCK:   -8.52 KCAL/MOL
REMARK 923 INTER-LIGAND FREE ENERGY PREDICTED BY IDOCK:   -7.35 KCAL/MOL
REMARK 924 INTRA-LIGAND FREE ENERGY PREDICTED BY IDOCK:   -1.17 KCAL/MOL
REMARK 927      BINDING AFFINITY PREDICTED BY RF-SCORE:    0.00 PKD
ROOT
HETATM    1  C   UNL     1      -9.809  14.424  67.583  1.00  0.00    -0.224 C  
HETATM    2  C   UNL     1     -11.030  13.538  67.215  1.00  0.00    -0.293 C  
HETATM    3  C   UNL     1     -12.121  14.524  66.704  1.00  0.00    -0.319 C  
ENDROOT
BRANCH   2   4
HETATM    4  C   UNL     1     -11.577  12.798  68.470  1.00  0.00    -0.358 A  
HETATM    5  C   UNL     1     -11.736  11.398  68.510  1.00  0.00    -0.386 A  
HETATM    6  C   UNL     1     -12.187  10.747  69.666  1.00  0.00    -0.325 A  
HETATM    7  C   UNL     1     -11.920  13.512  69.632  1.00  0.00    -0.397 A  
HETATM    8  C   UNL     1     -12.340  12.856  70.796  1.00  0.00    -0.385 A  
HETATM    9  C   UNL     1     -12.494  11.475  70.814  1.00  0.00    -0.349 A  
BRANCH   9  10
HETATM   10  O   UNL     1     -12.938  10.738  71.879  1.00  0.00    -0.462 OA 
BRANCH  10  11
HETATM   11  C   UNL     1     -13.621   9.528  71.549  1.00  0.00    -0.323 C  
BRANCH  11  12
HETATM   12  C   UNL     1     -13.004   8.412  72.321  1.00  0.00    -0.301 C  
HETATM   13  O   UNL     1     -11.570   8.421  72.349  1.00  0.00    -0.367 OA 
HETATM   14  C   UNL     1     -12.198   7.339  71.643  1.00  0.00    -0.343 C  
ENDBRANCH  11  12
ENDBRANCH  10  11
ENDBRANCH   9  10
ENDBRANCH   2   4
BRANCH   2  15
HETATM   15  C   UNL     1     -10.546  12.584  66.094  1.00  0.00    -0.279 A  
HETATM   16  C   UNL     1     -10.980  11.349  64.023  1.00  0.00    -0.428 A  
HETATM   17  C   UNL     1      -9.770  10.671  64.135  1.00  0.00    -0.320 A  
HETATM   18  C   UNL     1     -11.355  12.297  64.982  1.00  0.00    -0.376 A  
HETATM   19  C   UNL     1      -9.337  11.867  66.202  1.00  0.00    -0.228 A  
HETATM   20  C   UNL     1      -8.957  10.926  65.234  1.00  0.00    -0.202 A  
BRANCH  17  21
HETATM   21  O   UNL     1      -9.289   9.749  63.245  1.00  0.00    -0.259 OA 
BRANCH  21  22
HETATM   22  C   UNL     1      -7.875   9.779  63.028  1.00  0.00    -0.133 C  
BRANCH  22  23
HETATM   23  C   UNL     1      -7.368   8.379  62.959  1.00  0.00    -0.100 C  
HETATM   24  C   UNL     1      -7.828   7.317  63.919  1.00  0.00    -0.111 C  
HETATM   25  O   UNL     1      -8.355   7.407  62.587  1.00  0.00    -0.083 OA 
ENDBRANCH  22  23
ENDBRANCH  21  22
ENDBRANCH  17  21
ENDBRANCH   2  15
TORSDOF 8
ENDMDL
MODEL       48
REMARK 921   NORMALIZED FREE ENERGY PREDICTED BY IDOCK:   -5.01 KCAL/MOL
REMARK 922        TOTAL FREE ENERGY PREDICTED BY IDOCK:   -8.52 KCAL/MOL
REMARK 923 INTER-LIGAND FREE ENERGY PREDICTED BY IDOCK:   -8.53 KCAL/MOL
REMARK 924 INTRA-LIGAND FREE ENERGY PREDICTED BY IDOCK:    0.01 KCAL/MOL
REMARK 927      BINDING AFFINITY PREDICTED BY RF-SCORE:    0.00 PKD
ROOT
HETATM    1  C   UNL     1     -11.074  15.095  71.424  1.00  0.00    -0.232 C  
HETATM    2  C   UNL     1     -12.214  14.484  70.566  1.00  0.00    -0.399 C  
HETATM    3  C   UNL     1     -13.469  15.358  70.857  1.00  0.00    -0.427 C  
ENDROOT
BRANCH   2   4
HETATM    4  C   UNL     1     -12.514  13.021  71.003  1.00  0.00    -0.385 A  
HETATM    5  C   UNL     1     -13.478  12.709  71.984  1.00  0.00    -0.516 A  
HETATM    6  C   UNL     1     -13.765  11.383  72.330  1.00  0.00     0.182 A  
HETATM    7  C   UNL     1     -11.833  11.940  70.413  1.00  0.00    -0.329 A  
HETATM    8  C   UNL     1     -12.145  10.614  70.738  1.00  0.00    -0.474 A  
HETATM    9  C   UNL     1     -13.096  10.328  71.710  1.00  0.00    -0.465 A  
BRANCH   9  10
HETATM   10  O   UNL     1     -13.447   9.076  72.136  1.00  0.00    -0.394 OA 
BRANCH  10  11
HETATM   11  C   UNL     1     -13.555   8.084  71.114  1.00  0.00    -0.029 C  
BRANCH  11  12
HETATM   12  C   UNL     1     -12.599   6.982  71.423  1.00  0.00    -0.386 C  
HETATM   13  O   UNL     1     -11.290   7.415  71.819  1.00  0.00    -0.245 OA 
HETATM   14  C   UNL     1     -11.393   6.725  70.563  1.00  0.00    -0.343 C  
ENDBRANCH  11  12
ENDBRANCH  10  11
ENDBRANCH   9  10
ENDBRANCH   2   4
BRANCH   2  15
HETATM   15  C   UNL     1     -11.756  14.608  69.091  1.00  0.00    -0.342 A  
HETATM   16  C   UNL     1     -11.004  15.987  67.210  1.00  0.00    -0.207 A  
HETATM   17  C   UNL     1     -11.115  14.911  66.335  1.00  0.00    -0.342 A  
HETATM   18  C   UNL     1     -11.309  15.834  68.568  1.00  0.00    -0.374 A  
HETATM   19  C   UNL     1     -11.886  13.539  68.182  1.00  0.00    -0.400 A  
HETATM   20  C   UNL     1     -11.569  13.691  66.824  1.00  0.00    -0.393 A  
BRANCH  17  21
HETATM   21  O   UNL     1     -10.816  14.938  64.999  1.00  0.00    -0.371 OA 
BRANCH  21  22
HETATM   22  C   UNL     1     -10.782  13.664  64.349  1.00  0.00    -0.354 C  
BRANCH  22  23
HETATM   23  C   UNL     1     -12.046  13.484  63.578  1.00  0.00    -0.364 C  
HETATM   24  C   UNL     1     -12.513  12.131  63.119  1.00  0.00    -0.243 C  
HETATM   25  O   UNL     1     -13.072  12.767  64.278  1.00  0.00    -0.699 OA 
ENDBRANCH  22  23
ENDBRANCH  21  22
ENDBRANCH  17  21
ENDBRANCH   2  15
TORSDOF 8
ENDMDL
MODEL       49
REMARK 921   NORMALIZED FREE ENERGY PREDICTED BY IDOCK:   -5.01 KCAL/MOL
REMARK 922        TOTAL FREE ENERGY PREDICTED BY IDOCK:   -8.52 KCAL/MOL
REMARK 923 INTER-LIGAND FREE ENERGY PREDICTED BY IDOCK:   -8.63 KCAL/MOL
REMARK 924 INTRA-LIGAND FREE ENERGY PREDICTED BY IDOCK:    0.11 KCAL/MOL
REMARK 927      BINDING AFFINITY PREDICTED BY RF-SCORE:    0.00 PKD
ROOT
HETATM    1  C   UNL     1     -12.069  14.896  72.588  1.00  0.00    -0.372 C  
HETATM    2  C   UNL     1     -12.758  14.330  71.317  1.00  0.00    -0.427 C  
HETATM    3  C   UNL     1     -14.262  14.707  71.455  1.00  0.00    -0.462 C  
ENDROOT
BRANCH   2   4
HETATM    4  C   UNL     1     -12.636  12.779  71.264  1.00  0.00    -0.347 A  
HETATM    5  C   UNL     1     -13.370  11.936  72.123  1.00  0.00    -0.361 A  
HETATM    6  C   UNL     1     -13.280  10.541  72.028  1.00  0.00    -0.483 A  
HETATM    7  C   UNL     1     -11.788  12.157  70.331  1.00  0.00    -0.277 A  
HETATM    8  C   UNL     1     -11.725  10.762  70.217  1.00  0.00    -0.442 A  
HETATM    9  C   UNL     1     -12.453   9.948  71.075  1.00  0.00    -0.346 A  
BRANCH   9  10
HETATM   10  O   UNL     1     -12.433   8.579  71.082  1.00  0.00    -0.273 OA 
BRANCH  10  11
HETATM   11  C   UNL     1     -12.285   7.971  72.365  1.00  0.00    -0.287 C  
BRANCH  11  12
HETATM   12  C   UNL     1     -10.992   7.228  72.388  1.00  0.00    -0.267 C  
HETATM   13  O   UNL     1     -10.822   6.283  71.322  1.00  0.00    -0.244 OA 
HETATM   14  C   UNL     1     -10.941   5.748  72.650  1.00  0.00    -0.268 C  
ENDBRANCH  11  12
ENDBRANCH  10  11
ENDBRANCH   9  10
ENDBRANCH   2   4
BRANCH   2  15
HETATM   15  C   UNL     1     -12.093  15.045  70.114  1.00  0.00    -0.378 A  
HETATM   16  C   UNL     1     -11.463  15.076  67.746  1.00  0.00    -0.347 A  
HETATM   17  C   UNL     1     -10.701  16.226  67.930  1.00  0.00    -0.329 A  
HETATM   18  C   UNL     1     -12.156  14.503  68.818  1.00  0.00    -0.256 A  
HETATM   19  C   UNL     1     -11.295  16.194  70.283  1.00  0.00    -0.363 A  
HETATM   20  C   UNL     1     -10.610  16.774  69.205  1.00  0.00    -0.343 A  
BRANCH  17  21
HETATM   21  O   UNL     1     -10.008  16.887  66.952  1.00  0.00    -0.261 OA 
BRANCH  21  22
HETATM   22  C   UNL     1     -10.775  17.279  65.810  1.00  0.00    -0.131 C  
BRANCH  22  23
HETATM   23  C   UNL     1     -10.741  16.177  64.805  1.00  0.00    -0.166 C  
HETATM   24  C   UNL     1     -11.937  15.309  64.534  1.00  0.00    -0.271 C  
HETATM   25  O   UNL     1     -11.577  16.390  63.660  1.00  0.00    -0.926 OA 
ENDBRANCH  22  23
ENDBRANCH  21  22
ENDBRANCH  17  21
ENDBRANCH   2  15
TORSDOF 8
ENDMDL
MODEL       50
REMARK 921   NORMALIZED FREE ENERGY PREDICTED BY IDOCK:   -5.00 KCAL/MOL
REMARK 922        TOTAL FREE ENERGY PREDICTED BY IDOCK:   -8.51 KCAL/MOL
REMARK 923 INTER-LIGAND FREE ENERGY PREDICTED BY IDOCK:   -7.36 KCAL/MOL
REMARK 924 INTRA-LIGAND FREE ENERGY PREDICTED BY IDOCK:   -1.15 KCAL/MOL
REMARK 927      BINDING AFFINITY PREDICTED BY RF-SCORE:    0.00 PKD
ROOT
HETATM    1  C   UNL     1     -10.881   7.617  72.854  1.00  0.00    -0.446 C  
HETATM    2  C   UNL     1     -11.575   7.667  71.467  1.00  0.00    -0.304 C  
HETATM    3  C   UNL     1     -12.969   7.007  71.674  1.00  0.00    -0.400 C  
ENDROOT
BRANCH   2   4
HETATM    4  C   UNL     1     -10.781   6.835  70.419  1.00  0.00    -0.281 A  
HETATM    5  C   UNL     1     -11.374   6.350  69.235  1.00  0.00    -0.405 A  
HETATM    6  C   UNL     1     -10.629   5.641  68.283  1.00  0.00    -0.253 A  
HETATM    7  C   UNL     1      -9.417   6.549  70.613  1.00  0.00    -0.173 A  
HETATM    8  C   UNL     1      -8.668   5.868  69.644  1.00  0.00    -0.128 A  
HETATM    9  C   UNL     1      -9.272   5.395  68.486  1.00  0.00    -0.111 A  
BRANCH   9  10
HETATM   10  O   UNL     1      -8.648   4.682  67.497  1.00  0.00    -0.104 OA 
BRANCH  10  11
HETATM   11  C   UNL     1      -9.452   3.699  66.844  1.00  0.00    -0.187 C  
BRANCH  11  12
HETATM   12  C   UNL     1      -9.269   3.844  65.372  1.00  0.00    -0.151 C  
HETATM   13  O   UNL     1      -7.906   3.787  64.926  1.00  0.00    -0.084 OA 
HETATM   14  C   UNL     1      -8.584   5.044  64.779  1.00  0.00    -0.150 C  
ENDBRANCH  11  12
ENDBRANCH  10  11
ENDBRANCH   9  10
ENDBRANCH   2   4
BRANCH   2  15
HETATM   15  C   UNL     1     -11.698   9.168  71.102  1.00  0.00    -0.380 A  
HETATM   16  C   UNL     1     -12.890  11.303  71.267  1.00  0.00    -0.491 A  
HETATM   17  C   UNL     1     -12.078  11.869  70.289  1.00  0.00    -0.325 A  
HETATM   18  C   UNL     1     -12.694   9.978  71.674  1.00  0.00    -0.535 A  
HETATM   19  C   UNL     1     -10.905   9.754  70.094  1.00  0.00    -0.340 A  
HETATM   20  C   UNL     1     -11.094  11.085  69.696  1.00  0.00    -0.320 A  
BRANCH  17  21
HETATM   21  O   UNL     1     -12.159  13.158  69.836  1.00  0.00    -0.314 OA 
BRANCH  21  22
HETATM   22  C   UNL     1     -11.251  13.501  68.785  1.00  0.00    -0.274 C  
BRANCH  22  23
HETATM   23  C   UNL     1     -12.032  13.785  67.547  1.00  0.00    -0.376 C  
HETATM   24  C   UNL     1     -11.393  13.793  66.186  1.00  0.00    -0.314 C  
HETATM   25  O   UNL     1     -12.156  12.670  66.653  1.00  0.00    -0.519 OA 
ENDBRANCH  22  23
ENDBRANCH  21  22
ENDBRANCH  17  21
ENDBRANCH   2  15
TORSDOF 8
ENDMDL
MODEL       51
REMARK 921   NORMALIZED FREE ENERGY PREDICTED BY IDOCK:   -4.98 KCAL/MOL
REMARK 922        TOTAL FREE ENERGY PREDICTED BY IDOCK:   -8.48 KCAL/MOL
REMARK 923 INTER-LIGAND FREE ENERGY PREDICTED BY IDOCK:   -7.35 KCAL/MOL
REMARK 924 INTRA-LIGAND FREE ENERGY PREDICTED BY IDOCK:   -1.13 KCAL/MOL
REMARK 927      BINDING AFFINITY PREDICTED BY RF-SCORE:    0.00 PKD
ROOT
HETATM    1  C   UNL     1     -11.799  12.231  66.076  1.00  0.00    -0.409 C  
HETATM    2  C   UNL     1     -10.657  12.088  67.117  1.00  0.00    -0.255 C  
HETATM    3  C   UNL     1      -9.560  13.100  66.675  1.00  0.00    -0.260 C  
ENDROOT
BRANCH   2   4
HETATM    4  C   UNL     1     -10.053  10.654  67.083  1.00  0.00    -0.248 A  
HETATM    5  C   UNL     1     -10.814   9.523  66.722  1.00  0.00    -0.031 A  
HETATM    6  C   UNL     1     -10.238   8.248  66.654  1.00  0.00    -0.333 A  
HETATM    7  C   UNL     1      -8.700  10.436  67.402  1.00  0.00    -0.125 A  
HETATM    8  C   UNL     1      -8.120   9.165  67.302  1.00  0.00    -0.106 A  
HETATM    9  C   UNL     1      -8.888   8.063  66.947  1.00  0.00    -0.132 A  
BRANCH   9  10
HETATM   10  O   UNL     1      -8.438   6.773  66.862  1.00  0.00    -0.112 OA 
BRANCH  10  11
HETATM   11  C   UNL     1      -9.450   5.771  66.768  1.00  0.00    -0.143 C  
BRANCH  11  12
HETATM   12  C   UNL     1      -8.956   4.683  65.876  1.00  0.00    -0.127 C  
HETATM   13  O   UNL     1      -8.597   5.107  64.553  1.00  0.00    -0.144 OA 
HETATM   14  C   UNL     1      -9.738   4.242  64.670  1.00  0.00    -0.146 C  
ENDBRANCH  11  12
ENDBRANCH  10  11
ENDBRANCH   9  10
ENDBRANCH   2   4
BRANCH   2  15
HETATM   15  C   UNL     1     -11.273  12.469  68.487  1.00  0.00    -0.322 A  
HETATM   16  C   UNL     1     -12.228  11.806  70.644  1.00  0.00    -0.443 A  
HETATM   17  C   UNL     1     -12.601  13.118  70.919  1.00  0.00    -0.295 A  
HETATM   18  C   UNL     1     -11.565  11.490  69.452  1.00  0.00    -0.388 A  
HETATM   19  C   UNL     1     -11.683  13.786  68.774  1.00  0.00    -0.391 A  
HETATM   20  C   UNL     1     -12.337  14.103  69.974  1.00  0.00    -0.403 A  
BRANCH  17  21
HETATM   21  O   UNL     1     -13.224  13.545  72.060  1.00  0.00    -0.389 OA 
BRANCH  21  22
HETATM   22  C   UNL     1     -14.105  14.661  71.901  1.00  0.00    -0.516 C  
BRANCH  22  23
HETATM   23  C   UNL     1     -13.756  15.698  72.915  1.00  0.00    -0.545 C  
HETATM   24  C   UNL     1     -12.651  15.496  73.914  1.00  0.00    -0.629 C  
HETATM   25  O   UNL     1     -12.466  16.295  72.736  1.00  0.00    -0.454 OA 
ENDBRANCH  22  23
ENDBRANCH  21  22
ENDBRANCH  17  21
ENDBRANCH   2  15
TORSDOF 8
ENDMDL
MODEL       52
REMARK 921   NORMALIZED FREE ENERGY PREDICTED BY IDOCK:   -4.96 KCAL/MOL
REMARK 922        TOTAL FREE ENERGY PREDICTED BY IDOCK:   -8.45 KCAL/MOL
REMARK 923 INTER-LIGAND FREE ENERGY PREDICTED BY IDOCK:   -7.40 KCAL/MOL
REMARK 924 INTRA-LIGAND FREE ENERGY PREDICTED BY IDOCK:   -1.05 KCAL/MOL
REMARK 927      BINDING AFFINITY PREDICTED BY RF-SCORE:    0.00 PKD
ROOT
HETATM    1  C   UNL     1     -12.333   6.594  71.491  1.00  0.00    -0.365 C  
HETATM    2  C   UNL     1     -11.181   7.606  71.252  1.00  0.00    -0.277 C  
HETATM    3  C   UNL     1     -10.240   7.466  72.483  1.00  0.00    -0.261 C  
ENDROOT
BRANCH   2   4
HETATM    4  C   UNL     1     -11.725   9.064  71.204  1.00  0.00    -0.366 A  
HETATM    5  C   UNL     1     -12.739   9.519  72.071  1.00  0.00    -0.479 A  
HETATM    6  C   UNL     1     -13.182  10.848  72.042  1.00  0.00    -0.456 A  
HETATM    7  C   UNL     1     -11.201   9.996  70.290  1.00  0.00    -0.379 A  
HETATM    8  C   UNL     1     -11.623  11.331  70.286  1.00  0.00    -0.366 A  
HETATM    9  C   UNL     1     -12.627  11.760  71.146  1.00  0.00    -0.309 A  
BRANCH   9  10
HETATM   10  O   UNL     1     -13.145  13.026  71.196  1.00  0.00    -0.230 OA 
BRANCH  10  11
HETATM   11  C   UNL     1     -13.707  13.413  72.450  1.00  0.00    -0.597 C  
BRANCH  11  12
HETATM   12  C   UNL     1     -13.028  14.660  72.907  1.00  0.00    -0.497 C  
HETATM   13  O   UNL     1     -13.152  15.773  72.011  1.00  0.00    -0.445 OA 
HETATM   14  C   UNL     1     -11.838  15.217  72.177  1.00  0.00    -0.439 C  
ENDBRANCH  11  12
ENDBRANCH  10  11
ENDBRANCH   9  10
ENDBRANCH   2   4
BRANCH   2  15
HETATM   15  C   UNL     1     -10.484   7.161  69.941  1.00  0.00    -0.237 A  
HETATM   16  C   UNL     1      -8.529   7.179  68.464  1.00  0.00    -0.125 A  
HETATM   17  C   UNL     1      -9.245   6.543  67.455  1.00  0.00    -0.121 A  
HETATM   18  C   UNL     1      -9.137   7.472  69.691  1.00  0.00    -0.140 A  
HETATM   19  C   UNL     1     -11.197   6.541  68.896  1.00  0.00    -0.341 A  
HETATM   20  C   UNL     1     -10.584   6.237  67.672  1.00  0.00    -0.339 A  
BRANCH  17  21
HETATM   21  O   UNL     1      -8.747   6.182  66.232  1.00  0.00    -0.133 OA 
BRANCH  21  22
HETATM   22  C   UNL     1      -7.717   7.027  65.711  1.00  0.00    -0.103 C  
BRANCH  22  23
HETATM   23  C   UNL     1      -8.331   8.018  64.781  1.00  0.00    -0.077 C  
HETATM   24  C   UNL     1      -9.026   9.255  65.280  1.00  0.00    -0.213 C  
HETATM   25  O   UNL     1      -7.686   9.299  64.766  1.00  0.00    -0.105 OA 
ENDBRANCH  22  23
ENDBRANCH  21  22
ENDBRANCH  17  21
ENDBRANCH   2  15
TORSDOF 8
ENDMDL
MODEL       53
REMARK 921   NORMALIZED FREE ENERGY PREDICTED BY IDOCK:   -4.95 KCAL/MOL
REMARK 922        TOTAL FREE ENERGY PREDICTED BY IDOCK:   -8.44 KCAL/MOL
REMARK 923 INTER-LIGAND FREE ENERGY PREDICTED BY IDOCK:   -7.39 KCAL/MOL
REMARK 924 INTRA-LIGAND FREE ENERGY PREDICTED BY IDOCK:   -1.05 KCAL/MOL
REMARK 927      BINDING AFFINITY PREDICTED BY RF-SCORE:    0.00 PKD
ROOT
HETATM    1  C   UNL     1      -9.999  14.472  65.672  1.00  0.00    -0.376 C  
HETATM    2  C   UNL     1      -9.447  13.655  66.871  1.00  0.00    -0.263 C  
HETATM    3  C   UNL     1      -8.039  14.248  67.166  1.00  0.00    -0.154 C  
ENDROOT
BRANCH   2   4
HETATM    4  C   UNL     1      -9.285  12.155  66.491  1.00  0.00    -0.216 A  
HETATM    5  C   UNL     1      -8.230  11.361  66.986  1.00  0.00    -0.160 A  
HETATM    6  C   UNL     1      -8.129  10.001  66.668  1.00  0.00    -0.118 A  
HETATM    7  C   UNL     1     -10.212  11.524  65.641  1.00  0.00    -0.292 A  
HETATM    8  C   UNL     1     -10.127  10.157  65.352  1.00  0.00    -0.342 A  
HETATM    9  C   UNL     1      -9.076   9.393  65.846  1.00  0.00    -0.195 A  
BRANCH   9  10
HETATM   10  O   UNL     1      -8.871   8.064  65.592  1.00  0.00    -0.156 OA 
BRANCH  10  11
HETATM   11  C   UNL     1      -8.390   7.292  66.693  1.00  0.00    -0.121 C  
BRANCH  11  12
HETATM   12  C   UNL     1      -9.436   6.296  67.063  1.00  0.00    -0.131 C  
HETATM   13  O   UNL     1     -10.192   5.780  65.959  1.00  0.00    -0.038 OA 
HETATM   14  C   UNL     1     -10.900   6.599  66.903  1.00  0.00    -0.345 C  
ENDBRANCH  11  12
ENDBRANCH  10  11
ENDBRANCH   9  10
ENDBRANCH   2   4
BRANCH   2  15
HETATM   15  C   UNL     1     -10.431  13.896  68.043  1.00  0.00    -0.243 A  
HETATM   16  C   UNL     1     -11.970  13.020  69.737  1.00  0.00    -0.377 A  
HETATM   17  C   UNL     1     -12.401  14.304  70.056  1.00  0.00    -0.346 A  
HETATM   18  C   UNL     1     -10.993  12.822  68.755  1.00  0.00    -0.289 A  
HETATM   19  C   UNL     1     -10.901  15.185  68.364  1.00  0.00    -0.255 A  
HETATM   20  C   UNL     1     -11.871  15.384  69.357  1.00  0.00    -0.372 A  
BRANCH  17  21
HETATM   21  O   UNL     1     -13.325  14.618  71.016  1.00  0.00    -0.374 OA 
BRANCH  21  22
HETATM   22  C   UNL     1     -13.077  15.826  71.740  1.00  0.00    -0.416 C  
BRANCH  22  23
HETATM   23  C   UNL     1     -13.402  15.600  73.179  1.00  0.00    -0.558 C  
HETATM   24  C   UNL     1     -12.364  15.149  74.168  1.00  0.00    -0.569 C  
HETATM   25  O   UNL     1     -12.776  16.522  74.081  1.00  0.00    -0.683 OA 
ENDBRANCH  22  23
ENDBRANCH  21  22
ENDBRANCH  17  21
ENDBRANCH   2  15
TORSDOF 8
ENDMDL
MODEL       54
REMARK 921   NORMALIZED FREE ENERGY PREDICTED BY IDOCK:   -4.95 KCAL/MOL
REMARK 922        TOTAL FREE ENERGY PREDICTED BY IDOCK:   -8.44 KCAL/MOL
REMARK 923 INTER-LIGAND FREE ENERGY PREDICTED BY IDOCK:   -7.90 KCAL/MOL
REMARK 924 INTRA-LIGAND FREE ENERGY PREDICTED BY IDOCK:   -0.53 KCAL/MOL
REMARK 927      BINDING AFFINITY PREDICTED BY RF-SCORE:    0.00 PKD
ROOT
HETATM    1  C   UNL     1     -12.296  14.658  72.727  1.00  0.00    -0.321 C  
HETATM    2  C   UNL     1     -12.858  14.149  71.373  1.00  0.00    -0.428 C  
HETATM    3  C   UNL     1     -14.377  14.493  71.396  1.00  0.00    -0.409 C  
ENDROOT
BRANCH   2   4
HETATM    4  C   UNL     1     -12.699  12.606  71.251  1.00  0.00    -0.354 A  
HETATM    5  C   UNL     1     -11.844  12.008  70.302  1.00  0.00    -0.356 A  
HETATM    6  C   UNL     1     -11.681  10.619  70.239  1.00  0.00    -0.433 A  
HETATM    7  C   UNL     1     -13.402  11.741  72.109  1.00  0.00    -0.334 A  
HETATM    8  C   UNL     1     -13.212  10.354  72.065  1.00  0.00    -0.497 A  
HETATM    9  C   UNL     1     -12.368   9.784  71.120  1.00  0.00    -0.359 A  
BRANCH   9  10
HETATM   10  O   UNL     1     -12.143   8.444  70.959  1.00  0.00    -0.279 OA 
BRANCH  10  11
HETATM   11  C   UNL     1     -11.088   8.099  70.060  1.00  0.00    -0.146 C  
BRANCH  11  12
HETATM   12  C   UNL     1     -11.276   6.683  69.634  1.00  0.00    -0.340 C  
HETATM   13  O   UNL     1     -10.060   5.955  69.413  1.00  0.00    -0.173 OA 
HETATM   14  C   UNL     1     -10.877   6.217  68.261  1.00  0.00    -0.306 C  
ENDBRANCH  11  12
ENDBRANCH  10  11
ENDBRANCH   9  10
ENDBRANCH   2   4
BRANCH   2  15
HETATM   15  C   UNL     1     -12.106  14.939  70.272  1.00  0.00    -0.379 A  
HETATM   16  C   UNL     1     -10.816  16.901  69.572  1.00  0.00    -0.144 A  
HETATM   17  C   UNL     1     -10.899  16.520  68.236  1.00  0.00    -0.352 A  
HETATM   18  C   UNL     1     -11.401  16.116  70.573  1.00  0.00    -0.392 A  
HETATM   19  C   UNL     1     -12.200  14.586  68.911  1.00  0.00    -0.194 A  
HETATM   20  C   UNL     1     -11.604  15.366  67.910  1.00  0.00    -0.267 A  
BRANCH  17  21
HETATM   21  O   UNL     1     -10.343  17.191  67.181  1.00  0.00    -0.303 OA 
BRANCH  21  22
HETATM   22  C   UNL     1      -9.748  16.369  66.172  1.00  0.00    -0.327 C  
BRANCH  22  23
HETATM   23  C   UNL     1      -8.271  16.343  66.381  1.00  0.00    -0.331 C  
HETATM   24  C   UNL     1      -7.404  17.535  66.085  1.00  0.00    -0.311 C  
HETATM   25  O   UNL     1      -7.803  17.208  67.425  1.00  0.00    -0.167 OA 
ENDBRANCH  22  23
ENDBRANCH  21  22
ENDBRANCH  17  21
ENDBRANCH   2  15
TORSDOF 8
ENDMDL
MODEL       55
REMARK 921   NORMALIZED FREE ENERGY PREDICTED BY IDOCK:   -4.95 KCAL/MOL
REMARK 922        TOTAL FREE ENERGY PREDICTED BY IDOCK:   -8.43 KCAL/MOL
REMARK 923 INTER-LIGAND FREE ENERGY PREDICTED BY IDOCK:   -7.31 KCAL/MOL
REMARK 924 INTRA-LIGAND FREE ENERGY PREDICTED BY IDOCK:   -1.12 KCAL/MOL
REMARK 927      BINDING AFFINITY PREDICTED BY RF-SCORE:    0.00 PKD
ROOT
HETATM    1  C   UNL     1     -10.350  10.908  65.177  1.00  0.00    -0.344 C  
HETATM    2  C   UNL     1      -9.676  11.029  66.570  1.00  0.00    -0.230 C  
HETATM    3  C   UNL     1      -8.149  11.137  66.287  1.00  0.00    -0.142 C  
ENDROOT
BRANCH   2   4
HETATM    4  C   UNL     1      -9.935   9.754  67.424  1.00  0.00    -0.239 A  
HETATM    5  C   UNL     1      -9.792   9.743  68.826  1.00  0.00    -0.176 A  
HETATM    6  C   UNL     1     -10.074   8.596  69.580  1.00  0.00    -0.203 A  
HETATM    7  C   UNL     1     -10.343   8.553  66.815  1.00  0.00    -0.346 A  
HETATM    8  C   UNL     1     -10.655   7.418  67.575  1.00  0.00    -0.340 A  
HETATM    9  C   UNL     1     -10.504   7.426  68.956  1.00  0.00    -0.210 A  
BRANCH   9  10
HETATM   10  O   UNL     1     -10.737   6.365  69.789  1.00  0.00    -0.228 OA 
BRANCH  10  11
HETATM   11  C   UNL     1     -10.130   6.448  71.078  1.00  0.00    -0.182 C  
BRANCH  11  12
HETATM   12  C   UNL     1     -11.195   6.300  72.111  1.00  0.00    -0.282 C  
HETATM   13  O   UNL     1     -10.749   6.475  73.464  1.00  0.00    -0.285 OA 
HETATM   14  C   UNL     1     -11.186   5.158  73.090  1.00  0.00    -0.330 C  
ENDBRANCH  11  12
ENDBRANCH  10  11
ENDBRANCH   9  10
ENDBRANCH   2   4
BRANCH   2  15
HETATM   15  C   UNL     1     -10.236  12.326  67.208  1.00  0.00    -0.222 A  
HETATM   16  C   UNL     1      -9.879  14.406  68.452  1.00  0.00    -0.234 A  
HETATM   17  C   UNL     1     -11.250  14.608  68.573  1.00  0.00    -0.271 A  
HETATM   18  C   UNL     1      -9.381  13.289  67.771  1.00  0.00    -0.209 A  
HETATM   19  C   UNL     1     -11.621  12.536  67.365  1.00  0.00    -0.434 A  
HETATM   20  C   UNL     1     -12.118  13.662  68.037  1.00  0.00    -0.309 A  
BRANCH  17  21
HETATM   21  O   UNL     1     -11.846  15.675  69.189  1.00  0.00    -0.363 OA 
BRANCH  21  22
HETATM   22  C   UNL     1     -12.572  15.372  70.383  1.00  0.00    -0.389 C  
BRANCH  22  23
HETATM   23  C   UNL     1     -11.868  15.989  71.544  1.00  0.00    -0.486 C  
HETATM   24  C   UNL     1     -12.485  16.042  72.914  1.00  0.00    -0.497 C  
HETATM   25  O   UNL     1     -11.491  15.064  72.572  1.00  0.00    -0.357 OA 
ENDBRANCH  22  23
ENDBRANCH  21  22
ENDBRANCH  17  21
ENDBRANCH   2  15
TORSDOF 8
ENDMDL
MODEL       56
REMARK 921   NORMALIZED FREE ENERGY PREDICTED BY IDOCK:   -4.93 KCAL/MOL
REMARK 922        TOTAL FREE ENERGY PREDICTED BY IDOCK:   -8.41 KCAL/MOL
REMARK 923 INTER-LIGAND FREE ENERGY PREDICTED BY IDOCK:   -7.19 KCAL/MOL
REMARK 924 INTRA-LIGAND FREE ENERGY PREDICTED BY IDOCK:   -1.22 KCAL/MOL
REMARK 927      BINDING AFFINITY PREDICTED BY RF-SCORE:    0.00 PKD
ROOT
HETATM    1  C   UNL     1     -12.990   7.140  71.495  1.00  0.00    -0.431 C  
HETATM    2  C   UNL     1     -11.586   7.795  71.395  1.00  0.00    -0.305 C  
HETATM    3  C   UNL     1     -11.024   7.799  72.846  1.00  0.00    -0.467 C  
ENDROOT
BRANCH   2   4
HETATM    4  C   UNL     1     -11.694   9.266  70.898  1.00  0.00    -0.360 A  
HETATM    5  C   UNL     1     -10.957   9.746  69.796  1.00  0.00    -0.287 A  
HETATM    6  C   UNL     1     -11.104  11.061  69.337  1.00  0.00    -0.320 A  
HETATM    7  C   UNL     1     -12.558  10.176  71.533  1.00  0.00    -0.537 A  
HETATM    8  C   UNL     1     -12.727  11.481  71.052  1.00  0.00    -0.426 A  
HETATM    9  C   UNL     1     -11.988  11.937  69.966  1.00  0.00    -0.332 A  
BRANCH   9  10
HETATM   10  O   UNL     1     -12.040  13.200  69.442  1.00  0.00    -0.292 OA 
BRANCH  10  11
HETATM   11  C   UNL     1     -11.195  13.436  68.316  1.00  0.00    -0.279 C  
BRANCH  11  12
HETATM   12  C   UNL     1     -12.052  13.792  67.149  1.00  0.00    -0.378 C  
HETATM   13  O   UNL     1     -12.410  12.688  66.306  1.00  0.00    -0.550 OA 
HETATM   14  C   UNL     1     -11.543  13.683  65.739  1.00  0.00    -0.333 C  
ENDBRANCH  11  12
ENDBRANCH  10  11
ENDBRANCH   9  10
ENDBRANCH   2   4
BRANCH   2  15
HETATM   15  C   UNL     1     -10.753   6.884  70.458  1.00  0.00    -0.267 A  
HETATM   16  C   UNL     1      -8.593   5.952  69.773  1.00  0.00    -0.129 A  
HETATM   17  C   UNL     1      -9.159   5.392  68.632  1.00  0.00    -0.115 A  
HETATM   18  C   UNL     1      -9.380   6.676  70.676  1.00  0.00    -0.164 A  
HETATM   19  C   UNL     1     -11.300   6.331  69.283  1.00  0.00    -0.411 A  
HETATM   20  C   UNL     1     -10.513   5.596  68.385  1.00  0.00    -0.263 A  
BRANCH  17  21
HETATM   21  O   UNL     1      -8.495   4.643  67.699  1.00  0.00    -0.103 OA 
BRANCH  21  22
HETATM   22  C   UNL     1      -8.784   4.958  66.334  1.00  0.00    -0.113 C  
BRANCH  22  23
HETATM   23  C   UNL     1      -7.952   6.126  65.923  1.00  0.00    -0.112 C  
HETATM   24  C   UNL     1      -8.041   6.722  64.546  1.00  0.00    -0.070 C  
HETATM   25  O   UNL     1      -8.695   7.326  65.672  1.00  0.00    -0.143 OA 
ENDBRANCH  22  23
ENDBRANCH  21  22
ENDBRANCH  17  21
ENDBRANCH   2  15
TORSDOF 8
ENDMDL
MODEL       57
REMARK 921   NORMALIZED FREE ENERGY PREDICTED BY IDOCK:   -4.91 KCAL/MOL
REMARK 922        TOTAL FREE ENERGY PREDICTED BY IDOCK:   -8.37 KCAL/MOL
REMARK 923 INTER-LIGAND FREE ENERGY PREDICTED BY IDOCK:   -7.19 KCAL/MOL
REMARK 924 INTRA-LIGAND FREE ENERGY PREDICTED BY IDOCK:   -1.18 KCAL/MOL
REMARK 927      BINDING AFFINITY PREDICTED BY RF-SCORE:    0.00 PKD
ROOT
HETATM    1  C   UNL     1      -8.190  11.069  66.167  1.00  0.00    -0.155 C  
HETATM    2  C   UNL     1      -9.728  10.985  66.357  1.00  0.00    -0.235 C  
HETATM    3  C   UNL     1     -10.318  10.847  64.923  1.00  0.00    -0.371 C  
ENDROOT
BRANCH   2   4
HETATM    4  C   UNL     1     -10.280  12.291  66.999  1.00  0.00    -0.230 A  
HETATM    5  C   UNL     1     -11.661  12.544  67.125  1.00  0.00    -0.425 A  
HETATM    6  C   UNL     1     -12.137  13.705  67.747  1.00  0.00    -0.325 A  
HETATM    7  C   UNL     1      -9.404  13.271  67.499  1.00  0.00    -0.218 A  
HETATM    8  C   UNL     1      -9.883  14.415  68.150  1.00  0.00    -0.223 A  
HETATM    9  C   UNL     1     -11.248  14.649  68.260  1.00  0.00    -0.285 A  
BRANCH   9  10
HETATM   10  O   UNL     1     -11.824  15.750  68.834  1.00  0.00    -0.393 OA 
BRANCH  10  11
HETATM   11  C   UNL     1     -11.280  16.144  70.094  1.00  0.00    -0.370 C  
BRANCH  11  12
HETATM   12  C   UNL     1     -12.210  15.695  71.170  1.00  0.00    -0.413 C  
HETATM   13  O   UNL     1     -12.155  16.472  72.375  1.00  0.00    -0.473 OA 
HETATM   14  C   UNL     1     -11.697  15.113  72.458  1.00  0.00    -0.375 C  
ENDBRANCH  11  12
ENDBRANCH  10  11
ENDBRANCH   9  10
ENDBRANCH   2   4
BRANCH   2  15
HETATM   15  C   UNL     1      -9.987   9.717  67.210  1.00  0.00    -0.242 A  
HETATM   16  C   UNL     1      -9.726   8.481  69.309  1.00  0.00    -0.173 A  
HETATM   17  C   UNL     1     -10.256   7.330  68.735  1.00  0.00    -0.182 A  
HETATM   18  C   UNL     1      -9.605   9.658  68.561  1.00  0.00    -0.152 A  
HETATM   19  C   UNL     1     -10.496   8.533  66.642  1.00  0.00    -0.235 A  
HETATM   20  C   UNL     1     -10.628   7.358  67.395  1.00  0.00    -0.371 A  
BRANCH  17  21
HETATM   21  O   UNL     1     -10.449   6.136  69.377  1.00  0.00    -0.205 OA 
BRANCH  21  22
HETATM   22  C   UNL     1     -10.034   6.098  70.745  1.00  0.00    -0.189 C  
BRANCH  22  23
HETATM   23  C   UNL     1     -11.246   6.101  71.616  1.00  0.00    -0.286 C  
HETATM   24  C   UNL     1     -11.800   7.368  72.204  1.00  0.00    -0.286 C  
HETATM   25  O   UNL     1     -12.386   6.756  71.045  1.00  0.00    -0.378 OA 
ENDBRANCH  22  23
ENDBRANCH  21  22
ENDBRANCH  17  21
ENDBRANCH   2  15
TORSDOF 8
ENDMDL
MODEL       58
REMARK 921   NORMALIZED FREE ENERGY PREDICTED BY IDOCK:   -4.90 KCAL/MOL
REMARK 922        TOTAL FREE ENERGY PREDICTED BY IDOCK:   -8.35 KCAL/MOL
REMARK 923 INTER-LIGAND FREE ENERGY PREDICTED BY IDOCK:   -7.28 KCAL/MOL
REMARK 924 INTRA-LIGAND FREE ENERGY PREDICTED BY IDOCK:   -1.07 KCAL/MOL
REMARK 927      BINDING AFFINITY PREDICTED BY RF-SCORE:    0.00 PKD
ROOT
HETATM    1  C   UNL     1     -12.093  12.632  67.598  1.00  0.00    -0.166 C  
HETATM    2  C   UNL     1     -11.682  13.344  66.281  1.00  0.00    -0.405 C  
HETATM    3  C   UNL     1     -13.009  13.871  65.661  1.00  0.00    -0.361 C  
ENDROOT
BRANCH   2   4
HETATM    4  C   UNL     1     -11.032  12.338  65.287  1.00  0.00    -0.347 A  
HETATM    5  C   UNL     1     -11.162  12.470  63.889  1.00  0.00    -0.496 A  
HETATM    6  C   UNL     1     -10.531  11.580  63.011  1.00  0.00    -0.255 A  
HETATM    7  C   UNL     1     -10.267  11.256  65.757  1.00  0.00    -0.301 A  
HETATM    8  C   UNL     1      -9.611  10.387  64.876  1.00  0.00    -0.348 A  
HETATM    9  C   UNL     1      -9.755  10.531  63.501  1.00  0.00    -0.319 A  
BRANCH   9  10
HETATM   10  O   UNL     1      -9.197   9.716  62.553  1.00  0.00    -0.281 OA 
BRANCH  10  11
HETATM   11  C   UNL     1      -8.272   8.744  63.042  1.00  0.00    -0.188 C  
BRANCH  11  12
HETATM   12  C   UNL     1      -6.953   8.978  62.388  1.00  0.00    -0.091 C  
HETATM   13  O   UNL     1      -5.817   8.808  63.247  1.00  0.00    -0.076 OA 
HETATM   14  C   UNL     1      -6.080  10.139  62.774  1.00  0.00    -0.131 C  
ENDBRANCH  11  12
ENDBRANCH  10  11
ENDBRANCH   9  10
ENDBRANCH   2   4
BRANCH   2  15
HETATM   15  C   UNL     1     -10.740  14.503  66.695  1.00  0.00    -0.305 A  
HETATM   16  C   UNL     1     -10.181  16.348  68.207  1.00  0.00    -0.255 A  
HETATM   17  C   UNL     1      -9.154  16.769  67.367  1.00  0.00    -0.216 A  
HETATM   18  C   UNL     1     -10.953  15.227  67.881  1.00  0.00    -0.306 A  
HETATM   19  C   UNL     1      -9.713  14.962  65.847  1.00  0.00    -0.366 A  
HETATM   20  C   UNL     1      -8.933  16.079  66.180  1.00  0.00    -0.381 A  
BRANCH  17  21
HETATM   21  O   UNL     1      -8.320  17.829  67.599  1.00  0.00    -0.223 OA 
BRANCH  21  22
HETATM   22  C   UNL     1      -8.176  18.749  66.514  1.00  0.00    -0.291 C  
BRANCH  22  23
HETATM   23  C   UNL     1      -9.007  19.956  66.792  1.00  0.00    -0.360 C  
HETATM   24  C   UNL     1     -10.508  19.894  66.844  1.00  0.00    -0.450 C  
HETATM   25  O   UNL     1      -9.713  19.917  68.039  1.00  0.00    -0.365 OA 
ENDBRANCH  22  23
ENDBRANCH  21  22
ENDBRANCH  17  21
ENDBRANCH   2  15
TORSDOF 8
ENDMDL
MODEL       59
REMARK 921   NORMALIZED FREE ENERGY PREDICTED BY IDOCK:   -4.89 KCAL/MOL
REMARK 922        TOTAL FREE ENERGY PREDICTED BY IDOCK:   -8.34 KCAL/MOL
REMARK 923 INTER-LIGAND FREE ENERGY PREDICTED BY IDOCK:   -7.25 KCAL/MOL
REMARK 924 INTRA-LIGAND FREE ENERGY PREDICTED BY IDOCK:   -1.08 KCAL/MOL
REMARK 927      BINDING AFFINITY PREDICTED BY RF-SCORE:    0.00 PKD
ROOT
HETATM    1  C   UNL     1     -10.302   9.949  66.846  1.00  0.00    -0.300 C  
HETATM    2  C   UNL     1      -9.739  10.731  68.063  1.00  0.00    -0.174 C  
HETATM    3  C   UNL     1      -8.190  10.623  67.948  1.00  0.00    -0.112 C  
ENDROOT
BRANCH   2   4
HETATM    4  C   UNL     1     -10.186  10.071  69.401  1.00  0.00    -0.239 A  
HETATM    5  C   UNL     1     -11.531  10.055  69.821  1.00  0.00    -0.240 A  
HETATM    6  C   UNL     1     -11.918   9.415  71.006  1.00  0.00    -0.389 A  
HETATM    7  C   UNL     1      -9.247   9.444  70.241  1.00  0.00    -0.285 A  
HETATM    8  C   UNL     1      -9.642   8.778  71.408  1.00  0.00    -0.337 A  
HETATM    9  C   UNL     1     -10.973   8.777  71.807  1.00  0.00    -0.345 A  
BRANCH   9  10
HETATM   10  O   UNL     1     -11.461   8.198  72.947  1.00  0.00    -0.389 OA 
BRANCH  10  11
HETATM   11  C   UNL     1     -10.722   7.078  73.435  1.00  0.00    -0.345 C  
BRANCH  11  12
HETATM   12  C   UNL     1     -11.289   5.839  72.829  1.00  0.00    -0.282 C  
HETATM   13  O   UNL     1     -10.671   4.619  73.264  1.00  0.00    -0.197 OA 
HETATM   14  C   UNL     1     -10.484   4.987  71.887  1.00  0.00    -0.187 C  
ENDBRANCH  11  12
ENDBRANCH  10  11
ENDBRANCH   9  10
ENDBRANCH   2   4
BRANCH   2  15
HETATM   15  C   UNL     1     -10.229  12.192  67.899  1.00  0.00    -0.203 A  
HETATM   16  C   UNL     1     -11.828  13.805  66.980  1.00  0.00    -0.445 A  
HETATM   17  C   UNL     1     -11.040  14.873  67.398  1.00  0.00    -0.325 A  
HETATM   18  C   UNL     1     -11.433  12.487  67.237  1.00  0.00    -0.416 A  
HETATM   19  C   UNL     1      -9.434  13.288  68.290  1.00  0.00    -0.209 A  
HETATM   20  C   UNL     1      -9.836  14.608  68.042  1.00  0.00    -0.216 A  
BRANCH  17  21
HETATM   21  O   UNL     1     -11.341  16.198  67.228  1.00  0.00    -0.084 OA 
BRANCH  21  22
HETATM   22  C   UNL     1     -10.246  17.104  67.390  1.00  0.00    -0.321 C  
BRANCH  22  23
HETATM   23  C   UNL     1     -10.380  18.205  66.392  1.00  0.00    -0.394 C  
HETATM   24  C   UNL     1     -10.505  19.644  66.805  1.00  0.00    -0.490 C  
HETATM   25  O   UNL     1      -9.261  19.099  66.339  1.00  0.00    -0.330 OA 
ENDBRANCH  22  23
ENDBRANCH  21  22
ENDBRANCH  17  21
ENDBRANCH   2  15
TORSDOF 8
ENDMDL
MODEL       60
REMARK 921   NORMALIZED FREE ENERGY PREDICTED BY IDOCK:   -4.88 KCAL/MOL
REMARK 922        TOTAL FREE ENERGY PREDICTED BY IDOCK:   -8.33 KCAL/MOL
REMARK 923 INTER-LIGAND FREE ENERGY PREDICTED BY IDOCK:   -7.08 KCAL/MOL
REMARK 924 INTRA-LIGAND FREE ENERGY PREDICTED BY IDOCK:   -1.25 KCAL/MOL
REMARK 927      BINDING AFFINITY PREDICTED BY RF-SCORE:    0.00 PKD
ROOT
HETATM    1  C   UNL     1      -8.552   8.247  66.876  1.00  0.00    -0.122 C  
HETATM    2  C   UNL     1      -9.000   9.395  67.820  1.00  0.00    -0.127 C  
HETATM    3  C   UNL     1      -7.700  10.175  68.173  1.00  0.00    -0.088 C  
ENDROOT
BRANCH   2   4
HETATM    4  C   UNL     1      -9.611   8.826  69.133  1.00  0.00    -0.162 A  
HETATM    5  C   UNL     1      -9.264   9.327  70.405  1.00  0.00    -0.291 A  
HETATM    6  C   UNL     1      -9.861   8.831  71.572  1.00  0.00    -0.371 A  
HETATM    7  C   UNL     1     -10.558   7.787  69.094  1.00  0.00    -0.193 A  
HETATM    8  C   UNL     1     -11.176   7.316  70.259  1.00  0.00    -0.287 A  
HETATM    9  C   UNL     1     -10.818   7.820  71.504  1.00  0.00    -0.227 A  
BRANCH   9  10
HETATM   10  O   UNL     1     -11.323   7.404  72.706  1.00  0.00    -0.321 OA 
BRANCH  10  11
HETATM   11  C   UNL     1     -10.360   6.936  73.650  1.00  0.00    -0.365 C  
BRANCH  11  12
HETATM   12  C   UNL     1     -10.067   5.504  73.354  1.00  0.00    -0.186 C  
HETATM   13  O   UNL     1     -11.224   4.662  73.251  1.00  0.00    -0.295 OA 
HETATM   14  C   UNL     1     -10.344   4.422  74.361  1.00  0.00    -0.253 C  
ENDBRANCH  11  12
ENDBRANCH  10  11
ENDBRANCH   9  10
ENDBRANCH   2   4
BRANCH   2  15
HETATM   15  C   UNL     1      -9.989  10.263  67.001  1.00  0.00    -0.249 A  
HETATM   16  C   UNL     1     -10.739  11.174  64.854  1.00  0.00    -0.318 A  
HETATM   17  C   UNL     1     -11.650  12.012  65.490  1.00  0.00    -0.293 A  
HETATM   18  C   UNL     1      -9.931  10.306  65.598  1.00  0.00    -0.347 A  
HETATM   19  C   UNL     1     -10.899  11.139  67.626  1.00  0.00    -0.295 A  
HETATM   20  C   UNL     1     -11.716  12.000  66.880  1.00  0.00    -0.342 A  
BRANCH  17  21
HETATM   21  O   UNL     1     -12.508  12.876  64.865  1.00  0.00    -0.457 OA 
BRANCH  21  22
HETATM   22  C   UNL     1     -12.420  14.242  65.282  1.00  0.00    -0.421 C  
BRANCH  22  23
HETATM   23  C   UNL     1     -11.179  14.840  64.712  1.00  0.00    -0.385 C  
HETATM   24  C   UNL     1     -10.707  16.214  65.099  1.00  0.00    -0.371 C  
HETATM   25  O   UNL     1     -10.121  15.031  65.661  1.00  0.00    -0.312 OA 
ENDBRANCH  22  23
ENDBRANCH  21  22
ENDBRANCH  17  21
ENDBRANCH   2  15
TORSDOF 8
ENDMDL
MODEL       61
REMARK 921   NORMALIZED FREE ENERGY PREDICTED BY IDOCK:   -4.88 KCAL/MOL
REMARK 922        TOTAL FREE ENERGY PREDICTED BY IDOCK:   -8.33 KCAL/MOL
REMARK 923 INTER-LIGAND FREE ENERGY PREDICTED BY IDOCK:   -7.04 KCAL/MOL
REMARK 924 INTRA-LIGAND FREE ENERGY PREDICTED BY IDOCK:   -1.29 KCAL/MOL
REMARK 927      BINDING AFFINITY PREDICTED BY RF-SCORE:    0.00 PKD
ROOT
HETATM    1  C   UNL     1     -12.012  15.956  69.017  1.00  0.00    -0.243 C  
HETATM    2  C   UNL     1     -10.630  15.626  68.392  1.00  0.00    -0.252 C  
HETATM    3  C   UNL     1      -9.880  14.781  69.463  1.00  0.00    -0.003 C  
ENDROOT
BRANCH   2   4
HETATM    4  C   UNL     1      -9.818  16.927  68.126  1.00  0.00    -0.264 A  
HETATM    5  C   UNL     1     -10.396  18.069  67.534  1.00  0.00    -0.394 A  
HETATM    6  C   UNL     1      -9.659  19.245  67.345  1.00  0.00    -0.389 A  
HETATM    7  C   UNL     1      -8.462  17.014  68.488  1.00  0.00    -0.257 A  
HETATM    8  C   UNL     1      -7.737  18.202  68.328  1.00  0.00    -0.291 A  
HETATM    9  C   UNL     1      -8.324  19.315  67.739  1.00  0.00    -0.300 A  
BRANCH   9  10
HETATM   10  O   UNL     1      -7.699  20.508  67.493  1.00  0.00    -0.319 OA 
BRANCH  10  11
HETATM   11  C   UNL     1      -7.487  20.822  66.117  1.00  0.00     0.128 C  
BRANCH  11  12
HETATM   12  C   UNL     1      -6.147  20.305  65.716  1.00  0.00    -0.199 C  
HETATM   13  O   UNL     1      -5.859  20.402  64.314  1.00  0.00    -0.220 OA 
HETATM   14  C   UNL     1      -6.003  19.079  64.857  1.00  0.00    -0.283 C  
ENDBRANCH  11  12
ENDBRANCH  10  11
ENDBRANCH   9  10
ENDBRANCH   2   4
BRANCH   2  15
HETATM   15  C   UNL     1     -10.922  14.805  67.112  1.00  0.00    -0.320 A  
HETATM   16  C   UNL     1     -12.223  13.091  65.939  1.00  0.00    -0.493 A  
HETATM   17  C   UNL     1     -11.354  13.128  64.853  1.00  0.00    -0.309 A  
HETATM   18  C   UNL     1     -12.016  13.924  67.044  1.00  0.00    -0.459 A  
HETATM   19  C   UNL     1     -10.041  14.807  66.012  1.00  0.00    -0.327 A  
HETATM   20  C   UNL     1     -10.256  13.980  64.900  1.00  0.00    -0.377 A  
BRANCH  17  21
HETATM   21  O   UNL     1     -11.475  12.383  63.710  1.00  0.00    -0.389 OA 
BRANCH  21  22
HETATM   22  C   UNL     1     -10.275  11.755  63.254  1.00  0.00    -0.416 C  
BRANCH  22  23
HETATM   23  C   UNL     1     -10.084  10.479  64.002  1.00  0.00    -0.251 C  
HETATM   24  C   UNL     1      -8.873   9.611  63.802  1.00  0.00    -0.231 C  
HETATM   25  O   UNL     1      -8.991  10.492  64.930  1.00  0.00    -0.182 OA 
ENDBRANCH  22  23
ENDBRANCH  21  22
ENDBRANCH  17  21
ENDBRANCH   2  15
TORSDOF 8
ENDMDL
MODEL       62
REMARK 921   NORMALIZED FREE ENERGY PREDICTED BY IDOCK:   -4.87 KCAL/MOL
REMARK 922        TOTAL FREE ENERGY PREDICTED BY IDOCK:   -8.32 KCAL/MOL
REMARK 923 INTER-LIGAND FREE ENERGY PREDICTED BY IDOCK:   -7.23 KCAL/MOL
REMARK 924 INTRA-LIGAND FREE ENERGY PREDICTED BY IDOCK:   -1.09 KCAL/MOL
REMARK 927      BINDING AFFINITY PREDICTED BY RF-SCORE:    0.00 PKD
ROOT
HETATM    1  C   UNL     1      -8.341  10.886  67.042  1.00  0.00    -0.132 C  
HETATM    2  C   UNL     1      -9.875  11.117  67.090  1.00  0.00    -0.212 C  
HETATM    3  C   UNL     1     -10.401  10.718  65.680  1.00  0.00    -0.297 C  
ENDROOT
BRANCH   2   4
HETATM    4  C   UNL     1     -10.203  12.618  67.337  1.00  0.00    -0.219 A  
HETATM    5  C   UNL     1     -11.465  13.173  67.042  1.00  0.00    -0.379 A  
HETATM    6  C   UNL     1     -11.753  14.517  67.315  1.00  0.00    -0.429 A  
HETATM    7  C   UNL     1      -9.239  13.482  67.889  1.00  0.00    -0.211 A  
HETATM    8  C   UNL     1      -9.541  14.816  68.191  1.00  0.00    -0.209 A  
HETATM    9  C   UNL     1     -10.790  15.346  67.888  1.00  0.00    -0.300 A  
BRANCH   9  10
HETATM   10  O   UNL     1     -11.176  16.642  68.098  1.00  0.00    -0.339 OA 
BRANCH  10  11
HETATM   11  C   UNL     1     -10.311  17.417  68.928  1.00  0.00    -0.340 C  
BRANCH  11  12
HETATM   12  C   UNL     1      -9.787  18.559  68.126  1.00  0.00    -0.346 C  
HETATM   13  O   UNL     1     -10.289  19.846  68.513  1.00  0.00    -0.448 OA 
HETATM   14  C   UNL     1     -10.682  19.359  67.220  1.00  0.00    -0.490 C  
ENDBRANCH  11  12
ENDBRANCH  10  11
ENDBRANCH   9  10
ENDBRANCH   2   4
BRANCH   2  15
HETATM   15  C   UNL     1     -10.417  10.174  68.194  1.00  0.00    -0.243 A  
HETATM   16  C   UNL     1     -11.254   9.832  70.472  1.00  0.00    -0.381 A  
HETATM   17  C   UNL     1     -11.215   8.450  70.314  1.00  0.00    -0.173 A  
HETATM   18  C   UNL     1     -10.872  10.679  69.424  1.00  0.00    -0.289 A  
HETATM   19  C   UNL     1     -10.361   8.772  68.065  1.00  0.00    -0.273 A  
HETATM   20  C   UNL     1     -10.755   7.925  69.111  1.00  0.00    -0.130 A  
BRANCH  17  21
HETATM   21  O   UNL     1     -11.592   7.531  71.255  1.00  0.00    -0.267 OA 
BRANCH  21  22
HETATM   22  C   UNL     1     -11.596   7.997  72.607  1.00  0.00    -0.387 C  
BRANCH  22  23
HETATM   23  C   UNL     1     -10.728   7.105  73.428  1.00  0.00    -0.368 C  
HETATM   24  C   UNL     1      -9.621   6.291  72.818  1.00  0.00    -0.154 C  
HETATM   25  O   UNL     1      -9.358   7.521  73.511  1.00  0.00    -0.215 OA 
ENDBRANCH  22  23
ENDBRANCH  21  22
ENDBRANCH  17  21
ENDBRANCH   2  15
TORSDOF 8
ENDMDL
MODEL       63
REMARK 921   NORMALIZED FREE ENERGY PREDICTED BY IDOCK:   -4.84 KCAL/MOL
REMARK 922        TOTAL FREE ENERGY PREDICTED BY IDOCK:   -8.28 KCAL/MOL
REMARK 923 INTER-LIGAND FREE ENERGY PREDICTED BY IDOCK:   -7.09 KCAL/MOL
REMARK 924 INTRA-LIGAND FREE ENERGY PREDICTED BY IDOCK:   -1.18 KCAL/MOL
REMARK 927      BINDING AFFINITY PREDICTED BY RF-SCORE:    0.00 PKD
ROOT
HETATM    1  C   UNL     1      -8.147   6.853  64.697  1.00  0.00    -0.082 C  
HETATM    2  C   UNL     1      -8.321   7.985  65.745  1.00  0.00    -0.142 C  
HETATM    3  C   UNL     1      -6.877   8.384  66.169  1.00  0.00    -0.065 C  
ENDROOT
BRANCH   2   4
HETATM    4  C   UNL     1      -9.083   7.467  66.999  1.00  0.00    -0.155 A  
HETATM    5  C   UNL     1     -10.287   6.740  66.903  1.00  0.00    -0.324 A  
HETATM    6  C   UNL     1     -10.933   6.243  68.043  1.00  0.00    -0.418 A  
HETATM    7  C   UNL     1      -8.578   7.696  68.292  1.00  0.00    -0.124 A  
HETATM    8  C   UNL     1      -9.209   7.171  69.427  1.00  0.00    -0.148 A  
HETATM    9  C   UNL     1     -10.398   6.460  69.311  1.00  0.00    -0.207 A  
BRANCH   9  10
HETATM   10  O   UNL     1     -11.120   5.942  70.352  1.00  0.00    -0.315 OA 
BRANCH  10  11
HETATM   11  C   UNL     1     -12.242   6.719  70.772  1.00  0.00    -0.297 C  
BRANCH  11  12
HETATM   12  C   UNL     1     -12.126   6.961  72.238  1.00  0.00    -0.176 C  
HETATM   13  O   UNL     1     -12.113   8.344  72.620  1.00  0.00    -0.390 OA 
HETATM   14  C   UNL     1     -10.903   7.601  72.834  1.00  0.00    -0.389 C  
ENDBRANCH  11  12
ENDBRANCH  10  11
ENDBRANCH   9  10
ENDBRANCH   2   4
BRANCH   2  15
HETATM   15  C   UNL     1      -9.047   9.141  65.012  1.00  0.00    -0.215 A  
HETATM   16  C   UNL     1      -9.346  10.536  63.020  1.00  0.00    -0.343 A  
HETATM   17  C   UNL     1     -10.204  11.390  63.707  1.00  0.00    -0.382 A  
HETATM   18  C   UNL     1      -8.786   9.425  63.661  1.00  0.00    -0.222 A  
HETATM   19  C   UNL     1      -9.898  10.033  65.695  1.00  0.00    -0.363 A  
HETATM   20  C   UNL     1     -10.467  11.140  65.050  1.00  0.00    -0.357 A  
BRANCH  17  21
HETATM   21  O   UNL     1     -10.830  12.485  63.176  1.00  0.00    -0.326 OA 
BRANCH  21  22
HETATM   22  C   UNL     1     -12.069  12.846  63.792  1.00  0.00    -0.508 C  
BRANCH  22  23
HETATM   23  C   UNL     1     -11.981  14.260  64.259  1.00  0.00    -0.425 C  
HETATM   24  C   UNL     1     -11.637  14.609  65.680  1.00  0.00    -0.328 C  
HETATM   25  O   UNL     1     -10.661  14.682  64.629  1.00  0.00    -0.393 OA 
ENDBRANCH  22  23
ENDBRANCH  21  22
ENDBRANCH  17  21
ENDBRANCH   2  15
TORSDOF 8
ENDMDL
MODEL       64
REMARK 921   NORMALIZED FREE ENERGY PREDICTED BY IDOCK:   -4.81 KCAL/MOL
REMARK 922        TOTAL FREE ENERGY PREDICTED BY IDOCK:   -8.22 KCAL/MOL
REMARK 923 INTER-LIGAND FREE ENERGY PREDICTED BY IDOCK:   -7.23 KCAL/MOL
REMARK 924 INTRA-LIGAND FREE ENERGY PREDICTED BY IDOCK:   -1.00 KCAL/MOL
REMARK 927      BINDING AFFINITY PREDICTED BY RF-SCORE:    0.00 PKD
ROOT
HETATM    1  C   UNL     1     -12.474  13.054  65.547  1.00  0.00    -0.496 C  
HETATM    2  C   UNL     1     -11.264  12.977  66.516  1.00  0.00    -0.335 C  
HETATM    3  C   UNL     1     -11.877  12.953  67.947  1.00  0.00    -0.388 C  
ENDROOT
BRANCH   2   4
HETATM    4  C   UNL     1     -10.365  14.240  66.381  1.00  0.00    -0.287 A  
HETATM    5  C   UNL     1     -10.733  15.348  65.591  1.00  0.00    -0.381 A  
HETATM    6  C   UNL     1      -9.930  16.493  65.520  1.00  0.00    -0.137 A  
HETATM    7  C   UNL     1      -9.140  14.326  67.069  1.00  0.00    -0.246 A  
HETATM    8  C   UNL     1      -8.356  15.486  67.021  1.00  0.00    -0.265 A  
HETATM    9  C   UNL     1      -8.735  16.566  66.233  1.00  0.00    -0.333 A  
BRANCH   9  10
HETATM   10  O   UNL     1      -8.025  17.726  66.079  1.00  0.00    -0.473 OA 
BRANCH  10  11
HETATM   11  C   UNL     1      -8.301  18.750  67.034  1.00  0.00    -0.272 C  
BRANCH  11  12
HETATM   12  C   UNL     1      -9.309  19.681  66.450  1.00  0.00    -0.387 C  
HETATM   13  O   UNL     1      -9.876  20.614  67.381  1.00  0.00    -0.464 OA 
HETATM   14  C   UNL     1     -10.759  19.616  66.845  1.00  0.00    -0.453 C  
ENDBRANCH  11  12
ENDBRANCH  10  11
ENDBRANCH   9  10
ENDBRANCH   2   4
BRANCH   2  15
HETATM   15  C   UNL     1     -10.529  11.654  66.182  1.00  0.00    -0.289 A  
HETATM   16  C   UNL     1      -9.371  10.217  64.571  1.00  0.00    -0.345 A  
HETATM   17  C   UNL     1      -9.363   9.157  65.473  1.00  0.00    -0.221 A  
HETATM   18  C   UNL     1      -9.935  11.448  64.926  1.00  0.00    -0.311 A  
HETATM   19  C   UNL     1     -10.534  10.559  67.070  1.00  0.00    -0.304 A  
HETATM   20  C   UNL     1      -9.959   9.330  66.718  1.00  0.00    -0.312 A  
BRANCH  17  21
HETATM   21  O   UNL     1      -8.816   7.923  65.246  1.00  0.00    -0.070 OA 
BRANCH  21  22
HETATM   22  C   UNL     1      -7.911   7.456  66.250  1.00  0.00    -0.106 C  
BRANCH  22  23
HETATM   23  C   UNL     1      -8.305   6.074  66.648  1.00  0.00    -0.111 C  
HETATM   24  C   UNL     1      -8.871   5.768  68.007  1.00  0.00    -0.109 C  
HETATM   25  O   UNL     1      -9.713   5.891  66.850  1.00  0.00    -0.133 OA 
ENDBRANCH  22  23
ENDBRANCH  21  22
ENDBRANCH  17  21
ENDBRANCH   2  15
TORSDOF 8
ENDMDL
MODEL       65
REMARK 921   NORMALIZED FREE ENERGY PREDICTED BY IDOCK:   -4.78 KCAL/MOL
REMARK 922        TOTAL FREE ENERGY PREDICTED BY IDOCK:   -8.18 KCAL/MOL
REMARK 923 INTER-LIGAND FREE ENERGY PREDICTED BY IDOCK:   -7.11 KCAL/MOL
REMARK 924 INTRA-LIGAND FREE ENERGY PREDICTED BY IDOCK:   -1.07 KCAL/MOL
REMARK 927      BINDING AFFINITY PREDICTED BY RF-SCORE:    0.00 PKD
ROOT
HETATM    1  C   UNL     1      -8.354   6.347  67.278  1.00  0.00    -0.112 C  
HETATM    2  C   UNL     1      -9.772   6.904  67.569  1.00  0.00    -0.162 C  
HETATM    3  C   UNL     1     -10.752   5.983  66.784  1.00  0.00    -0.374 C  
ENDROOT
BRANCH   2   4
HETATM    4  C   UNL     1      -9.918   8.358  67.031  1.00  0.00    -0.323 A  
HETATM    5  C   UNL     1      -9.450   8.741  65.757  1.00  0.00    -0.239 A  
HETATM    6  C   UNL     1      -9.632  10.043  65.274  1.00  0.00    -0.355 A  
HETATM    7  C   UNL     1     -10.548   9.350  67.804  1.00  0.00    -0.317 A  
HETATM    8  C   UNL     1     -10.757  10.642  67.305  1.00  0.00    -0.338 A  
HETATM    9  C   UNL     1     -10.284  11.001  66.048  1.00  0.00    -0.252 A  
BRANCH   9  10
HETATM   10  O   UNL     1     -10.394  12.242  65.482  1.00  0.00    -0.254 OA 
BRANCH  10  11
HETATM   11  C   UNL     1     -11.566  12.461  64.696  1.00  0.00    -0.343 C  
BRANCH  11  12
HETATM   12  C   UNL     1     -12.166  13.765  65.098  1.00  0.00    -0.431 C  
HETATM   13  O   UNL     1     -12.567  14.604  64.005  1.00  0.00    -0.819 OA 
HETATM   14  C   UNL     1     -11.473  15.069  64.812  1.00  0.00    -0.403 C  
ENDBRANCH  11  12
ENDBRANCH  10  11
ENDBRANCH   9  10
ENDBRANCH   2   4
BRANCH   2  15
HETATM   15  C   UNL     1      -9.974   6.787  69.101  1.00  0.00    -0.166 A  
HETATM   16  C   UNL     1      -9.047   6.759  71.368  1.00  0.00    -0.142 A  
HETATM   17  C   UNL     1     -10.272   6.367  71.900  1.00  0.00    -0.195 A  
HETATM   18  C   UNL     1      -8.905   6.977  69.993  1.00  0.00    -0.142 A  
HETATM   19  C   UNL     1     -11.198   6.365  69.657  1.00  0.00    -0.483 A  
HETATM   20  C   UNL     1     -11.342   6.159  71.036  1.00  0.00    -0.348 A  
BRANCH  17  21
HETATM   21  O   UNL     1     -10.533   6.156  73.227  1.00  0.00    -0.214 OA 
BRANCH  21  22
HETATM   22  C   UNL     1     -11.097   4.882  73.549  1.00  0.00    -0.332 C  
BRANCH  22  23
HETATM   23  C   UNL     1     -10.066   4.063  74.251  1.00  0.00    -0.172 C  
HETATM   24  C   UNL     1      -9.787   2.637  73.868  1.00  0.00    -0.098 C  
HETATM   25  O   UNL     1      -8.935   3.711  73.443  1.00  0.00    -0.094 OA 
ENDBRANCH  22  23
ENDBRANCH  21  22
ENDBRANCH  17  21
ENDBRANCH   2  15
TORSDOF 8
ENDMDL
MODEL       66
REMARK 921   NORMALIZED FREE ENERGY PREDICTED BY IDOCK:   -4.78 KCAL/MOL
REMARK 922        TOTAL FREE ENERGY PREDICTED BY IDOCK:   -8.18 KCAL/MOL
REMARK 923 INTER-LIGAND FREE ENERGY PREDICTED BY IDOCK:   -7.05 KCAL/MOL
REMARK 924 INTRA-LIGAND FREE ENERGY PREDICTED BY IDOCK:   -1.12 KCAL/MOL
REMARK 927      BINDING AFFINITY PREDICTED BY RF-SCORE:    0.00 PKD
ROOT
HETATM    1  C   UNL     1     -12.065  13.564  68.103  1.00  0.00    -0.290 C  
HETATM    2  C   UNL     1     -11.520  13.312  66.672  1.00  0.00    -0.384 C  
HETATM    3  C   UNL     1     -12.734  13.523  65.721  1.00  0.00    -0.433 C  
ENDROOT
BRANCH   2   4
HETATM    4  C   UNL     1     -11.018  11.847  66.520  1.00  0.00    -0.337 A  
HETATM    5  C   UNL     1     -10.512  11.346  65.303  1.00  0.00    -0.340 A  
HETATM    6  C   UNL     1     -10.022  10.037  65.200  1.00  0.00    -0.350 A  
HETATM    7  C   UNL     1     -11.036  10.964  67.615  1.00  0.00    -0.376 A  
HETATM    8  C   UNL     1     -10.516   9.667  67.517  1.00  0.00    -0.321 A  
HETATM    9  C   UNL     1     -10.025   9.191  66.307  1.00  0.00    -0.282 A  
BRANCH   9  10
HETATM   10  O   UNL     1      -9.536   7.931  66.088  1.00  0.00    -0.169 OA 
BRANCH  10  11
HETATM   11  C   UNL     1      -9.635   7.030  67.191  1.00  0.00    -0.149 C  
BRANCH  11  12
HETATM   12  C   UNL     1     -10.397   5.827  66.749  1.00  0.00    -0.256 C  
HETATM   13  O   UNL     1      -9.917   4.583  67.280  1.00  0.00    -0.188 OA 
HETATM   14  C   UNL     1      -9.772   4.783  65.865  1.00  0.00    -0.193 C  
ENDBRANCH  11  12
ENDBRANCH  10  11
ENDBRANCH   9  10
ENDBRANCH   2   4
BRANCH   2  15
HETATM   15  C   UNL     1     -10.416  14.374  66.440  1.00  0.00    -0.295 A  
HETATM   16  C   UNL     1      -8.151  15.209  66.862  1.00  0.00    -0.194 A  
HETATM   17  C   UNL     1      -8.436  16.405  66.210  1.00  0.00    -0.337 A  
HETATM   18  C   UNL     1      -9.123  14.206  66.965  1.00  0.00    -0.255 A  
HETATM   19  C   UNL     1     -10.690  15.602  65.807  1.00  0.00    -0.350 A  
HETATM   20  C   UNL     1      -9.712  16.602  65.694  1.00  0.00    -0.086 A  
BRANCH  17  21
HETATM   21  O   UNL     1      -7.558  17.439  66.024  1.00  0.00    -0.407 OA 
BRANCH  21  22
HETATM   22  C   UNL     1      -7.937  18.684  66.617  1.00  0.00    -0.265 C  
BRANCH  22  23
HETATM   23  C   UNL     1      -7.579  18.657  68.065  1.00  0.00    -0.260 C  
HETATM   24  C   UNL     1      -6.163  18.827  68.539  1.00  0.00    -0.221 C  
HETATM   25  O   UNL     1      -7.108  19.907  68.584  1.00  0.00    -0.318 OA 
ENDBRANCH  22  23
ENDBRANCH  21  22
ENDBRANCH  17  21
ENDBRANCH   2  15
TORSDOF 8
ENDMDL
MODEL       67
REMARK 921   NORMALIZED FREE ENERGY PREDICTED BY IDOCK:   -4.77 KCAL/MOL
REMARK 922        TOTAL FREE ENERGY PREDICTED BY IDOCK:   -8.16 KCAL/MOL
REMARK 923 INTER-LIGAND FREE ENERGY PREDICTED BY IDOCK:   -6.86 KCAL/MOL
REMARK 924 INTRA-LIGAND FREE ENERGY PREDICTED BY IDOCK:   -1.30 KCAL/MOL
REMARK 927      BINDING AFFINITY PREDICTED BY RF-SCORE:    0.00 PKD
ROOT
HETATM    1  C   UNL     1     -12.650  13.372  65.414  1.00  0.00    -0.528 C  
HETATM    2  C   UNL     1     -11.310  12.939  66.067  1.00  0.00    -0.354 C  
HETATM    3  C   UNL     1     -11.689  12.391  67.474  1.00  0.00    -0.425 C  
ENDROOT
BRANCH   2   4
HETATM    4  C   UNL     1     -10.362  14.160  66.247  1.00  0.00    -0.294 A  
HETATM    5  C   UNL     1      -9.112  14.055  66.893  1.00  0.00    -0.262 A  
HETATM    6  C   UNL     1      -8.254  15.157  67.004  1.00  0.00    -0.262 A  
HETATM    7  C   UNL     1     -10.718  15.426  65.750  1.00  0.00    -0.360 A  
HETATM    8  C   UNL     1      -9.844  16.517  65.834  1.00  0.00    -0.324 A  
HETATM    9  C   UNL     1      -8.618  16.395  66.478  1.00  0.00    -0.294 A  
BRANCH   9  10
HETATM   10  O   UNL     1      -7.709  17.402  66.656  1.00  0.00    -0.212 OA 
BRANCH  10  11
HETATM   11  C   UNL     1      -8.242  18.634  67.143  1.00  0.00    -0.252 C  
BRANCH  11  12
HETATM   12  C   UNL     1      -7.948  18.731  68.602  1.00  0.00    -0.336 C  
HETATM   13  O   UNL     1      -7.211  19.899  68.990  1.00  0.00    -0.320 OA 
HETATM   14  C   UNL     1      -6.543  18.634  69.128  1.00  0.00    -0.270 C  
ENDBRANCH  11  12
ENDBRANCH  10  11
ENDBRANCH   9  10
ENDBRANCH   2   4
BRANCH   2  15
HETATM   15  C   UNL     1     -10.726  11.830  65.155  1.00  0.00    -0.343 A  
HETATM   16  C   UNL     1      -9.633   9.653  64.895  1.00  0.00    -0.244 A  
HETATM   17  C   UNL     1      -9.455   9.868  63.532  1.00  0.00    -0.083 A  
HETATM   18  C   UNL     1     -10.268  10.614  65.690  1.00  0.00    -0.319 A  
HETATM   19  C   UNL     1     -10.512  12.039  63.778  1.00  0.00    -0.469 A  
HETATM   20  C   UNL     1      -9.886  11.070  62.980  1.00  0.00    -0.370 A  
BRANCH  17  21
HETATM   21  O   UNL     1      -8.877   8.990  62.655  1.00  0.00    -0.212 OA 
BRANCH  21  22
HETATM   22  C   UNL     1      -7.448   8.935  62.689  1.00  0.00    -0.101 C  
BRANCH  22  23
HETATM   23  C   UNL     1      -7.025   7.520  62.890  1.00  0.00    -0.072 C  
HETATM   24  C   UNL     1      -7.038   6.869  64.245  1.00  0.00    -0.058 C  
HETATM   25  O   UNL     1      -8.080   6.634  63.287  1.00  0.00    -0.103 OA 
ENDBRANCH  22  23
ENDBRANCH  21  22
ENDBRANCH  17  21
ENDBRANCH   2  15
TORSDOF 8
ENDMDL
MODEL       68
REMARK 921   NORMALIZED FREE ENERGY PREDICTED BY IDOCK:   -4.70 KCAL/MOL
REMARK 922        TOTAL FREE ENERGY PREDICTED BY IDOCK:   -8.07 KCAL/MOL
REMARK 923 INTER-LIGAND FREE ENERGY PREDICTED BY IDOCK:   -7.55 KCAL/MOL
REMARK 924 INTRA-LIGAND FREE ENERGY PREDICTED BY IDOCK:   -0.52 KCAL/MOL
REMARK 927      BINDING AFFINITY PREDICTED BY RF-SCORE:    0.00 PKD
ROOT
HETATM    1  C   UNL     1      -8.163  10.947  66.941  1.00  0.00    -0.135 C  
HETATM    2  C   UNL     1      -9.572  11.586  66.825  1.00  0.00    -0.203 C  
HETATM    3  C   UNL     1     -10.228  10.927  65.576  1.00  0.00    -0.332 C  
ENDROOT
BRANCH   2   4
HETATM    4  C   UNL     1      -9.467  13.120  66.581  1.00  0.00    -0.260 A  
HETATM    5  C   UNL     1      -8.563  13.936  67.291  1.00  0.00    -0.221 A  
HETATM    6  C   UNL     1      -8.453  15.307  67.023  1.00  0.00    -0.258 A  
HETATM    7  C   UNL     1     -10.273  13.750  65.615  1.00  0.00    -0.326 A  
HETATM    8  C   UNL     1     -10.137  15.114  65.328  1.00  0.00    -0.365 A  
HETATM    9  C   UNL     1      -9.242  15.903  66.042  1.00  0.00    -0.337 A  
BRANCH   9  10
HETATM   10  O   UNL     1      -9.060  17.249  65.875  1.00  0.00    -0.516 OA 
BRANCH  10  11
HETATM   11  C   UNL     1      -9.065  18.025  67.074  1.00  0.00    -0.258 C  
BRANCH  11  12
HETATM   12  C   UNL     1      -9.614  19.375  66.759  1.00  0.00    -0.346 C  
HETATM   13  O   UNL     1     -10.975  19.581  67.164  1.00  0.00    -0.492 OA 
HETATM   14  C   UNL     1     -10.715  19.560  65.751  1.00  0.00    -0.393 C  
ENDBRANCH  11  12
ENDBRANCH  10  11
ENDBRANCH   9  10
ENDBRANCH   2   4
BRANCH   2  15
HETATM   15  C   UNL     1     -10.321  11.216  68.130  1.00  0.00    -0.207 A  
HETATM   16  C   UNL     1     -10.403  10.010  70.261  1.00  0.00    -0.301 A  
HETATM   17  C   UNL     1     -11.743  10.344  70.436  1.00  0.00    -0.331 A  
HETATM   18  C   UNL     1      -9.702  10.449  69.132  1.00  0.00    -0.234 A  
HETATM   19  C   UNL     1     -11.684  11.521  68.315  1.00  0.00    -0.371 A  
HETATM   20  C   UNL     1     -12.382  11.090  69.452  1.00  0.00    -0.222 A  
BRANCH  17  21
HETATM   21  O   UNL     1     -12.516   9.997  71.511  1.00  0.00    -0.360 OA 
BRANCH  21  22
HETATM   22  C   UNL     1     -13.598  10.884  71.805  1.00  0.00    -0.021 C  
BRANCH  22  23
HETATM   23  C   UNL     1     -13.047  12.243  72.074  1.00  0.00    -0.355 C  
HETATM   24  C   UNL     1     -13.661  13.483  71.485  1.00  0.00    -0.182 C  
HETATM   25  O   UNL     1     -13.908  13.093  72.844  1.00  0.00    -0.518 OA 
ENDBRANCH  22  23
ENDBRANCH  21  22
ENDBRANCH  17  21
ENDBRANCH   2  15
TORSDOF 8
ENDMDL
MODEL       69
REMARK 921   NORMALIZED FREE ENERGY PREDICTED BY IDOCK:   -4.70 KCAL/MOL
REMARK 922        TOTAL FREE ENERGY PREDICTED BY IDOCK:   -8.07 KCAL/MOL
REMARK 923 INTER-LIGAND FREE ENERGY PREDICTED BY IDOCK:   -7.00 KCAL/MOL
REMARK 924 INTRA-LIGAND FREE ENERGY PREDICTED BY IDOCK:   -1.07 KCAL/MOL
REMARK 927      BINDING AFFINITY PREDICTED BY RF-SCORE:    0.00 PKD
ROOT
HETATM    1  C   UNL     1      -8.049  10.826  65.441  1.00  0.00    -0.050 C  
HETATM    2  C   UNL     1      -9.554  10.969  65.794  1.00  0.00    -0.260 C  
HETATM    3  C   UNL     1     -10.324  10.597  64.493  1.00  0.00    -0.352 C  
ENDROOT
BRANCH   2   4
HETATM    4  C   UNL     1      -9.898  12.438  66.173  1.00  0.00    -0.263 A  
HETATM    5  C   UNL     1      -8.932  13.332  66.680  1.00  0.00    -0.137 A  
HETATM    6  C   UNL     1      -9.252  14.664  66.972  1.00  0.00    -0.252 A  
HETATM    7  C   UNL     1     -11.202  12.938  66.004  1.00  0.00    -0.325 A  
HETATM    8  C   UNL     1     -11.511  14.278  66.267  1.00  0.00    -0.360 A  
HETATM    9  C   UNL     1     -10.546  15.142  66.770  1.00  0.00    -0.298 A  
BRANCH   9  10
HETATM   10  O   UNL     1     -10.748  16.455  67.102  1.00  0.00    -0.307 OA 
BRANCH  10  11
HETATM   11  C   UNL     1      -9.827  17.385  66.530  1.00  0.00    -0.304 C  
BRANCH  11  12
HETATM   12  C   UNL     1     -10.581  18.606  66.125  1.00  0.00    -0.363 C  
HETATM   13  O   UNL     1      -9.783  19.792  66.004  1.00  0.00    -0.400 OA 
HETATM   14  C   UNL     1     -10.754  19.768  67.063  1.00  0.00    -0.418 C  
ENDBRANCH  11  12
ENDBRANCH  10  11
ENDBRANCH   9  10
ENDBRANCH   2   4
BRANCH   2  15
HETATM   15  C   UNL     1      -9.826   9.954  66.933  1.00  0.00    -0.252 A  
HETATM   16  C   UNL     1     -10.497   7.715  67.668  1.00  0.00    -0.313 A  
HETATM   17  C   UNL     1     -10.538   8.127  68.996  1.00  0.00    -0.151 A  
HETATM   18  C   UNL     1     -10.135   8.612  66.655  1.00  0.00    -0.364 A  
HETATM   19  C   UNL     1      -9.899  10.357  68.282  1.00  0.00    -0.169 A  
HETATM   20  C   UNL     1     -10.250   9.455  69.296  1.00  0.00    -0.209 A  
BRANCH  17  21
HETATM   21  O   UNL     1     -10.848   7.333  70.067  1.00  0.00    -0.244 OA 
BRANCH  21  22
HETATM   22  C   UNL     1     -10.684   7.938  71.352  1.00  0.00    -0.224 C  
BRANCH  22  23
HETATM   23  C   UNL     1     -11.941   7.754  72.135  1.00  0.00    -0.317 C  
HETATM   24  C   UNL     1     -13.237   7.366  71.480  1.00  0.00    -0.372 C  
HETATM   25  O   UNL     1     -12.425   6.405  72.173  1.00  0.00    -0.291 OA 
ENDBRANCH  22  23
ENDBRANCH  21  22
ENDBRANCH  17  21
ENDBRANCH   2  15
TORSDOF 8
ENDMDL
MODEL       70
REMARK 921   NORMALIZED FREE ENERGY PREDICTED BY IDOCK:   -4.70 KCAL/MOL
REMARK 922        TOTAL FREE ENERGY PREDICTED BY IDOCK:   -8.06 KCAL/MOL
REMARK 923 INTER-LIGAND FREE ENERGY PREDICTED BY IDOCK:   -6.86 KCAL/MOL
REMARK 924 INTRA-LIGAND FREE ENERGY PREDICTED BY IDOCK:   -1.20 KCAL/MOL
REMARK 927      BINDING AFFINITY PREDICTED BY RF-SCORE:    0.00 PKD
ROOT
HETATM    1  C   UNL     1     -11.322   8.937  70.666  1.00  0.00    -0.299 C  
HETATM    2  C   UNL     1     -10.166   9.137  69.650  1.00  0.00    -0.211 C  
HETATM    3  C   UNL     1      -8.883   9.325  70.511  1.00  0.00    -0.285 C  
ENDROOT
BRANCH   2   4
HETATM    4  C   UNL     1     -10.389  10.422  68.801  1.00  0.00    -0.213 A  
HETATM    5  C   UNL     1     -11.641  11.065  68.722  1.00  0.00    -0.386 A  
HETATM    6  C   UNL     1     -11.809  12.247  67.988  1.00  0.00    -0.368 A  
HETATM    7  C   UNL     1      -9.327  11.004  68.086  1.00  0.00    -0.173 A  
HETATM    8  C   UNL     1      -9.491  12.203  67.381  1.00  0.00    -0.179 A  
HETATM    9  C   UNL     1     -10.734  12.820  67.311  1.00  0.00    -0.237 A  
BRANCH   9  10
HETATM   10  O   UNL     1     -11.017  13.965  66.617  1.00  0.00    -0.297 OA 
BRANCH  10  11
HETATM   11  C   UNL     1     -10.650  13.956  65.237  1.00  0.00    -0.361 C  
BRANCH  11  12
HETATM   12  C   UNL     1     -11.894  14.034  64.418  1.00  0.00    -0.431 C  
HETATM   13  O   UNL     1     -12.874  13.029  64.716  1.00  0.00    -0.708 OA 
HETATM   14  C   UNL     1     -12.248  12.962  63.425  1.00  0.00    -0.490 C  
ENDBRANCH  11  12
ENDBRANCH  10  11
ENDBRANCH   9  10
ENDBRANCH   2   4
BRANCH   2  15
HETATM   15  C   UNL     1     -10.107   7.839  68.806  1.00  0.00    -0.205 A  
HETATM   16  C   UNL     1     -10.829   6.537  66.860  1.00  0.00    -0.427 A  
HETATM   17  C   UNL     1     -10.191   5.399  67.343  1.00  0.00    -0.201 A  
HETATM   18  C   UNL     1     -10.778   7.739  67.575  1.00  0.00    -0.265 A  
HETATM   19  C   UNL     1      -9.490   6.668  69.289  1.00  0.00    -0.141 A  
HETATM   20  C   UNL     1      -9.532   5.467  68.566  1.00  0.00    -0.156 A  
BRANCH  17  21
HETATM   21  O   UNL     1     -10.150   4.183  66.716  1.00  0.00    -0.182 OA 
BRANCH  21  22
HETATM   22  C   UNL     1      -8.886   3.820  66.155  1.00  0.00    -0.127 C  
BRANCH  22  23
HETATM   23  C   UNL     1      -9.098   3.342  64.758  1.00  0.00    -0.136 C  
HETATM   24  C   UNL     1     -10.384   3.587  64.019  1.00  0.00    -0.242 C  
HETATM   25  O   UNL     1      -9.216   4.388  63.783  1.00  0.00    -0.143 OA 
ENDBRANCH  22  23
ENDBRANCH  21  22
ENDBRANCH  17  21
ENDBRANCH   2  15
TORSDOF 8
ENDMDL
MODEL       71
REMARK 921   NORMALIZED FREE ENERGY PREDICTED BY IDOCK:   -4.66 KCAL/MOL
REMARK 922        TOTAL FREE ENERGY PREDICTED BY IDOCK:   -8.01 KCAL/MOL
REMARK 923 INTER-LIGAND FREE ENERGY PREDICTED BY IDOCK:   -6.87 KCAL/MOL
REMARK 924 INTRA-LIGAND FREE ENERGY PREDICTED BY IDOCK:   -1.14 KCAL/MOL
REMARK 927      BINDING AFFINITY PREDICTED BY RF-SCORE:    0.00 PKD
ROOT
HETATM    1  C   UNL     1     -12.411  13.954  66.245  1.00  0.00    -0.489 C  
HETATM    2  C   UNL     1     -11.307  13.655  67.295  1.00  0.00    -0.346 C  
HETATM    3  C   UNL     1     -12.002  13.796  68.681  1.00  0.00    -0.401 C  
ENDROOT
BRANCH   2   4
HETATM    4  C   UNL     1     -10.159  14.701  67.205  1.00  0.00    -0.236 A  
HETATM    5  C   UNL     1     -10.086  15.654  66.168  1.00  0.00    -0.333 A  
HETATM    6  C   UNL     1      -9.069  16.616  66.132  1.00  0.00    -0.318 A  
HETATM    7  C   UNL     1      -9.147  14.743  68.182  1.00  0.00    -0.180 A  
HETATM    8  C   UNL     1      -8.150  15.727  68.160  1.00  0.00    -0.140 A  
HETATM    9  C   UNL     1      -8.093  16.654  67.127  1.00  0.00    -0.182 A  
BRANCH   9  10
HETATM   10  O   UNL     1      -7.141  17.627  66.982  1.00  0.00    -0.165 OA 
BRANCH  10  11
HETATM   11  C   UNL     1      -7.614  18.886  66.503  1.00  0.00    -0.251 C  
BRANCH  11  12
HETATM   12  C   UNL     1      -7.565  19.867  67.626  1.00  0.00    -0.289 C  
HETATM   13  O   UNL     1      -7.627  21.243  67.225  1.00  0.00    -0.408 OA 
HETATM   14  C   UNL     1      -6.395  20.792  67.810  1.00  0.00    -0.322 C  
ENDBRANCH  11  12
ENDBRANCH  10  11
ENDBRANCH   9  10
ENDBRANCH   2   4
BRANCH   2  15
HETATM   15  C   UNL     1     -10.843  12.201  67.029  1.00  0.00    -0.289 A  
HETATM   16  C   UNL     1      -9.980  10.495  65.496  1.00  0.00    -0.342 A  
HETATM   17  C   UNL     1     -10.184   9.495  66.443  1.00  0.00    -0.232 A  
HETATM   18  C   UNL     1     -10.295  11.827  65.790  1.00  0.00    -0.293 A  
HETATM   19  C   UNL     1     -11.066  11.169  67.962  1.00  0.00    -0.334 A  
HETATM   20  C   UNL     1     -10.740   9.837  67.671  1.00  0.00    -0.334 A  
BRANCH  17  21
HETATM   21  O   UNL     1      -9.887   8.169  66.277  1.00  0.00    -0.213 OA 
BRANCH  21  22
HETATM   22  C   UNL     1     -10.681   7.258  67.041  1.00  0.00    -0.336 C  
BRANCH  22  23
HETATM   23  C   UNL     1      -9.912   5.995  67.237  1.00  0.00    -0.150 C  
HETATM   24  C   UNL     1      -9.647   5.041  66.106  1.00  0.00    -0.168 C  
HETATM   25  O   UNL     1      -8.646   5.961  66.566  1.00  0.00    -0.118 OA 
ENDBRANCH  22  23
ENDBRANCH  21  22
ENDBRANCH  17  21
ENDBRANCH   2  15
TORSDOF 8
ENDMDL
MODEL       72
REMARK 921   NORMALIZED FREE ENERGY PREDICTED BY IDOCK:   -4.62 KCAL/MOL
REMARK 922        TOTAL FREE ENERGY PREDICTED BY IDOCK:   -7.95 KCAL/MOL
REMARK 923 INTER-LIGAND FREE ENERGY PREDICTED BY IDOCK:   -6.78 KCAL/MOL
REMARK 924 INTRA-LIGAND FREE ENERGY PREDICTED BY IDOCK:   -1.18 KCAL/MOL
REMARK 927      BINDING AFFINITY PREDICTED BY RF-SCORE:    0.00 PKD
ROOT
HETATM    1  C   UNL     1     -12.019  15.861  68.366  1.00  0.00     0.023 C  
HETATM    2  C   UNL     1     -10.771  14.942  68.437  1.00  0.00    -0.245 C  
HETATM    3  C   UNL     1     -10.915  14.146  69.767  1.00  0.00    -0.068 C  
ENDROOT
BRANCH   2   4
HETATM    4  C   UNL     1      -9.464  15.786  68.501  1.00  0.00    -0.201 A  
HETATM    5  C   UNL     1      -9.302  16.981  67.771  1.00  0.00    -0.237 A  
HETATM    6  C   UNL     1      -8.135  17.749  67.878  1.00  0.00    -0.235 A  
HETATM    7  C   UNL     1      -8.390  15.386  69.317  1.00  0.00    -0.254 A  
HETATM    8  C   UNL     1      -7.239  16.172  69.446  1.00  0.00    -0.204 A  
HETATM    9  C   UNL     1      -7.096  17.345  68.715  1.00  0.00    -0.246 A  
BRANCH   9  10
HETATM   10  O   UNL     1      -6.000  18.165  68.731  1.00  0.00    -0.188 OA 
BRANCH  10  11
HETATM   11  C   UNL     1      -6.277  19.565  68.766  1.00  0.00    -0.249 C  
BRANCH  11  12
HETATM   12  C   UNL     1      -6.426  19.981  70.190  1.00  0.00    -0.289 C  
HETATM   13  O   UNL     1      -5.508  20.998  70.618  1.00  0.00    -0.557 OA 
HETATM   14  C   UNL     1      -5.355  19.696  71.207  1.00  0.00    -0.312 C  
ENDBRANCH  11  12
ENDBRANCH  10  11
ENDBRANCH   9  10
ENDBRANCH   2   4
BRANCH   2  15
HETATM   15  C   UNL     1     -10.849  14.014  67.199  1.00  0.00    -0.288 A  
HETATM   16  C   UNL     1     -12.177  12.822  65.519  1.00  0.00    -0.519 A  
HETATM   17  C   UNL     1     -11.050  12.147  65.061  1.00  0.00    -0.320 A  
HETATM   18  C   UNL     1     -12.074  13.749  66.564  1.00  0.00    -0.483 A  
HETATM   19  C   UNL     1      -9.726  13.299  66.736  1.00  0.00    -0.258 A  
HETATM   20  C   UNL     1      -9.828  12.380  65.682  1.00  0.00    -0.235 A  
BRANCH  17  21
HETATM   21  O   UNL     1     -11.027  11.245  64.031  1.00  0.00    -0.377 OA 
BRANCH  21  22
HETATM   22  C   UNL     1      -9.972  11.421  63.081  1.00  0.00    -0.372 C  
BRANCH  22  23
HETATM   23  C   UNL     1      -9.263  10.122  62.903  1.00  0.00    -0.296 C  
HETATM   24  C   UNL     1      -7.841   9.922  63.350  1.00  0.00    -0.152 C  
HETATM   25  O   UNL     1      -8.950   9.442  64.126  1.00  0.00    -0.214 OA 
ENDBRANCH  22  23
ENDBRANCH  21  22
ENDBRANCH  17  21
ENDBRANCH   2  15
TORSDOF 8
ENDMDL
MODEL       73
REMARK 921   NORMALIZED FREE ENERGY PREDICTED BY IDOCK:   -4.62 KCAL/MOL
REMARK 922        TOTAL FREE ENERGY PREDICTED BY IDOCK:   -7.95 KCAL/MOL
REMARK 923 INTER-LIGAND FREE ENERGY PREDICTED BY IDOCK:   -6.81 KCAL/MOL
REMARK 924 INTRA-LIGAND FREE ENERGY PREDICTED BY IDOCK:   -1.14 KCAL/MOL
REMARK 927      BINDING AFFINITY PREDICTED BY RF-SCORE:    0.00 PKD
ROOT
HETATM    1  C   UNL     1     -10.211  10.556  65.768  1.00  0.00    -0.310 C  
HETATM    2  C   UNL     1      -9.329  11.210  66.864  1.00  0.00    -0.189 C  
HETATM    3  C   UNL     1      -7.858  10.974  66.411  1.00  0.00    -0.150 C  
ENDROOT
BRANCH   2   4
HETATM    4  C   UNL     1      -9.544  10.511  68.238  1.00  0.00    -0.164 A  
HETATM    5  C   UNL     1      -8.479   9.955  68.977  1.00  0.00    -0.136 A  
HETATM    6  C   UNL     1      -8.689   9.372  70.233  1.00  0.00    -0.261 A  
HETATM    7  C   UNL     1     -10.828  10.424  68.807  1.00  0.00    -0.269 A  
HETATM    8  C   UNL     1     -11.029   9.869  70.077  1.00  0.00    -0.338 A  
HETATM    9  C   UNL     1      -9.967   9.323  70.787  1.00  0.00    -0.290 A  
BRANCH   9  10
HETATM   10  O   UNL     1     -10.056   8.718  72.012  1.00  0.00    -0.313 OA 
BRANCH  10  11
HETATM   11  C   UNL     1     -11.364   8.293  72.396  1.00  0.00    -0.388 C  
BRANCH  11  12
HETATM   12  C   UNL     1     -11.373   6.804  72.469  1.00  0.00    -0.254 C  
HETATM   13  O   UNL     1     -10.077   6.192  72.421  1.00  0.00    -0.177 OA 
HETATM   14  C   UNL     1     -10.947   5.958  71.301  1.00  0.00    -0.259 C  
ENDBRANCH  11  12
ENDBRANCH  10  11
ENDBRANCH   9  10
ENDBRANCH   2   4
BRANCH   2  15
HETATM   15  C   UNL     1      -9.695  12.715  66.870  1.00  0.00    -0.234 A  
HETATM   16  C   UNL     1      -9.206  15.017  67.554  1.00  0.00    -0.189 A  
HETATM   17  C   UNL     1     -10.441  15.453  67.085  1.00  0.00    -0.290 A  
HETATM   18  C   UNL     1      -8.836  13.672  67.438  1.00  0.00    -0.221 A  
HETATM   19  C   UNL     1     -10.951  13.174  66.425  1.00  0.00    -0.305 A  
HETATM   20  C   UNL     1     -11.316  14.524  66.531  1.00  0.00    -0.354 A  
BRANCH  17  21
HETATM   21  O   UNL     1     -10.895  16.744  67.118  1.00  0.00    -0.236 OA 
BRANCH  21  22
HETATM   22  C   UNL     1     -10.461  17.579  66.041  1.00  0.00    -0.274 C  
BRANCH  22  23
HETATM   23  C   UNL     1      -9.974  18.873  66.601  1.00  0.00    -0.373 C  
HETATM   24  C   UNL     1     -10.326  20.194  65.976  1.00  0.00    -0.372 C  
HETATM   25  O   UNL     1     -11.002  19.710  67.146  1.00  0.00    -0.467 OA 
ENDBRANCH  22  23
ENDBRANCH  21  22
ENDBRANCH  17  21
ENDBRANCH   2  15
TORSDOF 8
ENDMDL
MODEL       74
REMARK 921   NORMALIZED FREE ENERGY PREDICTED BY IDOCK:   -4.61 KCAL/MOL
REMARK 922        TOTAL FREE ENERGY PREDICTED BY IDOCK:   -7.93 KCAL/MOL
REMARK 923 INTER-LIGAND FREE ENERGY PREDICTED BY IDOCK:   -6.79 KCAL/MOL
REMARK 924 INTRA-LIGAND FREE ENERGY PREDICTED BY IDOCK:   -1.14 KCAL/MOL
REMARK 927      BINDING AFFINITY PREDICTED BY RF-SCORE:    0.00 PKD
ROOT
HETATM    1  C   UNL     1      -8.055   9.797  70.191  1.00  0.00    -0.202 C  
HETATM    2  C   UNL     1      -9.489   9.432  69.723  1.00  0.00    -0.216 C  
HETATM    3  C   UNL     1     -10.294   9.153  71.026  1.00  0.00    -0.363 C  
ENDROOT
BRANCH   2   4
HETATM    4  C   UNL     1      -9.478   8.137  68.859  1.00  0.00    -0.151 A  
HETATM    5  C   UNL     1     -10.382   7.932  67.796  1.00  0.00    -0.289 A  
HETATM    6  C   UNL     1     -10.324   6.779  67.002  1.00  0.00    -0.338 A  
HETATM    7  C   UNL     1      -8.538   7.119  69.102  1.00  0.00    -0.133 A  
HETATM    8  C   UNL     1      -8.462   5.984  68.286  1.00  0.00    -0.112 A  
HETATM    9  C   UNL     1      -9.365   5.798  67.246  1.00  0.00    -0.113 A  
BRANCH   9  10
HETATM   10  O   UNL     1      -9.410   4.710  66.417  1.00  0.00    -0.131 OA 
BRANCH  10  11
HETATM   11  C   UNL     1     -10.633   4.529  65.703  1.00  0.00    -0.194 C  
BRANCH  11  12
HETATM   12  C   UNL     1     -10.334   3.817  64.427  1.00  0.00    -0.227 C  
HETATM   13  O   UNL     1      -9.454   2.692  64.559  1.00  0.00    -0.143 OA 
HETATM   14  C   UNL     1      -8.955   3.824  63.830  1.00  0.00    -0.110 C  
ENDBRANCH  11  12
ENDBRANCH  10  11
ENDBRANCH   9  10
ENDBRANCH   2   4
BRANCH   2  15
HETATM   15  C   UNL     1     -10.026  10.675  68.970  1.00  0.00    -0.226 A  
HETATM   16  C   UNL     1     -11.887  12.144  68.352  1.00  0.00    -0.360 A  
HETATM   17  C   UNL     1     -11.091  12.822  67.435  1.00  0.00    -0.275 A  
HETATM   18  C   UNL     1     -11.359  11.095  69.115  1.00  0.00    -0.340 A  
HETATM   19  C   UNL     1      -9.245  11.359  68.017  1.00  0.00    -0.171 A  
HETATM   20  C   UNL     1      -9.772  12.417  67.262  1.00  0.00    -0.201 A  
BRANCH  17  21
HETATM   21  O   UNL     1     -11.491  13.878  66.661  1.00  0.00    -0.328 OA 
BRANCH  21  22
HETATM   22  C   UNL     1     -12.483  13.579  65.675  1.00  0.00    -0.479 C  
BRANCH  22  23
HETATM   23  C   UNL     1     -11.808  13.367  64.362  1.00  0.00    -0.408 C  
HETATM   24  C   UNL     1     -12.129  12.192  63.481  1.00  0.00    -0.550 C  
HETATM   25  O   UNL     1     -12.669  13.497  63.223  1.00  0.00    -0.726 OA 
ENDBRANCH  22  23
ENDBRANCH  21  22
ENDBRANCH  17  21
ENDBRANCH   2  15
TORSDOF 8
ENDMDL
MODEL       75
REMARK 921   NORMALIZED FREE ENERGY PREDICTED BY IDOCK:   -4.60 KCAL/MOL
REMARK 922        TOTAL FREE ENERGY PREDICTED BY IDOCK:   -7.92 KCAL/MOL
REMARK 923 INTER-LIGAND FREE ENERGY PREDICTED BY IDOCK:   -6.89 KCAL/MOL
REMARK 924 INTRA-LIGAND FREE ENERGY PREDICTED BY IDOCK:   -1.03 KCAL/MOL
REMARK 927      BINDING AFFINITY PREDICTED BY RF-SCORE:    0.00 PKD
ROOT
HETATM    1  C   UNL     1     -13.052   7.092  71.562  1.00  0.00    -0.427 C  
HETATM    2  C   UNL     1     -11.714   7.871  71.450  1.00  0.00    -0.311 C  
HETATM    3  C   UNL     1     -11.035   7.735  72.844  1.00  0.00    -0.467 C  
ENDROOT
BRANCH   2   4
HETATM    4  C   UNL     1     -11.972   9.379  71.168  1.00  0.00    -0.413 A  
HETATM    5  C   UNL     1     -12.848  10.155  71.954  1.00  0.00    -0.526 A  
HETATM    6  C   UNL     1     -13.031  11.522  71.711  1.00  0.00    -0.500 A  
HETATM    7  C   UNL     1     -11.316  10.034  70.110  1.00  0.00    -0.357 A  
HETATM    8  C   UNL     1     -11.477  11.408  69.889  1.00  0.00    -0.353 A  
HETATM    9  C   UNL     1     -12.348  12.154  70.673  1.00  0.00    -0.295 A  
BRANCH   9  10
HETATM   10  O   UNL     1     -12.614  13.488  70.519  1.00  0.00    -0.304 OA 
BRANCH  10  11
HETATM   11  C   UNL     1     -12.039  14.102  69.365  1.00  0.00    -0.328 C  
BRANCH  11  12
HETATM   12  C   UNL     1     -10.945  15.012  69.810  1.00  0.00    -0.273 C  
HETATM   13  O   UNL     1     -11.384  16.165  70.543  1.00  0.00    -0.371 OA 
HETATM   14  C   UNL     1     -10.803  16.401  69.250  1.00  0.00    -0.327 C  
ENDBRANCH  11  12
ENDBRANCH  10  11
ENDBRANCH   9  10
ENDBRANCH   2   4
BRANCH   2  15
HETATM   15  C   UNL     1     -10.897   7.163  70.340  1.00  0.00    -0.269 A  
HETATM   16  C   UNL     1      -8.753   6.712  69.242  1.00  0.00    -0.131 A  
HETATM   17  C   UNL     1      -9.391   6.053  68.195  1.00  0.00    -0.115 A  
HETATM   18  C   UNL     1      -9.494   7.248  70.302  1.00  0.00    -0.165 A  
HETATM   19  C   UNL     1     -11.524   6.515  69.257  1.00  0.00    -0.307 A  
HETATM   20  C   UNL     1     -10.779   5.968  68.202  1.00  0.00    -0.353 A  
BRANCH  17  21
HETATM   21  O   UNL     1      -8.768   5.468  67.126  1.00  0.00    -0.110 OA 
BRANCH  21  22
HETATM   22  C   UNL     1      -7.606   4.694  67.437  1.00  0.00    -0.085 C  
BRANCH  22  23
HETATM   23  C   UNL     1      -6.468   5.180  66.605  1.00  0.00    -0.041 C  
HETATM   24  C   UNL     1      -6.538   6.467  65.832  1.00  0.00    -0.044 C  
HETATM   25  O   UNL     1      -5.846   6.379  67.087  1.00  0.00    -0.018 OA 
ENDBRANCH  22  23
ENDBRANCH  21  22
ENDBRANCH  17  21
ENDBRANCH   2  15
TORSDOF 8
ENDMDL
MODEL       76
REMARK 921   NORMALIZED FREE ENERGY PREDICTED BY IDOCK:   -4.60 KCAL/MOL
REMARK 922        TOTAL FREE ENERGY PREDICTED BY IDOCK:   -7.92 KCAL/MOL
REMARK 923 INTER-LIGAND FREE ENERGY PREDICTED BY IDOCK:   -6.83 KCAL/MOL
REMARK 924 INTRA-LIGAND FREE ENERGY PREDICTED BY IDOCK:   -1.09 KCAL/MOL
REMARK 927      BINDING AFFINITY PREDICTED BY RF-SCORE:    0.00 PKD
ROOT
HETATM    1  C   UNL     1     -12.152  14.121  68.844  1.00  0.00    -0.339 C  
HETATM    2  C   UNL     1     -11.202  13.877  67.641  1.00  0.00    -0.316 C  
HETATM    3  C   UNL     1     -12.103  13.963  66.374  1.00  0.00    -0.489 C  
ENDROOT
BRANCH   2   4
HETATM    4  C   UNL     1     -10.574  12.454  67.709  1.00  0.00    -0.236 A  
HETATM    5  C   UNL     1     -11.271  11.302  67.291  1.00  0.00    -0.364 A  
HETATM    6  C   UNL     1     -10.670  10.036  67.319  1.00  0.00    -0.309 A  
HETATM    7  C   UNL     1      -9.263  12.270  68.183  1.00  0.00    -0.197 A  
HETATM    8  C   UNL     1      -8.654  11.008  68.178  1.00  0.00    -0.140 A  
HETATM    9  C   UNL     1      -9.359   9.884  67.766  1.00  0.00    -0.140 A  
BRANCH   9  10
HETATM   10  O   UNL     1      -8.880   8.602  67.762  1.00  0.00    -0.135 OA 
BRANCH  10  11
HETATM   11  C   UNL     1      -9.870   7.573  67.806  1.00  0.00    -0.155 C  
BRANCH  11  12
HETATM   12  C   UNL     1      -9.945   7.051  69.201  1.00  0.00    -0.165 C  
HETATM   13  O   UNL     1     -11.056   6.180  69.457  1.00  0.00    -0.359 OA 
HETATM   14  C   UNL     1     -11.059   7.450  70.129  1.00  0.00    -0.246 C  
ENDBRANCH  11  12
ENDBRANCH  10  11
ENDBRANCH   9  10
ENDBRANCH   2   4
BRANCH   2  15
HETATM   15  C   UNL     1     -10.156  15.019  67.681  1.00  0.00    -0.231 A  
HETATM   16  C   UNL     1      -9.098  16.889  68.859  1.00  0.00    -0.223 A  
HETATM   17  C   UNL     1      -8.397  17.256  67.715  1.00  0.00    -0.212 A  
HETATM   18  C   UNL     1      -9.954  15.782  68.844  1.00  0.00    -0.223 A  
HETATM   19  C   UNL     1      -9.456  15.424  66.527  1.00  0.00    -0.298 A  
HETATM   20  C   UNL     1      -8.589  16.526  66.546  1.00  0.00    -0.321 A  
BRANCH  17  21
HETATM   21  O   UNL     1      -7.513  18.298  67.622  1.00  0.00    -0.212 OA 
BRANCH  21  22
HETATM   22  C   UNL     1      -7.657  19.319  68.613  1.00  0.00    -0.350 C  
BRANCH  22  23
HETATM   23  C   UNL     1      -6.356  19.489  69.322  1.00  0.00    -0.311 C  
HETATM   24  C   UNL     1      -5.626  20.803  69.342  1.00  0.00    -0.373 C  
HETATM   25  O   UNL     1      -6.409  20.358  70.461  1.00  0.00    -0.482 OA 
ENDBRANCH  22  23
ENDBRANCH  21  22
ENDBRANCH  17  21
ENDBRANCH   2  15
TORSDOF 8
ENDMDL
MODEL       77
REMARK 921   NORMALIZED FREE ENERGY PREDICTED BY IDOCK:   -4.57 KCAL/MOL
REMARK 922        TOTAL FREE ENERGY PREDICTED BY IDOCK:   -7.87 KCAL/MOL
REMARK 923 INTER-LIGAND FREE ENERGY PREDICTED BY IDOCK:   -6.85 KCAL/MOL
REMARK 924 INTRA-LIGAND FREE ENERGY PREDICTED BY IDOCK:   -1.02 KCAL/MOL
REMARK 927      BINDING AFFINITY PREDICTED BY RF-SCORE:    0.00 PKD
ROOT
HETATM    1  C   UNL     1     -11.824  12.806  67.636  1.00  0.00    -0.396 C  
HETATM    2  C   UNL     1     -11.411  13.511  66.316  1.00  0.00    -0.350 C  
HETATM    3  C   UNL     1     -12.735  14.049  65.699  1.00  0.00    -0.515 C  
ENDROOT
BRANCH   2   4
HETATM    4  C   UNL     1     -10.776  12.497  65.321  1.00  0.00    -0.318 A  
HETATM    5  C   UNL     1     -10.557  12.808  63.964  1.00  0.00    -0.446 A  
HETATM    6  C   UNL     1      -9.941  11.897  63.096  1.00  0.00    -0.327 A  
HETATM    7  C   UNL     1     -10.376  11.220  65.755  1.00  0.00    -0.310 A  
HETATM    8  C   UNL     1      -9.731  10.324  64.893  1.00  0.00    -0.385 A  
HETATM    9  C   UNL     1      -9.528  10.648  63.557  1.00  0.00    -0.308 A  
BRANCH   9  10
HETATM   10  O   UNL     1      -8.951   9.835  62.619  1.00  0.00    -0.237 OA 
BRANCH  10  11
HETATM   11  C   UNL     1      -7.613   9.422  62.900  1.00  0.00    -0.112 C  
BRANCH  11  12
HETATM   12  C   UNL     1      -7.583   7.933  62.965  1.00  0.00    -0.126 C  
HETATM   13  O   UNL     1      -6.731   7.393  63.986  1.00  0.00    -0.047 OA 
HETATM   14  C   UNL     1      -6.341   7.157  62.623  1.00  0.00    -0.053 C  
ENDBRANCH  11  12
ENDBRANCH  10  11
ENDBRANCH   9  10
ENDBRANCH   2   4
BRANCH   2  15
HETATM   15  C   UNL     1     -10.457  14.661  66.724  1.00  0.00    -0.277 A  
HETATM   16  C   UNL     1      -9.346  16.783  66.205  1.00  0.00    -0.310 A  
HETATM   17  C   UNL     1      -8.552  16.683  67.343  1.00  0.00    -0.189 A  
HETATM   18  C   UNL     1     -10.291  15.793  65.908  1.00  0.00    -0.372 A  
HETATM   19  C   UNL     1      -9.624  14.567  67.856  1.00  0.00    -0.217 A  
HETATM   20  C   UNL     1      -8.686  15.565  68.160  1.00  0.00    -0.164 A  
BRANCH  17  21
HETATM   21  O   UNL     1      -7.621  17.601  67.747  1.00  0.00    -0.199 OA 
BRANCH  21  22
HETATM   22  C   UNL     1      -8.139  18.743  68.435  1.00  0.00    -0.340 C  
BRANCH  22  23
HETATM   23  C   UNL     1      -7.001  19.615  68.846  1.00  0.00    -0.347 C  
HETATM   24  C   UNL     1      -5.739  19.713  68.035  1.00  0.00    -0.204 C  
HETATM   25  O   UNL     1      -6.755  20.725  67.971  1.00  0.00    -0.303 OA 
ENDBRANCH  22  23
ENDBRANCH  21  22
ENDBRANCH  17  21
ENDBRANCH   2  15
TORSDOF 8
ENDMDL
MODEL       78
REMARK 921   NORMALIZED FREE ENERGY PREDICTED BY IDOCK:   -4.56 KCAL/MOL
REMARK 922        TOTAL FREE ENERGY PREDICTED BY IDOCK:   -7.86 KCAL/MOL
REMARK 923 INTER-LIGAND FREE ENERGY PREDICTED BY IDOCK:   -6.74 KCAL/MOL
REMARK 924 INTRA-LIGAND FREE ENERGY PREDICTED BY IDOCK:   -1.12 KCAL/MOL
REMARK 927      BINDING AFFINITY PREDICTED BY RF-SCORE:    0.00 PKD
ROOT
HETATM    1  C   UNL     1      -8.626   8.303  68.087  1.00  0.00    -0.132 C  
HETATM    2  C   UNL     1     -10.160   8.288  68.323  1.00  0.00    -0.231 C  
HETATM    3  C   UNL     1     -10.746   7.390  67.195  1.00  0.00    -0.400 C  
ENDROOT
BRANCH   2   4
HETATM    4  C   UNL     1     -10.756   9.718  68.182  1.00  0.00    -0.280 A  
HETATM    5  C   UNL     1     -11.341  10.403  69.267  1.00  0.00    -0.296 A  
HETATM    6  C   UNL     1     -11.831  11.708  69.129  1.00  0.00    -0.390 A  
HETATM    7  C   UNL     1     -10.716  10.394  66.949  1.00  0.00    -0.272 A  
HETATM    8  C   UNL     1     -11.178  11.711  66.822  1.00  0.00    -0.371 A  
HETATM    9  C   UNL     1     -11.754  12.367  67.903  1.00  0.00    -0.360 A  
BRANCH   9  10
HETATM   10  O   UNL     1     -12.276  13.632  67.880  1.00  0.00    -0.320 OA 
BRANCH  10  11
HETATM   11  C   UNL     1     -11.462  14.624  67.253  1.00  0.00    -0.372 C  
BRANCH  11  12
HETATM   12  C   UNL     1     -10.736  15.378  68.315  1.00  0.00    -0.260 C  
HETATM   13  O   UNL     1     -11.580  16.090  69.231  1.00  0.00    -0.352 OA 
HETATM   14  C   UNL     1     -10.754  16.881  68.362  1.00  0.00    -0.368 C  
ENDBRANCH  11  12
ENDBRANCH  10  11
ENDBRANCH   9  10
ENDBRANCH   2   4
BRANCH   2  15
HETATM   15  C   UNL     1     -10.372   7.664  69.725  1.00  0.00    -0.223 A  
HETATM   16  C   UNL     1      -9.550   7.186  71.984  1.00  0.00    -0.158 A  
HETATM   17  C   UNL     1     -10.635   6.352  72.237  1.00  0.00    -0.214 A  
HETATM   18  C   UNL     1      -9.428   7.839  70.752  1.00  0.00    -0.163 A  
HETATM   19  C   UNL     1     -11.449   6.795  69.994  1.00  0.00    -0.390 A  
HETATM   20  C   UNL     1     -11.576   6.150  71.233  1.00  0.00    -0.271 A  
BRANCH  17  21
HETATM   21  O   UNL     1     -10.872   5.688  73.411  1.00  0.00    -0.259 OA 
BRANCH  21  22
HETATM   22  C   UNL     1     -11.730   4.548  73.313  1.00  0.00    -0.066 C  
BRANCH  22  23
HETATM   23  C   UNL     1     -10.959   3.331  73.697  1.00  0.00    -0.237 C  
HETATM   24  C   UNL     1     -11.516   1.946  73.520  1.00  0.00    -0.207 C  
HETATM   25  O   UNL     1     -10.569   2.501  72.595  1.00  0.00    -0.150 OA 
ENDBRANCH  22  23
ENDBRANCH  21  22
ENDBRANCH  17  21
ENDBRANCH   2  15
TORSDOF 8
ENDMDL
MODEL       79
REMARK 921   NORMALIZED FREE ENERGY PREDICTED BY IDOCK:   -4.52 KCAL/MOL
REMARK 922        TOTAL FREE ENERGY PREDICTED BY IDOCK:   -7.80 KCAL/MOL
REMARK 923 INTER-LIGAND FREE ENERGY PREDICTED BY IDOCK:   -6.76 KCAL/MOL
REMARK 924 INTRA-LIGAND FREE ENERGY PREDICTED BY IDOCK:   -1.04 KCAL/MOL
REMARK 927      BINDING AFFINITY PREDICTED BY RF-SCORE:    0.00 PKD
ROOT
HETATM    1  C   UNL     1     -11.025  10.037  67.501  1.00  0.00    -0.276 C  
HETATM    2  C   UNL     1      -9.808  10.370  68.405  1.00  0.00    -0.173 C  
HETATM    3  C   UNL     1      -8.566   9.803  67.657  1.00  0.00    -0.125 C  
ENDROOT
BRANCH   2   4
HETATM    4  C   UNL     1      -9.928   9.654  69.782  1.00  0.00    -0.252 A  
HETATM    5  C   UNL     1      -8.799   9.225  70.511  1.00  0.00    -0.285 A  
HETATM    6  C   UNL     1      -8.928   8.625  71.769  1.00  0.00    -0.307 A  
HETATM    7  C   UNL     1     -11.188   9.423  70.364  1.00  0.00    -0.309 A  
HETATM    8  C   UNL     1     -11.311   8.851  71.637  1.00  0.00    -0.407 A  
HETATM    9  C   UNL     1     -10.187   8.432  72.337  1.00  0.00    -0.329 A  
BRANCH   9  10
HETATM   10  O   UNL     1     -10.194   7.823  73.563  1.00  0.00    -0.323 OA 
BRANCH  10  11
HETATM   11  C   UNL     1     -10.782   6.523  73.603  1.00  0.00    -0.222 C  
BRANCH  11  12
HETATM   12  C   UNL     1      -9.695   5.509  73.483  1.00  0.00    -0.149 C  
HETATM   13  O   UNL     1      -9.610   4.867  72.203  1.00  0.00    -0.145 OA 
HETATM   14  C   UNL     1     -10.001   4.047  73.316  1.00  0.00    -0.137 C  
ENDBRANCH  11  12
ENDBRANCH  10  11
ENDBRANCH   9  10
ENDBRANCH   2   4
BRANCH   2  15
HETATM   15  C   UNL     1      -9.761  11.915  68.512  1.00  0.00    -0.173 A  
HETATM   16  C   UNL     1     -10.911  14.060  68.792  1.00  0.00    -0.282 A  
HETATM   17  C   UNL     1      -9.745  14.761  68.501  1.00  0.00    -0.218 A  
HETATM   18  C   UNL     1     -10.915  12.660  68.808  1.00  0.00    -0.289 A  
HETATM   19  C   UNL     1      -8.598  12.645  68.194  1.00  0.00    -0.188 A  
HETATM   20  C   UNL     1      -8.593  14.047  68.189  1.00  0.00    -0.181 A  
BRANCH  17  21
HETATM   21  O   UNL     1      -9.618  16.124  68.485  1.00  0.00    -0.203 OA 
BRANCH  21  22
HETATM   22  C   UNL     1     -10.404  16.806  67.504  1.00  0.00    -0.301 C  
BRANCH  22  23
HETATM   23  C   UNL     1      -9.897  16.448  66.148  1.00  0.00    -0.338 C  
HETATM   24  C   UNL     1     -10.712  15.633  65.182  1.00  0.00    -0.443 C  
HETATM   25  O   UNL     1     -10.612  17.061  65.066  1.00  0.00    -0.703 OA 
ENDBRANCH  22  23
ENDBRANCH  21  22
ENDBRANCH  17  21
ENDBRANCH   2  15
TORSDOF 8
ENDMDL
MODEL       80
REMARK 921   NORMALIZED FREE ENERGY PREDICTED BY IDOCK:   -4.49 KCAL/MOL
REMARK 922        TOTAL FREE ENERGY PREDICTED BY IDOCK:   -7.76 KCAL/MOL
REMARK 923 INTER-LIGAND FREE ENERGY PREDICTED BY IDOCK:   -6.77 KCAL/MOL
REMARK 924 INTRA-LIGAND FREE ENERGY PREDICTED BY IDOCK:   -0.99 KCAL/MOL
REMARK 927      BINDING AFFINITY PREDICTED BY RF-SCORE:    0.00 PKD
ROOT
HETATM    1  C   UNL     1     -11.308   9.401  70.897  1.00  0.00    -0.386 C  
HETATM    2  C   UNL     1     -10.318   9.558  69.712  1.00  0.00    -0.251 C  
HETATM    3  C   UNL     1      -8.899   9.565  70.352  1.00  0.00    -0.279 C  
ENDROOT
BRANCH   2   4
HETATM    4  C   UNL     1     -10.541  10.913  68.980  1.00  0.00    -0.248 A  
HETATM    5  C   UNL     1     -11.821  11.485  68.823  1.00  0.00    -0.394 A  
HETATM    6  C   UNL     1     -11.993  12.728  68.201  1.00  0.00    -0.295 A  
HETATM    7  C   UNL     1      -9.452  11.634  68.457  1.00  0.00    -0.175 A  
HETATM    8  C   UNL     1      -9.625  12.892  67.865  1.00  0.00    -0.215 A  
HETATM    9  C   UNL     1     -10.895  13.436  67.716  1.00  0.00    -0.252 A  
BRANCH   9  10
HETATM   10  O   UNL     1     -11.183  14.632  67.115  1.00  0.00    -0.322 OA 
BRANCH  10  11
HETATM   11  C   UNL     1     -10.363  15.733  67.508  1.00  0.00    -0.280 C  
BRANCH  11  12
HETATM   12  C   UNL     1     -10.310  16.707  66.381  1.00  0.00    -0.306 C  
HETATM   13  O   UNL     1      -9.045  16.779  65.707  1.00  0.00    -0.515 OA 
HETATM   14  C   UNL     1      -9.451  17.940  66.449  1.00  0.00    -0.267 C  
ENDBRANCH  11  12
ENDBRANCH  10  11
ENDBRANCH   9  10
ENDBRANCH   2   4
BRANCH   2  15
HETATM   15  C   UNL     1     -10.535   8.321  68.804  1.00  0.00    -0.200 A  
HETATM   16  C   UNL     1     -10.863   5.906  68.549  1.00  0.00    -0.323 A  
HETATM   17  C   UNL     1     -10.721   6.000  67.168  1.00  0.00    -0.330 A  
HETATM   18  C   UNL     1     -10.783   7.050  69.352  1.00  0.00    -0.259 A  
HETATM   19  C   UNL     1     -10.368   8.389  67.407  1.00  0.00    -0.355 A  
HETATM   20  C   UNL     1     -10.460   7.243  66.603  1.00  0.00    -0.204 A  
BRANCH  17  21
HETATM   21  O   UNL     1     -10.811   4.957  66.286  1.00  0.00    -0.259 OA 
BRANCH  21  22
HETATM   22  C   UNL     1      -9.578   4.300  65.980  1.00  0.00    -0.192 C  
BRANCH  22  23
HETATM   23  C   UNL     1      -9.776   3.438  64.779  1.00  0.00    -0.152 C  
HETATM   24  C   UNL     1     -10.587   3.892  63.598  1.00  0.00    -0.194 C  
HETATM   25  O   UNL     1      -9.152   3.928  63.585  1.00  0.00    -0.112 OA 
ENDBRANCH  22  23
ENDBRANCH  21  22
ENDBRANCH  17  21
ENDBRANCH   2  15
TORSDOF 8
ENDMDL
MODEL       81
REMARK 921   NORMALIZED FREE ENERGY PREDICTED BY IDOCK:   -4.49 KCAL/MOL
REMARK 922        TOTAL FREE ENERGY PREDICTED BY IDOCK:   -7.75 KCAL/MOL
REMARK 923 INTER-LIGAND FREE ENERGY PREDICTED BY IDOCK:   -6.72 KCAL/MOL
REMARK 924 INTRA-LIGAND FREE ENERGY PREDICTED BY IDOCK:   -1.03 KCAL/MOL
REMARK 927      BINDING AFFINITY PREDICTED BY RF-SCORE:    0.00 PKD
ROOT
HETATM    1  C   UNL     1     -10.305   8.821  67.148  1.00  0.00    -0.364 C  
HETATM    2  C   UNL     1      -9.377   9.681  68.048  1.00  0.00    -0.142 C  
HETATM    3  C   UNL     1      -7.937   9.451  67.502  1.00  0.00    -0.102 C  
ENDROOT
BRANCH   2   4
HETATM    4  C   UNL     1      -9.432   9.195  69.526  1.00  0.00    -0.170 A  
HETATM    5  C   UNL     1      -8.342   8.554  70.150  1.00  0.00    -0.123 A  
HETATM    6  C   UNL     1      -8.397   8.166  71.495  1.00  0.00    -0.155 A  
HETATM    7  C   UNL     1     -10.585   9.397  70.306  1.00  0.00    -0.297 A  
HETATM    8  C   UNL     1     -10.624   9.037  71.659  1.00  0.00    -0.434 A  
HETATM    9  C   UNL     1      -9.541   8.403  72.255  1.00  0.00    -0.304 A  
BRANCH   9  10
HETATM   10  O   UNL     1      -9.488   7.969  73.552  1.00  0.00    -0.273 OA 
BRANCH  10  11
HETATM   11  C   UNL     1     -10.528   7.074  73.946  1.00  0.00    -0.294 C  
BRANCH  11  12
HETATM   12  C   UNL     1     -10.283   5.753  73.300  1.00  0.00    -0.200 C  
HETATM   13  O   UNL     1     -11.041   5.519  72.105  1.00  0.00    -0.245 OA 
HETATM   14  C   UNL     1     -11.352   4.698  73.241  1.00  0.00    -0.304 C  
ENDBRANCH  11  12
ENDBRANCH  10  11
ENDBRANCH   9  10
ENDBRANCH   2   4
BRANCH   2  15
HETATM   15  C   UNL     1      -9.836  11.149  67.861  1.00  0.00    -0.187 A  
HETATM   16  C   UNL     1      -9.522  13.542  68.283  1.00  0.00    -0.212 A  
HETATM   17  C   UNL     1     -10.760  13.837  67.719  1.00  0.00    -0.246 A  
HETATM   18  C   UNL     1      -9.064  12.220  68.342  1.00  0.00    -0.146 A  
HETATM   19  C   UNL     1     -11.097  11.468  67.318  1.00  0.00    -0.351 A  
HETATM   20  C   UNL     1     -11.549  12.793  67.249  1.00  0.00    -0.420 A  
BRANCH  17  21
HETATM   21  O   UNL     1     -11.294  15.090  67.582  1.00  0.00    -0.317 OA 
BRANCH  21  22
HETATM   22  C   UNL     1     -11.381  15.858  68.785  1.00  0.00    -0.378 C  
BRANCH  22  23
HETATM   23  C   UNL     1     -12.188  15.099  69.784  1.00  0.00    -0.289 C  
HETATM   24  C   UNL     1     -11.986  15.266  71.264  1.00  0.00    -0.353 C  
HETATM   25  O   UNL     1     -13.070  15.908  70.575  1.00  0.00    -0.421 OA 
ENDBRANCH  22  23
ENDBRANCH  21  22
ENDBRANCH  17  21
ENDBRANCH   2  15
TORSDOF 8
ENDMDL
MODEL       82
REMARK 921   NORMALIZED FREE ENERGY PREDICTED BY IDOCK:   -4.49 KCAL/MOL
REMARK 922        TOTAL FREE ENERGY PREDICTED BY IDOCK:   -7.75 KCAL/MOL
REMARK 923 INTER-LIGAND FREE ENERGY PREDICTED BY IDOCK:   -6.71 KCAL/MOL
REMARK 924 INTRA-LIGAND FREE ENERGY PREDICTED BY IDOCK:   -1.04 KCAL/MOL
REMARK 927      BINDING AFFINITY PREDICTED BY RF-SCORE:    0.00 PKD
ROOT
HETATM    1  C   UNL     1     -10.816   7.876  72.909  1.00  0.00    -0.451 C  
HETATM    2  C   UNL     1     -11.551   7.839  71.543  1.00  0.00    -0.303 C  
HETATM    3  C   UNL     1     -12.837   6.995  71.785  1.00  0.00    -0.365 C  
ENDROOT
BRANCH   2   4
HETATM    4  C   UNL     1     -10.684   7.125  70.466  1.00  0.00    -0.259 A  
HETATM    5  C   UNL     1     -11.251   6.458  69.361  1.00  0.00    -0.459 A  
HETATM    6  C   UNL     1     -10.451   5.861  68.378  1.00  0.00    -0.294 A  
HETATM    7  C   UNL     1      -9.280   7.137  70.551  1.00  0.00    -0.158 A  
HETATM    8  C   UNL     1      -8.482   6.567  69.550  1.00  0.00    -0.131 A  
HETATM    9  C   UNL     1      -9.061   5.911  68.471  1.00  0.00    -0.111 A  
BRANCH   9  10
HETATM   10  O   UNL     1      -8.380   5.283  67.463  1.00  0.00    -0.107 OA 
BRANCH  10  11
HETATM   11  C   UNL     1      -7.077   4.808  67.801  1.00  0.00    -0.062 C  
BRANCH  11  12
HETATM   12  C   UNL     1      -6.097   5.390  66.840  1.00  0.00    -0.030 C  
HETATM   13  O   UNL     1      -6.635   6.396  65.969  1.00  0.00    -0.045 OA 
HETATM   14  C   UNL     1      -6.221   5.163  65.359  1.00  0.00    -0.034 C  
ENDBRANCH  11  12
ENDBRANCH  10  11
ENDBRANCH   9  10
ENDBRANCH   2   4
BRANCH   2  15
HETATM   15  C   UNL     1     -11.885   9.311  71.194  1.00  0.00    -0.396 A  
HETATM   16  C   UNL     1     -11.413  11.351  69.922  1.00  0.00    -0.353 A  
HETATM   17  C   UNL     1     -12.330  12.074  70.679  1.00  0.00    -0.304 A  
HETATM   18  C   UNL     1     -11.203   9.990  70.170  1.00  0.00    -0.367 A  
HETATM   19  C   UNL     1     -12.790  10.068  71.964  1.00  0.00    -0.484 A  
HETATM   20  C   UNL     1     -13.008  11.430  71.708  1.00  0.00    -0.519 A  
BRANCH  17  21
HETATM   21  O   UNL     1     -12.637  13.397  70.507  1.00  0.00    -0.286 OA 
BRANCH  21  22
HETATM   22  C   UNL     1     -12.218  13.972  69.266  1.00  0.00    -0.278 C  
BRANCH  22  23
HETATM   23  C   UNL     1     -11.637  15.320  69.531  1.00  0.00    -0.322 C  
HETATM   24  C   UNL     1     -10.212  15.654  69.190  1.00  0.00    -0.233 C  
HETATM   25  O   UNL     1     -11.303  16.065  68.353  1.00  0.00    -0.355 OA 
ENDBRANCH  22  23
ENDBRANCH  21  22
ENDBRANCH  17  21
ENDBRANCH   2  15
TORSDOF 8
ENDMDL
MODEL       83
REMARK 921   NORMALIZED FREE ENERGY PREDICTED BY IDOCK:   -4.48 KCAL/MOL
REMARK 922        TOTAL FREE ENERGY PREDICTED BY IDOCK:   -7.74 KCAL/MOL
REMARK 923 INTER-LIGAND FREE ENERGY PREDICTED BY IDOCK:   -6.57 KCAL/MOL
REMARK 924 INTRA-LIGAND FREE ENERGY PREDICTED BY IDOCK:   -1.18 KCAL/MOL
REMARK 927      BINDING AFFINITY PREDICTED BY RF-SCORE:    0.00 PKD
ROOT
HETATM    1  C   UNL     1     -10.996   8.194  68.829  1.00  0.00     0.144 C  
HETATM    2  C   UNL     1     -11.062   8.551  70.338  1.00  0.00    -0.246 C  
HETATM    3  C   UNL     1     -12.030   7.510  70.971  1.00  0.00    -0.317 C  
ENDROOT
BRANCH   2   4
HETATM    4  C   UNL     1     -11.656   9.974  70.546  1.00  0.00    -0.403 A  
HETATM    5  C   UNL     1     -12.564  10.268  71.583  1.00  0.00    -0.534 A  
HETATM    6  C   UNL     1     -13.052  11.566  71.780  1.00  0.00    -0.503 A  
HETATM    7  C   UNL     1     -11.286  11.037  69.701  1.00  0.00    -0.363 A  
HETATM    8  C   UNL     1     -11.750  12.340  69.921  1.00  0.00    -0.346 A  
HETATM    9  C   UNL     1     -12.649  12.609  70.947  1.00  0.00    -0.249 A  
BRANCH   9  10
HETATM   10  O   UNL     1     -13.198  13.831  71.224  1.00  0.00    -0.319 OA 
BRANCH  10  11
HETATM   11  C   UNL     1     -13.699  13.996  72.551  1.00  0.00    -0.547 C  
BRANCH  11  12
HETATM   12  C   UNL     1     -12.834  14.981  73.262  1.00  0.00    -0.531 C  
HETATM   13  O   UNL     1     -13.369  16.310  73.334  1.00  0.00    -0.561 OA 
HETATM   14  C   UNL     1     -12.189  16.128  72.535  1.00  0.00    -0.520 C  
ENDBRANCH  11  12
ENDBRANCH  10  11
ENDBRANCH   9  10
ENDBRANCH   2   4
BRANCH   2  15
HETATM   15  C   UNL     1      -9.618   8.397  70.879  1.00  0.00    -0.212 A  
HETATM   16  C   UNL     1      -7.270   7.791  70.523  1.00  0.00    -0.057 A  
HETATM   17  C   UNL     1      -7.002   7.898  71.884  1.00  0.00    -0.070 A  
HETATM   18  C   UNL     1      -8.555   8.047  70.028  1.00  0.00    -0.134 A  
HETATM   19  C   UNL     1      -9.330   8.474  72.256  1.00  0.00    -0.363 A  
HETATM   20  C   UNL     1      -8.040   8.228  72.749  1.00  0.00    -0.206 A  
BRANCH  17  21
HETATM   21  O   UNL     1      -5.782   7.701  72.473  1.00  0.00    -0.039 OA 
BRANCH  21  22
HETATM   22  C   UNL     1      -5.815   7.124  73.781  1.00  0.00    -0.057 C  
BRANCH  22  23
HETATM   23  C   UNL     1      -5.518   5.666  73.671  1.00  0.00    -0.024 C  
HETATM   24  C   UNL     1      -6.280   4.637  74.458  1.00  0.00    -0.052 C  
HETATM   25  O   UNL     1      -6.564   4.889  73.073  1.00  0.00    -0.059 OA 
ENDBRANCH  22  23
ENDBRANCH  21  22
ENDBRANCH  17  21
ENDBRANCH   2  15
TORSDOF 8
ENDMDL
MODEL       84
REMARK 921   NORMALIZED FREE ENERGY PREDICTED BY IDOCK:   -4.44 KCAL/MOL
REMARK 922        TOTAL FREE ENERGY PREDICTED BY IDOCK:   -7.69 KCAL/MOL
REMARK 923 INTER-LIGAND FREE ENERGY PREDICTED BY IDOCK:   -6.70 KCAL/MOL
REMARK 924 INTRA-LIGAND FREE ENERGY PREDICTED BY IDOCK:   -0.99 KCAL/MOL
REMARK 927      BINDING AFFINITY PREDICTED BY RF-SCORE:    0.00 PKD
ROOT
HETATM    1  C   UNL     1     -10.483   8.360  67.330  1.00  0.00    -0.373 C  
HETATM    2  C   UNL     1      -9.891   8.891  68.663  1.00  0.00    -0.179 C  
HETATM    3  C   UNL     1      -8.346   8.832  68.485  1.00  0.00    -0.129 C  
ENDROOT
BRANCH   2   4
HETATM    4  C   UNL     1     -10.291   7.970  69.852  1.00  0.00    -0.221 A  
HETATM    5  C   UNL     1     -10.952   6.739  69.664  1.00  0.00    -0.336 A  
HETATM    6  C   UNL     1     -11.262   5.904  70.745  1.00  0.00    -0.281 A  
HETATM    7  C   UNL     1      -9.987   8.334  71.176  1.00  0.00    -0.230 A  
HETATM    8  C   UNL     1     -10.269   7.483  72.252  1.00  0.00    -0.252 A  
HETATM    9  C   UNL     1     -10.924   6.275  72.046  1.00  0.00    -0.256 A  
BRANCH   9  10
HETATM   10  O   UNL     1     -11.287   5.390  73.025  1.00  0.00    -0.302 OA 
BRANCH  10  11
HETATM   11  C   UNL     1     -10.366   5.254  74.106  1.00  0.00    -0.277 C  
BRANCH  11  12
HETATM   12  C   UNL     1     -10.002   3.814  74.238  1.00  0.00    -0.136 C  
HETATM   13  O   UNL     1      -9.017   3.354  73.301  1.00  0.00    -0.092 OA 
HETATM   14  C   UNL     1     -10.342   2.817  73.165  1.00  0.00    -0.147 C  
ENDBRANCH  11  12
ENDBRANCH  10  11
ENDBRANCH   9  10
ENDBRANCH   2   4
BRANCH   2  15
HETATM   15  C   UNL     1     -10.399  10.348  68.808  1.00  0.00    -0.213 A  
HETATM   16  C   UNL     1     -12.139  11.931  69.492  1.00  0.00    -0.288 A  
HETATM   17  C   UNL     1     -11.456  12.989  68.900  1.00  0.00    -0.299 A  
HETATM   18  C   UNL     1     -11.613  10.635  69.456  1.00  0.00    -0.360 A  
HETATM   19  C   UNL     1      -9.737  11.429  68.193  1.00  0.00    -0.194 A  
HETATM   20  C   UNL     1     -10.260  12.729  68.239  1.00  0.00    -0.245 A  
BRANCH  17  21
HETATM   21  O   UNL     1     -11.859  14.297  68.899  1.00  0.00    -0.307 OA 
BRANCH  21  22
HETATM   22  C   UNL     1     -11.145  15.163  69.785  1.00  0.00    -0.278 C  
BRANCH  22  23
HETATM   23  C   UNL     1     -11.788  15.113  71.130  1.00  0.00    -0.343 C  
HETATM   24  C   UNL     1     -11.944  16.340  71.984  1.00  0.00    -0.467 C  
HETATM   25  O   UNL     1     -13.037  15.811  71.219  1.00  0.00    -0.496 OA 
ENDBRANCH  22  23
ENDBRANCH  21  22
ENDBRANCH  17  21
ENDBRANCH   2  15
TORSDOF 8
ENDMDL
MODEL       85
REMARK 921   NORMALIZED FREE ENERGY PREDICTED BY IDOCK:   -4.39 KCAL/MOL
REMARK 922        TOTAL FREE ENERGY PREDICTED BY IDOCK:   -7.62 KCAL/MOL
REMARK 923 INTER-LIGAND FREE ENERGY PREDICTED BY IDOCK:   -6.45 KCAL/MOL
REMARK 924 INTRA-LIGAND FREE ENERGY PREDICTED BY IDOCK:   -1.17 KCAL/MOL
REMARK 927      BINDING AFFINITY PREDICTED BY RF-SCORE:    0.00 PKD
ROOT
HETATM    1  C   UNL     1     -11.902  15.754  68.228  1.00  0.00    -0.116 C  
HETATM    2  C   UNL     1     -10.854  14.771  67.641  1.00  0.00    -0.285 C  
HETATM    3  C   UNL     1     -11.238  14.597  66.142  1.00  0.00    -0.341 C  
ENDROOT
BRANCH   2   4
HETATM    4  C   UNL     1     -10.941  13.384  68.341  1.00  0.00    -0.291 A  
HETATM    5  C   UNL     1     -10.107  12.305  67.984  1.00  0.00    -0.206 A  
HETATM    6  C   UNL     1     -10.171  11.079  68.658  1.00  0.00    -0.211 A  
HETATM    7  C   UNL     1     -11.861  13.162  69.382  1.00  0.00    -0.383 A  
HETATM    8  C   UNL     1     -11.900  11.945  70.075  1.00  0.00    -0.407 A  
HETATM    9  C   UNL     1     -11.071  10.892  69.706  1.00  0.00    -0.262 A  
BRANCH   9  10
HETATM   10  O   UNL     1     -11.056   9.651  70.283  1.00  0.00    -0.243 OA 
BRANCH  10  11
HETATM   11  C   UNL     1     -12.145   9.366  71.161  1.00  0.00    -0.328 C  
BRANCH  11  12
HETATM   12  C   UNL     1     -11.846   8.099  71.887  1.00  0.00    -0.317 C  
HETATM   13  O   UNL     1     -11.575   6.971  71.042  1.00  0.00    -0.287 OA 
HETATM   14  C   UNL     1     -12.778   6.920  71.826  1.00  0.00    -0.327 C  
ENDBRANCH  11  12
ENDBRANCH  10  11
ENDBRANCH   9  10
ENDBRANCH   2   4
BRANCH   2  15
HETATM   15  C   UNL     1      -9.477  15.462  67.805  1.00  0.00    -0.204 A  
HETATM   16  C   UNL     1      -7.331  16.172  66.859  1.00  0.00    -0.255 A  
HETATM   17  C   UNL     1      -6.859  16.533  68.117  1.00  0.00    -0.136 A  
HETATM   18  C   UNL     1      -8.623  15.656  66.705  1.00  0.00    -0.309 A  
HETATM   19  C   UNL     1      -8.969  15.810  69.072  1.00  0.00    -0.246 A  
HETATM   20  C   UNL     1      -7.678  16.338  69.223  1.00  0.00    -0.186 A  
BRANCH  17  21
HETATM   21  O   UNL     1      -5.629  17.073  68.380  1.00  0.00    -0.128 OA 
BRANCH  21  22
HETATM   22  C   UNL     1      -5.432  17.537  69.719  1.00  0.00    -0.217 C  
BRANCH  22  23
HETATM   23  C   UNL     1      -5.332  19.025  69.703  1.00  0.00    -0.201 C  
HETATM   24  C   UNL     1      -6.547  19.906  69.789  1.00  0.00    -0.318 C  
HETATM   25  O   UNL     1      -5.713  19.660  70.931  1.00  0.00    -0.244 OA 
ENDBRANCH  22  23
ENDBRANCH  21  22
ENDBRANCH  17  21
ENDBRANCH   2  15
TORSDOF 8
ENDMDL
MODEL       86
REMARK 921   NORMALIZED FREE ENERGY PREDICTED BY IDOCK:   -4.39 KCAL/MOL
REMARK 922        TOTAL FREE ENERGY PREDICTED BY IDOCK:   -7.61 KCAL/MOL
REMARK 923 INTER-LIGAND FREE ENERGY PREDICTED BY IDOCK:   -6.71 KCAL/MOL
REMARK 924 INTRA-LIGAND FREE ENERGY PREDICTED BY IDOCK:   -0.90 KCAL/MOL
REMARK 927      BINDING AFFINITY PREDICTED BY RF-SCORE:    0.00 PKD
ROOT
HETATM    1  C   UNL     1      -7.462   9.279  66.720  1.00  0.00    -0.087 C  
HETATM    2  C   UNL     1      -8.854   8.783  66.246  1.00  0.00    -0.187 C  
HETATM    3  C   UNL     1      -8.614   8.144  64.847  1.00  0.00    -0.039 C  
ENDROOT
BRANCH   2   4
HETATM    4  C   UNL     1      -9.842   9.975  66.085  1.00  0.00    -0.309 A  
HETATM    5  C   UNL     1     -10.508  10.556  67.184  1.00  0.00    -0.302 A  
HETATM    6  C   UNL     1     -11.358  11.658  67.023  1.00  0.00    -0.373 A  
HETATM    7  C   UNL     1     -10.095  10.533  64.819  1.00  0.00    -0.406 A  
HETATM    8  C   UNL     1     -10.920  11.654  64.666  1.00  0.00    -0.363 A  
HETATM    9  C   UNL     1     -11.571  12.210  65.761  1.00  0.00    -0.355 A  
BRANCH   9  10
HETATM   10  O   UNL     1     -12.430  13.274  65.720  1.00  0.00    -0.448 OA 
BRANCH  10  11
HETATM   11  C   UNL     1     -12.135  14.341  66.622  1.00  0.00    -0.420 C  
BRANCH  11  12
HETATM   12  C   UNL     1     -10.748  14.816  66.352  1.00  0.00    -0.313 C  
HETATM   13  O   UNL     1     -10.621  16.235  66.185  1.00  0.00    -0.312 OA 
HETATM   14  C   UNL     1     -10.369  15.421  65.029  1.00  0.00    -0.329 C  
ENDBRANCH  11  12
ENDBRANCH  10  11
ENDBRANCH   9  10
ENDBRANCH   2   4
BRANCH   2  15
HETATM   15  C   UNL     1      -9.314   7.733  67.287  1.00  0.00    -0.175 A  
HETATM   16  C   UNL     1     -10.946   6.071  68.049  1.00  0.00    -0.340 A  
HETATM   17  C   UNL     1     -10.301   5.952  69.276  1.00  0.00    -0.246 A  
HETATM   18  C   UNL     1     -10.453   6.939  67.067  1.00  0.00    -0.374 A  
HETATM   19  C   UNL     1      -8.692   7.615  68.546  1.00  0.00    -0.128 A  
HETATM   20  C   UNL     1      -9.180   6.736  69.524  1.00  0.00    -0.147 A  
BRANCH  17  21
HETATM   21  O   UNL     1     -10.675   5.116  70.294  1.00  0.00    -0.229 OA 
BRANCH  21  22
HETATM   22  C   UNL     1      -9.603   4.521  71.029  1.00  0.00    -0.178 C  
BRANCH  22  23
HETATM   23  C   UNL     1      -9.854   4.710  72.487  1.00  0.00    -0.159 C  
HETATM   24  C   UNL     1     -11.188   5.163  73.012  1.00  0.00    -0.322 C  
HETATM   25  O   UNL     1     -10.790   3.784  73.054  1.00  0.00    -0.173 OA 
ENDBRANCH  22  23
ENDBRANCH  21  22
ENDBRANCH  17  21
ENDBRANCH   2  15
TORSDOF 8
ENDMDL
MODEL       87
REMARK 921   NORMALIZED FREE ENERGY PREDICTED BY IDOCK:   -4.34 KCAL/MOL
REMARK 922        TOTAL FREE ENERGY PREDICTED BY IDOCK:   -7.53 KCAL/MOL
REMARK 923 INTER-LIGAND FREE ENERGY PREDICTED BY IDOCK:   -6.38 KCAL/MOL
REMARK 924 INTRA-LIGAND FREE ENERGY PREDICTED BY IDOCK:   -1.16 KCAL/MOL
REMARK 927      BINDING AFFINITY PREDICTED BY RF-SCORE:    0.00 PKD
ROOT
HETATM    1  C   UNL     1     -11.970  12.798  67.466  1.00  0.00    -0.342 C  
HETATM    2  C   UNL     1     -10.614  12.271  68.007  1.00  0.00    -0.235 C  
HETATM    3  C   UNL     1      -9.804  13.539  68.407  1.00  0.00    -0.225 C  
ENDROOT
BRANCH   2   4
HETATM    4  C   UNL     1      -9.832  11.510  66.897  1.00  0.00    -0.220 A  
HETATM    5  C   UNL     1      -8.424  11.524  66.821  1.00  0.00    -0.168 A  
HETATM    6  C   UNL     1      -7.739  10.796  65.841  1.00  0.00    -0.118 A  
HETATM    7  C   UNL     1     -10.515  10.757  65.925  1.00  0.00    -0.270 A  
HETATM    8  C   UNL     1      -9.826  10.004  64.966  1.00  0.00    -0.374 A  
HETATM    9  C   UNL     1      -8.438  10.034  64.906  1.00  0.00    -0.166 A  
BRANCH   9  10
HETATM   10  O   UNL     1      -7.666   9.374  63.988  1.00  0.00    -0.112 OA 
BRANCH  10  11
HETATM   11  C   UNL     1      -7.915   7.974  63.865  1.00  0.00    -0.128 C  
BRANCH  11  12
HETATM   12  C   UNL     1      -7.103   7.259  64.890  1.00  0.00    -0.064 C  
HETATM   13  O   UNL     1      -7.486   5.894  65.116  1.00  0.00    -0.073 OA 
HETATM   14  C   UNL     1      -7.702   6.816  66.197  1.00  0.00    -0.091 C  
ENDBRANCH  11  12
ENDBRANCH  10  11
ENDBRANCH   9  10
ENDBRANCH   2   4
BRANCH   2  15
HETATM   15  C   UNL     1     -10.954  11.393  69.238  1.00  0.00    -0.282 A  
HETATM   16  C   UNL     1     -10.520   9.419  70.623  1.00  0.00    -0.354 A  
HETATM   17  C   UNL     1     -11.678   9.643  71.362  1.00  0.00    -0.404 A  
HETATM   18  C   UNL     1     -10.159  10.288  69.586  1.00  0.00    -0.257 A  
HETATM   19  C   UNL     1     -12.136  11.585  69.982  1.00  0.00    -0.408 A  
HETATM   20  C   UNL     1     -12.490  10.721  71.028  1.00  0.00    -0.522 A  
BRANCH  17  21
HETATM   21  O   UNL     1     -12.111   8.880  72.412  1.00  0.00    -0.349 OA 
BRANCH  21  22
HETATM   22  C   UNL     1     -11.278   7.769  72.753  1.00  0.00    -0.398 C  
BRANCH  22  23
HETATM   23  C   UNL     1     -11.804   6.547  72.078  1.00  0.00    -0.329 C  
HETATM   24  C   UNL     1     -10.906   5.602  71.329  1.00  0.00    -0.219 C  
HETATM   25  O   UNL     1     -11.366   5.311  72.658  1.00  0.00    -0.267 OA 
ENDBRANCH  22  23
ENDBRANCH  21  22
ENDBRANCH  17  21
ENDBRANCH   2  15
TORSDOF 8
ENDMDL
MODEL       88
REMARK 921   NORMALIZED FREE ENERGY PREDICTED BY IDOCK:   -4.30 KCAL/MOL
REMARK 922        TOTAL FREE ENERGY PREDICTED BY IDOCK:   -7.47 KCAL/MOL
REMARK 923 INTER-LIGAND FREE ENERGY PREDICTED BY IDOCK:   -6.39 KCAL/MOL
REMARK 924 INTRA-LIGAND FREE ENERGY PREDICTED BY IDOCK:   -1.09 KCAL/MOL
REMARK 927      BINDING AFFINITY PREDICTED BY RF-SCORE:    0.00 PKD
ROOT
HETATM    1  C   UNL     1      -7.640  12.159  68.993  1.00  0.00     0.081 C  
HETATM    2  C   UNL     1      -7.981  12.037  67.484  1.00  0.00    -0.159 C  
HETATM    3  C   UNL     1      -6.617  11.825  66.764  1.00  0.00    -0.060 C  
ENDROOT
BRANCH   2   4
HETATM    4  C   UNL     1      -8.625  13.351  66.953  1.00  0.00    -0.114 A  
HETATM    5  C   UNL     1      -8.057  14.620  67.193  1.00  0.00    -0.213 A  
HETATM    6  C   UNL     1      -8.628  15.786  66.668  1.00  0.00    -0.322 A  
HETATM    7  C   UNL     1      -9.805  13.315  66.190  1.00  0.00    -0.286 A  
HETATM    8  C   UNL     1     -10.355  14.480  65.639  1.00  0.00    -0.367 A  
HETATM    9  C   UNL     1      -9.783  15.721  65.890  1.00  0.00    -0.354 A  
BRANCH   9  10
HETATM   10  O   UNL     1     -10.260  16.923  65.441  1.00  0.00    -0.605 OA 
BRANCH  10  11
HETATM   11  C   UNL     1     -10.635  17.855  66.456  1.00  0.00    -0.235 C  
BRANCH  11  12
HETATM   12  C   UNL     1     -10.353  19.232  65.958  1.00  0.00    -0.475 C  
HETATM   13  O   UNL     1      -8.960  19.551  65.830  1.00  0.00    -0.406 OA 
HETATM   14  C   UNL     1      -9.698  20.264  66.835  1.00  0.00    -0.444 C  
ENDBRANCH  11  12
ENDBRANCH  10  11
ENDBRANCH   9  10
ENDBRANCH   2   4
BRANCH   2  15
HETATM   15  C   UNL     1      -8.901  10.798  67.349  1.00  0.00    -0.129 A  
HETATM   16  C   UNL     1     -10.428   9.168  68.356  1.00  0.00    -0.241 A  
HETATM   17  C   UNL     1     -10.432   8.404  67.193  1.00  0.00    -0.310 A  
HETATM   18  C   UNL     1      -9.684  10.351  68.427  1.00  0.00    -0.167 A  
HETATM   19  C   UNL     1      -8.899   9.995  66.191  1.00  0.00    -0.165 A  
HETATM   20  C   UNL     1      -9.654   8.816  66.117  1.00  0.00    -0.323 A  
BRANCH  17  21
HETATM   21  O   UNL     1     -11.143   7.250  67.001  1.00  0.00    -0.308 OA 
BRANCH  21  22
HETATM   22  C   UNL     1     -10.680   6.111  67.731  1.00  0.00    -0.303 C  
BRANCH  22  23
HETATM   23  C   UNL     1     -10.475   4.980  66.780  1.00  0.00    -0.219 C  
HETATM   24  C   UNL     1      -9.512   5.073  65.629  1.00  0.00    -0.141 C  
HETATM   25  O   UNL     1      -9.173   4.381  66.841  1.00  0.00    -0.123 OA 
ENDBRANCH  22  23
ENDBRANCH  21  22
ENDBRANCH  17  21
ENDBRANCH   2  15
TORSDOF 8
ENDMDL
MODEL       89
REMARK 921   NORMALIZED FREE ENERGY PREDICTED BY IDOCK:   -4.28 KCAL/MOL
REMARK 922        TOTAL FREE ENERGY PREDICTED BY IDOCK:   -7.44 KCAL/MOL
REMARK 923 INTER-LIGAND FREE ENERGY PREDICTED BY IDOCK:   -6.52 KCAL/MOL
REMARK 924 INTRA-LIGAND FREE ENERGY PREDICTED BY IDOCK:   -0.92 KCAL/MOL
REMARK 927      BINDING AFFINITY PREDICTED BY RF-SCORE:    0.00 PKD
ROOT
HETATM    1  C   UNL     1      -7.803   9.877  66.910  1.00  0.00    -0.102 C  
HETATM    2  C   UNL     1      -9.295  10.057  67.299  1.00  0.00    -0.170 C  
HETATM    3  C   UNL     1     -10.089   9.103  66.359  1.00  0.00    -0.345 C  
ENDROOT
BRANCH   2   4
HETATM    4  C   UNL     1      -9.764  11.518  67.036  1.00  0.00    -0.202 A  
HETATM    5  C   UNL     1     -11.101  11.835  66.721  1.00  0.00    -0.360 A  
HETATM    6  C   UNL     1     -11.511  13.162  66.533  1.00  0.00    -0.378 A  
HETATM    7  C   UNL     1      -8.857  12.590  67.122  1.00  0.00    -0.202 A  
HETATM    8  C   UNL     1      -9.277  13.917  66.965  1.00  0.00    -0.257 A  
HETATM    9  C   UNL     1     -10.599  14.209  66.651  1.00  0.00    -0.278 A  
BRANCH   9  10
HETATM   10  O   UNL     1     -11.107  15.461  66.434  1.00  0.00    -0.313 OA 
BRANCH  10  11
HETATM   11  C   UNL     1     -10.341  16.539  66.972  1.00  0.00    -0.301 C  
BRANCH  11  12
HETATM   12  C   UNL     1     -10.908  16.903  68.302  1.00  0.00    -0.357 C  
HETATM   13  O   UNL     1     -10.130  16.468  69.426  1.00  0.00    -0.264 OA 
HETATM   14  C   UNL     1     -11.417  15.854  69.252  1.00  0.00    -0.374 C  
ENDBRANCH  11  12
ENDBRANCH  10  11
ENDBRANCH   9  10
ENDBRANCH   2   4
BRANCH   2  15
HETATM   15  C   UNL     1      -9.408   9.628  68.783  1.00  0.00    -0.148 A  
HETATM   16  C   UNL     1      -8.668   8.222  70.649  1.00  0.00    -0.144 A  
HETATM   17  C   UNL     1      -9.723   8.662  71.442  1.00  0.00    -0.244 A  
HETATM   18  C   UNL     1      -8.507   8.706  69.345  1.00  0.00    -0.126 A  
HETATM   19  C   UNL     1     -10.483  10.040  69.595  1.00  0.00    -0.275 A  
HETATM   20  C   UNL     1     -10.636   9.563  70.905  1.00  0.00    -0.395 A  
BRANCH  17  21
HETATM   21  O   UNL     1      -9.960   8.281  72.735  1.00  0.00    -0.283 OA 
BRANCH  21  22
HETATM   22  C   UNL     1     -11.218   7.645  72.970  1.00  0.00    -0.333 C  
BRANCH  22  23
HETATM   23  C   UNL     1     -11.074   6.183  72.715  1.00  0.00    -0.259 C  
HETATM   24  C   UNL     1      -9.807   5.440  73.035  1.00  0.00    -0.162 C  
HETATM   25  O   UNL     1     -10.953   5.381  73.898  1.00  0.00    -0.253 OA 
ENDBRANCH  22  23
ENDBRANCH  21  22
ENDBRANCH  17  21
ENDBRANCH   2  15
TORSDOF 8
ENDMDL
MODEL       90
REMARK 921   NORMALIZED FREE ENERGY PREDICTED BY IDOCK:   -4.27 KCAL/MOL
REMARK 922        TOTAL FREE ENERGY PREDICTED BY IDOCK:   -7.44 KCAL/MOL
REMARK 923 INTER-LIGAND FREE ENERGY PREDICTED BY IDOCK:   -6.30 KCAL/MOL
REMARK 924 INTRA-LIGAND FREE ENERGY PREDICTED BY IDOCK:   -1.13 KCAL/MOL
REMARK 927      BINDING AFFINITY PREDICTED BY RF-SCORE:    0.00 PKD
ROOT
HETATM    1  C   UNL     1     -12.385  14.319  68.539  1.00  0.00    -0.034 C  
HETATM    2  C   UNL     1     -10.948  14.458  67.967  1.00  0.00    -0.268 C  
HETATM    3  C   UNL     1      -9.997  14.016  69.117  1.00  0.00     0.063 C  
ENDROOT
BRANCH   2   4
HETATM    4  C   UNL     1     -10.636  15.939  67.604  1.00  0.00    -0.307 A  
HETATM    5  C   UNL     1     -10.292  16.338  66.296  1.00  0.00    -0.335 A  
HETATM    6  C   UNL     1     -10.060  17.683  65.982  1.00  0.00    -0.263 A  
HETATM    7  C   UNL     1     -10.705  16.947  68.582  1.00  0.00    -0.345 A  
HETATM    8  C   UNL     1     -10.504  18.295  68.257  1.00  0.00    -0.324 A  
HETATM    9  C   UNL     1     -10.162  18.668  66.963  1.00  0.00    -0.381 A  
BRANCH   9  10
HETATM   10  O   UNL     1      -9.900  19.946  66.546  1.00  0.00    -0.386 OA 
BRANCH  10  11
HETATM   11  C   UNL     1      -8.575  20.179  66.069  1.00  0.00    -0.127 C  
BRANCH  11  12
HETATM   12  C   UNL     1      -7.742  20.662  67.207  1.00  0.00    -0.311 C  
HETATM   13  O   UNL     1      -6.330  20.680  66.954  1.00  0.00    -0.215 OA 
HETATM   14  C   UNL     1      -6.801  19.743  67.936  1.00  0.00    -0.249 C  
ENDBRANCH  11  12
ENDBRANCH  10  11
ENDBRANCH   9  10
ENDBRANCH   2   4
BRANCH   2  15
HETATM   15  C   UNL     1     -10.873  13.494  66.756  1.00  0.00    -0.284 A  
HETATM   16  C   UNL     1      -9.599  11.937  65.357  1.00  0.00    -0.183 A  
HETATM   17  C   UNL     1     -10.629  11.881  64.423  1.00  0.00    -0.319 A  
HETATM   18  C   UNL     1      -9.725  12.722  66.509  1.00  0.00    -0.255 A  
HETATM   19  C   UNL     1     -11.893  13.443  65.784  1.00  0.00    -0.412 A  
HETATM   20  C   UNL     1     -11.771  12.647  64.636  1.00  0.00    -0.411 A  
BRANCH  17  21
HETATM   21  O   UNL     1     -10.628  11.128  63.280  1.00  0.00    -0.343 OA 
BRANCH  21  22
HETATM   22  C   UNL     1      -9.378  11.058  62.589  1.00  0.00    -0.317 C  
BRANCH  22  23
HETATM   23  C   UNL     1      -8.969   9.628  62.477  1.00  0.00    -0.268 C  
HETATM   24  C   UNL     1      -7.792   9.075  63.230  1.00  0.00    -0.135 C  
HETATM   25  O   UNL     1      -9.139   8.865  63.679  1.00  0.00     0.105 OA 
ENDBRANCH  22  23
ENDBRANCH  21  22
ENDBRANCH  17  21
ENDBRANCH   2  15
TORSDOF 8
ENDMDL
MODEL       91
REMARK 921   NORMALIZED FREE ENERGY PREDICTED BY IDOCK:   -4.25 KCAL/MOL
REMARK 922        TOTAL FREE ENERGY PREDICTED BY IDOCK:   -7.40 KCAL/MOL
REMARK 923 INTER-LIGAND FREE ENERGY PREDICTED BY IDOCK:   -6.20 KCAL/MOL
REMARK 924 INTRA-LIGAND FREE ENERGY PREDICTED BY IDOCK:   -1.20 KCAL/MOL
REMARK 927      BINDING AFFINITY PREDICTED BY RF-SCORE:    0.00 PKD
ROOT
HETATM    1  C   UNL     1      -6.732   7.590  66.965  1.00  0.00    -0.066 C  
HETATM    2  C   UNL     1      -8.248   7.535  66.637  1.00  0.00    -0.125 C  
HETATM    3  C   UNL     1      -8.364   6.677  65.344  1.00  0.00    -0.130 C  
ENDROOT
BRANCH   2   4
HETATM    4  C   UNL     1      -8.803   8.959  66.342  1.00  0.00    -0.178 A  
HETATM    5  C   UNL     1      -8.958   9.933  67.350  1.00  0.00    -0.144 A  
HETATM    6  C   UNL     1      -9.416  11.223  67.054  1.00  0.00    -0.186 A  
HETATM    7  C   UNL     1      -9.159   9.334  65.034  1.00  0.00    -0.245 A  
HETATM    8  C   UNL     1      -9.586  10.634  64.736  1.00  0.00    -0.334 A  
HETATM    9  C   UNL     1      -9.736  11.579  65.745  1.00  0.00    -0.235 A  
BRANCH   9  10
HETATM   10  O   UNL     1     -10.186  12.860  65.575  1.00  0.00    -0.284 OA 
BRANCH  10  11
HETATM   11  C   UNL     1     -10.727  13.158  64.288  1.00  0.00    -0.409 C  
BRANCH  11  12
HETATM   12  C   UNL     1     -12.209  13.257  64.410  1.00  0.00    -0.390 C  
HETATM   13  O   UNL     1     -12.753  14.549  64.104  1.00  0.00    -0.711 OA 
HETATM   14  C   UNL     1     -12.855  14.109  65.468  1.00  0.00    -0.376 C  
ENDBRANCH  11  12
ENDBRANCH  10  11
ENDBRANCH   9  10
ENDBRANCH   2   4
BRANCH   2  15
HETATM   15  C   UNL     1      -8.925   6.845  67.848  1.00  0.00    -0.121 A  
HETATM   16  C   UNL     1     -10.949   6.075  68.994  1.00  0.00    -0.409 A  
HETATM   17  C   UNL     1     -10.224   5.776  70.144  1.00  0.00    -0.236 A  
HETATM   18  C   UNL     1     -10.307   6.590  67.862  1.00  0.00    -0.229 A  
HETATM   19  C   UNL     1      -8.215   6.561  69.032  1.00  0.00    -0.116 A  
HETATM   20  C   UNL     1      -8.857   6.034  70.162  1.00  0.00    -0.143 A  
BRANCH  17  21
HETATM   21  O   UNL     1     -10.740   5.243  71.294  1.00  0.00    -0.210 OA 
BRANCH  21  22
HETATM   22  C   UNL     1     -11.564   6.122  72.066  1.00  0.00    -0.310 C  
BRANCH  22  23
HETATM   23  C   UNL     1     -11.003   6.221  73.445  1.00  0.00    -0.147 C  
HETATM   24  C   UNL     1      -9.535   6.419  73.695  1.00  0.00    -0.150 C  
HETATM   25  O   UNL     1     -10.467   7.508  73.777  1.00  0.00    -0.317 OA 
ENDBRANCH  22  23
ENDBRANCH  21  22
ENDBRANCH  17  21
ENDBRANCH   2  15
TORSDOF 8
ENDMDL
MODEL       92
REMARK 921   NORMALIZED FREE ENERGY PREDICTED BY IDOCK:   -4.24 KCAL/MOL
REMARK 922        TOTAL FREE ENERGY PREDICTED BY IDOCK:   -7.40 KCAL/MOL
REMARK 923 INTER-LIGAND FREE ENERGY PREDICTED BY IDOCK:   -6.34 KCAL/MOL
REMARK 924 INTRA-LIGAND FREE ENERGY PREDICTED BY IDOCK:   -1.06 KCAL/MOL
REMARK 927      BINDING AFFINITY PREDICTED BY RF-SCORE:    0.00 PKD
ROOT
HETATM    1  C   UNL     1     -10.572   5.168  71.835  1.00  0.00    -0.256 C  
HETATM    2  C   UNL     1      -9.816   6.401  71.274  1.00  0.00    -0.200 C  
HETATM    3  C   UNL     1      -8.580   6.591  72.202  1.00  0.00    -0.123 C  
ENDROOT
BRANCH   2   4
HETATM    4  C   UNL     1     -10.701   7.679  71.356  1.00  0.00    -0.247 A  
HETATM    5  C   UNL     1     -11.901   7.719  72.096  1.00  0.00    -0.370 A  
HETATM    6  C   UNL     1     -12.659   8.892  72.194  1.00  0.00    -0.467 A  
HETATM    7  C   UNL     1     -10.318   8.862  70.698  1.00  0.00    -0.265 A  
HETATM    8  C   UNL     1     -11.061  10.042  70.825  1.00  0.00    -0.407 A  
HETATM    9  C   UNL     1     -12.243  10.060  71.556  1.00  0.00    -0.405 A  
BRANCH   9  10
HETATM   10  O   UNL     1     -13.068  11.141  71.709  1.00  0.00    -0.467 OA 
BRANCH  10  11
HETATM   11  C   UNL     1     -12.604  12.359  71.124  1.00  0.00    -0.251 C  
BRANCH  11  12
HETATM   12  C   UNL     1     -13.086  13.496  71.959  1.00  0.00    -0.387 C  
HETATM   13  O   UNL     1     -14.341  13.271  72.616  1.00  0.00    -0.679 OA 
HETATM   14  C   UNL     1     -14.318  14.275  71.588  1.00  0.00    -0.374 C  
ENDBRANCH  11  12
ENDBRANCH  10  11
ENDBRANCH   9  10
ENDBRANCH   2   4
BRANCH   2  15
HETATM   15  C   UNL     1      -9.398   6.029  69.829  1.00  0.00    -0.166 A  
HETATM   16  C   UNL     1      -9.989   5.259  67.579  1.00  0.00    -0.206 A  
HETATM   17  C   UNL     1      -8.647   5.135  67.233  1.00  0.00    -0.104 A  
HETATM   18  C   UNL     1     -10.357   5.709  68.853  1.00  0.00    -0.295 A  
HETATM   19  C   UNL     1      -8.045   5.872  69.466  1.00  0.00    -0.106 A  
HETATM   20  C   UNL     1      -7.678   5.432  68.186  1.00  0.00    -0.085 A  
BRANCH  17  21
HETATM   21  O   UNL     1      -8.174   4.735  66.013  1.00  0.00    -0.110 OA 
BRANCH  21  22
HETATM   22  C   UNL     1      -8.867   5.262  64.879  1.00  0.00    -0.088 C  
BRANCH  22  23
HETATM   23  C   UNL     1      -7.873   5.598  63.819  1.00  0.00    -0.108 C  
HETATM   24  C   UNL     1      -8.139   5.332  62.364  1.00  0.00    -0.091 C  
HETATM   25  O   UNL     1      -8.284   6.644  62.928  1.00  0.00    -0.081 OA 
ENDBRANCH  22  23
ENDBRANCH  21  22
ENDBRANCH  17  21
ENDBRANCH   2  15
TORSDOF 8
ENDMDL
MODEL       93
REMARK 921   NORMALIZED FREE ENERGY PREDICTED BY IDOCK:   -4.23 KCAL/MOL
REMARK 922        TOTAL FREE ENERGY PREDICTED BY IDOCK:   -7.38 KCAL/MOL
REMARK 923 INTER-LIGAND FREE ENERGY PREDICTED BY IDOCK:   -6.34 KCAL/MOL
REMARK 924 INTRA-LIGAND FREE ENERGY PREDICTED BY IDOCK:   -1.04 KCAL/MOL
REMARK 927      BINDING AFFINITY PREDICTED BY RF-SCORE:    0.00 PKD
ROOT
HETATM    1  C   UNL     1      -9.507   8.659  71.660  1.00  0.00    -0.339 C  
HETATM    2  C   UNL     1     -10.646   8.297  70.670  1.00  0.00    -0.235 C  
HETATM    3  C   UNL     1     -11.719   7.557  71.521  1.00  0.00    -0.309 C  
ENDROOT
BRANCH   2   4
HETATM    4  C   UNL     1     -10.133   7.328  69.565  1.00  0.00    -0.182 A  
HETATM    5  C   UNL     1      -8.771   7.248  69.206  1.00  0.00    -0.137 A  
HETATM    6  C   UNL     1      -8.324   6.336  68.240  1.00  0.00    -0.115 A  
HETATM    7  C   UNL     1     -11.022   6.475  68.888  1.00  0.00    -0.376 A  
HETATM    8  C   UNL     1     -10.568   5.543  67.947  1.00  0.00    -0.219 A  
HETATM    9  C   UNL     1      -9.222   5.481  67.604  1.00  0.00    -0.110 A  
BRANCH   9  10
HETATM   10  O   UNL     1      -8.677   4.643  66.669  1.00  0.00    -0.112 OA 
BRANCH  10  11
HETATM   11  C   UNL     1      -9.584   3.721  66.064  1.00  0.00    -0.159 C  
BRANCH  11  12
HETATM   12  C   UNL     1      -9.789   4.124  64.643  1.00  0.00    -0.178 C  
HETATM   13  O   UNL     1     -11.156   4.118  64.208  1.00  0.00    -0.259 OA 
HETATM   14  C   UNL     1     -10.281   3.146  63.613  1.00  0.00    -0.198 C  
ENDBRANCH  11  12
ENDBRANCH  10  11
ENDBRANCH   9  10
ENDBRANCH   2   4
BRANCH   2  15
HETATM   15  C   UNL     1     -11.177   9.643  70.116  1.00  0.00    -0.302 A  
HETATM   16  C   UNL     1     -11.283  11.307  68.321  1.00  0.00    -0.331 A  
HETATM   17  C   UNL     1     -11.959  12.201  69.145  1.00  0.00    -0.255 A  
HETATM   18  C   UNL     1     -10.910  10.044  68.796  1.00  0.00    -0.252 A  
HETATM   19  C   UNL     1     -11.839  10.574  70.941  1.00  0.00    -0.455 A  
HETATM   20  C   UNL     1     -12.223  11.834  70.460  1.00  0.00    -0.438 A  
BRANCH  17  21
HETATM   21  O   UNL     1     -12.397  13.445  68.779  1.00  0.00    -0.205 OA 
BRANCH  21  22
HETATM   22  C   UNL     1     -11.673  14.067  67.714  1.00  0.00    -0.368 C  
BRANCH  22  23
HETATM   23  C   UNL     1     -10.764  15.100  68.288  1.00  0.00    -0.251 C  
HETATM   24  C   UNL     1      -9.620  15.680  67.503  1.00  0.00    -0.224 C  
HETATM   25  O   UNL     1     -10.859  16.388  67.666  1.00  0.00    -0.327 OA 
ENDBRANCH  22  23
ENDBRANCH  21  22
ENDBRANCH  17  21
ENDBRANCH   2  15
TORSDOF 8
ENDMDL
MODEL       94
REMARK 921   NORMALIZED FREE ENERGY PREDICTED BY IDOCK:   -4.23 KCAL/MOL
REMARK 922        TOTAL FREE ENERGY PREDICTED BY IDOCK:   -7.37 KCAL/MOL
REMARK 923 INTER-LIGAND FREE ENERGY PREDICTED BY IDOCK:   -6.32 KCAL/MOL
REMARK 924 INTRA-LIGAND FREE ENERGY PREDICTED BY IDOCK:   -1.05 KCAL/MOL
REMARK 927      BINDING AFFINITY PREDICTED BY RF-SCORE:    0.00 PKD
ROOT
HETATM    1  C   UNL     1      -7.602  12.175  68.865  1.00  0.00     0.003 C  
HETATM    2  C   UNL     1      -8.003  12.075  67.369  1.00  0.00    -0.165 C  
HETATM    3  C   UNL     1      -6.668  11.889  66.591  1.00  0.00     0.084 C  
ENDROOT
BRANCH   2   4
HETATM    4  C   UNL     1      -8.681  13.391  66.888  1.00  0.00    -0.154 A  
HETATM    5  C   UNL     1      -8.226  14.664  67.287  1.00  0.00    -0.235 A  
HETATM    6  C   UNL     1      -8.822  15.836  66.806  1.00  0.00    -0.299 A  
HETATM    7  C   UNL     1      -9.780  13.353  66.010  1.00  0.00    -0.228 A  
HETATM    8  C   UNL     1     -10.352  14.528  65.505  1.00  0.00    -0.379 A  
HETATM    9  C   UNL     1      -9.891  15.773  65.914  1.00  0.00    -0.349 A  
BRANCH   9  10
HETATM   10  O   UNL     1     -10.404  16.980  65.521  1.00  0.00    -0.585 OA 
BRANCH  10  11
HETATM   11  C   UNL     1     -10.750  17.876  66.577  1.00  0.00    -0.116 C  
BRANCH  11  12
HETATM   12  C   UNL     1     -10.473  19.269  66.123  1.00  0.00    -0.488 C  
HETATM   13  O   UNL     1      -9.089  19.556  65.873  1.00  0.00    -0.406 OA 
HETATM   14  C   UNL     1      -9.703  20.236  66.980  1.00  0.00    -0.458 C  
ENDBRANCH  11  12
ENDBRANCH  10  11
ENDBRANCH   9  10
ENDBRANCH   2   4
BRANCH   2  15
HETATM   15  C   UNL     1      -8.916  10.828  67.251  1.00  0.00    -0.143 A  
HETATM   16  C   UNL     1     -10.753   9.453  68.111  1.00  0.00    -0.230 A  
HETATM   17  C   UNL     1     -10.472   8.446  67.193  1.00  0.00    -0.310 A  
HETATM   18  C   UNL     1      -9.994  10.629  68.131  1.00  0.00    -0.176 A  
HETATM   19  C   UNL     1      -8.633   9.785  66.348  1.00  0.00    -0.132 A  
HETATM   20  C   UNL     1      -9.402   8.612  66.320  1.00  0.00    -0.282 A  
BRANCH  17  21
HETATM   21  O   UNL     1     -11.164   7.272  67.063  1.00  0.00    -0.221 OA 
BRANCH  21  22
HETATM   22  C   UNL     1     -10.625   6.156  67.777  1.00  0.00    -0.269 C  
BRANCH  22  23
HETATM   23  C   UNL     1     -11.149   6.181  69.173  1.00  0.00    -0.378 C  
HETATM   24  C   UNL     1     -10.659   5.224  70.224  1.00  0.00    -0.218 C  
HETATM   25  O   UNL     1     -10.189   6.579  70.161  1.00  0.00    -0.185 OA 
ENDBRANCH  22  23
ENDBRANCH  21  22
ENDBRANCH  17  21
ENDBRANCH   2  15
TORSDOF 8
ENDMDL
MODEL       95
REMARK 921   NORMALIZED FREE ENERGY PREDICTED BY IDOCK:   -4.21 KCAL/MOL
REMARK 922        TOTAL FREE ENERGY PREDICTED BY IDOCK:   -7.35 KCAL/MOL
REMARK 923 INTER-LIGAND FREE ENERGY PREDICTED BY IDOCK:   -6.30 KCAL/MOL
REMARK 924 INTRA-LIGAND FREE ENERGY PREDICTED BY IDOCK:   -1.05 KCAL/MOL
REMARK 927      BINDING AFFINITY PREDICTED BY RF-SCORE:    0.00 PKD
ROOT
HETATM    1  C   UNL     1     -13.182   7.357  71.527  1.00  0.00    -0.426 C  
HETATM    2  C   UNL     1     -11.681   7.741  71.439  1.00  0.00    -0.310 C  
HETATM    3  C   UNL     1     -11.179   7.807  72.911  1.00  0.00    -0.434 C  
ENDROOT
BRANCH   2   4
HETATM    4  C   UNL     1     -11.505   9.145  70.790  1.00  0.00    -0.337 A  
HETATM    5  C   UNL     1     -12.474  10.162  70.920  1.00  0.00    -0.455 A  
HETATM    6  C   UNL     1     -12.275  11.434  70.367  1.00  0.00    -0.450 A  
HETATM    7  C   UNL     1     -10.347   9.458  70.055  1.00  0.00    -0.265 A  
HETATM    8  C   UNL     1     -10.138  10.740  69.531  1.00  0.00    -0.117 A  
HETATM    9  C   UNL     1     -11.106  11.727  69.666  1.00  0.00    -0.070 A  
BRANCH   9  10
HETATM   10  O   UNL     1     -11.026  12.995  69.158  1.00  0.00    -0.222 OA 
BRANCH  10  11
HETATM   11  C   UNL     1     -12.259  13.713  69.093  1.00  0.00    -0.224 C  
BRANCH  11  12
HETATM   12  C   UNL     1     -12.072  15.033  69.762  1.00  0.00    -0.314 C  
HETATM   13  O   UNL     1     -11.602  14.959  71.116  1.00  0.00    -0.309 OA 
HETATM   14  C   UNL     1     -12.936  15.456  70.918  1.00  0.00    -0.478 C  
ENDBRANCH  11  12
ENDBRANCH  10  11
ENDBRANCH   9  10
ENDBRANCH   2   4
BRANCH   2  15
HETATM   15  C   UNL     1     -10.991   6.602  70.646  1.00  0.00    -0.329 A  
HETATM   16  C   UNL     1     -10.683   5.350  68.563  1.00  0.00    -0.075 A  
HETATM   17  C   UNL     1      -9.909   4.394  69.213  1.00  0.00    -0.148 A  
HETATM   18  C   UNL     1     -11.205   6.441  69.267  1.00  0.00    -0.440 A  
HETATM   19  C   UNL     1     -10.226   5.609  71.290  1.00  0.00    -0.279 A  
HETATM   20  C   UNL     1      -9.694   4.522  70.582  1.00  0.00    -0.282 A  
BRANCH  17  21
HETATM   21  O   UNL     1      -9.324   3.307  68.623  1.00  0.00    -0.159 OA 
BRANCH  21  22
HETATM   22  C   UNL     1      -7.934   3.125  68.902  1.00  0.00    -0.056 C  
BRANCH  22  23
HETATM   23  C   UNL     1      -7.140   3.995  67.987  1.00  0.00    -0.059 C  
HETATM   24  C   UNL     1      -6.449   5.239  68.470  1.00  0.00    -0.040 C  
HETATM   25  O   UNL     1      -5.732   4.014  68.255  1.00  0.00    -0.019 OA 
ENDBRANCH  22  23
ENDBRANCH  21  22
ENDBRANCH  17  21
ENDBRANCH   2  15
TORSDOF 8
ENDMDL
MODEL       96
REMARK 921   NORMALIZED FREE ENERGY PREDICTED BY IDOCK:   -4.20 KCAL/MOL
REMARK 922        TOTAL FREE ENERGY PREDICTED BY IDOCK:   -7.33 KCAL/MOL
REMARK 923 INTER-LIGAND FREE ENERGY PREDICTED BY IDOCK:   -6.40 KCAL/MOL
REMARK 924 INTRA-LIGAND FREE ENERGY PREDICTED BY IDOCK:   -0.94 KCAL/MOL
REMARK 927      BINDING AFFINITY PREDICTED BY RF-SCORE:    0.00 PKD
ROOT
HETATM    1  C   UNL     1     -12.472  10.244  71.759  1.00  0.00    -0.431 C  
HETATM    2  C   UNL     1     -11.627   9.317  70.846  1.00  0.00    -0.364 C  
HETATM    3  C   UNL     1     -12.495   8.044  70.625  1.00  0.00     0.224 C  
ENDROOT
BRANCH   2   4
HETATM    4  C   UNL     1     -10.303   8.901  71.552  1.00  0.00    -0.394 A  
HETATM    5  C   UNL     1     -10.289   8.225  72.789  1.00  0.00    -0.330 A  
HETATM    6  C   UNL     1      -9.088   7.819  73.385  1.00  0.00    -0.336 A  
HETATM    7  C   UNL     1      -9.057   9.174  70.960  1.00  0.00    -0.305 A  
HETATM    8  C   UNL     1      -7.860   8.738  71.543  1.00  0.00    -0.147 A  
HETATM    9  C   UNL     1      -7.867   8.077  72.765  1.00  0.00    -0.132 A  
BRANCH   9  10
HETATM   10  O   UNL     1      -6.759   7.648  73.444  1.00  0.00    -0.068 OA 
BRANCH  10  11
HETATM   11  C   UNL     1      -6.878   6.373  74.075  1.00  0.00    -0.081 C  
BRANCH  11  12
HETATM   12  C   UNL     1      -6.202   5.357  73.217  1.00  0.00    -0.055 C  
HETATM   13  O   UNL     1      -7.068   4.672  72.302  1.00  0.00    -0.061 OA 
HETATM   14  C   UNL     1      -6.494   3.889  73.361  1.00  0.00    -0.036 C  
ENDBRANCH  11  12
ENDBRANCH  10  11
ENDBRANCH   9  10
ENDBRANCH   2   4
BRANCH   2  15
HETATM   15  C   UNL     1     -11.406  10.098  69.526  1.00  0.00    -0.260 A  
HETATM   16  C   UNL     1     -10.531  10.200  67.239  1.00  0.00    -0.313 A  
HETATM   17  C   UNL     1     -10.793  11.564  67.165  1.00  0.00    -0.268 A  
HETATM   18  C   UNL     1     -10.843   9.478  68.397  1.00  0.00    -0.183 A  
HETATM   19  C   UNL     1     -11.638  11.485  69.438  1.00  0.00    -0.388 A  
HETATM   20  C   UNL     1     -11.336  12.205  68.273  1.00  0.00    -0.343 A  
BRANCH  17  21
HETATM   21  O   UNL     1     -10.558  12.362  66.077  1.00  0.00    -0.247 OA 
BRANCH  21  22
HETATM   22  C   UNL     1     -11.292  12.027  64.896  1.00  0.00    -0.310 C  
BRANCH  22  23
HETATM   23  C   UNL     1     -12.576  12.785  64.897  1.00  0.00    -0.470 C  
HETATM   24  C   UNL     1     -12.645  14.235  65.286  1.00  0.00    -0.394 C  
HETATM   25  O   UNL     1     -12.655  13.823  63.910  1.00  0.00    -0.701 OA 
ENDBRANCH  22  23
ENDBRANCH  21  22
ENDBRANCH  17  21
ENDBRANCH   2  15
TORSDOF 8
ENDMDL
MODEL       97
REMARK 921   NORMALIZED FREE ENERGY PREDICTED BY IDOCK:   -4.18 KCAL/MOL
REMARK 922        TOTAL FREE ENERGY PREDICTED BY IDOCK:   -7.31 KCAL/MOL
REMARK 923 INTER-LIGAND FREE ENERGY PREDICTED BY IDOCK:   -6.05 KCAL/MOL
REMARK 924 INTRA-LIGAND FREE ENERGY PREDICTED BY IDOCK:   -1.26 KCAL/MOL
REMARK 927      BINDING AFFINITY PREDICTED BY RF-SCORE:    0.00 PKD
ROOT
HETATM    1  C   UNL     1     -10.708   8.430  70.046  1.00  0.00    -0.236 C  
HETATM    2  C   UNL     1      -9.886   8.877  68.808  1.00  0.00    -0.182 C  
HETATM    3  C   UNL     1      -8.463   9.204  69.348  1.00  0.00    -0.130 C  
ENDROOT
BRANCH   2   4
HETATM    4  C   UNL     1     -10.488  10.166  68.179  1.00  0.00    -0.243 A  
HETATM    5  C   UNL     1     -10.444  10.420  66.792  1.00  0.00    -0.287 A  
HETATM    6  C   UNL     1     -11.033  11.566  66.241  1.00  0.00    -0.328 A  
HETATM    7  C   UNL     1     -11.123  11.129  68.983  1.00  0.00    -0.299 A  
HETATM    8  C   UNL     1     -11.739  12.257  68.426  1.00  0.00    -0.390 A  
HETATM    9  C   UNL     1     -11.680  12.492  67.057  1.00  0.00    -0.367 A  
BRANCH   9  10
HETATM   10  O   UNL     1     -12.207  13.579  66.413  1.00  0.00    -0.415 OA 
BRANCH  10  11
HETATM   11  C   UNL     1     -11.328  14.242  65.504  1.00  0.00    -0.325 C  
BRANCH  11  12
HETATM   12  C   UNL     1     -10.590  15.302  66.250  1.00  0.00    -0.309 C  
HETATM   13  O   UNL     1      -9.958  16.290  65.423  1.00  0.00    -0.514 OA 
HETATM   14  C   UNL     1      -9.093  15.419  66.170  1.00  0.00    -0.304 C  
ENDBRANCH  11  12
ENDBRANCH  10  11
ENDBRANCH   9  10
ENDBRANCH   2   4
BRANCH   2  15
HETATM   15  C   UNL     1      -9.870   7.665  67.843  1.00  0.00    -0.190 A  
HETATM   16  C   UNL     1     -10.998   5.735  66.839  1.00  0.00    -0.242 A  
HETATM   17  C   UNL     1      -9.814   5.311  66.244  1.00  0.00    -0.182 A  
HETATM   18  C   UNL     1     -11.027   6.899  67.615  1.00  0.00    -0.304 A  
HETATM   19  C   UNL     1      -8.677   7.202  67.253  1.00  0.00    -0.120 A  
HETATM   20  C   UNL     1      -8.652   6.042  66.465  1.00  0.00    -0.124 A  
BRANCH  17  21
HETATM   21  O   UNL     1      -9.676   4.209  65.443  1.00  0.00    -0.174 OA 
BRANCH  21  22
HETATM   22  C   UNL     1      -8.396   4.053  64.824  1.00  0.00    -0.102 C  
BRANCH  22  23
HETATM   23  C   UNL     1      -7.937   2.647  65.013  1.00  0.00    -0.082 C  
HETATM   24  C   UNL     1      -7.939   1.983  66.361  1.00  0.00    -0.077 C  
HETATM   25  O   UNL     1      -8.972   1.731  65.396  1.00  0.00    -0.122 OA 
ENDBRANCH  22  23
ENDBRANCH  21  22
ENDBRANCH  17  21
ENDBRANCH   2  15
TORSDOF 8
ENDMDL
MODEL       98
REMARK 921   NORMALIZED FREE ENERGY PREDICTED BY IDOCK:   -4.18 KCAL/MOL
REMARK 922        TOTAL FREE ENERGY PREDICTED BY IDOCK:   -7.31 KCAL/MOL
REMARK 923 INTER-LIGAND FREE ENERGY PREDICTED BY IDOCK:   -6.14 KCAL/MOL
REMARK 924 INTRA-LIGAND FREE ENERGY PREDICTED BY IDOCK:   -1.17 KCAL/MOL
REMARK 927      BINDING AFFINITY PREDICTED BY RF-SCORE:    0.00 PKD
ROOT
HETATM    1  C   UNL     1     -10.799   6.265  66.729  1.00  0.00    -0.367 C  
HETATM    2  C   UNL     1      -9.607   7.194  67.085  1.00  0.00    -0.191 C  
HETATM    3  C   UNL     1      -8.507   6.884  66.028  1.00  0.00    -0.140 C  
ENDROOT
BRANCH   2   4
HETATM    4  C   UNL     1      -9.047   6.862  68.498  1.00  0.00    -0.127 A  
HETATM    5  C   UNL     1      -7.961   7.561  69.063  1.00  0.00    -0.122 A  
HETATM    6  C   UNL     1      -7.502   7.277  70.355  1.00  0.00    -0.083 A  
HETATM    7  C   UNL     1      -9.628   5.846  69.280  1.00  0.00    -0.172 A  
HETATM    8  C   UNL     1      -9.187   5.587  70.584  1.00  0.00    -0.180 A  
HETATM    9  C   UNL     1      -8.112   6.284  71.121  1.00  0.00    -0.118 A  
BRANCH   9  10
HETATM   10  O   UNL     1      -7.573   6.083  72.363  1.00  0.00    -0.097 OA 
BRANCH  10  11
HETATM   11  C   UNL     1      -8.246   5.124  73.179  1.00  0.00    -0.108 C  
BRANCH  11  12
HETATM   12  C   UNL     1      -8.894   5.842  74.314  1.00  0.00    -0.123 C  
HETATM   13  O   UNL     1     -10.305   5.616  74.442  1.00  0.00    -0.270 OA 
HETATM   14  C   UNL     1      -9.891   6.943  74.079  1.00  0.00    -0.320 C  
ENDBRANCH  11  12
ENDBRANCH  10  11
ENDBRANCH   9  10
ENDBRANCH   2   4
BRANCH   2  15
HETATM   15  C   UNL     1     -10.138   8.644  66.953  1.00  0.00    -0.355 A  
HETATM   16  C   UNL     1     -10.178  10.792  65.776  1.00  0.00    -0.319 A  
HETATM   17  C   UNL     1     -10.924  11.375  66.796  1.00  0.00    -0.291 A  
HETATM   18  C   UNL     1      -9.801   9.446  65.850  1.00  0.00    -0.362 A  
HETATM   19  C   UNL     1     -10.872   9.261  67.986  1.00  0.00    -0.166 A  
HETATM   20  C   UNL     1     -11.258  10.607  67.906  1.00  0.00    -0.376 A  
BRANCH  17  21
HETATM   21  O   UNL     1     -11.371  12.668  66.816  1.00  0.00    -0.285 OA 
BRANCH  21  22
HETATM   22  C   UNL     1     -12.178  13.060  65.701  1.00  0.00    -0.466 C  
BRANCH  22  23
HETATM   23  C   UNL     1     -11.543  14.235  65.037  1.00  0.00    -0.367 C  
HETATM   24  C   UNL     1     -10.677  15.205  65.791  1.00  0.00    -0.351 C  
HETATM   25  O   UNL     1     -10.112  14.176  64.965  1.00  0.00    -0.383 OA 
ENDBRANCH  22  23
ENDBRANCH  21  22
ENDBRANCH  17  21
ENDBRANCH   2  15
TORSDOF 8
ENDMDL
MODEL       99
REMARK 921   NORMALIZED FREE ENERGY PREDICTED BY IDOCK:   -4.15 KCAL/MOL
REMARK 922        TOTAL FREE ENERGY PREDICTED BY IDOCK:   -7.26 KCAL/MOL
REMARK 923 INTER-LIGAND FREE ENERGY PREDICTED BY IDOCK:   -6.35 KCAL/MOL
REMARK 924 INTRA-LIGAND FREE ENERGY PREDICTED BY IDOCK:   -0.91 KCAL/MOL
REMARK 927      BINDING AFFINITY PREDICTED BY RF-SCORE:    0.00 PKD
ROOT
HETATM    1  C   UNL     1     -13.781   9.505  70.456  1.00  0.00     0.451 C  
HETATM    2  C   UNL     1     -12.603  10.401  70.924  1.00  0.00    -0.478 C  
HETATM    3  C   UNL     1     -13.185  11.299  72.054  1.00  0.00    -0.437 C  
ENDROOT
BRANCH   2   4
HETATM    4  C   UNL     1     -12.109  11.316  69.766  1.00  0.00    -0.394 A  
HETATM    5  C   UNL     1     -11.702  10.801  68.518  1.00  0.00    -0.259 A  
HETATM    6  C   UNL     1     -11.304  11.646  67.474  1.00  0.00    -0.364 A  
HETATM    7  C   UNL     1     -12.069  12.714  69.922  1.00  0.00    -0.322 A  
HETATM    8  C   UNL     1     -11.702  13.557  68.866  1.00  0.00    -0.379 A  
HETATM    9  C   UNL     1     -11.300  13.029  67.645  1.00  0.00    -0.300 A  
BRANCH   9  10
HETATM   10  O   UNL     1     -10.880  13.755  66.563  1.00  0.00    -0.286 OA 
BRANCH  10  11
HETATM   11  C   UNL     1      -9.485  13.675  66.269  1.00  0.00    -0.191 C  
BRANCH  11  12
HETATM   12  C   UNL     1      -8.812  14.874  66.845  1.00  0.00    -0.258 C  
HETATM   13  O   UNL     1      -9.700  15.924  67.254  1.00  0.00    -0.221 OA 
HETATM   14  C   UNL     1      -8.836  16.202  66.140  1.00  0.00    -0.332 C  
ENDBRANCH  11  12
ENDBRANCH  10  11
ENDBRANCH   9  10
ENDBRANCH   2   4
BRANCH   2  15
HETATM   15  C   UNL     1     -11.515   9.436  71.458  1.00  0.00    -0.467 A  
HETATM   16  C   UNL     1     -10.819   7.667  73.004  1.00  0.00    -0.457 A  
HETATM   17  C   UNL     1      -9.491   7.798  72.608  1.00  0.00    -0.193 A  
HETATM   18  C   UNL     1     -11.815   8.466  72.429  1.00  0.00    -0.452 A  
HETATM   19  C   UNL     1     -10.161   9.569  71.091  1.00  0.00    -0.262 A  
HETATM   20  C   UNL     1      -9.166   8.761  71.659  1.00  0.00    -0.333 A  
BRANCH  17  21
HETATM   21  O   UNL     1      -8.443   7.054  73.079  1.00  0.00    -0.113 OA 
BRANCH  21  22
HETATM   22  C   UNL     1      -8.464   5.668  72.726  1.00  0.00    -0.120 C  
BRANCH  22  23
HETATM   23  C   UNL     1      -7.275   5.369  71.877  1.00  0.00    -0.086 C  
HETATM   24  C   UNL     1      -6.979   3.981  71.381  1.00  0.00    -0.032 C  
HETATM   25  O   UNL     1      -7.588   4.969  70.536  1.00  0.00    -0.066 OA 
ENDBRANCH  22  23
ENDBRANCH  21  22
ENDBRANCH  17  21
ENDBRANCH   2  15
TORSDOF 8
ENDMDL
MODEL      100
REMARK 921   NORMALIZED FREE ENERGY PREDICTED BY IDOCK:   -4.10 KCAL/MOL
REMARK 922        TOTAL FREE ENERGY PREDICTED BY IDOCK:   -7.19 KCAL/MOL
REMARK 923 INTER-LIGAND FREE ENERGY PREDICTED BY IDOCK:   -6.09 KCAL/MOL
REMARK 924 INTRA-LIGAND FREE ENERGY PREDICTED BY IDOCK:   -1.10 KCAL/MOL
REMARK 927      BINDING AFFINITY PREDICTED BY RF-SCORE:    0.00 PKD
ROOT
HETATM    1  C   UNL     1      -7.358   9.449  66.468  1.00  0.00    -0.093 C  
HETATM    2  C   UNL     1      -8.907   9.524  66.435  1.00  0.00    -0.164 C  
HETATM    3  C   UNL     1      -9.304   9.302  64.946  1.00  0.00    -0.142 C  
ENDROOT
BRANCH   2   4
HETATM    4  C   UNL     1      -9.404  10.931  66.878  1.00  0.00    -0.186 A  
HETATM    5  C   UNL     1     -10.683  11.420  66.541  1.00  0.00    -0.325 A  
HETATM    6  C   UNL     1     -11.128  12.670  66.988  1.00  0.00    -0.322 A  
HETATM    7  C   UNL     1      -8.586  11.770  67.657  1.00  0.00    -0.153 A  
HETATM    8  C   UNL     1      -9.046  13.005  68.129  1.00  0.00    -0.204 A  
HETATM    9  C   UNL     1     -10.309  13.471  67.782  1.00  0.00    -0.241 A  
BRANCH   9  10
HETATM   10  O   UNL     1     -10.841  14.677  68.150  1.00  0.00    -0.243 OA 
BRANCH  10  11
HETATM   11  C   UNL     1     -12.131  14.623  68.758  1.00  0.00    -0.202 C  
BRANCH  11  12
HETATM   12  C   UNL     1     -11.961  14.727  70.236  1.00  0.00    -0.310 C  
HETATM   13  O   UNL     1     -12.934  15.549  70.897  1.00  0.00    -0.463 OA 
HETATM   14  C   UNL     1     -11.578  16.025  70.892  1.00  0.00    -0.418 C  
ENDBRANCH  11  12
ENDBRANCH  10  11
ENDBRANCH   9  10
ENDBRANCH   2   4
BRANCH   2  15
HETATM   15  C   UNL     1      -9.413   8.374  67.343  1.00  0.00    -0.185 A  
HETATM   16  C   UNL     1     -10.957   6.518  67.757  1.00  0.00    -0.407 A  
HETATM   17  C   UNL     1     -10.507   6.392  69.067  1.00  0.00    -0.224 A  
HETATM   18  C   UNL     1     -10.410   7.486  66.907  1.00  0.00    -0.379 A  
HETATM   19  C   UNL     1      -8.990   8.247  68.682  1.00  0.00    -0.137 A  
HETATM   20  C   UNL     1      -9.531   7.269  69.529  1.00  0.00    -0.155 A  
BRANCH  17  21
HETATM   21  O   UNL     1     -10.946   5.466  69.975  1.00  0.00    -0.249 OA 
BRANCH  21  22
HETATM   22  C   UNL     1      -9.924   4.793  70.715  1.00  0.00    -0.221 C  
BRANCH  22  23
HETATM   23  C   UNL     1     -10.072   5.133  72.159  1.00  0.00    -0.193 C  
HETATM   24  C   UNL     1     -11.351   5.688  72.720  1.00  0.00    -0.299 C  
HETATM   25  O   UNL     1     -10.999   4.305  72.873  1.00  0.00    -0.179 OA 
ENDBRANCH  22  23
ENDBRANCH  21  22
ENDBRANCH  17  21
ENDBRANCH   2  15
TORSDOF 8
ENDMDL
MODEL      101
REMARK 921   NORMALIZED FREE ENERGY PREDICTED BY IDOCK:   -4.09 KCAL/MOL
REMARK 922        TOTAL FREE ENERGY PREDICTED BY IDOCK:   -7.17 KCAL/MOL
REMARK 923 INTER-LIGAND FREE ENERGY PREDICTED BY IDOCK:   -5.83 KCAL/MOL
REMARK 924 INTRA-LIGAND FREE ENERGY PREDICTED BY IDOCK:   -1.35 KCAL/MOL
REMARK 927      BINDING AFFINITY PREDICTED BY RF-SCORE:    0.00 PKD
ROOT
HETATM    1  C   UNL     1      -6.576   6.780  68.865  1.00  0.00    -0.051 C  
HETATM    2  C   UNL     1      -7.860   6.559  68.022  1.00  0.00    -0.105 C  
HETATM    3  C   UNL     1      -7.709   5.143  67.393  1.00  0.00    -0.092 C  
ENDROOT
BRANCH   2   4
HETATM    4  C   UNL     1      -7.957   7.606  66.874  1.00  0.00    -0.115 A  
HETATM    5  C   UNL     1      -8.056   7.231  65.519  1.00  0.00    -0.132 A  
HETATM    6  C   UNL     1      -8.188   8.189  64.505  1.00  0.00    -0.118 A  
HETATM    7  C   UNL     1      -7.965   8.984  67.157  1.00  0.00    -0.102 A  
HETATM    8  C   UNL     1      -8.129   9.937  66.145  1.00  0.00    -0.119 A  
HETATM    9  C   UNL     1      -8.222   9.548  64.814  1.00  0.00    -0.143 A  
BRANCH   9  10
HETATM   10  O   UNL     1      -8.340  10.393  63.744  1.00  0.00    -0.171 OA 
BRANCH  10  11
HETATM   11  C   UNL     1      -9.641  10.473  63.161  1.00  0.00    -0.336 C  
BRANCH  11  12
HETATM   12  C   UNL     1     -10.147  11.866  63.327  1.00  0.00    -0.396 C  
HETATM   13  O   UNL     1     -10.416  12.251  64.683  1.00  0.00    -0.279 OA 
HETATM   14  C   UNL     1     -11.546  12.142  63.802  1.00  0.00    -0.470 C  
ENDBRANCH  11  12
ENDBRANCH  10  11
ENDBRANCH   9  10
ENDBRANCH   2   4
BRANCH   2  15
HETATM   15  C   UNL     1      -9.044   6.622  69.020  1.00  0.00    -0.133 A  
HETATM   16  C   UNL     1     -11.439   6.402  69.489  1.00  0.00    -0.412 A  
HETATM   17  C   UNL     1     -11.271   6.932  70.765  1.00  0.00    -0.294 A  
HETATM   18  C   UNL     1     -10.341   6.240  68.636  1.00  0.00    -0.243 A  
HETATM   19  C   UNL     1      -8.902   7.180  70.306  1.00  0.00    -0.148 A  
HETATM   20  C   UNL     1     -10.000   7.332  71.164  1.00  0.00    -0.186 A  
BRANCH  17  21
HETATM   21  O   UNL     1     -12.264   7.107  71.691  1.00  0.00    -0.312 OA 
BRANCH  21  22
HETATM   22  C   UNL     1     -12.168   8.295  72.480  1.00  0.00    -0.307 C  
BRANCH  22  23
HETATM   23  C   UNL     1     -13.345   9.164  72.189  1.00  0.00    -0.463 C  
HETATM   24  C   UNL     1     -13.202  10.637  71.925  1.00  0.00    -0.423 C  
HETATM   25  O   UNL     1     -13.378   9.694  70.857  1.00  0.00    -0.279 OA 
ENDBRANCH  22  23
ENDBRANCH  21  22
ENDBRANCH  17  21
ENDBRANCH   2  15
TORSDOF 8
ENDMDL
MODEL      102
REMARK 921   NORMALIZED FREE ENERGY PREDICTED BY IDOCK:   -4.08 KCAL/MOL
REMARK 922        TOTAL FREE ENERGY PREDICTED BY IDOCK:   -7.16 KCAL/MOL
REMARK 923 INTER-LIGAND FREE ENERGY PREDICTED BY IDOCK:   -5.97 KCAL/MOL
REMARK 924 INTRA-LIGAND FREE ENERGY PREDICTED BY IDOCK:   -1.19 KCAL/MOL
REMARK 927      BINDING AFFINITY PREDICTED BY RF-SCORE:    0.00 PKD
ROOT
HETATM    1  C   UNL     1      -6.686  11.327  68.037  1.00  0.00    -0.062 C  
HETATM    2  C   UNL     1      -8.034  11.218  67.275  1.00  0.00    -0.141 C  
HETATM    3  C   UNL     1      -7.674  10.658  65.868  1.00  0.00    -0.146 C  
ENDROOT
BRANCH   2   4
HETATM    4  C   UNL     1      -8.687  12.620  67.101  1.00  0.00    -0.201 A  
HETATM    5  C   UNL     1      -9.689  12.872  66.140  1.00  0.00    -0.250 A  
HETATM    6  C   UNL     1     -10.295  14.130  66.031  1.00  0.00    -0.316 A  
HETATM    7  C   UNL     1      -8.305  13.698  67.921  1.00  0.00    -0.174 A  
HETATM    8  C   UNL     1      -8.937  14.945  67.830  1.00  0.00    -0.177 A  
HETATM    9  C   UNL     1      -9.919  15.174  66.874  1.00  0.00    -0.239 A  
BRANCH   9  10
HETATM   10  O   UNL     1     -10.568  16.361  66.669  1.00  0.00    -0.302 OA 
BRANCH  10  11
HETATM   11  C   UNL     1     -10.640  17.229  67.801  1.00  0.00    -0.367 C  
BRANCH  11  12
HETATM   12  C   UNL     1     -10.536  18.637  67.322  1.00  0.00    -0.423 C  
HETATM   13  O   UNL     1      -9.199  19.156  67.266  1.00  0.00    -0.285 OA 
HETATM   14  C   UNL     1     -10.083  19.744  68.234  1.00  0.00    -0.458 C  
ENDBRANCH  11  12
ENDBRANCH  10  11
ENDBRANCH   9  10
ENDBRANCH   2   4
BRANCH   2  15
HETATM   15  C   UNL     1      -8.906  10.225  68.084  1.00  0.00    -0.123 A  
HETATM   16  C   UNL     1     -10.629   8.485  68.157  1.00  0.00    -0.181 A  
HETATM   17  C   UNL     1     -10.673   8.540  69.547  1.00  0.00    -0.174 A  
HETATM   18  C   UNL     1      -9.752   9.306  67.440  1.00  0.00    -0.208 A  
HETATM   19  C   UNL     1      -8.986  10.283  69.490  1.00  0.00    -0.176 A  
HETATM   20  C   UNL     1      -9.857   9.452  70.208  1.00  0.00    -0.290 A  
BRANCH  17  21
HETATM   21  O   UNL     1     -11.467   7.767  70.350  1.00  0.00    -0.252 OA 
BRANCH  21  22
HETATM   22  C   UNL     1     -11.386   6.357  70.124  1.00  0.00    -0.420 C  
BRANCH  22  23
HETATM   23  C   UNL     1     -10.301   5.794  70.979  1.00  0.00    -0.230 C  
HETATM   24  C   UNL     1     -10.174   6.141  72.436  1.00  0.00    -0.188 C  
HETATM   25  O   UNL     1     -10.756   4.901  72.005  1.00  0.00    -0.182 OA 
ENDBRANCH  22  23
ENDBRANCH  21  22
ENDBRANCH  17  21
ENDBRANCH   2  15
TORSDOF 8
ENDMDL
MODEL      103
REMARK 921   NORMALIZED FREE ENERGY PREDICTED BY IDOCK:   -4.07 KCAL/MOL
REMARK 922        TOTAL FREE ENERGY PREDICTED BY IDOCK:   -7.14 KCAL/MOL
REMARK 923 INTER-LIGAND FREE ENERGY PREDICTED BY IDOCK:   -6.32 KCAL/MOL
REMARK 924 INTRA-LIGAND FREE ENERGY PREDICTED BY IDOCK:   -0.82 KCAL/MOL
REMARK 927      BINDING AFFINITY PREDICTED BY RF-SCORE:    0.00 PKD
ROOT
HETATM    1  C   UNL     1     -10.096  10.466  65.053  1.00  0.00    -0.379 C  
HETATM    2  C   UNL     1      -9.387  10.452  66.433  1.00  0.00    -0.197 C  
HETATM    3  C   UNL     1      -7.877  10.234  66.124  1.00  0.00    -0.129 C  
ENDROOT
BRANCH   2   4
HETATM    4  C   UNL     1      -9.893   9.267  67.305  1.00  0.00    -0.236 A  
HETATM    5  C   UNL     1     -10.134   7.985  66.768  1.00  0.00    -0.357 A  
HETATM    6  C   UNL     1     -10.545   6.920  67.580  1.00  0.00    -0.351 A  
HETATM    7  C   UNL     1     -10.114   9.432  68.684  1.00  0.00    -0.208 A  
HETATM    8  C   UNL     1     -10.494   8.357  69.498  1.00  0.00    -0.225 A  
HETATM    9  C   UNL     1     -10.730   7.102  68.949  1.00  0.00    -0.175 A  
BRANCH   9  10
HETATM   10  O   UNL     1     -11.146   5.997  69.640  1.00  0.00    -0.369 OA 
BRANCH  10  11
HETATM   11  C   UNL     1     -11.636   6.242  70.959  1.00  0.00    -0.272 C  
BRANCH  11  12
HETATM   12  C   UNL     1     -10.727   5.574  71.932  1.00  0.00    -0.231 C  
HETATM   13  O   UNL     1     -11.392   4.855  72.981  1.00  0.00    -0.291 OA 
HETATM   14  C   UNL     1     -10.645   6.021  73.366  1.00  0.00    -0.260 C  
ENDBRANCH  11  12
ENDBRANCH  10  11
ENDBRANCH   9  10
ENDBRANCH   2   4
BRANCH   2  15
HETATM   15  C   UNL     1      -9.650  11.843  67.065  1.00  0.00    -0.196 A  
HETATM   16  C   UNL     1     -11.089  13.804  67.356  1.00  0.00    -0.312 A  
HETATM   17  C   UNL     1     -10.080  14.484  68.033  1.00  0.00    -0.226 A  
HETATM   18  C   UNL     1     -10.879  12.501  66.891  1.00  0.00    -0.280 A  
HETATM   19  C   UNL     1      -8.634  12.559  67.729  1.00  0.00    -0.178 A  
HETATM   20  C   UNL     1      -8.849  13.861  68.205  1.00  0.00    -0.185 A  
BRANCH  17  21
HETATM   21  O   UNL     1     -10.183  15.745  68.556  1.00  0.00    -0.210 OA 
BRANCH  21  22
HETATM   22  C   UNL     1     -11.499  16.305  68.563  1.00  0.00    -0.272 C  
BRANCH  22  23
HETATM   23  C   UNL     1     -12.108  16.084  69.907  1.00  0.00    -0.113 C  
HETATM   24  C   UNL     1     -11.801  14.865  70.730  1.00  0.00    -0.312 C  
HETATM   25  O   UNL     1     -11.178  16.130  70.997  1.00  0.00    -0.352 OA 
ENDBRANCH  22  23
ENDBRANCH  21  22
ENDBRANCH  17  21
ENDBRANCH   2  15
TORSDOF 8
ENDMDL
MODEL      104
REMARK 921   NORMALIZED FREE ENERGY PREDICTED BY IDOCK:   -4.06 KCAL/MOL
REMARK 922        TOTAL FREE ENERGY PREDICTED BY IDOCK:   -7.12 KCAL/MOL
REMARK 923 INTER-LIGAND FREE ENERGY PREDICTED BY IDOCK:   -6.13 KCAL/MOL
REMARK 924 INTRA-LIGAND FREE ENERGY PREDICTED BY IDOCK:   -0.99 KCAL/MOL
REMARK 927      BINDING AFFINITY PREDICTED BY RF-SCORE:    0.00 PKD
ROOT
HETATM    1  C   UNL     1      -9.628  16.613  69.277  1.00  0.00    -0.148 C  
HETATM    2  C   UNL     1      -8.394  16.019  68.546  1.00  0.00    -0.191 C  
HETATM    3  C   UNL     1      -7.508  15.396  69.664  1.00  0.00    -0.170 C  
ENDROOT
BRANCH   2   4
HETATM    4  C   UNL     1      -7.581  17.138  67.833  1.00  0.00    -0.180 A  
HETATM    5  C   UNL     1      -8.030  17.756  66.647  1.00  0.00    -0.283 A  
HETATM    6  C   UNL     1      -7.305  18.793  66.046  1.00  0.00    -0.283 A  
HETATM    7  C   UNL     1      -6.360  17.589  68.364  1.00  0.00    -0.177 A  
HETATM    8  C   UNL     1      -5.654  18.648  67.779  1.00  0.00    -0.171 A  
HETATM    9  C   UNL     1      -6.111  19.242  66.608  1.00  0.00    -0.165 A  
BRANCH   9  10
HETATM   10  O   UNL     1      -5.481  20.250  65.929  1.00  0.00    -0.171 OA 
BRANCH  10  11
HETATM   11  C   UNL     1      -6.229  20.837  64.864  1.00  0.00    -0.274 C  
BRANCH  11  12
HETATM   12  C   UNL     1      -5.353  20.916  63.660  1.00  0.00    -0.226 C  
HETATM   13  O   UNL     1      -6.049  21.121  62.423  1.00  0.00    -0.255 OA 
HETATM   14  C   UNL     1      -5.388  19.857  62.593  1.00  0.00    -0.274 C  
ENDBRANCH  11  12
ENDBRANCH  10  11
ENDBRANCH   9  10
ENDBRANCH   2   4
BRANCH   2  15
HETATM   15  C   UNL     1      -8.944  14.940  67.580  1.00  0.00    -0.190 A  
HETATM   16  C   UNL     1     -10.637  14.193  65.974  1.00  0.00    -0.297 A  
HETATM   17  C   UNL     1     -10.102  12.908  65.958  1.00  0.00    -0.285 A  
HETATM   18  C   UNL     1     -10.060  15.194  66.763  1.00  0.00    -0.261 A  
HETATM   19  C   UNL     1      -8.435  13.626  67.568  1.00  0.00    -0.190 A  
HETATM   20  C   UNL     1      -9.007  12.627  66.768  1.00  0.00    -0.197 A  
BRANCH  17  21
HETATM   21  O   UNL     1     -10.564  11.863  65.205  1.00  0.00    -0.267 OA 
BRANCH  21  22
HETATM   22  C   UNL     1     -10.392  11.997  63.791  1.00  0.00    -0.426 C  
BRANCH  22  23
HETATM   23  C   UNL     1     -11.731  11.954  63.136  1.00  0.00    -0.152 C  
HETATM   24  C   UNL     1     -13.007  12.020  63.928  1.00  0.00    -0.180 C  
HETATM   25  O   UNL     1     -12.485  13.168  63.243  1.00  0.00    -0.720 OA 
ENDBRANCH  22  23
ENDBRANCH  21  22
ENDBRANCH  17  21
ENDBRANCH   2  15
TORSDOF 8
ENDMDL
MODEL      105
REMARK 921   NORMALIZED FREE ENERGY PREDICTED BY IDOCK:   -4.03 KCAL/MOL
REMARK 922        TOTAL FREE ENERGY PREDICTED BY IDOCK:   -7.09 KCAL/MOL
REMARK 923 INTER-LIGAND FREE ENERGY PREDICTED BY IDOCK:   -6.00 KCAL/MOL
REMARK 924 INTRA-LIGAND FREE ENERGY PREDICTED BY IDOCK:   -1.09 KCAL/MOL
REMARK 927      BINDING AFFINITY PREDICTED BY RF-SCORE:    0.00 PKD
ROOT
HETATM    1  C   UNL     1     -11.986   8.383  71.213  1.00  0.00    -0.323 C  
HETATM    2  C   UNL     1     -10.703   8.722  70.408  1.00  0.00    -0.254 C  
HETATM    3  C   UNL     1      -9.553   8.765  71.456  1.00  0.00    -0.354 C  
ENDROOT
BRANCH   2   4
HETATM    4  C   UNL     1     -10.822  10.124  69.742  1.00  0.00    -0.320 A  
HETATM    5  C   UNL     1     -12.000  10.895  69.813  1.00  0.00    -0.423 A  
HETATM    6  C   UNL     1     -12.071  12.174  69.245  1.00  0.00    -0.234 A  
HETATM    7  C   UNL     1      -9.734  10.684  69.048  1.00  0.00    -0.214 A  
HETATM    8  C   UNL     1      -9.797  11.975  68.510  1.00  0.00    -0.177 A  
HETATM    9  C   UNL     1     -10.969  12.719  68.587  1.00  0.00    -0.260 A  
BRANCH   9  10
HETATM   10  O   UNL     1     -11.156  13.968  68.059  1.00  0.00    -0.250 OA 
BRANCH  10  11
HETATM   11  C   UNL     1     -12.092  14.795  68.749  1.00  0.00    -0.190 C  
BRANCH  11  12
HETATM   12  C   UNL     1     -11.347  15.912  69.398  1.00  0.00    -0.349 C  
HETATM   13  O   UNL     1     -10.199  15.508  70.157  1.00  0.00    -0.308 OA 
HETATM   14  C   UNL     1     -11.301  16.061  70.894  1.00  0.00    -0.385 C  
ENDBRANCH  11  12
ENDBRANCH  10  11
ENDBRANCH   9  10
ENDBRANCH   2   4
BRANCH   2  15
HETATM   15  C   UNL     1     -10.515   7.567  69.393  1.00  0.00    -0.222 A  
HETATM   16  C   UNL     1     -10.904   6.607  67.172  1.00  0.00    -0.471 A  
HETATM   17  C   UNL     1     -10.373   5.384  67.572  1.00  0.00    -0.190 A  
HETATM   18  C   UNL     1     -10.963   7.683  68.066  1.00  0.00     0.037 A  
HETATM   19  C   UNL     1     -10.005   6.313  69.783  1.00  0.00    -0.204 A  
HETATM   20  C   UNL     1      -9.936   5.239  68.884  1.00  0.00    -0.250 A  
BRANCH  17  21
HETATM   21  O   UNL     1     -10.239   4.277  66.778  1.00  0.00    -0.167 OA 
BRANCH  21  22
HETATM   22  C   UNL     1      -8.908   3.770  66.646  1.00  0.00    -0.126 C  
BRANCH  22  23
HETATM   23  C   UNL     1      -8.441   4.002  65.249  1.00  0.00    -0.113 C  
HETATM   24  C   UNL     1      -8.827   3.089  64.118  1.00  0.00    -0.098 C  
HETATM   25  O   UNL     1      -9.480   4.351  64.324  1.00  0.00    -0.155 OA 
ENDBRANCH  22  23
ENDBRANCH  21  22
ENDBRANCH  17  21
ENDBRANCH   2  15
TORSDOF 8
ENDMDL
MODEL      106
REMARK 921   NORMALIZED FREE ENERGY PREDICTED BY IDOCK:   -4.02 KCAL/MOL
REMARK 922        TOTAL FREE ENERGY PREDICTED BY IDOCK:   -7.06 KCAL/MOL
REMARK 923 INTER-LIGAND FREE ENERGY PREDICTED BY IDOCK:   -5.93 KCAL/MOL
REMARK 924 INTRA-LIGAND FREE ENERGY PREDICTED BY IDOCK:   -1.13 KCAL/MOL
REMARK 927      BINDING AFFINITY PREDICTED BY RF-SCORE:    0.00 PKD
ROOT
HETATM    1  C   UNL     1     -12.512  15.869  69.242  1.00  0.00     0.263 C  
HETATM    2  C   UNL     1     -11.042  15.374  69.293  1.00  0.00    -0.280 C  
HETATM    3  C   UNL     1     -10.799  14.942  70.769  1.00  0.00    -0.012 C  
ENDROOT
BRANCH   2   4
HETATM    4  C   UNL     1     -10.056  16.526  68.943  1.00  0.00    -0.266 A  
HETATM    5  C   UNL     1     -10.494  17.763  68.426  1.00  0.00    -0.351 A  
HETATM    6  C   UNL     1      -9.594  18.803  68.161  1.00  0.00    -0.373 A  
HETATM    7  C   UNL     1      -8.673  16.375  69.149  1.00  0.00    -0.185 A  
HETATM    8  C   UNL     1      -7.779  17.428  68.913  1.00  0.00    -0.209 A  
HETATM    9  C   UNL     1      -8.231  18.638  68.400  1.00  0.00    -0.334 A  
BRANCH   9  10
HETATM   10  O   UNL     1      -7.444  19.715  68.091  1.00  0.00    -0.288 OA 
BRANCH  10  11
HETATM   11  C   UNL     1      -6.079  19.416  67.797  1.00  0.00    -0.204 C  
BRANCH  11  12
HETATM   12  C   UNL     1      -5.847  19.655  66.343  1.00  0.00    -0.170 C  
HETATM   13  O   UNL     1      -7.039  19.830  65.565  1.00  0.00    -0.300 OA 
HETATM   14  C   UNL     1      -6.263  18.648  65.307  1.00  0.00    -0.277 C  
ENDBRANCH  11  12
ENDBRANCH  10  11
ENDBRANCH   9  10
ENDBRANCH   2   4
BRANCH   2  15
HETATM   15  C   UNL     1     -10.960  14.170  68.320  1.00  0.00    -0.266 A  
HETATM   16  C   UNL     1      -9.791  12.180  67.498  1.00  0.00    -0.193 A  
HETATM   17  C   UNL     1     -10.662  12.074  66.419  1.00  0.00    -0.259 A  
HETATM   18  C   UNL     1      -9.945  13.205  68.439  1.00  0.00    -0.223 A  
HETATM   19  C   UNL     1     -11.815  14.059  67.205  1.00  0.00    -0.445 A  
HETATM   20  C   UNL     1     -11.666  13.025  66.270  1.00  0.00    -0.440 A  
BRANCH  17  21
HETATM   21  O   UNL     1     -10.625  11.099  65.458  1.00  0.00    -0.263 OA 
BRANCH  21  22
HETATM   22  C   UNL     1      -9.323  10.607  65.130  1.00  0.00    -0.212 C  
BRANCH  22  23
HETATM   23  C   UNL     1      -9.252   9.159  65.483  1.00  0.00    -0.224 C  
HETATM   24  C   UNL     1      -8.938   8.694  66.877  1.00  0.00    -0.138 C  
HETATM   25  O   UNL     1     -10.282   8.714  66.375  1.00  0.00    -0.282 OA 
ENDBRANCH  22  23
ENDBRANCH  21  22
ENDBRANCH  17  21
ENDBRANCH   2  15
TORSDOF 8
ENDMDL
MODEL      107
REMARK 921   NORMALIZED FREE ENERGY PREDICTED BY IDOCK:   -4.00 KCAL/MOL
REMARK 922        TOTAL FREE ENERGY PREDICTED BY IDOCK:   -7.04 KCAL/MOL
REMARK 923 INTER-LIGAND FREE ENERGY PREDICTED BY IDOCK:   -5.96 KCAL/MOL
REMARK 924 INTRA-LIGAND FREE ENERGY PREDICTED BY IDOCK:   -1.07 KCAL/MOL
REMARK 927      BINDING AFFINITY PREDICTED BY RF-SCORE:    0.00 PKD
ROOT
HETATM    1  C   UNL     1     -10.473   5.270  66.111  1.00  0.00    -0.259 C  
HETATM    2  C   UNL     1      -9.240   6.009  66.696  1.00  0.00    -0.151 C  
HETATM    3  C   UNL     1      -8.026   5.533  65.846  1.00  0.00    -0.106 C  
ENDROOT
BRANCH   2   4
HETATM    4  C   UNL     1      -9.000   5.601  68.179  1.00  0.00    -0.111 A  
HETATM    5  C   UNL     1      -8.263   6.404  69.073  1.00  0.00    -0.115 A  
HETATM    6  C   UNL     1      -8.098   6.040  70.415  1.00  0.00    -0.111 A  
HETATM    7  C   UNL     1      -9.535   4.404  68.689  1.00  0.00    -0.219 A  
HETATM    8  C   UNL     1      -9.396   4.059  70.040  1.00  0.00    -0.242 A  
HETATM    9  C   UNL     1      -8.662   4.862  70.904  1.00  0.00    -0.120 A  
BRANCH   9  10
HETATM   10  O   UNL     1      -8.425   4.600  72.227  1.00  0.00    -0.115 OA 
BRANCH  10  11
HETATM   11  C   UNL     1      -9.453   3.878  72.906  1.00  0.00    -0.116 C  
BRANCH  11  12
HETATM   12  C   UNL     1     -10.350   4.859  73.582  1.00  0.00    -0.214 C  
HETATM   13  O   UNL     1     -11.738   4.497  73.592  1.00  0.00    -0.167 OA 
HETATM   14  C   UNL     1     -11.374   5.647  72.813  1.00  0.00    -0.299 C  
ENDBRANCH  11  12
ENDBRANCH  10  11
ENDBRANCH   9  10
ENDBRANCH   2   4
BRANCH   2  15
HETATM   15  C   UNL     1      -9.516   7.522  66.507  1.00  0.00    -0.237 A  
HETATM   16  C   UNL     1     -10.895   9.500  66.946  1.00  0.00    -0.085 A  
HETATM   17  C   UNL     1     -10.178  10.246  66.015  1.00  0.00    -0.228 A  
HETATM   18  C   UNL     1     -10.561   8.163  67.195  1.00  0.00    -0.355 A  
HETATM   19  C   UNL     1      -8.821   8.289  65.551  1.00  0.00    -0.152 A  
HETATM   20  C   UNL     1      -9.149   9.631  65.311  1.00  0.00    -0.269 A  
BRANCH  17  21
HETATM   21  O   UNL     1     -10.396  11.563  65.714  1.00  0.00    -0.232 OA 
BRANCH  21  22
HETATM   22  C   UNL     1     -11.598  12.127  66.245  1.00  0.00    -0.360 C  
BRANCH  22  23
HETATM   23  C   UNL     1     -12.264  12.933  65.180  1.00  0.00    -0.470 C  
HETATM   24  C   UNL     1     -11.935  12.754  63.724  1.00  0.00    -0.510 C  
HETATM   25  O   UNL     1     -13.114  12.178  64.307  1.00  0.00    -0.723 OA 
ENDBRANCH  22  23
ENDBRANCH  21  22
ENDBRANCH  17  21
ENDBRANCH   2  15
TORSDOF 8
ENDMDL
MODEL      108
REMARK 921   NORMALIZED FREE ENERGY PREDICTED BY IDOCK:   -4.00 KCAL/MOL
REMARK 922        TOTAL FREE ENERGY PREDICTED BY IDOCK:   -7.03 KCAL/MOL
REMARK 923 INTER-LIGAND FREE ENERGY PREDICTED BY IDOCK:   -5.95 KCAL/MOL
REMARK 924 INTRA-LIGAND FREE ENERGY PREDICTED BY IDOCK:   -1.08 KCAL/MOL
REMARK 927      BINDING AFFINITY PREDICTED BY RF-SCORE:    0.00 PKD
ROOT
HETATM    1  C   UNL     1     -12.785  15.566  69.665  1.00  0.00     0.092 C  
HETATM    2  C   UNL     1     -11.307  15.093  69.665  1.00  0.00    -0.302 C  
HETATM    3  C   UNL     1     -10.867  15.100  71.159  1.00  0.00    -0.075 C  
ENDROOT
BRANCH   2   4
HETATM    4  C   UNL     1     -10.406  16.087  68.876  1.00  0.00    -0.235 A  
HETATM    5  C   UNL     1     -10.909  16.901  67.840  1.00  0.00    -0.310 A  
HETATM    6  C   UNL     1     -10.091  17.821  67.173  1.00  0.00    -0.338 A  
HETATM    7  C   UNL     1      -9.041  16.220  69.186  1.00  0.00    -0.230 A  
HETATM    8  C   UNL     1      -8.233  17.165  68.540  1.00  0.00    -0.261 A  
HETATM    9  C   UNL     1      -8.747  17.955  67.519  1.00  0.00    -0.243 A  
BRANCH   9  10
HETATM   10  O   UNL     1      -8.040  18.875  66.792  1.00  0.00    -0.251 OA 
BRANCH  10  11
HETATM   11  C   UNL     1      -6.701  19.108  67.229  1.00  0.00    -0.194 C  
BRANCH  11  12
HETATM   12  C   UNL     1      -6.672  20.384  68.000  1.00  0.00    -0.301 C  
HETATM   13  O   UNL     1      -5.368  20.791  68.440  1.00  0.00    -0.251 OA 
HETATM   14  C   UNL     1      -6.308  20.412  69.459  1.00  0.00    -0.233 C  
ENDBRANCH  11  12
ENDBRANCH  10  11
ENDBRANCH   9  10
ENDBRANCH   2   4
BRANCH   2  15
HETATM   15  C   UNL     1     -11.314  13.660  69.075  1.00  0.00    -0.333 A  
HETATM   16  C   UNL     1     -11.803  11.270  69.307  1.00  0.00    -0.423 A  
HETATM   17  C   UNL     1     -11.151  10.987  68.112  1.00  0.00    -0.270 A  
HETATM   18  C   UNL     1     -11.893  12.587  69.774  1.00  0.00    -0.380 A  
HETATM   19  C   UNL     1     -10.636  13.347  67.880  1.00  0.00    -0.253 A  
HETATM   20  C   UNL     1     -10.557  12.029  67.407  1.00  0.00    -0.253 A  
BRANCH  17  21
HETATM   21  O   UNL     1     -11.029   9.747  67.546  1.00  0.00    -0.275 OA 
BRANCH  21  22
HETATM   22  C   UNL     1      -9.708   9.383  67.136  1.00  0.00    -0.173 C  
BRANCH  22  23
HETATM   23  C   UNL     1      -9.183   8.344  68.068  1.00  0.00    -0.136 C  
HETATM   24  C   UNL     1      -9.980   7.853  69.244  1.00  0.00    -0.190 C  
HETATM   25  O   UNL     1      -9.888   7.096  68.027  1.00  0.00    -0.133 OA 
ENDBRANCH  22  23
ENDBRANCH  21  22
ENDBRANCH  17  21
ENDBRANCH   2  15
TORSDOF 8
ENDMDL
MODEL      109
REMARK 921   NORMALIZED FREE ENERGY PREDICTED BY IDOCK:   -3.98 KCAL/MOL
REMARK 922        TOTAL FREE ENERGY PREDICTED BY IDOCK:   -7.01 KCAL/MOL
REMARK 923 INTER-LIGAND FREE ENERGY PREDICTED BY IDOCK:   -5.80 KCAL/MOL
REMARK 924 INTRA-LIGAND FREE ENERGY PREDICTED BY IDOCK:   -1.21 KCAL/MOL
REMARK 927      BINDING AFFINITY PREDICTED BY RF-SCORE:    0.00 PKD
ROOT
HETATM    1  C   UNL     1     -14.240   8.637  70.897  1.00  0.00     0.126 C  
HETATM    2  C   UNL     1     -12.953   9.226  71.535  1.00  0.00    -0.429 C  
HETATM    3  C   UNL     1     -13.255   9.331  73.059  1.00  0.00     0.384 C  
ENDROOT
BRANCH   2   4
HETATM    4  C   UNL     1     -12.665  10.653  70.985  1.00  0.00    -0.512 A  
HETATM    5  C   UNL     1     -12.067  10.870  69.727  1.00  0.00    -0.409 A  
HETATM    6  C   UNL     1     -11.858  12.163  69.231  1.00  0.00    -0.370 A  
HETATM    7  C   UNL     1     -13.013  11.794  71.731  1.00  0.00    -0.466 A  
HETATM    8  C   UNL     1     -12.833  13.085  71.218  1.00  0.00    -0.370 A  
HETATM    9  C   UNL     1     -12.238  13.278  69.977  1.00  0.00    -0.275 A  
BRANCH   9  10
HETATM   10  O   UNL     1     -11.974  14.491  69.401  1.00  0.00    -0.303 OA 
BRANCH  10  11
HETATM   11  C   UNL     1     -10.931  15.250  70.013  1.00  0.00    -0.288 C  
BRANCH  11  12
HETATM   12  C   UNL     1      -9.877  15.514  68.992  1.00  0.00    -0.235 C  
HETATM   13  O   UNL     1      -9.295  14.338  68.412  1.00  0.00    -0.199 OA 
HETATM   14  C   UNL     1      -8.439  15.147  69.235  1.00  0.00    -0.209 C  
ENDBRANCH  11  12
ENDBRANCH  10  11
ENDBRANCH   9  10
ENDBRANCH   2   4
BRANCH   2  15
HETATM   15  C   UNL     1     -11.823   8.208  71.241  1.00  0.00    -0.317 A  
HETATM   16  C   UNL     1     -11.101   6.010  70.432  1.00  0.00    -0.399 A  
HETATM   17  C   UNL     1      -9.804   6.234  70.883  1.00  0.00    -0.181 A  
HETATM   18  C   UNL     1     -12.091   6.987  70.599  1.00  0.00    -0.332 A  
HETATM   19  C   UNL     1     -10.509   8.403  71.713  1.00  0.00    -0.353 A  
HETATM   20  C   UNL     1      -9.516   7.428  71.535  1.00  0.00    -0.162 A  
BRANCH  17  21
HETATM   21  O   UNL     1      -8.754   5.366  70.748  1.00  0.00    -0.128 OA 
BRANCH  21  22
HETATM   22  C   UNL     1      -7.798   5.384  71.812  1.00  0.00    -0.112 C  
BRANCH  22  23
HETATM   23  C   UNL     1      -7.993   4.168  72.653  1.00  0.00    -0.084 C  
HETATM   24  C   UNL     1      -7.478   4.085  74.063  1.00  0.00    -0.071 C  
HETATM   25  O   UNL     1      -8.859   4.356  73.780  1.00  0.00    -0.104 OA 
ENDBRANCH  22  23
ENDBRANCH  21  22
ENDBRANCH  17  21
ENDBRANCH   2  15
TORSDOF 8
ENDMDL
MODEL      110
REMARK 921   NORMALIZED FREE ENERGY PREDICTED BY IDOCK:   -3.94 KCAL/MOL
REMARK 922        TOTAL FREE ENERGY PREDICTED BY IDOCK:   -6.95 KCAL/MOL
REMARK 923 INTER-LIGAND FREE ENERGY PREDICTED BY IDOCK:   -5.75 KCAL/MOL
REMARK 924 INTRA-LIGAND FREE ENERGY PREDICTED BY IDOCK:   -1.20 KCAL/MOL
REMARK 927      BINDING AFFINITY PREDICTED BY RF-SCORE:    0.00 PKD
ROOT
HETATM    1  C   UNL     1     -11.809  15.755  67.946  1.00  0.00     0.093 C  
HETATM    2  C   UNL     1     -10.734  15.065  67.066  1.00  0.00    -0.304 C  
HETATM    3  C   UNL     1     -11.122  15.399  65.595  1.00  0.00    -0.272 C  
ENDROOT
BRANCH   2   4
HETATM    4  C   UNL     1     -10.773  13.520  67.252  1.00  0.00    -0.272 A  
HETATM    5  C   UNL     1      -9.906  12.654  66.555  1.00  0.00    -0.258 A  
HETATM    6  C   UNL     1      -9.927  11.271  66.771  1.00  0.00    -0.238 A  
HETATM    7  C   UNL     1     -11.680  12.928  68.149  1.00  0.00    -0.395 A  
HETATM    8  C   UNL     1     -11.677  11.547  68.387  1.00  0.00    -0.372 A  
HETATM    9  C   UNL     1     -10.816  10.710  67.687  1.00  0.00    -0.292 A  
BRANCH   9  10
HETATM   10  O   UNL     1     -10.758   9.348  67.807  1.00  0.00    -0.265 OA 
BRANCH  10  11
HETATM   11  C   UNL     1      -9.668   8.715  67.136  1.00  0.00    -0.190 C  
BRANCH  11  12
HETATM   12  C   UNL     1      -9.041   7.738  68.072  1.00  0.00    -0.128 C  
HETATM   13  O   UNL     1      -8.010   6.927  67.492  1.00  0.00    -0.110 OA 
HETATM   14  C   UNL     1      -9.216   6.256  67.892  1.00  0.00    -0.116 C  
ENDBRANCH  11  12
ENDBRANCH  10  11
ENDBRANCH   9  10
ENDBRANCH   2   4
BRANCH   2  15
HETATM   15  C   UNL     1      -9.379  15.703  67.463  1.00  0.00    -0.206 A  
HETATM   16  C   UNL     1      -7.178  16.576  66.833  1.00  0.00    -0.263 A  
HETATM   17  C   UNL     1      -6.800  16.677  68.169  1.00  0.00    -0.144 A  
HETATM   18  C   UNL     1      -8.451  16.108  66.488  1.00  0.00    -0.346 A  
HETATM   19  C   UNL     1      -8.966  15.788  68.807  1.00  0.00    -0.214 A  
HETATM   20  C   UNL     1      -7.694  16.269  69.153  1.00  0.00    -0.229 A  
BRANCH  17  21
HETATM   21  O   UNL     1      -5.597  17.147  68.622  1.00  0.00    -0.132 OA 
BRANCH  21  22
HETATM   22  C   UNL     1      -5.647  17.899  69.838  1.00  0.00    -0.239 C  
BRANCH  22  23
HETATM   23  C   UNL     1      -5.347  19.328  69.533  1.00  0.00    -0.191 C  
HETATM   24  C   UNL     1      -6.343  20.223  68.849  1.00  0.00    -0.316 C  
HETATM   25  O   UNL     1      -6.136  20.272  70.269  1.00  0.00    -0.349 OA 
ENDBRANCH  22  23
ENDBRANCH  21  22
ENDBRANCH  17  21
ENDBRANCH   2  15
TORSDOF 8
ENDMDL
MODEL      111
REMARK 921   NORMALIZED FREE ENERGY PREDICTED BY IDOCK:   -3.92 KCAL/MOL
REMARK 922        TOTAL FREE ENERGY PREDICTED BY IDOCK:   -6.92 KCAL/MOL
REMARK 923 INTER-LIGAND FREE ENERGY PREDICTED BY IDOCK:   -5.62 KCAL/MOL
REMARK 924 INTRA-LIGAND FREE ENERGY PREDICTED BY IDOCK:   -1.31 KCAL/MOL
REMARK 927      BINDING AFFINITY PREDICTED BY RF-SCORE:    0.00 PKD
ROOT
HETATM    1  C   UNL     1     -14.244   8.631  70.892  1.00  0.00     0.126 C  
HETATM    2  C   UNL     1     -12.979   9.230  71.561  1.00  0.00    -0.429 C  
HETATM    3  C   UNL     1     -13.316   9.330  73.077  1.00  0.00     0.323 C  
ENDROOT
BRANCH   2   4
HETATM    4  C   UNL     1     -12.691  10.661  71.020  1.00  0.00    -0.512 A  
HETATM    5  C   UNL     1     -12.064  10.885  69.777  1.00  0.00    -0.409 A  
HETATM    6  C   UNL     1     -11.856  12.182  69.288  1.00  0.00    -0.370 A  
HETATM    7  C   UNL     1     -13.067  11.797  71.759  1.00  0.00    -0.480 A  
HETATM    8  C   UNL     1     -12.887  13.091  71.253  1.00  0.00    -0.370 A  
HETATM    9  C   UNL     1     -12.264  13.291  70.027  1.00  0.00    -0.275 A  
BRANCH   9  10
HETATM   10  O   UNL     1     -11.997  14.508  69.459  1.00  0.00    -0.292 OA 
BRANCH  10  11
HETATM   11  C   UNL     1     -10.979  15.278  70.099  1.00  0.00    -0.291 C  
BRANCH  11  12
HETATM   12  C   UNL     1      -9.908  15.564  69.102  1.00  0.00    -0.246 C  
HETATM   13  O   UNL     1      -9.294  14.402  68.529  1.00  0.00    -0.198 OA 
HETATM   14  C   UNL     1      -8.470  15.220  69.375  1.00  0.00    -0.231 C  
ENDBRANCH  11  12
ENDBRANCH  10  11
ENDBRANCH   9  10
ENDBRANCH   2   4
BRANCH   2  15
HETATM   15  C   UNL     1     -11.832   8.223  71.291  1.00  0.00    -0.319 A  
HETATM   16  C   UNL     1      -9.554   7.433  71.726  1.00  0.00    -0.168 A  
HETATM   17  C   UNL     1      -9.632   6.528  70.673  1.00  0.00    -0.172 A  
HETATM   18  C   UNL     1     -10.641   8.259  72.036  1.00  0.00    -0.365 A  
HETATM   19  C   UNL     1     -11.879   7.317  70.213  1.00  0.00    -0.109 A  
HETATM   20  C   UNL     1     -10.794   6.483  69.910  1.00  0.00    -0.341 A  
BRANCH  17  21
HETATM   21  O   UNL     1      -8.646   5.654  70.300  1.00  0.00    -0.126 OA 
BRANCH  21  22
HETATM   22  C   UNL     1      -8.568   5.373  68.900  1.00  0.00    -0.099 C  
BRANCH  22  23
HETATM   23  C   UNL     1      -7.398   6.099  68.327  1.00  0.00    -0.086 C  
HETATM   24  C   UNL     1      -7.278   6.382  66.856  1.00  0.00    -0.074 C  
HETATM   25  O   UNL     1      -7.706   7.390  67.785  1.00  0.00    -0.107 OA 
ENDBRANCH  22  23
ENDBRANCH  21  22
ENDBRANCH  17  21
ENDBRANCH   2  15
TORSDOF 8
ENDMDL
MODEL      112
REMARK 921   NORMALIZED FREE ENERGY PREDICTED BY IDOCK:   -3.91 KCAL/MOL
REMARK 922        TOTAL FREE ENERGY PREDICTED BY IDOCK:   -6.90 KCAL/MOL
REMARK 923 INTER-LIGAND FREE ENERGY PREDICTED BY IDOCK:   -5.81 KCAL/MOL
REMARK 924 INTRA-LIGAND FREE ENERGY PREDICTED BY IDOCK:   -1.09 KCAL/MOL
REMARK 927      BINDING AFFINITY PREDICTED BY RF-SCORE:    0.00 PKD
ROOT
HETATM    1  C   UNL     1      -9.188   2.300  70.423  1.00  0.00    -0.189 C  
HETATM    2  C   UNL     1      -8.818   3.758  70.041  1.00  0.00    -0.146 C  
HETATM    3  C   UNL     1      -7.477   4.054  70.774  1.00  0.00    -0.041 C  
ENDROOT
BRANCH   2   4
HETATM    4  C   UNL     1      -9.896   4.756  70.554  1.00  0.00    -0.301 A  
HETATM    5  C   UNL     1     -10.603   5.615  69.687  1.00  0.00    -0.401 A  
HETATM    6  C   UNL     1     -11.602   6.473  70.165  1.00  0.00    -0.466 A  
HETATM    7  C   UNL     1     -10.220   4.824  71.922  1.00  0.00    -0.261 A  
HETATM    8  C   UNL     1     -11.241   5.659  72.391  1.00  0.00    -0.336 A  
HETATM    9  C   UNL     1     -11.923   6.501  71.521  1.00  0.00    -0.329 A  
BRANCH   9  10
HETATM   10  O   UNL     1     -12.905   7.387  71.876  1.00  0.00    -0.317 OA 
BRANCH  10  11
HETATM   11  C   UNL     1     -12.454   8.690  72.246  1.00  0.00    -0.395 C  
BRANCH  11  12
HETATM   12  C   UNL     1     -13.404   9.694  71.685  1.00  0.00    -0.402 C  
HETATM   13  O   UNL     1     -12.926  10.390  70.525  1.00  0.00    -0.344 OA 
HETATM   14  C   UNL     1     -13.101  11.167  71.721  1.00  0.00    -0.431 C  
ENDBRANCH  11  12
ENDBRANCH  10  11
ENDBRANCH   9  10
ENDBRANCH   2   4
BRANCH   2  15
HETATM   15  C   UNL     1      -8.647   3.769  68.501  1.00  0.00    -0.120 A  
HETATM   16  C   UNL     1      -9.142   2.805  66.303  1.00  0.00    -0.128 A  
HETATM   17  C   UNL     1      -8.193   3.622  65.695  1.00  0.00    -0.097 A  
HETATM   18  C   UNL     1      -9.372   2.886  67.681  1.00  0.00    -0.234 A  
HETATM   19  C   UNL     1      -7.674   4.568  67.868  1.00  0.00    -0.081 A  
HETATM   20  C   UNL     1      -7.452   4.494  66.486  1.00  0.00    -0.082 A  
BRANCH  17  21
HETATM   21  O   UNL     1      -7.907   3.649  64.357  1.00  0.00    -0.083 OA 
BRANCH  21  22
HETATM   22  C   UNL     1      -8.710   4.535  63.572  1.00  0.00    -0.132 C  
BRANCH  22  23
HETATM   23  C   UNL     1      -9.469   3.735  62.568  1.00  0.00    -0.110 C  
HETATM   24  C   UNL     1     -10.590   2.815  62.965  1.00  0.00    -0.193 C  
HETATM   25  O   UNL     1     -10.842   4.118  62.417  1.00  0.00    -0.193 OA 
ENDBRANCH  22  23
ENDBRANCH  21  22
ENDBRANCH  17  21
ENDBRANCH   2  15
TORSDOF 8
ENDMDL
MODEL      113
REMARK 921   NORMALIZED FREE ENERGY PREDICTED BY IDOCK:   -3.90 KCAL/MOL
REMARK 922        TOTAL FREE ENERGY PREDICTED BY IDOCK:   -6.89 KCAL/MOL
REMARK 923 INTER-LIGAND FREE ENERGY PREDICTED BY IDOCK:   -5.73 KCAL/MOL
REMARK 924 INTRA-LIGAND FREE ENERGY PREDICTED BY IDOCK:   -1.15 KCAL/MOL
REMARK 927      BINDING AFFINITY PREDICTED BY RF-SCORE:    0.00 PKD
ROOT
HETATM    1  C   UNL     1     -11.327  10.410  68.277  1.00  0.00    -0.292 C  
HETATM    2  C   UNL     1      -9.987   9.728  68.662  1.00  0.00    -0.181 C  
HETATM    3  C   UNL     1      -8.913  10.852  68.599  1.00  0.00    -0.162 C  
ENDROOT
BRANCH   2   4
HETATM    4  C   UNL     1      -9.612   8.623  67.631  1.00  0.00    -0.190 A  
HETATM    5  C   UNL     1      -8.482   8.725  66.794  1.00  0.00    -0.113 A  
HETATM    6  C   UNL     1      -8.137   7.698  65.906  1.00  0.00    -0.122 A  
HETATM    7  C   UNL     1     -10.392   7.459  67.511  1.00  0.00    -0.320 A  
HETATM    8  C   UNL     1     -10.026   6.420  66.645  1.00  0.00    -0.207 A  
HETATM    9  C   UNL     1      -8.911   6.541  65.825  1.00  0.00    -0.084 A  
BRANCH   9  10
HETATM   10  O   UNL     1      -8.488   5.612  64.914  1.00  0.00    -0.144 OA 
BRANCH  10  11
HETATM   11  C   UNL     1      -9.066   4.312  65.045  1.00  0.00    -0.146 C  
BRANCH  11  12
HETATM   12  C   UNL     1      -9.799   3.993  63.786  1.00  0.00    -0.145 C  
HETATM   13  O   UNL     1     -11.199   3.728  63.957  1.00  0.00    -0.314 OA 
HETATM   14  C   UNL     1     -10.376   2.627  63.539  1.00  0.00    -0.186 C  
ENDBRANCH  11  12
ENDBRANCH  10  11
ENDBRANCH   9  10
ENDBRANCH   2   4
BRANCH   2  15
HETATM   15  C   UNL     1     -10.176   9.192  70.103  1.00  0.00    -0.237 A  
HETATM   16  C   UNL     1      -9.228   8.276  72.169  1.00  0.00    -0.289 A  
HETATM   17  C   UNL     1     -10.497   8.007  72.671  1.00  0.00    -0.339 A  
HETATM   18  C   UNL     1      -9.071   8.870  70.911  1.00  0.00    -0.283 A  
HETATM   19  C   UNL     1     -11.451   8.886  70.620  1.00  0.00    -0.280 A  
HETATM   20  C   UNL     1     -11.606   8.303  71.885  1.00  0.00    -0.377 A  
BRANCH  17  21
HETATM   21  O   UNL     1     -10.770   7.459  73.895  1.00  0.00    -0.319 OA 
BRANCH  21  22
HETATM   22  C   UNL     1      -9.840   6.473  74.351  1.00  0.00    -0.332 C  
BRANCH  22  23
HETATM   23  C   UNL     1     -10.488   5.131  74.282  1.00  0.00    -0.275 C  
HETATM   24  C   UNL     1     -11.444   4.764  73.181  1.00  0.00    -0.260 C  
HETATM   25  O   UNL     1     -10.076   4.328  73.167  1.00  0.00    -0.137 OA 
ENDBRANCH  22  23
ENDBRANCH  21  22
ENDBRANCH  17  21
ENDBRANCH   2  15
TORSDOF 8
ENDMDL
MODEL      114
REMARK 921   NORMALIZED FREE ENERGY PREDICTED BY IDOCK:   -3.89 KCAL/MOL
REMARK 922        TOTAL FREE ENERGY PREDICTED BY IDOCK:   -6.88 KCAL/MOL
REMARK 923 INTER-LIGAND FREE ENERGY PREDICTED BY IDOCK:   -5.93 KCAL/MOL
REMARK 924 INTRA-LIGAND FREE ENERGY PREDICTED BY IDOCK:   -0.95 KCAL/MOL
REMARK 927      BINDING AFFINITY PREDICTED BY RF-SCORE:    0.00 PKD
ROOT
HETATM    1  C   UNL     1     -10.905   6.385  66.812  1.00  0.00    -0.361 C  
HETATM    2  C   UNL     1      -9.653   7.221  67.190  1.00  0.00    -0.203 C  
HETATM    3  C   UNL     1      -8.530   6.751  66.219  1.00  0.00    -0.131 C  
ENDROOT
BRANCH   2   4
HETATM    4  C   UNL     1      -9.205   6.921  68.650  1.00  0.00    -0.130 A  
HETATM    5  C   UNL     1      -7.849   6.792  69.012  1.00  0.00    -0.111 A  
HETATM    6  C   UNL     1      -7.466   6.568  70.340  1.00  0.00    -0.094 A  
HETATM    7  C   UNL     1     -10.155   6.782  69.678  1.00  0.00    -0.197 A  
HETATM    8  C   UNL     1      -9.768   6.590  71.010  1.00  0.00    -0.189 A  
HETATM    9  C   UNL     1      -8.425   6.462  71.346  1.00  0.00    -0.126 A  
BRANCH   9  10
HETATM   10  O   UNL     1      -7.939   6.229  72.604  1.00  0.00    -0.105 OA 
BRANCH  10  11
HETATM   11  C   UNL     1      -8.464   7.067  73.634  1.00  0.00    -0.127 C  
BRANCH  11  12
HETATM   12  C   UNL     1      -7.322   7.664  74.384  1.00  0.00    -0.131 C  
HETATM   13  O   UNL     1      -7.363   9.093  74.505  1.00  0.00    -0.408 OA 
HETATM   14  C   UNL     1      -6.307   8.540  73.703  1.00  0.00    -0.106 C  
ENDBRANCH  11  12
ENDBRANCH  10  11
ENDBRANCH   9  10
ENDBRANCH   2   4
BRANCH   2  15
HETATM   15  C   UNL     1     -10.037   8.703  66.951  1.00  0.00    -0.355 A  
HETATM   16  C   UNL     1     -11.215  10.731  67.658  1.00  0.00    -0.370 A  
HETATM   17  C   UNL     1     -10.937  11.355  66.446  1.00  0.00    -0.260 A  
HETATM   18  C   UNL     1     -10.762   9.431  67.910  1.00  0.00    -0.269 A  
HETATM   19  C   UNL     1      -9.789   9.344  65.721  1.00  0.00    -0.345 A  
HETATM   20  C   UNL     1     -10.234  10.651  65.474  1.00  0.00    -0.329 A  
BRANCH  17  21
HETATM   21  O   UNL     1     -11.303  12.629  66.104  1.00  0.00    -0.298 OA 
BRANCH  21  22
HETATM   22  C   UNL     1     -10.692  13.672  66.867  1.00  0.00    -0.275 C  
BRANCH  22  23
HETATM   23  C   UNL     1     -11.752  14.399  67.625  1.00  0.00    -0.391 C  
HETATM   24  C   UNL     1     -11.963  14.190  69.098  1.00  0.00    -0.349 C  
HETATM   25  O   UNL     1     -11.256  15.334  68.592  1.00  0.00    -0.264 OA 
ENDBRANCH  22  23
ENDBRANCH  21  22
ENDBRANCH  17  21
ENDBRANCH   2  15
TORSDOF 8
ENDMDL
MODEL      115
REMARK 921   NORMALIZED FREE ENERGY PREDICTED BY IDOCK:   -3.89 KCAL/MOL
REMARK 922        TOTAL FREE ENERGY PREDICTED BY IDOCK:   -6.88 KCAL/MOL
REMARK 923 INTER-LIGAND FREE ENERGY PREDICTED BY IDOCK:   -5.72 KCAL/MOL
REMARK 924 INTRA-LIGAND FREE ENERGY PREDICTED BY IDOCK:   -1.16 KCAL/MOL
REMARK 927      BINDING AFFINITY PREDICTED BY RF-SCORE:    0.00 PKD
ROOT
HETATM    1  C   UNL     1      -9.321   8.223  72.733  1.00  0.00    -0.338 C  
HETATM    2  C   UNL     1     -10.292   7.798  71.599  1.00  0.00    -0.236 C  
HETATM    3  C   UNL     1     -11.620   7.408  72.312  1.00  0.00    -0.333 C  
ENDROOT
BRANCH   2   4
HETATM    4  C   UNL     1      -9.749   6.551  70.842  1.00  0.00    -0.190 A  
HETATM    5  C   UNL     1      -8.402   6.144  70.929  1.00  0.00    -0.127 A  
HETATM    6  C   UNL     1      -7.944   4.992  70.276  1.00  0.00    -0.078 A  
HETATM    7  C   UNL     1     -10.602   5.766  70.047  1.00  0.00    -0.380 A  
HETATM    8  C   UNL     1     -10.149   4.597  69.422  1.00  0.00    -0.194 A  
HETATM    9  C   UNL     1      -8.816   4.215  69.516  1.00  0.00    -0.089 A  
BRANCH   9  10
HETATM   10  O   UNL     1      -8.258   3.120  68.913  1.00  0.00    -0.059 OA 
BRANCH  10  11
HETATM   11  C   UNL     1      -9.073   2.471  67.937  1.00  0.00    -0.188 C  
BRANCH  11  12
HETATM   12  C   UNL     1      -8.667   2.955  66.586  1.00  0.00    -0.124 C  
HETATM   13  O   UNL     1      -9.744   3.440  65.772  1.00  0.00    -0.117 OA 
HETATM   14  C   UNL     1      -9.092   2.237  65.335  1.00  0.00    -0.106 C  
ENDBRANCH  11  12
ENDBRANCH  10  11
ENDBRANCH   9  10
ENDBRANCH   2   4
BRANCH   2  15
HETATM   15  C   UNL     1     -10.468   9.044  70.695  1.00  0.00    -0.285 A  
HETATM   16  C   UNL     1      -9.646  10.502  68.905  1.00  0.00    -0.199 A  
HETATM   17  C   UNL     1     -10.646  11.434  69.161  1.00  0.00    -0.160 A  
HETATM   18  C   UNL     1      -9.566   9.321  69.653  1.00  0.00    -0.192 A  
HETATM   19  C   UNL     1     -11.457  10.014  70.953  1.00  0.00    -0.452 A  
HETATM   20  C   UNL     1     -11.543  11.191  70.196  1.00  0.00    -0.410 A  
BRANCH  17  21
HETATM   21  O   UNL     1     -10.838  12.604  68.476  1.00  0.00    -0.235 OA 
BRANCH  21  22
HETATM   22  C   UNL     1     -11.872  12.579  67.489  1.00  0.00    -0.323 C  
BRANCH  22  23
HETATM   23  C   UNL     1     -11.331  13.125  66.211  1.00  0.00    -0.315 C  
HETATM   24  C   UNL     1     -10.140  12.516  65.525  1.00  0.00    -0.265 C  
HETATM   25  O   UNL     1     -11.480  12.254  65.082  1.00  0.00    -0.324 OA 
ENDBRANCH  22  23
ENDBRANCH  21  22
ENDBRANCH  17  21
ENDBRANCH   2  15
TORSDOF 8
ENDMDL
MODEL      116
REMARK 921   NORMALIZED FREE ENERGY PREDICTED BY IDOCK:   -3.81 KCAL/MOL
REMARK 922        TOTAL FREE ENERGY PREDICTED BY IDOCK:   -6.76 KCAL/MOL
REMARK 923 INTER-LIGAND FREE ENERGY PREDICTED BY IDOCK:   -5.50 KCAL/MOL
REMARK 924 INTRA-LIGAND FREE ENERGY PREDICTED BY IDOCK:   -1.26 KCAL/MOL
REMARK 927      BINDING AFFINITY PREDICTED BY RF-SCORE:    0.00 PKD
ROOT
HETATM    1  C   UNL     1      -9.006   9.376  64.744  1.00  0.00    -0.241 C  
HETATM    2  C   UNL     1      -8.430   9.474  66.182  1.00  0.00    -0.127 C  
HETATM    3  C   UNL     1      -6.980   8.914  66.089  1.00  0.00    -0.081 C  
ENDROOT
BRANCH   2   4
HETATM    4  C   UNL     1      -9.244   8.587  67.167  1.00  0.00    -0.173 A  
HETATM    5  C   UNL     1     -10.130   7.583  66.723  1.00  0.00    -0.313 A  
HETATM    6  C   UNL     1     -10.818   6.765  67.627  1.00  0.00    -0.361 A  
HETATM    7  C   UNL     1      -9.109   8.747  68.558  1.00  0.00    -0.138 A  
HETATM    8  C   UNL     1      -9.774   7.906  69.459  1.00  0.00    -0.173 A  
HETATM    9  C   UNL     1     -10.646   6.925  69.001  1.00  0.00    -0.217 A  
BRANCH   9  10
HETATM   10  O   UNL     1     -11.378   6.080  69.790  1.00  0.00    -0.409 OA 
BRANCH  10  11
HETATM   11  C   UNL     1     -11.044   6.088  71.178  1.00  0.00    -0.271 C  
BRANCH  11  12
HETATM   12  C   UNL     1     -12.203   6.637  71.939  1.00  0.00    -0.335 C  
HETATM   13  O   UNL     1     -13.248   7.190  71.127  1.00  0.00    -0.347 OA 
HETATM   14  C   UNL     1     -12.510   8.109  71.948  1.00  0.00    -0.332 C  
ENDBRANCH  11  12
ENDBRANCH  10  11
ENDBRANCH   9  10
ENDBRANCH   2   4
BRANCH   2  15
HETATM   15  C   UNL     1      -8.443  10.980  66.548  1.00  0.00    -0.161 A  
HETATM   16  C   UNL     1      -7.360  12.926  67.570  1.00  0.00    -0.154 A  
HETATM   17  C   UNL     1      -8.516  13.686  67.426  1.00  0.00    -0.201 A  
HETATM   18  C   UNL     1      -7.322  11.598  67.127  1.00  0.00    -0.143 A  
HETATM   19  C   UNL     1      -9.611  11.760  66.436  1.00  0.00    -0.234 A  
HETATM   20  C   UNL     1      -9.644  13.094  66.869  1.00  0.00    -0.248 A  
BRANCH  17  21
HETATM   21  O   UNL     1      -8.658  14.997  67.793  1.00  0.00    -0.152 OA 
BRANCH  21  22
HETATM   22  C   UNL     1      -7.673  15.492  68.705  1.00  0.00    -0.144 C  
BRANCH  22  23
HETATM   23  C   UNL     1      -6.943  16.621  68.060  1.00  0.00    -0.147 C  
HETATM   24  C   UNL     1      -5.518  16.489  67.600  1.00  0.00    -0.141 C  
HETATM   25  O   UNL     1      -6.617  16.407  66.680  1.00  0.00    -0.255 OA 
ENDBRANCH  22  23
ENDBRANCH  21  22
ENDBRANCH  17  21
ENDBRANCH   2  15
TORSDOF 8
ENDMDL
MODEL      117
REMARK 921   NORMALIZED FREE ENERGY PREDICTED BY IDOCK:   -3.78 KCAL/MOL
REMARK 922        TOTAL FREE ENERGY PREDICTED BY IDOCK:   -6.72 KCAL/MOL
REMARK 923 INTER-LIGAND FREE ENERGY PREDICTED BY IDOCK:   -5.66 KCAL/MOL
REMARK 924 INTRA-LIGAND FREE ENERGY PREDICTED BY IDOCK:   -1.06 KCAL/MOL
REMARK 927      BINDING AFFINITY PREDICTED BY RF-SCORE:    0.00 PKD
ROOT
HETATM    1  C   UNL     1     -10.901   7.004  69.095  1.00  0.00    -0.223 C  
HETATM    2  C   UNL     1     -11.089   7.609  70.512  1.00  0.00    -0.267 C  
HETATM    3  C   UNL     1     -12.348   6.907  71.101  1.00  0.00    -0.419 C  
ENDROOT
BRANCH   2   4
HETATM    4  C   UNL     1     -11.365   9.139  70.429  1.00  0.00    -0.260 A  
HETATM    5  C   UNL     1     -10.627   9.994  69.586  1.00  0.00    -0.278 A  
HETATM    6  C   UNL     1     -10.922  11.360  69.493  1.00  0.00    -0.226 A  
HETATM    7  C   UNL     1     -12.390   9.726  71.194  1.00  0.00    -0.451 A  
HETATM    8  C   UNL     1     -12.703  11.086  71.074  1.00  0.00    -0.485 A  
HETATM    9  C   UNL     1     -11.961  11.913  70.240  1.00  0.00    -0.330 A  
BRANCH   9  10
HETATM   10  O   UNL     1     -12.150  13.259  70.080  1.00  0.00    -0.336 OA 
BRANCH  10  11
HETATM   11  C   UNL     1     -11.245  13.908  69.186  1.00  0.00    -0.269 C  
BRANCH  11  12
HETATM   12  C   UNL     1     -11.985  14.262  67.941  1.00  0.00    -0.329 C  
HETATM   13  O   UNL     1     -12.203  13.168  67.039  1.00  0.00    -0.338 OA 
HETATM   14  C   UNL     1     -11.322  14.211  66.592  1.00  0.00    -0.344 C  
ENDBRANCH  11  12
ENDBRANCH  10  11
ENDBRANCH   9  10
ENDBRANCH   2   4
BRANCH   2  15
HETATM   15  C   UNL     1      -9.807   7.253  71.306  1.00  0.00    -0.183 A  
HETATM   16  C   UNL     1      -7.512   6.396  71.358  1.00  0.00    -0.089 A  
HETATM   17  C   UNL     1      -7.512   6.389  72.750  1.00  0.00    -0.095 A  
HETATM   18  C   UNL     1      -8.638   6.832  70.649  1.00  0.00    -0.142 A  
HETATM   19  C   UNL     1      -9.794   7.213  72.714  1.00  0.00    -0.212 A  
HETATM   20  C   UNL     1      -8.662   6.787  73.423  1.00  0.00    -0.140 A  
BRANCH  17  21
HETATM   21  O   UNL     1      -6.462   6.013  73.544  1.00  0.00    -0.070 OA 
BRANCH  21  22
HETATM   22  C   UNL     1      -6.723   4.931  74.441  1.00  0.00    -0.071 C  
BRANCH  22  23
HETATM   23  C   UNL     1      -6.492   3.644  73.725  1.00  0.00    -0.033 C  
HETATM   24  C   UNL     1      -6.458   2.326  74.446  1.00  0.00    -0.017 C  
HETATM   25  O   UNL     1      -7.618   2.756  73.717  1.00  0.00    -0.049 OA 
ENDBRANCH  22  23
ENDBRANCH  21  22
ENDBRANCH  17  21
ENDBRANCH   2  15
TORSDOF 8
ENDMDL
MODEL      118
REMARK 921   NORMALIZED FREE ENERGY PREDICTED BY IDOCK:   -3.78 KCAL/MOL
REMARK 922        TOTAL FREE ENERGY PREDICTED BY IDOCK:   -6.71 KCAL/MOL
REMARK 923 INTER-LIGAND FREE ENERGY PREDICTED BY IDOCK:   -5.61 KCAL/MOL
REMARK 924 INTRA-LIGAND FREE ENERGY PREDICTED BY IDOCK:   -1.10 KCAL/MOL
REMARK 927      BINDING AFFINITY PREDICTED BY RF-SCORE:    0.00 PKD
ROOT
HETATM    1  C   UNL     1     -11.483  12.793  68.808  1.00  0.00    -0.347 C  
HETATM    2  C   UNL     1     -10.896  12.495  67.403  1.00  0.00    -0.272 C  
HETATM    3  C   UNL     1     -12.126  12.233  66.485  1.00  0.00    -0.094 C  
ENDROOT
BRANCH   2   4
HETATM    4  C   UNL     1     -10.014  11.213  67.431  1.00  0.00    -0.204 A  
HETATM    5  C   UNL     1      -9.380  10.760  68.606  1.00  0.00    -0.184 A  
HETATM    6  C   UNL     1      -8.628   9.578  68.620  1.00  0.00    -0.119 A  
HETATM    7  C   UNL     1      -9.831  10.441  66.269  1.00  0.00    -0.272 A  
HETATM    8  C   UNL     1      -9.105   9.243  66.295  1.00  0.00    -0.213 A  
HETATM    9  C   UNL     1      -8.484   8.816  67.462  1.00  0.00    -0.120 A  
BRANCH   9  10
HETATM   10  O   UNL     1      -7.717   7.689  67.589  1.00  0.00    -0.116 OA 
BRANCH  10  11
HETATM   11  C   UNL     1      -6.728   7.729  68.617  1.00  0.00    -0.058 C  
BRANCH  11  12
HETATM   12  C   UNL     1      -5.471   7.128  68.086  1.00  0.00    -0.021 C  
HETATM   13  O   UNL     1      -5.422   7.001  66.658  1.00  0.00    -0.021 OA 
HETATM   14  C   UNL     1      -5.466   5.782  67.417  1.00  0.00    -0.008 C  
ENDBRANCH  11  12
ENDBRANCH  10  11
ENDBRANCH   9  10
ENDBRANCH   2   4
BRANCH   2  15
HETATM   15  C   UNL     1     -10.124  13.769  66.980  1.00  0.00    -0.256 A  
HETATM   16  C   UNL     1      -8.678  15.664  67.551  1.00  0.00    -0.189 A  
HETATM   17  C   UNL     1      -8.865  16.228  66.293  1.00  0.00    -0.331 A  
HETATM   18  C   UNL     1      -9.289  14.449  67.884  1.00  0.00    -0.203 A  
HETATM   19  C   UNL     1     -10.320  14.372  65.721  1.00  0.00    -0.340 A  
HETATM   20  C   UNL     1      -9.699  15.583  65.385  1.00  0.00    -0.232 A  
BRANCH  17  21
HETATM   21  O   UNL     1      -8.297  17.392  65.850  1.00  0.00    -0.535 OA 
BRANCH  21  22
HETATM   22  C   UNL     1      -8.310  18.478  66.780  1.00  0.00    -0.269 C  
BRANCH  22  23
HETATM   23  C   UNL     1      -9.701  19.005  66.886  1.00  0.00    -0.324 C  
HETATM   24  C   UNL     1     -10.140  19.870  68.034  1.00  0.00    -0.440 C  
HETATM   25  O   UNL     1      -9.810  20.428  66.752  1.00  0.00    -0.441 OA 
ENDBRANCH  22  23
ENDBRANCH  21  22
ENDBRANCH  17  21
ENDBRANCH   2  15
TORSDOF 8
ENDMDL
MODEL      119
REMARK 921   NORMALIZED FREE ENERGY PREDICTED BY IDOCK:   -3.78 KCAL/MOL
REMARK 922        TOTAL FREE ENERGY PREDICTED BY IDOCK:   -6.71 KCAL/MOL
REMARK 923 INTER-LIGAND FREE ENERGY PREDICTED BY IDOCK:   -5.45 KCAL/MOL
REMARK 924 INTRA-LIGAND FREE ENERGY PREDICTED BY IDOCK:   -1.26 KCAL/MOL
REMARK 927      BINDING AFFINITY PREDICTED BY RF-SCORE:    0.00 PKD
ROOT
HETATM    1  C   UNL     1     -12.311  15.414  68.116  1.00  0.00     0.483 C  
HETATM    2  C   UNL     1     -10.970  14.804  68.604  1.00  0.00    -0.262 C  
HETATM    3  C   UNL     1     -11.189  14.465  70.108  1.00  0.00    -0.152 C  
ENDROOT
BRANCH   2   4
HETATM    4  C   UNL     1      -9.815  15.842  68.491  1.00  0.00    -0.209 A  
HETATM    5  C   UNL     1      -8.460  15.479  68.628  1.00  0.00    -0.174 A  
HETATM    6  C   UNL     1      -7.434  16.421  68.477  1.00  0.00    -0.181 A  
HETATM    7  C   UNL     1     -10.090  17.196  68.227  1.00  0.00    -0.314 A  
HETATM    8  C   UNL     1      -9.061  18.128  68.045  1.00  0.00    -0.289 A  
HETATM    9  C   UNL     1      -7.731  17.752  68.188  1.00  0.00    -0.254 A  
BRANCH   9  10
HETATM   10  O   UNL     1      -6.651  18.586  68.075  1.00  0.00    -0.209 OA 
BRANCH  10  11
HETATM   11  C   UNL     1      -6.510  19.555  69.114  1.00  0.00    -0.321 C  
BRANCH  11  12
HETATM   12  C   UNL     1      -6.240  20.882  68.489  1.00  0.00    -0.249 C  
HETATM   13  O   UNL     1      -7.063  21.190  67.354  1.00  0.00    -0.434 OA 
HETATM   14  C   UNL     1      -5.661  20.994  67.106  1.00  0.00    -0.254 C  
ENDBRANCH  11  12
ENDBRANCH  10  11
ENDBRANCH   9  10
ENDBRANCH   2   4
BRANCH   2  15
HETATM   15  C   UNL     1     -10.743  13.529  67.754  1.00  0.00    -0.262 A  
HETATM   16  C   UNL     1     -11.049  12.289  65.663  1.00  0.00    -0.357 A  
HETATM   17  C   UNL     1     -10.532  11.131  66.236  1.00  0.00    -0.259 A  
HETATM   18  C   UNL     1     -11.142  13.470  66.407  1.00  0.00    -0.311 A  
HETATM   19  C   UNL     1     -10.246  12.338  68.321  1.00  0.00    -0.221 A  
HETATM   20  C   UNL     1     -10.143  11.158  67.571  1.00  0.00    -0.210 A  
BRANCH  17  21
HETATM   21  O   UNL     1     -10.367   9.932  65.596  1.00  0.00    -0.220 OA 
BRANCH  21  22
HETATM   22  C   UNL     1      -9.084   9.320  65.752  1.00  0.00    -0.209 C  
BRANCH  22  23
HETATM   23  C   UNL     1      -8.443   9.197  64.411  1.00  0.00    -0.184 C  
HETATM   24  C   UNL     1      -9.093   9.731  63.166  1.00  0.00    -0.243 C  
HETATM   25  O   UNL     1      -8.037  10.442  63.829  1.00  0.00    -0.159 OA 
ENDBRANCH  22  23
ENDBRANCH  21  22
ENDBRANCH  17  21
ENDBRANCH   2  15
TORSDOF 8
ENDMDL
MODEL      120
REMARK 921   NORMALIZED FREE ENERGY PREDICTED BY IDOCK:   -3.77 KCAL/MOL
REMARK 922        TOTAL FREE ENERGY PREDICTED BY IDOCK:   -6.70 KCAL/MOL
REMARK 923 INTER-LIGAND FREE ENERGY PREDICTED BY IDOCK:   -5.52 KCAL/MOL
REMARK 924 INTRA-LIGAND FREE ENERGY PREDICTED BY IDOCK:   -1.18 KCAL/MOL
REMARK 927      BINDING AFFINITY PREDICTED BY RF-SCORE:    0.00 PKD
ROOT
HETATM    1  C   UNL     1     -11.262  10.787  67.917  1.00  0.00    -0.386 C  
HETATM    2  C   UNL     1      -9.883  11.484  67.764  1.00  0.00    -0.186 C  
HETATM    3  C   UNL     1      -9.093  11.133  69.059  1.00  0.00    -0.036 C  
ENDROOT
BRANCH   2   4
HETATM    4  C   UNL     1     -10.049  13.029  67.685  1.00  0.00    -0.217 A  
HETATM    5  C   UNL     1      -9.220  13.836  66.879  1.00  0.00    -0.263 A  
HETATM    6  C   UNL     1      -9.415  15.220  66.787  1.00  0.00    -0.264 A  
HETATM    7  C   UNL     1     -11.059  13.682  68.415  1.00  0.00    -0.289 A  
HETATM    8  C   UNL     1     -11.272  15.061  68.296  1.00  0.00    -0.309 A  
HETATM    9  C   UNL     1     -10.441  15.840  67.499  1.00  0.00    -0.288 A  
BRANCH   9  10
HETATM   10  O   UNL     1     -10.530  17.197  67.345  1.00  0.00    -0.335 OA 
BRANCH  10  11
HETATM   11  C   UNL     1     -10.630  17.950  68.554  1.00  0.00    -0.211 C  
BRANCH  11  12
HETATM   12  C   UNL     1     -10.204  19.351  68.273  1.00  0.00    -0.433 C  
HETATM   13  O   UNL     1     -10.301  19.745  66.897  1.00  0.00    -0.417 OA 
HETATM   14  C   UNL     1      -8.980  19.649  67.453  1.00  0.00    -0.315 C  
ENDBRANCH  11  12
ENDBRANCH  10  11
ENDBRANCH   9  10
ENDBRANCH   2   4
BRANCH   2  15
HETATM   15  C   UNL     1      -9.227  10.866  66.504  1.00  0.00    -0.189 A  
HETATM   16  C   UNL     1      -9.394  10.094  64.184  1.00  0.00    -0.340 A  
HETATM   17  C   UNL     1      -8.118   9.542  64.241  1.00  0.00    -0.142 A  
HETATM   18  C   UNL     1      -9.934  10.754  65.294  1.00  0.00    -0.342 A  
HETATM   19  C   UNL     1      -7.947  10.277  66.548  1.00  0.00    -0.118 A  
HETATM   20  C   UNL     1      -7.403   9.626  65.431  1.00  0.00    -0.108 A  
BRANCH  17  21
HETATM   21  O   UNL     1      -7.480   8.902  63.213  1.00  0.00    -0.098 OA 
BRANCH  21  22
HETATM   22  C   UNL     1      -7.830   7.528  63.029  1.00  0.00    -0.133 C  
BRANCH  22  23
HETATM   23  C   UNL     1      -6.585   6.707  63.048  1.00  0.00    -0.038 C  
HETATM   24  C   UNL     1      -5.251   7.293  63.416  1.00  0.00    -0.033 C  
HETATM   25  O   UNL     1      -6.017   6.518  64.351  1.00  0.00    -0.032 OA 
ENDBRANCH  22  23
ENDBRANCH  21  22
ENDBRANCH  17  21
ENDBRANCH   2  15
TORSDOF 8
ENDMDL
MODEL      121
REMARK 921   NORMALIZED FREE ENERGY PREDICTED BY IDOCK:   -3.74 KCAL/MOL
REMARK 922        TOTAL FREE ENERGY PREDICTED BY IDOCK:   -6.66 KCAL/MOL
REMARK 923 INTER-LIGAND FREE ENERGY PREDICTED BY IDOCK:   -5.62 KCAL/MOL
REMARK 924 INTRA-LIGAND FREE ENERGY PREDICTED BY IDOCK:   -1.05 KCAL/MOL
REMARK 927      BINDING AFFINITY PREDICTED BY RF-SCORE:    0.00 PKD
ROOT
HETATM    1  C   UNL     1     -11.356   5.850  71.609  1.00  0.00    -0.272 C  
HETATM    2  C   UNL     1     -10.521   7.123  71.915  1.00  0.00    -0.220 C  
HETATM    3  C   UNL     1     -10.074   6.982  73.399  1.00  0.00    -0.320 C  
ENDROOT
BRANCH   2   4
HETATM    4  C   UNL     1     -11.394   8.404  71.777  1.00  0.00    -0.366 A  
HETATM    5  C   UNL     1     -12.645   8.536  72.415  1.00  0.00    -0.409 A  
HETATM    6  C   UNL     1     -13.394   9.716  72.315  1.00  0.00    -0.498 A  
HETATM    7  C   UNL     1     -10.949   9.498  71.013  1.00  0.00    -0.424 A  
HETATM    8  C   UNL     1     -11.685  10.687  70.942  1.00  0.00    -0.387 A  
HETATM    9  C   UNL     1     -12.918  10.797  71.574  1.00  0.00    -0.456 A  
BRANCH   9  10
HETATM   10  O   UNL     1     -13.738  11.892  71.535  1.00  0.00     0.204 OA 
BRANCH  10  11
HETATM   11  C   UNL     1     -13.095  13.134  71.250  1.00  0.00    -0.193 C  
BRANCH  11  12
HETATM   12  C   UNL     1     -13.764  14.205  72.044  1.00  0.00    -0.463 C  
HETATM   13  O   UNL     1     -14.137  15.367  71.291  1.00  0.00    -0.494 OA 
HETATM   14  C   UNL     1     -13.106  15.536  72.276  1.00  0.00    -0.430 C  
ENDBRANCH  11  12
ENDBRANCH  10  11
ENDBRANCH   9  10
ENDBRANCH   2   4
BRANCH   2  15
HETATM   15  C   UNL     1      -9.314   7.088  70.944  1.00  0.00    -0.157 A  
HETATM   16  C   UNL     1      -8.388   6.630  68.722  1.00  0.00    -0.120 A  
HETATM   17  C   UNL     1      -7.090   6.809  69.190  1.00  0.00    -0.088 A  
HETATM   18  C   UNL     1      -9.482   6.779  69.583  1.00  0.00    -0.146 A  
HETATM   19  C   UNL     1      -7.990   7.239  71.402  1.00  0.00    -0.097 A  
HETATM   20  C   UNL     1      -6.896   7.101  70.536  1.00  0.00    -0.053 A  
BRANCH  17  21
HETATM   21  O   UNL     1      -5.952   6.718  68.435  1.00  0.00    -0.023 OA 
BRANCH  21  22
HETATM   22  C   UNL     1      -6.121   6.952  67.034  1.00  0.00    -0.036 C  
BRANCH  22  23
HETATM   23  C   UNL     1      -5.717   8.354  66.728  1.00  0.00    -0.044 C  
HETATM   24  C   UNL     1      -5.876   8.947  65.356  1.00  0.00    -0.047 C  
HETATM   25  O   UNL     1      -6.806   9.232  66.412  1.00  0.00    -0.080 OA 
ENDBRANCH  22  23
ENDBRANCH  21  22
ENDBRANCH  17  21
ENDBRANCH   2  15
TORSDOF 8
ENDMDL
MODEL      122
REMARK 921   NORMALIZED FREE ENERGY PREDICTED BY IDOCK:   -3.74 KCAL/MOL
REMARK 922        TOTAL FREE ENERGY PREDICTED BY IDOCK:   -6.65 KCAL/MOL
REMARK 923 INTER-LIGAND FREE ENERGY PREDICTED BY IDOCK:   -5.56 KCAL/MOL
REMARK 924 INTRA-LIGAND FREE ENERGY PREDICTED BY IDOCK:   -1.10 KCAL/MOL
REMARK 927      BINDING AFFINITY PREDICTED BY RF-SCORE:    0.00 PKD
ROOT
HETATM    1  C   UNL     1      -8.145   8.150  69.776  1.00  0.00    -0.116 C  
HETATM    2  C   UNL     1      -9.590   7.871  69.280  1.00  0.00    -0.157 C  
HETATM    3  C   UNL     1     -10.348   7.293  70.511  1.00  0.00    -0.215 C  
ENDROOT
BRANCH   2   4
HETATM    4  C   UNL     1      -9.591   6.803  68.149  1.00  0.00    -0.122 A  
HETATM    5  C   UNL     1      -8.418   6.435  67.458  1.00  0.00    -0.116 A  
HETATM    6  C   UNL     1      -8.433   5.438  66.473  1.00  0.00    -0.113 A  
HETATM    7  C   UNL     1     -10.779   6.145  67.782  1.00  0.00    -0.382 A  
HETATM    8  C   UNL     1     -10.785   5.127  66.821  1.00  0.00    -0.187 A  
HETATM    9  C   UNL     1      -9.619   4.781  66.148  1.00  0.00    -0.180 A  
BRANCH   9  10
HETATM   10  O   UNL     1      -9.519   3.836  65.163  1.00  0.00    -0.150 OA 
BRANCH  10  11
HETATM   11  C   UNL     1      -8.667   4.174  64.069  1.00  0.00    -0.118 C  
BRANCH  11  12
HETATM   12  C   UNL     1      -9.397   3.895  62.799  1.00  0.00    -0.113 C  
HETATM   13  O   UNL     1     -10.681   3.277  62.967  1.00  0.00    -0.199 OA 
HETATM   14  C   UNL     1      -9.659   2.488  62.337  1.00  0.00    -0.089 C  
ENDBRANCH  11  12
ENDBRANCH  10  11
ENDBRANCH   9  10
ENDBRANCH   2   4
BRANCH   2  15
HETATM   15  C   UNL     1     -10.165   9.241  68.841  1.00  0.00    -0.217 A  
HETATM   16  C   UNL     1     -11.402  11.290  69.363  1.00  0.00    -0.360 A  
HETATM   17  C   UNL     1     -11.418  11.661  68.022  1.00  0.00    -0.315 A  
HETATM   18  C   UNL     1     -10.775  10.105  69.766  1.00  0.00    -0.317 A  
HETATM   19  C   UNL     1     -10.216   9.622  67.485  1.00  0.00    -0.274 A  
HETATM   20  C   UNL     1     -10.834  10.816  67.084  1.00  0.00    -0.335 A  
BRANCH  17  21
HETATM   21  O   UNL     1     -11.973  12.807  67.519  1.00  0.00    -0.364 OA 
BRANCH  21  22
HETATM   22  C   UNL     1     -11.841  12.989  66.107  1.00  0.00    -0.409 C  
BRANCH  22  23
HETATM   23  C   UNL     1     -11.217  14.319  65.849  1.00  0.00    -0.319 C  
HETATM   24  C   UNL     1     -10.569  14.652  64.534  1.00  0.00    -0.062 C  
HETATM   25  O   UNL     1     -11.890  15.110  64.860  1.00  0.00    -0.328 OA 
ENDBRANCH  22  23
ENDBRANCH  21  22
ENDBRANCH  17  21
ENDBRANCH   2  15
TORSDOF 8
ENDMDL
MODEL      123
REMARK 921   NORMALIZED FREE ENERGY PREDICTED BY IDOCK:   -3.73 KCAL/MOL
REMARK 922        TOTAL FREE ENERGY PREDICTED BY IDOCK:   -6.64 KCAL/MOL
REMARK 923 INTER-LIGAND FREE ENERGY PREDICTED BY IDOCK:   -5.53 KCAL/MOL
REMARK 924 INTRA-LIGAND FREE ENERGY PREDICTED BY IDOCK:   -1.11 KCAL/MOL
REMARK 927      BINDING AFFINITY PREDICTED BY RF-SCORE:    0.00 PKD
ROOT
HETATM    1  C   UNL     1      -7.664  10.877  66.507  1.00  0.00    -0.149 C  
HETATM    2  C   UNL     1      -9.046  10.264  66.860  1.00  0.00    -0.159 C  
HETATM    3  C   UNL     1      -9.706   9.908  65.496  1.00  0.00    -0.370 C  
ENDROOT
BRANCH   2   4
HETATM    4  C   UNL     1      -9.943  11.304  67.591  1.00  0.00    -0.197 A  
HETATM    5  C   UNL     1      -9.488  12.598  67.915  1.00  0.00    -0.204 A  
HETATM    6  C   UNL     1     -10.327  13.534  68.532  1.00  0.00    -0.242 A  
HETATM    7  C   UNL     1     -11.267  10.987  67.945  1.00  0.00    -0.375 A  
HETATM    8  C   UNL     1     -12.114  11.936  68.533  1.00  0.00    -0.122 A  
HETATM    9  C   UNL     1     -11.644  13.205  68.847  1.00  0.00    -0.311 A  
BRANCH   9  10
HETATM   10  O   UNL     1     -12.368  14.192  69.460  1.00  0.00    -0.328 OA 
BRANCH  10  11
HETATM   11  C   UNL     1     -12.056  14.423  70.834  1.00  0.00    -0.344 C  
BRANCH  11  12
HETATM   12  C   UNL     1     -12.817  15.619  71.296  1.00  0.00    -0.487 C  
HETATM   13  O   UNL     1     -12.131  16.435  72.256  1.00  0.00    -0.501 OA 
HETATM   14  C   UNL     1     -13.303  15.741  72.714  1.00  0.00    -0.547 C  
ENDBRANCH  11  12
ENDBRANCH  10  11
ENDBRANCH   9  10
ENDBRANCH   2   4
BRANCH   2  15
HETATM   15  C   UNL     1      -8.751   8.998  67.704  1.00  0.00    -0.124 A  
HETATM   16  C   UNL     1      -8.084   7.967  69.824  1.00  0.00    -0.115 A  
HETATM   17  C   UNL     1      -7.996   6.714  69.226  1.00  0.00    -0.111 A  
HETATM   18  C   UNL     1      -8.466   9.088  69.077  1.00  0.00    -0.132 A  
HETATM   19  C   UNL     1      -8.630   7.724  67.112  1.00  0.00    -0.128 A  
HETATM   20  C   UNL     1      -8.258   6.601  67.865  1.00  0.00    -0.120 A  
BRANCH  17  21
HETATM   21  O   UNL     1      -7.663   5.549  69.863  1.00  0.00    -0.078 OA 
BRANCH  21  22
HETATM   22  C   UNL     1      -8.588   5.103  70.857  1.00  0.00    -0.123 C  
BRANCH  22  23
HETATM   23  C   UNL     1      -7.885   5.026  72.170  1.00  0.00    -0.110 C  
HETATM   24  C   UNL     1      -6.463   5.483  72.340  1.00  0.00    -0.053 C  
HETATM   25  O   UNL     1      -7.571   6.297  72.753  1.00  0.00    -0.101 OA 
ENDBRANCH  22  23
ENDBRANCH  21  22
ENDBRANCH  17  21
ENDBRANCH   2  15
TORSDOF 8
ENDMDL
MODEL      124
REMARK 921   NORMALIZED FREE ENERGY PREDICTED BY IDOCK:   -3.71 KCAL/MOL
REMARK 922        TOTAL FREE ENERGY PREDICTED BY IDOCK:   -6.61 KCAL/MOL
REMARK 923 INTER-LIGAND FREE ENERGY PREDICTED BY IDOCK:   -5.32 KCAL/MOL
REMARK 924 INTRA-LIGAND FREE ENERGY PREDICTED BY IDOCK:   -1.29 KCAL/MOL
REMARK 927      BINDING AFFINITY PREDICTED BY RF-SCORE:    0.00 PKD
ROOT
HETATM    1  C   UNL     1      -7.535   9.879  65.852  1.00  0.00    -0.108 C  
HETATM    2  C   UNL     1      -7.308  10.272  67.336  1.00  0.00    -0.093 C  
HETATM    3  C   UNL     1      -5.933   9.654  67.725  1.00  0.00    -0.051 C  
ENDROOT
BRANCH   2   4
HETATM    4  C   UNL     1      -8.407   9.653  68.247  1.00  0.00    -0.117 A  
HETATM    5  C   UNL     1      -8.480   9.921  69.630  1.00  0.00    -0.198 A  
HETATM    6  C   UNL     1      -9.505   9.389  70.423  1.00  0.00    -0.319 A  
HETATM    7  C   UNL     1      -9.392   8.804  67.710  1.00  0.00    -0.157 A  
HETATM    8  C   UNL     1     -10.434   8.301  68.499  1.00  0.00    -0.199 A  
HETATM    9  C   UNL     1     -10.486   8.574  69.861  1.00  0.00    -0.219 A  
BRANCH   9  10
HETATM   10  O   UNL     1     -11.429   8.100  70.732  1.00  0.00    -0.278 OA 
BRANCH  10  11
HETATM   11  C   UNL     1     -11.260   8.488  72.096  1.00  0.00    -0.362 C  
BRANCH  11  12
HETATM   12  C   UNL     1     -12.503   9.177  72.549  1.00  0.00    -0.190 C  
HETATM   13  O   UNL     1     -13.650   8.956  71.716  1.00  0.00    -0.371 OA 
HETATM   14  C   UNL     1     -13.119  10.290  71.748  1.00  0.00    -0.465 C  
ENDBRANCH  11  12
ENDBRANCH  10  11
ENDBRANCH   9  10
ENDBRANCH   2   4
BRANCH   2  15
HETATM   15  C   UNL     1      -7.273  11.820  67.371  1.00  0.00    -0.133 A  
HETATM   16  C   UNL     1      -6.121  13.906  67.940  1.00  0.00    -0.153 A  
HETATM   17  C   UNL     1      -7.258  14.653  67.648  1.00  0.00    -0.186 A  
HETATM   18  C   UNL     1      -6.126  12.514  67.793  1.00  0.00    -0.119 A  
HETATM   19  C   UNL     1      -8.421  12.594  67.106  1.00  0.00    -0.186 A  
HETATM   20  C   UNL     1      -8.411  13.989  67.243  1.00  0.00    -0.209 A  
BRANCH  17  21
HETATM   21  O   UNL     1      -7.357  16.016  67.727  1.00  0.00    -0.124 OA 
BRANCH  21  22
HETATM   22  C   UNL     1      -8.584  16.574  67.247  1.00  0.00    -0.184 C  
BRANCH  22  23
HETATM   23  C   UNL     1      -9.093  17.551  68.252  1.00  0.00    -0.274 C  
HETATM   24  C   UNL     1     -10.508  18.059  68.223  1.00  0.00    -0.343 C  
HETATM   25  O   UNL     1     -10.096  17.029  69.134  1.00  0.00    -0.283 OA 
ENDBRANCH  22  23
ENDBRANCH  21  22
ENDBRANCH  17  21
ENDBRANCH   2  15
TORSDOF 8
ENDMDL
MODEL      125
REMARK 921   NORMALIZED FREE ENERGY PREDICTED BY IDOCK:   -3.67 KCAL/MOL
REMARK 922        TOTAL FREE ENERGY PREDICTED BY IDOCK:   -6.55 KCAL/MOL
REMARK 923 INTER-LIGAND FREE ENERGY PREDICTED BY IDOCK:   -5.52 KCAL/MOL
REMARK 924 INTRA-LIGAND FREE ENERGY PREDICTED BY IDOCK:   -1.03 KCAL/MOL
REMARK 927      BINDING AFFINITY PREDICTED BY RF-SCORE:    0.00 PKD
ROOT
HETATM    1  C   UNL     1      -7.064  10.255  70.122  1.00  0.00    -0.154 C  
HETATM    2  C   UNL     1      -8.276   9.913  69.215  1.00  0.00    -0.138 C  
HETATM    3  C   UNL     1      -7.673   9.219  67.958  1.00  0.00    -0.088 C  
ENDROOT
BRANCH   2   4
HETATM    4  C   UNL     1      -9.013  11.207  68.763  1.00  0.00    -0.136 A  
HETATM    5  C   UNL     1     -10.406  11.372  68.911  1.00  0.00    -0.203 A  
HETATM    6  C   UNL     1     -11.043  12.563  68.540  1.00  0.00    -0.297 A  
HETATM    7  C   UNL     1      -8.301  12.280  68.198  1.00  0.00    -0.174 A  
HETATM    8  C   UNL     1      -8.936  13.481  67.858  1.00  0.00    -0.200 A  
HETATM    9  C   UNL     1     -10.310  13.623  68.008  1.00  0.00    -0.250 A  
BRANCH   9  10
HETATM   10  O   UNL     1     -11.037  14.731  67.669  1.00  0.00    -0.285 OA 
BRANCH  10  11
HETATM   11  C   UNL     1     -10.912  15.846  68.552  1.00  0.00    -0.324 C  
BRANCH  11  12
HETATM   12  C   UNL     1     -10.395  17.009  67.774  1.00  0.00    -0.335 C  
HETATM   13  O   UNL     1      -9.315  17.718  68.398  1.00  0.00    -0.277 OA 
HETATM   14  C   UNL     1     -10.562  18.419  68.267  1.00  0.00    -0.209 C  
ENDBRANCH  11  12
ENDBRANCH  10  11
ENDBRANCH   9  10
ENDBRANCH   2   4
BRANCH   2  15
HETATM   15  C   UNL     1      -9.167   8.946  70.034  1.00  0.00    -0.183 A  
HETATM   16  C   UNL     1      -9.845   7.994  72.188  1.00  0.00    -0.286 A  
HETATM   17  C   UNL     1     -10.631   7.036  71.554  1.00  0.00    -0.212 A  
HETATM   18  C   UNL     1      -9.135   8.939  71.439  1.00  0.00    -0.318 A  
HETATM   19  C   UNL     1      -9.948   7.951  69.413  1.00  0.00    -0.189 A  
HETATM   20  C   UNL     1     -10.669   7.011  70.164  1.00  0.00    -0.265 A  
BRANCH  17  21
HETATM   21  O   UNL     1     -11.389   6.086  72.183  1.00  0.00    -0.274 OA 
BRANCH  21  22
HETATM   22  C   UNL     1     -10.805   5.505  73.352  1.00  0.00    -0.288 C  
BRANCH  22  23
HETATM   23  C   UNL     1     -10.405   4.101  73.044  1.00  0.00    -0.171 C  
HETATM   24  C   UNL     1      -9.241   3.438  73.725  1.00  0.00    -0.092 C  
HETATM   25  O   UNL     1     -10.595   3.178  74.125  1.00  0.00    -0.167 OA 
ENDBRANCH  22  23
ENDBRANCH  21  22
ENDBRANCH  17  21
ENDBRANCH   2  15
TORSDOF 8
ENDMDL
MODEL      126
REMARK 921   NORMALIZED FREE ENERGY PREDICTED BY IDOCK:   -3.66 KCAL/MOL
REMARK 922        TOTAL FREE ENERGY PREDICTED BY IDOCK:   -6.54 KCAL/MOL
REMARK 923 INTER-LIGAND FREE ENERGY PREDICTED BY IDOCK:   -5.48 KCAL/MOL
REMARK 924 INTRA-LIGAND FREE ENERGY PREDICTED BY IDOCK:   -1.06 KCAL/MOL
REMARK 927      BINDING AFFINITY PREDICTED BY RF-SCORE:    0.00 PKD
ROOT
HETATM    1  C   UNL     1      -7.025  11.775  67.735  1.00  0.00    -0.094 C  
HETATM    2  C   UNL     1      -8.525  12.006  67.410  1.00  0.00    -0.170 C  
HETATM    3  C   UNL     1      -8.716  11.509  65.948  1.00  0.00    -0.058 C  
ENDROOT
BRANCH   2   4
HETATM    4  C   UNL     1      -8.879  13.520  67.472  1.00  0.00    -0.209 A  
HETATM    5  C   UNL     1      -9.594  14.170  66.445  1.00  0.00    -0.310 A  
HETATM    6  C   UNL     1      -9.942  15.523  66.542  1.00  0.00    -0.283 A  
HETATM    7  C   UNL     1      -8.505  14.301  68.581  1.00  0.00    -0.142 A  
HETATM    8  C   UNL     1      -8.882  15.645  68.689  1.00  0.00    -0.201 A  
HETATM    9  C   UNL     1      -9.584  16.269  67.664  1.00  0.00    -0.227 A  
BRANCH   9  10
HETATM   10  O   UNL     1      -9.964  17.583  67.645  1.00  0.00    -0.288 OA 
BRANCH  10  11
HETATM   11  C   UNL     1      -8.914  18.532  67.835  1.00  0.00    -0.284 C  
BRANCH  11  12
HETATM   12  C   UNL     1      -9.383  19.860  67.345  1.00  0.00    -0.355 C  
HETATM   13  O   UNL     1      -8.843  20.259  66.078  1.00  0.00    -0.223 OA 
HETATM   14  C   UNL     1      -8.445  21.028  67.224  1.00  0.00     0.111 C  
ENDBRANCH  11  12
ENDBRANCH  10  11
ENDBRANCH   9  10
ENDBRANCH   2   4
BRANCH   2  15
HETATM   15  C   UNL     1      -9.321  11.142  68.421  1.00  0.00    -0.185 A  
HETATM   16  C   UNL     1      -9.371   9.672  70.381  1.00  0.00    -0.268 A  
HETATM   17  C   UNL     1     -10.714   9.378  70.167  1.00  0.00    -0.243 A  
HETATM   18  C   UNL     1      -8.690  10.549  69.528  1.00  0.00    -0.040 A  
HETATM   19  C   UNL     1     -10.674  10.810  68.207  1.00  0.00    -0.253 A  
HETATM   20  C   UNL     1     -11.358   9.941  69.069  1.00  0.00    -0.073 A  
BRANCH  17  21
HETATM   21  O   UNL     1     -11.485   8.563  70.950  1.00  0.00    -0.266 OA 
BRANCH  21  22
HETATM   22  C   UNL     1     -11.896   9.118  72.202  1.00  0.00    -0.263 C  
BRANCH  22  23
HETATM   23  C   UNL     1     -13.353   9.432  72.136  1.00  0.00    -0.468 C  
HETATM   24  C   UNL     1     -14.398   8.353  72.082  1.00  0.00    -0.427 C  
HETATM   25  O   UNL     1     -14.097   9.051  73.300  1.00  0.00    -0.261 OA 
ENDBRANCH  22  23
ENDBRANCH  21  22
ENDBRANCH  17  21
ENDBRANCH   2  15
TORSDOF 8
ENDMDL
MODEL      127
REMARK 921   NORMALIZED FREE ENERGY PREDICTED BY IDOCK:   -3.62 KCAL/MOL
REMARK 922        TOTAL FREE ENERGY PREDICTED BY IDOCK:   -6.48 KCAL/MOL
REMARK 923 INTER-LIGAND FREE ENERGY PREDICTED BY IDOCK:   -5.23 KCAL/MOL
REMARK 924 INTRA-LIGAND FREE ENERGY PREDICTED BY IDOCK:   -1.25 KCAL/MOL
REMARK 927      BINDING AFFINITY PREDICTED BY RF-SCORE:    0.00 PKD
ROOT
HETATM    1  C   UNL     1      -9.811   9.040  71.825  1.00  0.00    -0.330 C  
HETATM    2  C   UNL     1      -9.064   8.789  70.488  1.00  0.00    -0.205 C  
HETATM    3  C   UNL     1      -7.600   9.257  70.734  1.00  0.00    -0.154 C  
ENDROOT
BRANCH   2   4
HETATM    4  C   UNL     1      -9.674   9.646  69.342  1.00  0.00    -0.203 A  
HETATM    5  C   UNL     1      -8.994   9.878  68.129  1.00  0.00    -0.118 A  
HETATM    6  C   UNL     1      -9.581  10.614  67.092  1.00  0.00    -0.189 A  
HETATM    7  C   UNL     1     -10.954  10.214  69.474  1.00  0.00    -0.295 A  
HETATM    8  C   UNL     1     -11.551  10.923  68.423  1.00  0.00    -0.346 A  
HETATM    9  C   UNL     1     -10.862  11.144  67.236  1.00  0.00    -0.274 A  
BRANCH   9  10
HETATM   10  O   UNL     1     -11.330  11.857  66.166  1.00  0.00    -0.332 OA 
BRANCH  10  11
HETATM   11  C   UNL     1     -10.336  12.317  65.250  1.00  0.00    -0.281 C  
BRANCH  11  12
HETATM   12  C   UNL     1     -10.642  11.757  63.902  1.00  0.00    -0.393 C  
HETATM   13  O   UNL     1     -10.135  10.435  63.671  1.00  0.00    -0.247 OA 
HETATM   14  C   UNL     1      -9.556  11.497  62.896  1.00  0.00    -0.283 C  
ENDBRANCH  11  12
ENDBRANCH  10  11
ENDBRANCH   9  10
ENDBRANCH   2   4
BRANCH   2  15
HETATM   15  C   UNL     1      -9.144   7.263  70.231  1.00  0.00    -0.152 A  
HETATM   16  C   UNL     1     -10.443   5.186  70.166  1.00  0.00    -0.305 A  
HETATM   17  C   UNL     1      -9.290   4.432  69.976  1.00  0.00    -0.157 A  
HETATM   18  C   UNL     1     -10.371   6.579  70.281  1.00  0.00    -0.241 A  
HETATM   19  C   UNL     1      -7.987   6.477  70.064  1.00  0.00    -0.116 A  
HETATM   20  C   UNL     1      -8.061   5.082  69.938  1.00  0.00    -0.074 A  
BRANCH  17  21
HETATM   21  O   UNL     1      -9.244   3.072  69.822  1.00  0.00    -0.122 OA 
BRANCH  21  22
HETATM   22  C   UNL     1      -8.530   2.605  68.674  1.00  0.00    -0.068 C  
BRANCH  22  23
HETATM   23  C   UNL     1      -9.443   2.636  67.494  1.00  0.00    -0.070 C  
HETATM   24  C   UNL     1      -9.139   3.459  66.273  1.00  0.00    -0.155 C  
HETATM   25  O   UNL     1      -8.900   2.043  66.307  1.00  0.00    -0.121 OA 
ENDBRANCH  22  23
ENDBRANCH  21  22
ENDBRANCH  17  21
ENDBRANCH   2  15
TORSDOF 8
ENDMDL
MODEL      128
REMARK 921   NORMALIZED FREE ENERGY PREDICTED BY IDOCK:   -3.61 KCAL/MOL
REMARK 922        TOTAL FREE ENERGY PREDICTED BY IDOCK:   -6.47 KCAL/MOL
REMARK 923 INTER-LIGAND FREE ENERGY PREDICTED BY IDOCK:   -5.50 KCAL/MOL
REMARK 924 INTRA-LIGAND FREE ENERGY PREDICTED BY IDOCK:   -0.97 KCAL/MOL
REMARK 927      BINDING AFFINITY PREDICTED BY RF-SCORE:    0.00 PKD
ROOT
HETATM    1  C   UNL     1      -8.392  10.683  65.676  1.00  0.00    -0.162 C  
HETATM    2  C   UNL     1      -8.686   9.990  67.033  1.00  0.00    -0.137 C  
HETATM    3  C   UNL     1      -7.342  10.023  67.818  1.00  0.00    -0.089 C  
ENDROOT
BRANCH   2   4
HETATM    4  C   UNL     1      -9.101   8.506  66.819  1.00  0.00    -0.186 A  
HETATM    5  C   UNL     1      -8.218   7.546  66.284  1.00  0.00    -0.125 A  
HETATM    6  C   UNL     1      -8.597   6.204  66.142  1.00  0.00    -0.141 A  
HETATM    7  C   UNL     1     -10.387   8.061  67.175  1.00  0.00    -0.395 A  
HETATM    8  C   UNL     1     -10.752   6.713  67.062  1.00  0.00    -0.437 A  
HETATM    9  C   UNL     1      -9.868   5.783  66.528  1.00  0.00    -0.161 A  
BRANCH   9  10
HETATM   10  O   UNL     1     -10.134   4.455  66.332  1.00  0.00    -0.232 OA 
BRANCH  10  11
HETATM   11  C   UNL     1     -10.793   4.132  65.107  1.00  0.00     0.017 C  
BRANCH  11  12
HETATM   12  C   UNL     1      -9.840   3.378  64.243  1.00  0.00    -0.173 C  
HETATM   13  O   UNL     1      -9.855   3.757  62.859  1.00  0.00    -0.129 OA 
HETATM   14  C   UNL     1     -10.324   2.437  63.176  1.00  0.00    -0.143 C  
ENDBRANCH  11  12
ENDBRANCH  10  11
ENDBRANCH   9  10
ENDBRANCH   2   4
BRANCH   2  15
HETATM   15  C   UNL     1      -9.777  10.846  67.725  1.00  0.00    -0.183 A  
HETATM   16  C   UNL     1     -11.539  12.544  67.601  1.00  0.00    -0.416 A  
HETATM   17  C   UNL     1     -11.643  12.585  68.989  1.00  0.00    -0.314 A  
HETATM   18  C   UNL     1     -10.629  11.680  66.981  1.00  0.00    -0.272 A  
HETATM   19  C   UNL     1      -9.881  10.922  69.128  1.00  0.00    -0.164 A  
HETATM   20  C   UNL     1     -10.801  11.779  69.748  1.00  0.00     0.170 A  
BRANCH  17  21
HETATM   21  O   UNL     1     -12.514  13.365  69.699  1.00  0.00    -0.184 OA 
BRANCH  21  22
HETATM   22  C   UNL     1     -12.004  14.634  70.119  1.00  0.00    -0.313 C  
BRANCH  22  23
HETATM   23  C   UNL     1     -12.316  14.824  71.565  1.00  0.00    -0.344 C  
HETATM   24  C   UNL     1     -11.832  16.022  72.333  1.00  0.00    -0.535 C  
HETATM   25  O   UNL     1     -13.180  15.932  71.847  1.00  0.00    -0.451 OA 
ENDBRANCH  22  23
ENDBRANCH  21  22
ENDBRANCH  17  21
ENDBRANCH   2  15
TORSDOF 8
ENDMDL
MODEL      129
REMARK 921   NORMALIZED FREE ENERGY PREDICTED BY IDOCK:   -3.61 KCAL/MOL
REMARK 922        TOTAL FREE ENERGY PREDICTED BY IDOCK:   -6.46 KCAL/MOL
REMARK 923 INTER-LIGAND FREE ENERGY PREDICTED BY IDOCK:   -5.27 KCAL/MOL
REMARK 924 INTRA-LIGAND FREE ENERGY PREDICTED BY IDOCK:   -1.19 KCAL/MOL
REMARK 927      BINDING AFFINITY PREDICTED BY RF-SCORE:    0.00 PKD
ROOT
HETATM    1  C   UNL     1      -6.645  10.991  66.799  1.00  0.00    -0.124 C  
HETATM    2  C   UNL     1      -7.761  10.430  67.721  1.00  0.00    -0.089 C  
HETATM    3  C   UNL     1      -7.507  11.068  69.118  1.00  0.00    -0.121 C  
ENDROOT
BRANCH   2   4
HETATM    4  C   UNL     1      -7.647   8.884  67.851  1.00  0.00    -0.093 A  
HETATM    5  C   UNL     1      -8.669   8.098  68.422  1.00  0.00    -0.134 A  
HETATM    6  C   UNL     1      -8.566   6.702  68.488  1.00  0.00    -0.124 A  
HETATM    7  C   UNL     1      -6.508   8.205  67.381  1.00  0.00    -0.057 A  
HETATM    8  C   UNL     1      -6.422   6.808  67.419  1.00  0.00    -0.049 A  
HETATM    9  C   UNL     1      -7.439   6.051  67.989  1.00  0.00    -0.085 A  
BRANCH   9  10
HETATM   10  O   UNL     1      -7.440   4.688  68.119  1.00  0.00    -0.065 OA 
BRANCH  10  11
HETATM   11  C   UNL     1      -7.153   3.955  66.928  1.00  0.00    -0.063 C  
BRANCH  11  12
HETATM   12  C   UNL     1      -8.349   4.012  66.039  1.00  0.00    -0.109 C  
HETATM   13  O   UNL     1      -9.573   3.579  66.650  1.00  0.00    -0.187 OA 
HETATM   14  C   UNL     1      -9.053   2.762  65.589  1.00  0.00    -0.133 C  
ENDBRANCH  11  12
ENDBRANCH  10  11
ENDBRANCH   9  10
ENDBRANCH   2   4
BRANCH   2  15
HETATM   15  C   UNL     1      -9.103  10.904  67.108  1.00  0.00    -0.152 A  
HETATM   16  C   UNL     1     -10.551  11.225  65.157  1.00  0.00    -0.343 A  
HETATM   17  C   UNL     1     -11.464  11.952  65.914  1.00  0.00    -0.278 A  
HETATM   18  C   UNL     1      -9.395  10.700  65.749  1.00  0.00    -0.223 A  
HETATM   19  C   UNL     1     -10.029  11.665  67.850  1.00  0.00    -0.190 A  
HETATM   20  C   UNL     1     -11.192  12.180  67.259  1.00  0.00    -0.366 A  
BRANCH  17  21
HETATM   21  O   UNL     1     -12.637  12.484  65.450  1.00  0.00    -0.656 OA 
BRANCH  21  22
HETATM   22  C   UNL     1     -12.758  13.904  65.564  1.00  0.00    -0.499 C  
BRANCH  22  23
HETATM   23  C   UNL     1     -12.043  14.542  64.421  1.00  0.00    -0.472 C  
HETATM   24  C   UNL     1     -11.459  15.924  64.518  1.00  0.00    -0.283 C  
HETATM   25  O   UNL     1     -10.641  14.750  64.639  1.00  0.00    -0.374 OA 
ENDBRANCH  22  23
ENDBRANCH  21  22
ENDBRANCH  17  21
ENDBRANCH   2  15
TORSDOF 8
ENDMDL
MODEL      130
REMARK 921   NORMALIZED FREE ENERGY PREDICTED BY IDOCK:   -3.58 KCAL/MOL
REMARK 922        TOTAL FREE ENERGY PREDICTED BY IDOCK:   -6.42 KCAL/MOL
REMARK 923 INTER-LIGAND FREE ENERGY PREDICTED BY IDOCK:   -5.29 KCAL/MOL
REMARK 924 INTRA-LIGAND FREE ENERGY PREDICTED BY IDOCK:   -1.13 KCAL/MOL
REMARK 927      BINDING AFFINITY PREDICTED BY RF-SCORE:    0.00 PKD
ROOT
HETATM    1  C   UNL     1      -7.334  11.114  66.702  1.00  0.00    -0.145 C  
HETATM    2  C   UNL     1      -7.059  11.192  68.228  1.00  0.00    -0.073 C  
HETATM    3  C   UNL     1      -5.864  10.227  68.486  1.00  0.00    -0.040 C  
ENDROOT
BRANCH   2   4
HETATM    4  C   UNL     1      -8.288  10.690  69.039  1.00  0.00    -0.153 A  
HETATM    5  C   UNL     1      -9.602  11.116  68.758  1.00  0.00    -0.180 A  
HETATM    6  C   UNL     1     -10.700  10.617  69.471  1.00  0.00    -0.290 A  
HETATM    7  C   UNL     1      -8.128   9.765  70.087  1.00  0.00    -0.202 A  
HETATM    8  C   UNL     1      -9.231   9.244  70.776  1.00  0.00    -0.316 A  
HETATM    9  C   UNL     1     -10.518   9.680  70.487  1.00  0.00    -0.303 A  
BRANCH   9  10
HETATM   10  O   UNL     1     -11.659   9.272  71.125  1.00  0.00    -0.279 OA 
BRANCH  10  11
HETATM   11  C   UNL     1     -12.630  10.292  71.363  1.00  0.00    -0.434 C  
BRANCH  11  12
HETATM   12  C   UNL     1     -13.877   9.647  71.865  1.00  0.00    -0.213 C  
HETATM   13  O   UNL     1     -13.667   8.570  72.789  1.00  0.00    -0.208 OA 
HETATM   14  C   UNL     1     -14.224   8.228  71.510  1.00  0.00    -0.403 C  
ENDBRANCH  11  12
ENDBRANCH  10  11
ENDBRANCH   9  10
ENDBRANCH   2   4
BRANCH   2  15
HETATM   15  C   UNL     1      -6.682  12.666  68.522  1.00  0.00    -0.089 A  
HETATM   16  C   UNL     1      -5.922  14.392  70.086  1.00  0.00    -0.151 A  
HETATM   17  C   UNL     1      -6.184  15.395  69.158  1.00  0.00    -0.110 A  
HETATM   18  C   UNL     1      -6.156  13.049  69.768  1.00  0.00    -0.123 A  
HETATM   19  C   UNL     1      -6.965  13.700  67.607  1.00  0.00    -0.183 A  
HETATM   20  C   UNL     1      -6.719  15.044  67.923  1.00  0.00    -0.172 A  
BRANCH  17  21
HETATM   21  O   UNL     1      -5.967  16.733  69.349  1.00  0.00    -0.175 OA 
BRANCH  21  22
HETATM   22  C   UNL     1      -6.582  17.600  68.394  1.00  0.00    -0.196 C  
BRANCH  22  23
HETATM   23  C   UNL     1      -6.018  18.972  68.555  1.00  0.00    -0.217 C  
HETATM   24  C   UNL     1      -6.824  20.205  68.256  1.00  0.00    -0.300 C  
HETATM   25  O   UNL     1      -6.623  19.744  69.601  1.00  0.00    -0.334 OA 
ENDBRANCH  22  23
ENDBRANCH  21  22
ENDBRANCH  17  21
ENDBRANCH   2  15
TORSDOF 8
ENDMDL
MODEL      131
REMARK 921   NORMALIZED FREE ENERGY PREDICTED BY IDOCK:   -3.57 KCAL/MOL
REMARK 922        TOTAL FREE ENERGY PREDICTED BY IDOCK:   -6.40 KCAL/MOL
REMARK 923 INTER-LIGAND FREE ENERGY PREDICTED BY IDOCK:   -5.24 KCAL/MOL
REMARK 924 INTRA-LIGAND FREE ENERGY PREDICTED BY IDOCK:   -1.16 KCAL/MOL
REMARK 927      BINDING AFFINITY PREDICTED BY RF-SCORE:    0.00 PKD
ROOT
HETATM    1  C   UNL     1      -9.325   2.686  70.841  1.00  0.00    -0.217 C  
HETATM    2  C   UNL     1      -8.951   4.119  70.377  1.00  0.00    -0.152 C  
HETATM    3  C   UNL     1      -7.727   4.533  71.245  1.00  0.00    -0.077 C  
ENDROOT
BRANCH   2   4
HETATM    4  C   UNL     1     -10.117   5.113  70.653  1.00  0.00    -0.309 A  
HETATM    5  C   UNL     1     -10.733   5.856  69.626  1.00  0.00    -0.415 A  
HETATM    6  C   UNL     1     -11.811   6.711  69.890  1.00  0.00    -0.238 A  
HETATM    7  C   UNL     1     -10.613   5.293  71.957  1.00  0.00    -0.279 A  
HETATM    8  C   UNL     1     -11.712   6.123  72.212  1.00  0.00    -0.352 A  
HETATM    9  C   UNL     1     -12.304   6.851  71.187  1.00  0.00    -0.370 A  
BRANCH   9  10
HETATM   10  O   UNL     1     -13.349   7.722  71.330  1.00  0.00    -0.280 OA 
BRANCH  10  11
HETATM   11  C   UNL     1     -13.179   8.731  72.325  1.00  0.00    -0.412 C  
BRANCH  11  12
HETATM   12  C   UNL     1     -12.348   9.827  71.749  1.00  0.00    -0.386 C  
HETATM   13  O   UNL     1     -12.950  11.128  71.798  1.00  0.00    -0.451 OA 
HETATM   14  C   UNL     1     -12.761  10.550  70.497  1.00  0.00    -0.305 C  
ENDBRANCH  11  12
ENDBRANCH  10  11
ENDBRANCH   9  10
ENDBRANCH   2   4
BRANCH   2  15
HETATM   15  C   UNL     1      -8.579   4.001  68.877  1.00  0.00    -0.112 A  
HETATM   16  C   UNL     1      -7.411   4.867  66.905  1.00  0.00    -0.085 A  
HETATM   17  C   UNL     1      -8.044   3.941  66.083  1.00  0.00    -0.101 A  
HETATM   18  C   UNL     1      -7.666   4.889  68.281  1.00  0.00    -0.082 A  
HETATM   19  C   UNL     1      -9.229   3.089  68.022  1.00  0.00    -0.248 A  
HETATM   20  C   UNL     1      -8.963   3.062  66.645  1.00  0.00    -0.169 A  
BRANCH  17  21
HETATM   21  O   UNL     1      -7.849   3.810  64.734  1.00  0.00    -0.084 OA 
BRANCH  21  22
HETATM   22  C   UNL     1      -7.844   2.468  64.239  1.00  0.00    -0.077 C  
BRANCH  22  23
HETATM   23  C   UNL     1      -6.588   2.245  63.466  1.00  0.00    -0.026 C  
HETATM   24  C   UNL     1      -5.541   3.314  63.321  1.00  0.00    -0.009 C  
HETATM   25  O   UNL     1      -5.394   2.238  64.260  1.00  0.00    -0.007 OA 
ENDBRANCH  22  23
ENDBRANCH  21  22
ENDBRANCH  17  21
ENDBRANCH   2  15
TORSDOF 8
ENDMDL
MODEL      132
REMARK 921   NORMALIZED FREE ENERGY PREDICTED BY IDOCK:   -3.55 KCAL/MOL
REMARK 922        TOTAL FREE ENERGY PREDICTED BY IDOCK:   -6.38 KCAL/MOL
REMARK 923 INTER-LIGAND FREE ENERGY PREDICTED BY IDOCK:   -4.99 KCAL/MOL
REMARK 924 INTRA-LIGAND FREE ENERGY PREDICTED BY IDOCK:   -1.39 KCAL/MOL
REMARK 927      BINDING AFFINITY PREDICTED BY RF-SCORE:    0.00 PKD
ROOT
HETATM    1  C   UNL     1      -7.884   9.323  66.817  1.00  0.00    -0.104 C  
HETATM    2  C   UNL     1      -9.248   8.805  67.346  1.00  0.00    -0.158 C  
HETATM    3  C   UNL     1     -10.305   9.837  66.855  1.00  0.00    -0.301 C  
ENDROOT
BRANCH   2   4
HETATM    4  C   UNL     1      -9.265   8.776  68.902  1.00  0.00    -0.141 A  
HETATM    5  C   UNL     1      -8.301   8.075  69.654  1.00  0.00    -0.126 A  
HETATM    6  C   UNL     1      -8.308   8.100  71.055  1.00  0.00    -0.129 A  
HETATM    7  C   UNL     1     -10.251   9.475  69.623  1.00  0.00    -0.234 A  
HETATM    8  C   UNL     1     -10.235   9.525  71.022  1.00  0.00    -0.332 A  
HETATM    9  C   UNL     1      -9.278   8.823  71.745  1.00  0.00    -0.262 A  
BRANCH   9  10
HETATM   10  O   UNL     1      -9.197   8.766  73.111  1.00  0.00    -0.199 OA 
BRANCH  10  11
HETATM   11  C   UNL     1      -9.142   7.453  73.670  1.00  0.00    -0.226 C  
BRANCH  11  12
HETATM   12  C   UNL     1     -10.530   6.914  73.744  1.00  0.00    -0.357 C  
HETATM   13  O   UNL     1     -10.631   5.583  74.270  1.00  0.00    -0.270 OA 
HETATM   14  C   UNL     1     -10.972   5.762  72.885  1.00  0.00    -0.274 C  
ENDBRANCH  11  12
ENDBRANCH  10  11
ENDBRANCH   9  10
ENDBRANCH   2   4
BRANCH   2  15
HETATM   15  C   UNL     1      -9.459   7.413  66.698  1.00  0.00    -0.240 A  
HETATM   16  C   UNL     1     -10.711   5.313  66.539  1.00  0.00    -0.290 A  
HETATM   17  C   UNL     1      -9.755   4.769  65.687  1.00  0.00    -0.174 A  
HETATM   18  C   UNL     1     -10.570   6.617  67.027  1.00  0.00    -0.404 A  
HETATM   19  C   UNL     1      -8.490   6.833  65.855  1.00  0.00    -0.146 A  
HETATM   20  C   UNL     1      -8.639   5.531  65.357  1.00  0.00    -0.151 A  
BRANCH  17  21
HETATM   21  O   UNL     1      -9.805   3.521  65.128  1.00  0.00    -0.157 OA 
BRANCH  21  22
HETATM   22  C   UNL     1      -9.399   3.441  63.759  1.00  0.00    -0.120 C  
BRANCH  22  23
HETATM   23  C   UNL     1      -8.538   2.237  63.581  1.00  0.00    -0.085 C  
HETATM   24  C   UNL     1      -7.050   2.283  63.790  1.00  0.00    -0.040 C  
HETATM   25  O   UNL     1      -7.934   1.753  64.788  1.00  0.00    -0.068 OA 
ENDBRANCH  22  23
ENDBRANCH  21  22
ENDBRANCH  17  21
ENDBRANCH   2  15
TORSDOF 8
ENDMDL
MODEL      133
REMARK 921   NORMALIZED FREE ENERGY PREDICTED BY IDOCK:   -3.50 KCAL/MOL
REMARK 922        TOTAL FREE ENERGY PREDICTED BY IDOCK:   -6.30 KCAL/MOL
REMARK 923 INTER-LIGAND FREE ENERGY PREDICTED BY IDOCK:   -5.20 KCAL/MOL
REMARK 924 INTRA-LIGAND FREE ENERGY PREDICTED BY IDOCK:   -1.11 KCAL/MOL
REMARK 927      BINDING AFFINITY PREDICTED BY RF-SCORE:    0.00 PKD
ROOT
HETATM    1  C   UNL     1      -6.048  13.169  67.492  1.00  0.00    -0.112 C  
HETATM    2  C   UNL     1      -7.261  13.102  68.458  1.00  0.00    -0.110 C  
HETATM    3  C   UNL     1      -6.652  13.069  69.890  1.00  0.00     0.129 C  
ENDROOT
BRANCH   2   4
HETATM    4  C   UNL     1      -8.078  11.796  68.233  1.00  0.00    -0.154 A  
HETATM    5  C   UNL     1      -7.515  10.648  67.640  1.00  0.00    -0.091 A  
HETATM    6  C   UNL     1      -8.254   9.467  67.490  1.00  0.00    -0.121 A  
HETATM    7  C   UNL     1      -9.423  11.712  68.637  1.00  0.00    -0.129 A  
HETATM    8  C   UNL     1     -10.149  10.521  68.514  1.00  0.00    -0.187 A  
HETATM    9  C   UNL     1      -9.577   9.400  67.924  1.00  0.00    -0.134 A  
BRANCH   9  10
HETATM   10  O   UNL     1     -10.207   8.203  67.713  1.00  0.00    -0.202 OA 
BRANCH  10  11
HETATM   11  C   UNL     1      -9.612   7.358  66.728  1.00  0.00    -0.192 C  
BRANCH  11  12
HETATM   12  C   UNL     1     -10.174   5.985  66.883  1.00  0.00    -0.210 C  
HETATM   13  O   UNL     1      -9.202   4.963  67.144  1.00  0.00    -0.117 OA 
HETATM   14  C   UNL     1      -9.884   4.901  65.882  1.00  0.00    -0.191 C  
ENDBRANCH  11  12
ENDBRANCH  10  11
ENDBRANCH   9  10
ENDBRANCH   2   4
BRANCH   2  15
HETATM   15  C   UNL     1      -8.079  14.395  68.210  1.00  0.00    -0.139 A  
HETATM   16  C   UNL     1      -9.219  16.384  69.073  1.00  0.00    -0.247 A  
HETATM   17  C   UNL     1      -9.758  16.660  67.820  1.00  0.00    -0.240 A  
HETATM   18  C   UNL     1      -8.384  15.277  69.261  1.00  0.00    -0.243 A  
HETATM   19  C   UNL     1      -8.657  14.678  66.956  1.00  0.00    -0.249 A  
HETATM   20  C   UNL     1      -9.484  15.794  66.767  1.00  0.00    -0.259 A  
BRANCH  17  21
HETATM   21  O   UNL     1     -10.560  17.727  67.515  1.00  0.00    -0.377 OA 
BRANCH  21  22
HETATM   22  C   UNL     1     -10.422  18.242  66.189  1.00  0.00    -0.383 C  
BRANCH  22  23
HETATM   23  C   UNL     1     -10.215  19.717  66.264  1.00  0.00    -0.509 C  
HETATM   24  C   UNL     1      -9.610  20.376  67.472  1.00  0.00    -0.420 C  
HETATM   25  O   UNL     1      -8.840  20.125  66.286  1.00  0.00    -0.309 OA 
ENDBRANCH  22  23
ENDBRANCH  21  22
ENDBRANCH  17  21
ENDBRANCH   2  15
TORSDOF 8
ENDMDL
MODEL      134
REMARK 921   NORMALIZED FREE ENERGY PREDICTED BY IDOCK:   -3.47 KCAL/MOL
REMARK 922        TOTAL FREE ENERGY PREDICTED BY IDOCK:   -6.25 KCAL/MOL
REMARK 923 INTER-LIGAND FREE ENERGY PREDICTED BY IDOCK:   -4.98 KCAL/MOL
REMARK 924 INTRA-LIGAND FREE ENERGY PREDICTED BY IDOCK:   -1.27 KCAL/MOL
REMARK 927      BINDING AFFINITY PREDICTED BY RF-SCORE:    0.00 PKD
ROOT
HETATM    1  C   UNL     1     -10.788   6.809  67.038  1.00  0.00    -0.453 C  
HETATM    2  C   UNL     1      -9.630   7.469  67.834  1.00  0.00    -0.161 C  
HETATM    3  C   UNL     1      -8.333   7.121  67.048  1.00  0.00    -0.118 C  
ENDROOT
BRANCH   2   4
HETATM    4  C   UNL     1      -9.524   6.863  69.263  1.00  0.00    -0.147 A  
HETATM    5  C   UNL     1     -10.455   5.925  69.756  1.00  0.00    -0.340 A  
HETATM    6  C   UNL     1     -10.315   5.358  71.029  1.00  0.00    -0.307 A  
HETATM    7  C   UNL     1      -8.469   7.225  70.120  1.00  0.00    -0.138 A  
HETATM    8  C   UNL     1      -8.314   6.632  71.379  1.00  0.00    -0.120 A  
HETATM    9  C   UNL     1      -9.244   5.712  71.849  1.00  0.00    -0.145 A  
BRANCH   9  10
HETATM   10  O   UNL     1      -9.215   5.106  73.075  1.00  0.00    -0.124 OA 
BRANCH  10  11
HETATM   11  C   UNL     1      -8.652   3.795  73.103  1.00  0.00    -0.094 C  
BRANCH  11  12
HETATM   12  C   UNL     1      -9.516   2.927  73.954  1.00  0.00    -0.087 C  
HETATM   13  O   UNL     1     -10.013   1.750  73.303  1.00  0.00    -0.086 OA 
HETATM   14  C   UNL     1     -10.980   2.750  73.662  1.00  0.00    -0.218 C  
ENDBRANCH  11  12
ENDBRANCH  10  11
ENDBRANCH   9  10
ENDBRANCH   2   4
BRANCH   2  15
HETATM   15  C   UNL     1      -9.917   8.992  67.825  1.00  0.00    -0.235 A  
HETATM   16  C   UNL     1      -9.216  11.282  67.305  1.00  0.00    -0.170 A  
HETATM   17  C   UNL     1     -10.311  11.806  67.984  1.00  0.00    -0.198 A  
HETATM   18  C   UNL     1      -9.029   9.897  67.218  1.00  0.00    -0.145 A  
HETATM   19  C   UNL     1     -11.004   9.546  68.530  1.00  0.00    -0.109 A  
HETATM   20  C   UNL     1     -11.197  10.933  68.606  1.00  0.00    -0.326 A  
BRANCH  17  21
HETATM   21  O   UNL     1     -10.609  13.137  68.107  1.00  0.00    -0.231 OA 
BRANCH  21  22
HETATM   22  C   UNL     1     -11.986  13.441  68.343  1.00  0.00    -0.324 C  
BRANCH  22  23
HETATM   23  C   UNL     1     -12.081  14.374  69.503  1.00  0.00    -0.322 C  
HETATM   24  C   UNL     1     -13.140  14.224  70.560  1.00  0.00    -0.112 C  
HETATM   25  O   UNL     1     -11.793  13.774  70.773  1.00  0.00    -0.272 OA 
ENDBRANCH  22  23
ENDBRANCH  21  22
ENDBRANCH  17  21
ENDBRANCH   2  15
TORSDOF 8
ENDMDL
MODEL      135
REMARK 921   NORMALIZED FREE ENERGY PREDICTED BY IDOCK:   -3.45 KCAL/MOL
REMARK 922        TOTAL FREE ENERGY PREDICTED BY IDOCK:   -6.24 KCAL/MOL
REMARK 923 INTER-LIGAND FREE ENERGY PREDICTED BY IDOCK:   -5.35 KCAL/MOL
REMARK 924 INTRA-LIGAND FREE ENERGY PREDICTED BY IDOCK:   -0.89 KCAL/MOL
REMARK 927      BINDING AFFINITY PREDICTED BY RF-SCORE:    0.00 PKD
ROOT
HETATM    1  C   UNL     1      -9.083   8.913  71.299  1.00  0.00    -0.323 C  
HETATM    2  C   UNL     1     -10.236   8.906  70.261  1.00  0.00    -0.230 C  
HETATM    3  C   UNL     1     -11.536   8.669  71.084  1.00  0.00    -0.330 C  
ENDROOT
BRANCH   2   4
HETATM    4  C   UNL     1     -10.067   7.734  69.251  1.00  0.00    -0.199 A  
HETATM    5  C   UNL     1      -8.865   7.514  68.546  1.00  0.00    -0.126 A  
HETATM    6  C   UNL     1      -8.719   6.426  67.676  1.00  0.00    -0.114 A  
HETATM    7  C   UNL     1     -11.118   6.829  69.017  1.00  0.00    -0.254 A  
HETATM    8  C   UNL     1     -10.957   5.724  68.172  1.00  0.00    -0.150 A  
HETATM    9  C   UNL     1      -9.767   5.527  67.483  1.00  0.00    -0.128 A  
BRANCH   9  10
HETATM   10  O   UNL     1      -9.516   4.511  66.601  1.00  0.00    -0.147 OA 
BRANCH  10  11
HETATM   11  C   UNL     1      -9.517   3.196  67.159  1.00  0.00    -0.109 C  
BRANCH  11  12
HETATM   12  C   UNL     1      -8.135   2.880  67.623  1.00  0.00    -0.075 C  
HETATM   13  O   UNL     1      -7.737   1.514  67.439  1.00  0.00    -0.058 OA 
HETATM   14  C   UNL     1      -7.890   1.969  68.793  1.00  0.00    -0.045 C  
ENDBRANCH  11  12
ENDBRANCH  10  11
ENDBRANCH   9  10
ENDBRANCH   2   4
BRANCH   2  15
HETATM   15  C   UNL     1     -10.224  10.305  69.595  1.00  0.00    -0.268 A  
HETATM   16  C   UNL     1     -11.423  12.283  68.788  1.00  0.00    -0.360 A  
HETATM   17  C   UNL     1     -10.270  12.778  68.187  1.00  0.00    -0.241 A  
HETATM   18  C   UNL     1     -11.396  11.072  69.489  1.00  0.00    -0.356 A  
HETATM   19  C   UNL     1      -9.074  10.812  68.957  1.00  0.00    -0.153 A  
HETATM   20  C   UNL     1      -9.099  12.031  68.264  1.00  0.00    -0.190 A  
BRANCH  17  21
HETATM   21  O   UNL     1     -10.172  13.960  67.504  1.00  0.00    -0.241 OA 
BRANCH  21  22
HETATM   22  C   UNL     1     -11.346  14.359  66.791  1.00  0.00    -0.352 C  
BRANCH  22  23
HETATM   23  C   UNL     1     -10.979  15.433  65.822  1.00  0.00    -0.309 C  
HETATM   24  C   UNL     1     -10.485  16.778  66.274  1.00  0.00    -0.261 C  
HETATM   25  O   UNL     1      -9.584  15.765  65.803  1.00  0.00    -0.330 OA 
ENDBRANCH  22  23
ENDBRANCH  21  22
ENDBRANCH  17  21
ENDBRANCH   2  15
TORSDOF 8
ENDMDL
MODEL      136
REMARK 921   NORMALIZED FREE ENERGY PREDICTED BY IDOCK:   -3.44 KCAL/MOL
REMARK 922        TOTAL FREE ENERGY PREDICTED BY IDOCK:   -6.22 KCAL/MOL
REMARK 923 INTER-LIGAND FREE ENERGY PREDICTED BY IDOCK:   -5.28 KCAL/MOL
REMARK 924 INTRA-LIGAND FREE ENERGY PREDICTED BY IDOCK:   -0.94 KCAL/MOL
REMARK 927      BINDING AFFINITY PREDICTED BY RF-SCORE:    0.00 PKD
ROOT
HETATM    1  C   UNL     1      -6.936  10.823  69.069  1.00  0.00    -0.085 C  
HETATM    2  C   UNL     1      -7.830  11.248  67.874  1.00  0.00    -0.116 C  
HETATM    3  C   UNL     1      -6.994  12.294  67.080  1.00  0.00    -0.102 C  
ENDROOT
BRANCH   2   4
HETATM    4  C   UNL     1      -9.136  11.931  68.374  1.00  0.00    -0.167 A  
HETATM    5  C   UNL     1     -10.194  11.200  68.954  1.00  0.00    -0.209 A  
HETATM    6  C   UNL     1     -11.342  11.840  69.439  1.00  0.00    -0.337 A  
HETATM    7  C   UNL     1      -9.301  13.324  68.277  1.00  0.00    -0.205 A  
HETATM    8  C   UNL     1     -10.436  13.963  68.792  1.00  0.00    -0.229 A  
HETATM    9  C   UNL     1     -11.470  13.226  69.356  1.00  0.00    -0.263 A  
BRANCH   9  10
HETATM   10  O   UNL     1     -12.638  13.741  69.849  1.00  0.00    -0.253 OA 
BRANCH  10  11
HETATM   11  C   UNL     1     -12.879  13.508  71.237  1.00  0.00    -0.338 C  
BRANCH  11  12
HETATM   12  C   UNL     1     -13.984  14.405  71.681  1.00  0.00    -0.426 C  
HETATM   13  O   UNL     1     -13.773  15.798  71.411  1.00  0.00    -0.531 OA 
HETATM   14  C   UNL     1     -13.788  15.400  72.791  1.00  0.00    -0.482 C  
ENDBRANCH  11  12
ENDBRANCH  10  11
ENDBRANCH   9  10
ENDBRANCH   2   4
BRANCH   2  15
HETATM   15  C   UNL     1      -8.080   9.963  67.045  1.00  0.00    -0.110 A  
HETATM   16  C   UNL     1      -7.932   7.529  66.806  1.00  0.00    -0.115 A  
HETATM   17  C   UNL     1      -8.326   7.603  65.474  1.00  0.00    -0.135 A  
HETATM   18  C   UNL     1      -7.822   8.689  67.581  1.00  0.00    -0.103 A  
HETATM   19  C   UNL     1      -8.452  10.017  65.687  1.00  0.00    -0.155 A  
HETATM   20  C   UNL     1      -8.573   8.853  64.915  1.00  0.00    -0.198 A  
BRANCH  17  21
HETATM   21  O   UNL     1      -8.495   6.536  64.633  1.00  0.00    -0.044 OA 
BRANCH  21  22
HETATM   22  C   UNL     1      -8.200   5.255  65.195  1.00  0.00    -0.135 C  
BRANCH  22  23
HETATM   23  C   UNL     1      -9.480   4.573  65.540  1.00  0.00    -0.173 C  
HETATM   24  C   UNL     1      -9.920   4.378  66.964  1.00  0.00    -0.157 C  
HETATM   25  O   UNL     1     -10.463   5.424  66.144  1.00  0.00    -0.210 OA 
ENDBRANCH  22  23
ENDBRANCH  21  22
ENDBRANCH  17  21
ENDBRANCH   2  15
TORSDOF 8
ENDMDL
MODEL      137
REMARK 921   NORMALIZED FREE ENERGY PREDICTED BY IDOCK:   -3.42 KCAL/MOL
REMARK 922        TOTAL FREE ENERGY PREDICTED BY IDOCK:   -6.18 KCAL/MOL
REMARK 923 INTER-LIGAND FREE ENERGY PREDICTED BY IDOCK:   -5.16 KCAL/MOL
REMARK 924 INTRA-LIGAND FREE ENERGY PREDICTED BY IDOCK:   -1.02 KCAL/MOL
REMARK 927      BINDING AFFINITY PREDICTED BY RF-SCORE:    0.00 PKD
ROOT
HETATM    1  C   UNL     1      -7.174  12.049  68.448  1.00  0.00    -0.092 C  
HETATM    2  C   UNL     1      -8.577  11.606  67.953  1.00  0.00    -0.150 C  
HETATM    3  C   UNL     1      -9.343  12.924  67.637  1.00  0.00    -0.195 C  
ENDROOT
BRANCH   2   4
HETATM    4  C   UNL     1      -9.343  10.840  69.070  1.00  0.00    -0.168 A  
HETATM    5  C   UNL     1      -8.716   9.883  69.894  1.00  0.00    -0.225 A  
HETATM    6  C   UNL     1      -9.413   9.238  70.924  1.00  0.00    -0.330 A  
HETATM    7  C   UNL     1     -10.706  11.094  69.311  1.00  0.00    -0.241 A  
HETATM    8  C   UNL     1     -11.391  10.472  70.362  1.00  0.00    -0.411 A  
HETATM    9  C   UNL     1     -10.756   9.528  71.161  1.00  0.00    -0.338 A  
BRANCH   9  10
HETATM   10  O   UNL     1     -11.339   8.830  72.183  1.00  0.00    -0.351 OA 
BRANCH  10  11
HETATM   11  C   UNL     1     -12.724   8.528  72.013  1.00  0.00    -0.376 C  
BRANCH  11  12
HETATM   12  C   UNL     1     -12.842   7.154  71.448  1.00  0.00    -0.384 C  
HETATM   13  O   UNL     1     -11.687   6.325  71.637  1.00  0.00    -0.305 OA 
HETATM   14  C   UNL     1     -11.997   6.708  70.287  1.00  0.00    -0.240 C  
ENDBRANCH  11  12
ENDBRANCH  10  11
ENDBRANCH   9  10
ENDBRANCH   2   4
BRANCH   2  15
HETATM   15  C   UNL     1      -8.336  10.761  66.676  1.00  0.00    -0.141 A  
HETATM   16  C   UNL     1      -9.212   9.529  64.748  1.00  0.00    -0.267 A  
HETATM   17  C   UNL     1      -7.947   9.033  64.448  1.00  0.00    -0.133 A  
HETATM   18  C   UNL     1      -9.400  10.388  65.837  1.00  0.00    -0.224 A  
HETATM   19  C   UNL     1      -7.068  10.226  66.370  1.00  0.00    -0.112 A  
HETATM   20  C   UNL     1      -6.879   9.375  65.272  1.00  0.00    -0.083 A  
BRANCH  17  21
HETATM   21  O   UNL     1      -7.642   8.214  63.395  1.00  0.00    -0.116 OA 
BRANCH  21  22
HETATM   22  C   UNL     1      -6.427   7.470  63.523  1.00  0.00    -0.054 C  
BRANCH  22  23
HETATM   23  C   UNL     1      -6.754   6.016  63.564  1.00  0.00    -0.037 C  
HETATM   24  C   UNL     1      -8.068   5.509  64.089  1.00  0.00    -0.124 C  
HETATM   25  O   UNL     1      -7.812   5.619  62.681  1.00  0.00    -0.070 OA 
ENDBRANCH  22  23
ENDBRANCH  21  22
ENDBRANCH  17  21
ENDBRANCH   2  15
TORSDOF 8
ENDMDL
MODEL      138
REMARK 921   NORMALIZED FREE ENERGY PREDICTED BY IDOCK:   -3.41 KCAL/MOL
REMARK 922        TOTAL FREE ENERGY PREDICTED BY IDOCK:   -6.18 KCAL/MOL
REMARK 923 INTER-LIGAND FREE ENERGY PREDICTED BY IDOCK:   -5.08 KCAL/MOL
REMARK 924 INTRA-LIGAND FREE ENERGY PREDICTED BY IDOCK:   -1.10 KCAL/MOL
REMARK 927      BINDING AFFINITY PREDICTED BY RF-SCORE:    0.00 PKD
ROOT
HETATM    1  C   UNL     1      -5.135  14.823  67.667  1.00  0.00     0.085 C  
HETATM    2  C   UNL     1      -6.424  14.225  68.292  1.00  0.00    -0.116 C  
HETATM    3  C   UNL     1      -6.106  14.039  69.804  1.00  0.00    -0.129 C  
ENDROOT
BRANCH   2   4
HETATM    4  C   UNL     1      -6.743  12.832  67.675  1.00  0.00    -0.147 A  
HETATM    5  C   UNL     1      -8.036  12.270  67.710  1.00  0.00    -0.155 A  
HETATM    6  C   UNL     1      -8.312  11.035  67.109  1.00  0.00    -0.132 A  
HETATM    7  C   UNL     1      -5.739  12.081  67.037  1.00  0.00    -0.123 A  
HETATM    8  C   UNL     1      -6.025  10.862  66.409  1.00  0.00    -0.131 A  
HETATM    9  C   UNL     1      -7.305  10.324  66.458  1.00  0.00    -0.113 A  
BRANCH   9  10
HETATM   10  O   UNL     1      -7.685   9.124  65.919  1.00  0.00    -0.093 OA 
BRANCH  10  11
HETATM   11  C   UNL     1      -7.857   8.056  66.851  1.00  0.00    -0.103 C  
BRANCH  11  12
HETATM   12  C   UNL     1      -9.188   7.429  66.609  1.00  0.00    -0.158 C  
HETATM   13  O   UNL     1     -10.272   8.357  66.462  1.00  0.00    -0.293 OA 
HETATM   14  C   UNL     1     -10.293   7.515  67.626  1.00  0.00    -0.229 C  
ENDBRANCH  11  12
ENDBRANCH  10  11
ENDBRANCH   9  10
ENDBRANCH   2   4
BRANCH   2  15
HETATM   15  C   UNL     1      -7.540  15.275  68.062  1.00  0.00    -0.133 A  
HETATM   16  C   UNL     1      -9.310  16.720  68.947  1.00  0.00    -0.233 A  
HETATM   17  C   UNL     1      -9.735  17.041  67.662  1.00  0.00    -0.257 A  
HETATM   18  C   UNL     1      -8.223  15.860  69.142  1.00  0.00    -0.240 A  
HETATM   19  C   UNL     1      -8.004  15.593  66.770  1.00  0.00    -0.246 A  
HETATM   20  C   UNL     1      -9.086  16.464  66.576  1.00  0.00    -0.308 A  
BRANCH  17  21
HETATM   21  O   UNL     1     -10.763  17.891  67.353  1.00  0.00    -0.370 OA 
BRANCH  21  22
HETATM   22  C   UNL     1     -10.694  18.498  66.060  1.00  0.00    -0.212 C  
BRANCH  22  23
HETATM   23  C   UNL     1     -10.304  19.929  66.220  1.00  0.00    -0.495 C  
HETATM   24  C   UNL     1      -9.701  20.452  67.494  1.00  0.00    -0.431 C  
HETATM   25  O   UNL     1      -8.893  20.150  66.346  1.00  0.00    -0.314 OA 
ENDBRANCH  22  23
ENDBRANCH  21  22
ENDBRANCH  17  21
ENDBRANCH   2  15
TORSDOF 8
ENDMDL
MODEL      139
REMARK 921   NORMALIZED FREE ENERGY PREDICTED BY IDOCK:   -3.37 KCAL/MOL
REMARK 922        TOTAL FREE ENERGY PREDICTED BY IDOCK:   -6.12 KCAL/MOL
REMARK 923 INTER-LIGAND FREE ENERGY PREDICTED BY IDOCK:   -6.31 KCAL/MOL
REMARK 924 INTRA-LIGAND FREE ENERGY PREDICTED BY IDOCK:    0.19 KCAL/MOL
REMARK 927      BINDING AFFINITY PREDICTED BY RF-SCORE:    0.00 PKD
ROOT
HETATM    1  C   UNL     1     -14.006  15.152  70.905  1.00  0.00    -0.256 C  
HETATM    2  C   UNL     1     -12.545  14.629  70.961  1.00  0.00    -0.400 C  
HETATM    3  C   UNL     1     -11.863  15.421  72.115  1.00  0.00    -0.536 C  
ENDROOT
BRANCH   2   4
HETATM    4  C   UNL     1     -11.795  14.940  69.633  1.00  0.00    -0.356 A  
HETATM    5  C   UNL     1     -11.565  16.257  69.187  1.00  0.00    -0.213 A  
HETATM    6  C   UNL     1     -10.847  16.515  68.012  1.00  0.00    -0.337 A  
HETATM    7  C   UNL     1     -11.297  13.898  68.829  1.00  0.00    -0.310 A  
HETATM    8  C   UNL     1     -10.553  14.160  67.672  1.00  0.00    -0.253 A  
HETATM    9  C   UNL     1     -10.340  15.466  67.247  1.00  0.00    -0.271 A  
BRANCH   9  10
HETATM   10  O   UNL     1      -9.668  15.834  66.113  1.00  0.00    -0.273 OA 
BRANCH  10  11
HETATM   11  C   UNL     1      -8.244  15.851  66.218  1.00  0.00    -0.112 C  
BRANCH  11  12
HETATM   12  C   UNL     1      -7.808  17.250  66.498  1.00  0.00    -0.287 C  
HETATM   13  O   UNL     1      -6.480  17.565  66.058  1.00  0.00    -0.231 OA 
HETATM   14  C   UNL     1      -6.707  17.548  67.477  1.00  0.00    -0.159 C  
ENDBRANCH  11  12
ENDBRANCH  10  11
ENDBRANCH   9  10
ENDBRANCH   2   4
BRANCH   2  15
HETATM   15  C   UNL     1     -12.642  13.116  71.279  1.00  0.00    -0.382 A  
HETATM   16  C   UNL     1     -12.009  10.799  70.793  1.00  0.00    -0.464 A  
HETATM   17  C   UNL     1     -12.954  10.318  71.694  1.00  0.00    -0.465 A  
HETATM   18  C   UNL     1     -11.849  12.176  70.598  1.00  0.00    -0.065 A  
HETATM   19  C   UNL     1     -13.609  12.605  72.167  1.00  0.00    -0.510 A  
HETATM   20  C   UNL     1     -13.761  11.226  72.370  1.00  0.00     0.384 A  
BRANCH  17  21
HETATM   21  O   UNL     1     -13.176   8.999  71.985  1.00  0.00    -0.365 OA 
BRANCH  21  22
HETATM   22  C   UNL     1     -13.814   8.238  70.955  1.00  0.00     0.109 C  
BRANCH  22  23
HETATM   23  C   UNL     1     -13.192   6.884  70.902  1.00  0.00     0.166 C  
HETATM   24  C   UNL     1     -11.726   6.690  70.635  1.00  0.00    -0.394 C  
HETATM   25  O   UNL     1     -12.267   6.611  71.962  1.00  0.00    -0.329 OA 
ENDBRANCH  22  23
ENDBRANCH  21  22
ENDBRANCH  17  21
ENDBRANCH   2  15
TORSDOF 8
ENDMDL
MODEL      140
REMARK 921   NORMALIZED FREE ENERGY PREDICTED BY IDOCK:   -3.33 KCAL/MOL
REMARK 922        TOTAL FREE ENERGY PREDICTED BY IDOCK:   -6.06 KCAL/MOL
REMARK 923 INTER-LIGAND FREE ENERGY PREDICTED BY IDOCK:   -4.80 KCAL/MOL
REMARK 924 INTRA-LIGAND FREE ENERGY PREDICTED BY IDOCK:   -1.26 KCAL/MOL
REMARK 927      BINDING AFFINITY PREDICTED BY RF-SCORE:    0.00 PKD
ROOT
HETATM    1  C   UNL     1      -9.131   9.600  64.602  1.00  0.00    -0.286 C  
HETATM    2  C   UNL     1      -8.552   9.649  66.041  1.00  0.00    -0.144 C  
HETATM    3  C   UNL     1      -7.100  10.190  65.888  1.00  0.00    -0.121 C  
ENDROOT
BRANCH   2   4
HETATM    4  C   UNL     1      -8.488   8.223  66.662  1.00  0.00    -0.124 A  
HETATM    5  C   UNL     1      -7.929   7.978  67.933  1.00  0.00    -0.128 A  
HETATM    6  C   UNL     1      -7.923   6.694  68.492  1.00  0.00    -0.118 A  
HETATM    7  C   UNL     1      -9.011   7.115  65.971  1.00  0.00    -0.141 A  
HETATM    8  C   UNL     1      -9.033   5.838  66.546  1.00  0.00    -0.128 A  
HETATM    9  C   UNL     1      -8.473   5.616  67.799  1.00  0.00    -0.102 A  
BRANCH   9  10
HETATM   10  O   UNL     1      -8.400   4.407  68.435  1.00  0.00    -0.088 OA 
BRANCH  10  11
HETATM   11  C   UNL     1      -9.527   3.548  68.258  1.00  0.00    -0.148 C  
BRANCH  11  12
HETATM   12  C   UNL     1      -9.041   2.228  67.763  1.00  0.00    -0.177 C  
HETATM   13  O   UNL     1      -7.747   2.257  67.145  1.00  0.00    -0.064 OA 
HETATM   14  C   UNL     1      -8.865   1.958  66.294  1.00  0.00    -0.116 C  
ENDBRANCH  11  12
ENDBRANCH  10  11
ENDBRANCH   9  10
ENDBRANCH   2   4
BRANCH   2  15
HETATM   15  C   UNL     1      -9.452  10.630  66.834  1.00  0.00    -0.189 A  
HETATM   16  C   UNL     1      -9.706  12.662  68.180  1.00  0.00    -0.219 A  
HETATM   17  C   UNL     1     -11.029  12.341  68.472  1.00  0.00    -0.240 A  
HETATM   18  C   UNL     1      -8.935  11.825  67.364  1.00  0.00    -0.173 A  
HETATM   19  C   UNL     1     -10.784  10.312  67.164  1.00  0.00    -0.303 A  
HETATM   20  C   UNL     1     -11.559  11.157  67.971  1.00  0.00    -0.337 A  
BRANCH  17  21
HETATM   21  O   UNL     1     -11.882  13.097  69.230  1.00  0.00    -0.302 OA 
BRANCH  21  22
HETATM   22  C   UNL     1     -11.300  14.244  69.856  1.00  0.00    -0.198 C  
BRANCH  22  23
HETATM   23  C   UNL     1     -11.840  15.473  69.206  1.00  0.00    -0.353 C  
HETATM   24  C   UNL     1     -10.969  16.395  68.398  1.00  0.00    -0.353 C  
HETATM   25  O   UNL     1     -11.837  15.437  67.772  1.00  0.00    -0.248 OA 
ENDBRANCH  22  23
ENDBRANCH  21  22
ENDBRANCH  17  21
ENDBRANCH   2  15
TORSDOF 8
ENDMDL
MODEL      141
REMARK 921   NORMALIZED FREE ENERGY PREDICTED BY IDOCK:   -3.30 KCAL/MOL
REMARK 922        TOTAL FREE ENERGY PREDICTED BY IDOCK:   -6.00 KCAL/MOL
REMARK 923 INTER-LIGAND FREE ENERGY PREDICTED BY IDOCK:   -4.81 KCAL/MOL
REMARK 924 INTRA-LIGAND FREE ENERGY PREDICTED BY IDOCK:   -1.20 KCAL/MOL
REMARK 927      BINDING AFFINITY PREDICTED BY RF-SCORE:    0.00 PKD
ROOT
HETATM    1  C   UNL     1     -12.508   6.936  70.849  1.00  0.00    -0.314 C  
HETATM    2  C   UNL     1     -11.548   8.095  71.227  1.00  0.00    -0.305 C  
HETATM    3  C   UNL     1     -12.356   9.005  72.198  1.00  0.00    -0.442 C  
ENDROOT
BRANCH   2   4
HETATM    4  C   UNL     1     -11.161   8.927  69.971  1.00  0.00    -0.180 A  
HETATM    5  C   UNL     1     -10.996  10.327  70.014  1.00  0.00    -0.371 A  
HETATM    6  C   UNL     1     -10.602  11.051  68.882  1.00  0.00    -0.239 A  
HETATM    7  C   UNL     1     -10.942   8.298  68.732  1.00  0.00     0.142 A  
HETATM    8  C   UNL     1     -10.517   9.020  67.610  1.00  0.00    -0.324 A  
HETATM    9  C   UNL     1     -10.364  10.400  67.672  1.00  0.00    -0.219 A  
BRANCH   9  10
HETATM   10  O   UNL     1      -9.998  11.209  66.630  1.00  0.00    -0.197 OA 
BRANCH  10  11
HETATM   11  C   UNL     1     -10.326  10.723  65.328  1.00  0.00    -0.258 C  
BRANCH  11  12
HETATM   12  C   UNL     1      -9.071  10.629  64.529  1.00  0.00    -0.217 C  
HETATM   13  O   UNL     1      -9.235  10.082  63.213  1.00  0.00    -0.262 OA 
HETATM   14  C   UNL     1      -8.479   9.299  64.151  1.00  0.00    -0.192 C  
ENDBRANCH  11  12
ENDBRANCH  10  11
ENDBRANCH   9  10
ENDBRANCH   2   4
BRANCH   2  15
HETATM   15  C   UNL     1     -10.336   7.435  71.932  1.00  0.00    -0.218 A  
HETATM   16  C   UNL     1      -8.924   5.474  72.336  1.00  0.00    -0.137 A  
HETATM   17  C   UNL     1      -8.250   6.129  73.362  1.00  0.00    -0.112 A  
HETATM   18  C   UNL     1      -9.942   6.121  71.626  1.00  0.00    -0.203 A  
HETATM   19  C   UNL     1      -9.658   8.071  72.992  1.00  0.00    -0.347 A  
HETATM   20  C   UNL     1      -8.631   7.425  73.695  1.00  0.00    -0.216 A  
BRANCH  17  21
HETATM   21  O   UNL     1      -7.223   5.607  74.101  1.00  0.00    -0.084 OA 
BRANCH  21  22
HETATM   22  C   UNL     1      -7.404   4.259  74.543  1.00  0.00    -0.072 C  
BRANCH  22  23
HETATM   23  C   UNL     1      -6.271   3.431  74.039  1.00  0.00    -0.020 C  
HETATM   24  C   UNL     1      -6.455   2.401  72.960  1.00  0.00    -0.014 C  
HETATM   25  O   UNL     1      -5.900   3.695  72.679  1.00  0.00    -0.007 OA 
ENDBRANCH  22  23
ENDBRANCH  21  22
ENDBRANCH  17  21
ENDBRANCH   2  15
TORSDOF 8
ENDMDL
MODEL      142
REMARK 921   NORMALIZED FREE ENERGY PREDICTED BY IDOCK:   -3.28 KCAL/MOL
REMARK 922        TOTAL FREE ENERGY PREDICTED BY IDOCK:   -5.99 KCAL/MOL
REMARK 923 INTER-LIGAND FREE ENERGY PREDICTED BY IDOCK:   -4.93 KCAL/MOL
REMARK 924 INTRA-LIGAND FREE ENERGY PREDICTED BY IDOCK:   -1.06 KCAL/MOL
REMARK 927      BINDING AFFINITY PREDICTED BY RF-SCORE:    0.00 PKD
ROOT
HETATM    1  C   UNL     1     -10.790   3.976  64.783  1.00  0.00    -0.093 C  
HETATM    2  C   UNL     1      -9.540   4.142  65.688  1.00  0.00    -0.188 C  
HETATM    3  C   UNL     1      -8.949   2.711  65.848  1.00  0.00    -0.131 C  
ENDROOT
BRANCH   2   4
HETATM    4  C   UNL     1      -9.941   4.675  67.094  1.00  0.00    -0.215 A  
HETATM    5  C   UNL     1      -9.474   4.084  68.286  1.00  0.00    -0.216 A  
HETATM    6  C   UNL     1      -9.811   4.608  69.541  1.00  0.00    -0.286 A  
HETATM    7  C   UNL     1     -10.785   5.793  67.225  1.00  0.00    -0.345 A  
HETATM    8  C   UNL     1     -11.093   6.333  68.480  1.00  0.00    -0.397 A  
HETATM    9  C   UNL     1     -10.625   5.734  69.643  1.00  0.00    -0.326 A  
BRANCH   9  10
HETATM   10  O   UNL     1     -10.900   6.150  70.918  1.00  0.00    -0.253 OA 
BRANCH  10  11
HETATM   11  C   UNL     1     -11.888   7.173  71.034  1.00  0.00    -0.333 C  
BRANCH  11  12
HETATM   12  C   UNL     1     -11.567   8.007  72.227  1.00  0.00    -0.366 C  
HETATM   13  O   UNL     1     -10.537   8.983  72.018  1.00  0.00    -0.345 OA 
HETATM   14  C   UNL     1     -10.236   7.906  72.920  1.00  0.00    -0.330 C  
ENDBRANCH  11  12
ENDBRANCH  10  11
ENDBRANCH   9  10
ENDBRANCH   2   4
BRANCH   2  15
HETATM   15  C   UNL     1      -8.575   5.081  64.921  1.00  0.00    -0.150 A  
HETATM   16  C   UNL     1      -7.555   5.819  62.820  1.00  0.00    -0.076 A  
HETATM   17  C   UNL     1      -6.662   6.640  63.503  1.00  0.00    -0.048 A  
HETATM   18  C   UNL     1      -8.503   5.062  63.518  1.00  0.00    -0.127 A  
HETATM   19  C   UNL     1      -7.645   5.898  65.594  1.00  0.00    -0.084 A  
HETATM   20  C   UNL     1      -6.704   6.665  64.893  1.00  0.00    -0.049 A  
BRANCH  17  21
HETATM   21  O   UNL     1      -5.717   7.443  62.925  1.00  0.00    -0.047 OA 
BRANCH  21  22
HETATM   22  C   UNL     1      -5.911   8.849  63.103  1.00  0.00    -0.085 C  
BRANCH  22  23
HETATM   23  C   UNL     1      -7.142   9.263  62.370  1.00  0.00    -0.099 C  
HETATM   24  C   UNL     1      -8.427   9.576  63.085  1.00  0.00    -0.199 C  
HETATM   25  O   UNL     1      -7.554  10.614  62.614  1.00  0.00    -0.138 OA 
ENDBRANCH  22  23
ENDBRANCH  21  22
ENDBRANCH  17  21
ENDBRANCH   2  15
TORSDOF 8
ENDMDL
MODEL      143
REMARK 921   NORMALIZED FREE ENERGY PREDICTED BY IDOCK:   -3.27 KCAL/MOL
REMARK 922        TOTAL FREE ENERGY PREDICTED BY IDOCK:   -5.97 KCAL/MOL
REMARK 923 INTER-LIGAND FREE ENERGY PREDICTED BY IDOCK:   -4.79 KCAL/MOL
REMARK 924 INTRA-LIGAND FREE ENERGY PREDICTED BY IDOCK:   -1.18 KCAL/MOL
REMARK 927      BINDING AFFINITY PREDICTED BY RF-SCORE:    0.00 PKD
ROOT
HETATM    1  C   UNL     1      -7.909   7.810  67.435  1.00  0.00    -0.118 C  
HETATM    2  C   UNL     1      -7.898   6.472  68.221  1.00  0.00    -0.106 C  
HETATM    3  C   UNL     1      -6.541   6.448  68.984  1.00  0.00    -0.048 C  
ENDROOT
BRANCH   2   4
HETATM    4  C   UNL     1      -7.943   5.258  67.248  1.00  0.00    -0.101 A  
HETATM    5  C   UNL     1      -8.539   4.029  67.602  1.00  0.00    -0.110 A  
HETATM    6  C   UNL     1      -8.609   2.964  66.695  1.00  0.00    -0.110 A  
HETATM    7  C   UNL     1      -7.397   5.352  65.955  1.00  0.00    -0.078 A  
HETATM    8  C   UNL     1      -7.498   4.297  65.040  1.00  0.00    -0.073 A  
HETATM    9  C   UNL     1      -8.086   3.093  65.409  1.00  0.00    -0.086 A  
BRANCH   9  10
HETATM   10  O   UNL     1      -8.198   1.985  64.614  1.00  0.00    -0.077 OA 
BRANCH  10  11
HETATM   11  C   UNL     1      -9.521   1.472  64.454  1.00  0.00    -0.128 C  
BRANCH  11  12
HETATM   12  C   UNL     1     -10.163   2.173  63.306  1.00  0.00    -0.133 C  
HETATM   13  O   UNL     1     -11.323   2.946  63.646  1.00  0.00    -0.230 OA 
HETATM   14  C   UNL     1     -11.533   1.790  62.819  1.00  0.00    -0.223 C  
ENDBRANCH  11  12
ENDBRANCH  10  11
ENDBRANCH   9  10
ENDBRANCH   2   4
BRANCH   2  15
HETATM   15  C   UNL     1      -9.103   6.533  69.192  1.00  0.00    -0.136 A  
HETATM   16  C   UNL     1     -10.017   6.337  71.457  1.00  0.00    -0.208 A  
HETATM   17  C   UNL     1     -11.319   6.427  70.975  1.00  0.00    -0.328 A  
HETATM   18  C   UNL     1      -8.928   6.400  70.580  1.00  0.00    -0.144 A  
HETATM   19  C   UNL     1     -10.430   6.597  68.723  1.00  0.00    -0.241 A  
HETATM   20  C   UNL     1     -11.521   6.545  69.604  1.00  0.00    -0.417 A  
BRANCH  17  21
HETATM   21  O   UNL     1     -12.454   6.407  71.740  1.00  0.00    -0.316 OA 
BRANCH  21  22
HETATM   22  C   UNL     1     -13.403   7.440  71.462  1.00  0.00    -0.372 C  
BRANCH  22  23
HETATM   23  C   UNL     1     -13.143   8.592  72.374  1.00  0.00    -0.297 C  
HETATM   24  C   UNL     1     -12.976   9.994  71.858  1.00  0.00    -0.447 C  
HETATM   25  O   UNL     1     -14.209   9.548  72.443  1.00  0.00    -0.265 OA 
ENDBRANCH  22  23
ENDBRANCH  21  22
ENDBRANCH  17  21
ENDBRANCH   2  15
TORSDOF 8
ENDMDL
MODEL      144
REMARK 921   NORMALIZED FREE ENERGY PREDICTED BY IDOCK:   -3.26 KCAL/MOL
REMARK 922        TOTAL FREE ENERGY PREDICTED BY IDOCK:   -5.96 KCAL/MOL
REMARK 923 INTER-LIGAND FREE ENERGY PREDICTED BY IDOCK:   -4.84 KCAL/MOL
REMARK 924 INTRA-LIGAND FREE ENERGY PREDICTED BY IDOCK:   -1.12 KCAL/MOL
REMARK 927      BINDING AFFINITY PREDICTED BY RF-SCORE:    0.00 PKD
ROOT
HETATM    1  C   UNL     1      -7.010  11.311  69.197  1.00  0.00    -0.114 C  
HETATM    2  C   UNL     1      -7.178  11.619  67.685  1.00  0.00    -0.107 C  
HETATM    3  C   UNL     1      -5.765  12.039  67.186  1.00  0.00    -0.142 C  
ENDROOT
BRANCH   2   4
HETATM    4  C   UNL     1      -8.157  12.809  67.467  1.00  0.00    -0.180 A  
HETATM    5  C   UNL     1      -9.218  12.752  66.540  1.00  0.00    -0.190 A  
HETATM    6  C   UNL     1     -10.116  13.817  66.392  1.00  0.00    -0.297 A  
HETATM    7  C   UNL     1      -8.024  13.995  68.211  1.00  0.00    -0.146 A  
HETATM    8  C   UNL     1      -8.942  15.045  68.084  1.00  0.00    -0.173 A  
HETATM    9  C   UNL     1      -9.979  14.971  67.162  1.00  0.00    -0.237 A  
BRANCH   9  10
HETATM   10  O   UNL     1     -10.903  15.952  66.924  1.00  0.00    -0.314 OA 
BRANCH  10  11
HETATM   11  C   UNL     1     -10.373  17.213  66.514  1.00  0.00    -0.306 C  
BRANCH  11  12
HETATM   12  C   UNL     1     -10.774  18.241  67.517  1.00  0.00    -0.355 C  
HETATM   13  O   UNL     1     -11.023  19.545  66.974  1.00  0.00    -0.477 OA 
HETATM   14  C   UNL     1      -9.886  19.411  67.840  1.00  0.00    -0.361 C  
ENDBRANCH  11  12
ENDBRANCH  10  11
ENDBRANCH   9  10
ENDBRANCH   2   4
BRANCH   2  15
HETATM   15  C   UNL     1      -7.652  10.298  67.028  1.00  0.00    -0.099 A  
HETATM   16  C   UNL     1      -8.844   8.162  67.174  1.00  0.00    -0.138 A  
HETATM   17  C   UNL     1      -8.361   7.770  65.929  1.00  0.00    -0.134 A  
HETATM   18  C   UNL     1      -8.503   9.410  67.708  1.00  0.00    -0.116 A  
HETATM   19  C   UNL     1      -7.153   9.870  65.781  1.00  0.00    -0.110 A  
HETATM   20  C   UNL     1      -7.505   8.624  65.242  1.00  0.00    -0.086 A  
BRANCH  17  21
HETATM   21  O   UNL     1      -8.651   6.591  65.298  1.00  0.00    -0.123 OA 
BRANCH  21  22
HETATM   22  C   UNL     1      -7.815   5.484  65.645  1.00  0.00    -0.101 C  
BRANCH  22  23
HETATM   23  C   UNL     1      -8.678   4.324  66.013  1.00  0.00    -0.114 C  
HETATM   24  C   UNL     1      -9.752   4.431  67.059  1.00  0.00    -0.205 C  
HETATM   25  O   UNL     1     -10.059   4.475  65.657  1.00  0.00    -0.213 OA 
ENDBRANCH  22  23
ENDBRANCH  21  22
ENDBRANCH  17  21
ENDBRANCH   2  15
TORSDOF 8
ENDMDL
MODEL      145
REMARK 921   NORMALIZED FREE ENERGY PREDICTED BY IDOCK:   -3.21 KCAL/MOL
REMARK 922        TOTAL FREE ENERGY PREDICTED BY IDOCK:   -5.88 KCAL/MOL
REMARK 923 INTER-LIGAND FREE ENERGY PREDICTED BY IDOCK:   -4.74 KCAL/MOL
REMARK 924 INTRA-LIGAND FREE ENERGY PREDICTED BY IDOCK:   -1.14 KCAL/MOL
REMARK 927      BINDING AFFINITY PREDICTED BY RF-SCORE:    0.00 PKD
ROOT
HETATM    1  C   UNL     1     -12.532   7.044  70.672  1.00  0.00    -0.173 C  
HETATM    2  C   UNL     1     -11.498   7.958  71.382  1.00  0.00    -0.293 C  
HETATM    3  C   UNL     1     -12.233   8.527  72.631  1.00  0.00    -0.297 C  
ENDROOT
BRANCH   2   4
HETATM    4  C   UNL     1     -11.085   9.146  70.464  1.00  0.00    -0.308 A  
HETATM    5  C   UNL     1      -9.825   9.210  69.836  1.00  0.00    -0.206 A  
HETATM    6  C   UNL     1      -9.491  10.265  68.977  1.00  0.00    -0.206 A  
HETATM    7  C   UNL     1     -11.978  10.203  70.213  1.00  0.00    -0.315 A  
HETATM    8  C   UNL     1     -11.653  11.240  69.329  1.00  0.00    -0.390 A  
HETATM    9  C   UNL     1     -10.403  11.288  68.722  1.00  0.00    -0.205 A  
BRANCH   9  10
HETATM   10  O   UNL     1      -9.965  12.273  67.879  1.00  0.00    -0.191 OA 
BRANCH  10  11
HETATM   11  C   UNL     1     -10.902  13.317  67.612  1.00  0.00    -0.258 C  
BRANCH  11  12
HETATM   12  C   UNL     1     -10.376  14.584  68.198  1.00  0.00    -0.232 C  
HETATM   13  O   UNL     1     -10.255  15.671  67.270  1.00  0.00    -0.256 OA 
HETATM   14  C   UNL     1      -9.034  15.134  67.802  1.00  0.00    -0.178 C  
ENDBRANCH  11  12
ENDBRANCH  10  11
ENDBRANCH   9  10
ENDBRANCH   2   4
BRANCH   2  15
HETATM   15  C   UNL     1     -10.314   7.041  71.778  1.00  0.00    -0.216 A  
HETATM   16  C   UNL     1      -9.044   4.966  71.483  1.00  0.00    -0.172 A  
HETATM   17  C   UNL     1      -8.282   5.233  72.617  1.00  0.00    -0.113 A  
HETATM   18  C   UNL     1     -10.035   5.862  71.066  1.00  0.00    -0.239 A  
HETATM   19  C   UNL     1      -9.549   7.278  72.938  1.00  0.00    -0.206 A  
HETATM   20  C   UNL     1      -8.548   6.386  73.349  1.00  0.00    -0.128 A  
BRANCH  17  21
HETATM   21  O   UNL     1      -7.271   4.447  73.099  1.00  0.00    -0.070 OA 
BRANCH  21  22
HETATM   22  C   UNL     1      -7.557   3.048  73.171  1.00  0.00    -0.055 C  
BRANCH  22  23
HETATM   23  C   UNL     1      -6.500   2.301  72.431  1.00  0.00    -0.014 C  
HETATM   24  C   UNL     1      -6.091   2.674  71.033  1.00  0.00    -0.018 C  
HETATM   25  O   UNL     1      -5.308   3.055  72.175  1.00  0.00     0.000 OA 
ENDBRANCH  22  23
ENDBRANCH  21  22
ENDBRANCH  17  21
ENDBRANCH   2  15
TORSDOF 8
ENDMDL
MODEL      146
REMARK 921   NORMALIZED FREE ENERGY PREDICTED BY IDOCK:   -3.19 KCAL/MOL
REMARK 922        TOTAL FREE ENERGY PREDICTED BY IDOCK:   -5.85 KCAL/MOL
REMARK 923 INTER-LIGAND FREE ENERGY PREDICTED BY IDOCK:   -4.66 KCAL/MOL
REMARK 924 INTRA-LIGAND FREE ENERGY PREDICTED BY IDOCK:   -1.19 KCAL/MOL
REMARK 927      BINDING AFFINITY PREDICTED BY RF-SCORE:    0.00 PKD
ROOT
HETATM    1  C   UNL     1     -11.623  10.976  67.710  1.00  0.00    -0.277 C  
HETATM    2  C   UNL     1     -10.167  10.941  68.245  1.00  0.00    -0.191 C  
HETATM    3  C   UNL     1     -10.290  10.663  69.772  1.00  0.00    -0.146 C  
ENDROOT
BRANCH   2   4
HETATM    4  C   UNL     1      -9.469  12.317  68.045  1.00  0.00    -0.206 A  
HETATM    5  C   UNL     1      -8.079  12.435  67.839  1.00  0.00    -0.161 A  
HETATM    6  C   UNL     1      -7.477  13.680  67.615  1.00  0.00    -0.191 A  
HETATM    7  C   UNL     1     -10.216  13.509  68.045  1.00  0.00    -0.243 A  
HETATM    8  C   UNL     1      -9.616  14.748  67.789  1.00  0.00    -0.209 A  
HETATM    9  C   UNL     1      -8.244  14.844  67.592  1.00  0.00    -0.172 A  
BRANCH   9  10
HETATM   10  O   UNL     1      -7.549  16.004  67.379  1.00  0.00    -0.140 OA 
BRANCH  10  11
HETATM   11  C   UNL     1      -8.124  16.900  66.427  1.00  0.00    -0.315 C  
BRANCH  11  12
HETATM   12  C   UNL     1      -8.440  18.183  67.119  1.00  0.00    -0.243 C  
HETATM   13  O   UNL     1      -8.535  18.088  68.547  1.00  0.00    -0.304 OA 
HETATM   14  C   UNL     1      -9.746  18.388  67.834  1.00  0.00    -0.308 C  
ENDBRANCH  11  12
ENDBRANCH  10  11
ENDBRANCH   9  10
ENDBRANCH   2   4
BRANCH   2  15
HETATM   15  C   UNL     1      -9.465   9.776  67.503  1.00  0.00    -0.170 A  
HETATM   16  C   UNL     1      -9.025   8.531  65.439  1.00  0.00    -0.150 A  
HETATM   17  C   UNL     1      -8.366   7.530  66.144  1.00  0.00    -0.138 A  
HETATM   18  C   UNL     1      -9.556   9.641  66.107  1.00  0.00    -0.295 A  
HETATM   19  C   UNL     1      -8.815   8.737  68.200  1.00  0.00    -0.141 A  
HETATM   20  C   UNL     1      -8.275   7.632  67.528  1.00  0.00    -0.121 A  
BRANCH  17  21
HETATM   21  O   UNL     1      -7.784   6.419  65.594  1.00  0.00    -0.085 OA 
BRANCH  21  22
HETATM   22  C   UNL     1      -8.636   5.278  65.463  1.00  0.00    -0.146 C  
BRANCH  22  23
HETATM   23  C   UNL     1      -7.956   4.097  66.070  1.00  0.00    -0.094 C  
HETATM   24  C   UNL     1      -7.974   3.843  67.551  1.00  0.00    -0.090 C  
HETATM   25  O   UNL     1      -8.844   3.135  66.655  1.00  0.00    -0.127 OA 
ENDBRANCH  22  23
ENDBRANCH  21  22
ENDBRANCH  17  21
ENDBRANCH   2  15
TORSDOF 8
ENDMDL
MODEL      147
REMARK 921   NORMALIZED FREE ENERGY PREDICTED BY IDOCK:   -3.18 KCAL/MOL
REMARK 922        TOTAL FREE ENERGY PREDICTED BY IDOCK:   -5.84 KCAL/MOL
REMARK 923 INTER-LIGAND FREE ENERGY PREDICTED BY IDOCK:   -4.70 KCAL/MOL
REMARK 924 INTRA-LIGAND FREE ENERGY PREDICTED BY IDOCK:   -1.14 KCAL/MOL
REMARK 927      BINDING AFFINITY PREDICTED BY RF-SCORE:    0.00 PKD
ROOT
HETATM    1  C   UNL     1      -9.932  10.314  65.041  1.00  0.00    -0.393 C  
HETATM    2  C   UNL     1      -9.030  10.025  66.271  1.00  0.00    -0.170 C  
HETATM    3  C   UNL     1      -7.983  11.177  66.299  1.00  0.00    -0.125 C  
ENDROOT
BRANCH   2   4
HETATM    4  C   UNL     1      -8.278   8.673  66.101  1.00  0.00    -0.121 A  
HETATM    5  C   UNL     1      -6.891   8.548  66.325  1.00  0.00    -0.073 A  
HETATM    6  C   UNL     1      -6.242   7.312  66.210  1.00  0.00    -0.040 A  
HETATM    7  C   UNL     1      -8.971   7.508  65.727  1.00  0.00    -0.077 A  
HETATM    8  C   UNL     1      -8.325   6.268  65.646  1.00  0.00    -0.147 A  
HETATM    9  C   UNL     1      -6.957   6.166  65.867  1.00  0.00    -0.061 A  
BRANCH   9  10
HETATM   10  O   UNL     1      -6.218   5.017  65.771  1.00  0.00    -0.032 OA 
BRANCH  10  11
HETATM   11  C   UNL     1      -6.849   3.836  66.266  1.00  0.00    -0.057 C  
BRANCH  11  12
HETATM   12  C   UNL     1      -6.890   3.911  67.754  1.00  0.00    -0.047 C  
HETATM   13  O   UNL     1      -6.042   2.970  68.427  1.00  0.00    -0.024 OA 
HETATM   14  C   UNL     1      -7.459   2.792  68.581  1.00  0.00    -0.048 C  
ENDBRANCH  11  12
ENDBRANCH  10  11
ENDBRANCH   9  10
ENDBRANCH   2   4
BRANCH   2  15
HETATM   15  C   UNL     1      -9.963  10.064  67.507  1.00  0.00    -0.232 A  
HETATM   16  C   UNL     1     -11.820  11.089  68.735  1.00  0.00    -0.352 A  
HETATM   17  C   UNL     1     -11.557  10.304  69.853  1.00  0.00    -0.256 A  
HETATM   18  C   UNL     1     -11.042  10.962  67.578  1.00  0.00    -0.375 A  
HETATM   19  C   UNL     1      -9.698   9.298  68.660  1.00  0.00    -0.158 A  
HETATM   20  C   UNL     1     -10.485   9.418  69.814  1.00  0.00    -0.243 A  
BRANCH  17  21
HETATM   21  O   UNL     1     -12.267  10.321  71.023  1.00  0.00    -0.320 OA 
BRANCH  21  22
HETATM   22  C   UNL     1     -11.914   9.313  71.974  1.00  0.00    -0.321 C  
BRANCH  22  23
HETATM   23  C   UNL     1     -13.150   8.588  72.388  1.00  0.00    -0.297 C  
HETATM   24  C   UNL     1     -14.395   8.590  71.545  1.00  0.00    -0.364 C  
HETATM   25  O   UNL     1     -13.493   7.473  71.553  1.00  0.00    -0.366 OA 
ENDBRANCH  22  23
ENDBRANCH  21  22
ENDBRANCH  17  21
ENDBRANCH   2  15
TORSDOF 8
ENDMDL
MODEL      148
REMARK 921   NORMALIZED FREE ENERGY PREDICTED BY IDOCK:   -3.15 KCAL/MOL
REMARK 922        TOTAL FREE ENERGY PREDICTED BY IDOCK:   -5.79 KCAL/MOL
REMARK 923 INTER-LIGAND FREE ENERGY PREDICTED BY IDOCK:   -4.62 KCAL/MOL
REMARK 924 INTRA-LIGAND FREE ENERGY PREDICTED BY IDOCK:   -1.17 KCAL/MOL
REMARK 927      BINDING AFFINITY PREDICTED BY RF-SCORE:    0.00 PKD
ROOT
HETATM    1  C   UNL     1      -5.935   8.984  67.951  1.00  0.00    -0.050 C  
HETATM    2  C   UNL     1      -7.304   9.276  67.281  1.00  0.00    -0.091 C  
HETATM    3  C   UNL     1      -7.120  10.626  66.527  1.00  0.00    -0.133 C  
ENDROOT
BRANCH   2   4
HETATM    4  C   UNL     1      -8.419   9.452  68.352  1.00  0.00    -0.120 A  
HETATM    5  C   UNL     1      -8.295   8.942  69.661  1.00  0.00    -0.123 A  
HETATM    6  C   UNL     1      -9.291   9.151  70.623  1.00  0.00    -0.312 A  
HETATM    7  C   UNL     1      -9.601  10.152  68.050  1.00  0.00    -0.160 A  
HETATM    8  C   UNL     1     -10.581  10.387  69.023  1.00  0.00    -0.247 A  
HETATM    9  C   UNL     1     -10.441   9.872  70.307  1.00  0.00    -0.291 A  
BRANCH   9  10
HETATM   10  O   UNL     1     -11.353  10.003  71.320  1.00  0.00    -0.357 OA 
BRANCH  10  11
HETATM   11  C   UNL     1     -12.665  10.401  70.921  1.00  0.00    -0.385 C  
BRANCH  11  12
HETATM   12  C   UNL     1     -13.630   9.355  71.367  1.00  0.00    -0.294 C  
HETATM   13  O   UNL     1     -13.529   8.994  72.751  1.00  0.00    -0.428 OA 
HETATM   14  C   UNL     1     -13.168   7.989  71.791  1.00  0.00    -0.341 C  
ENDBRANCH  11  12
ENDBRANCH  10  11
ENDBRANCH   9  10
ENDBRANCH   2   4
BRANCH   2  15
HETATM   15  C   UNL     1      -7.563   8.102  66.303  1.00  0.00    -0.090 A  
HETATM   16  C   UNL     1      -7.592   7.205  64.023  1.00  0.00    -0.113 A  
HETATM   17  C   UNL     1      -8.227   6.044  64.453  1.00  0.00    -0.082 A  
HETATM   18  C   UNL     1      -7.256   8.211  64.936  1.00  0.00    -0.081 A  
HETATM   19  C   UNL     1      -8.230   6.930  66.712  1.00  0.00    -0.114 A  
HETATM   20  C   UNL     1      -8.556   5.917  65.798  1.00  0.00    -0.154 A  
BRANCH  17  21
HETATM   21  O   UNL     1      -8.575   4.985  63.658  1.00  0.00    -0.131 OA 
BRANCH  21  22
HETATM   22  C   UNL     1      -8.290   3.691  64.194  1.00  0.00    -0.090 C  
BRANCH  22  23
HETATM   23  C   UNL     1      -9.306   2.724  63.686  1.00  0.00    -0.101 C  
HETATM   24  C   UNL     1     -10.737   3.122  63.454  1.00  0.00    -0.244 C  
HETATM   25  O   UNL     1      -9.800   3.016  62.372  1.00  0.00    -0.092 OA 
ENDBRANCH  22  23
ENDBRANCH  21  22
ENDBRANCH  17  21
ENDBRANCH   2  15
TORSDOF 8
ENDMDL
MODEL      149
REMARK 921   NORMALIZED FREE ENERGY PREDICTED BY IDOCK:   -3.14 KCAL/MOL
REMARK 922        TOTAL FREE ENERGY PREDICTED BY IDOCK:   -5.77 KCAL/MOL
REMARK 923 INTER-LIGAND FREE ENERGY PREDICTED BY IDOCK:   -5.11 KCAL/MOL
REMARK 924 INTRA-LIGAND FREE ENERGY PREDICTED BY IDOCK:   -0.66 KCAL/MOL
REMARK 927      BINDING AFFINITY PREDICTED BY RF-SCORE:    0.00 PKD
ROOT
HETATM    1  C   UNL     1     -10.298  13.288  64.025  1.00  0.00    -0.051 C  
HETATM    2  C   UNL     1     -10.818  13.358  65.486  1.00  0.00    -0.299 C  
HETATM    3  C   UNL     1     -12.356  13.569  65.372  1.00  0.00    -0.517 C  
ENDROOT
BRANCH   2   4
HETATM    4  C   UNL     1     -10.202  14.575  66.235  1.00  0.00    -0.306 A  
HETATM    5  C   UNL     1     -10.929  15.759  66.475  1.00  0.00    -0.165 A  
HETATM    6  C   UNL     1     -10.371  16.826  67.192  1.00  0.00    -0.297 A  
HETATM    7  C   UNL     1      -8.883  14.528  66.722  1.00  0.00    -0.248 A  
HETATM    8  C   UNL     1      -8.340  15.583  67.465  1.00  0.00    -0.190 A  
HETATM    9  C   UNL     1      -9.071  16.743  67.688  1.00  0.00    -0.218 A  
BRANCH   9  10
HETATM   10  O   UNL     1      -8.625  17.849  68.360  1.00  0.00    -0.280 OA 
BRANCH  10  11
HETATM   11  C   UNL     1      -7.254  17.817  68.758  1.00  0.00    -0.271 C  
BRANCH  11  12
HETATM   12  C   UNL     1      -6.855  19.189  69.182  1.00  0.00    -0.326 C  
HETATM   13  O   UNL     1      -7.841  20.204  68.944  1.00  0.00    -0.059 OA 
HETATM   14  C   UNL     1      -6.627  20.286  68.179  1.00  0.00    -0.301 C  
ENDBRANCH  11  12
ENDBRANCH  10  11
ENDBRANCH   9  10
ENDBRANCH   2   4
BRANCH   2  15
HETATM   15  C   UNL     1     -10.471  11.993  66.131  1.00  0.00    -0.271 A  
HETATM   16  C   UNL     1     -11.144  10.023  67.424  1.00  0.00    -0.157 A  
HETATM   17  C   UNL     1      -9.825   9.588  67.510  1.00  0.00    -0.167 A  
HETATM   18  C   UNL     1     -11.461  11.200  66.736  1.00  0.00     0.002 A  
HETATM   19  C   UNL     1      -9.139  11.547  66.253  1.00  0.00    -0.215 A  
HETATM   20  C   UNL     1      -8.824  10.361  66.932  1.00  0.00    -0.141 A  
BRANCH  17  21
HETATM   21  O   UNL     1      -9.403   8.442  68.128  1.00  0.00    -0.134 OA 
BRANCH  21  22
HETATM   22  C   UNL     1     -10.128   7.256  67.791  1.00  0.00    -0.180 C  
BRANCH  22  23
HETATM   23  C   UNL     1      -9.159   6.203  67.370  1.00  0.00    -0.110 C  
HETATM   24  C   UNL     1      -7.688   6.481  67.238  1.00  0.00    -0.101 C  
HETATM   25  O   UNL     1      -8.228   5.811  68.387  1.00  0.00    -0.106 OA 
ENDBRANCH  22  23
ENDBRANCH  21  22
ENDBRANCH  17  21
ENDBRANCH   2  15
TORSDOF 8
ENDMDL
MODEL      150
REMARK 921   NORMALIZED FREE ENERGY PREDICTED BY IDOCK:   -3.10 KCAL/MOL
REMARK 922        TOTAL FREE ENERGY PREDICTED BY IDOCK:   -5.72 KCAL/MOL
REMARK 923 INTER-LIGAND FREE ENERGY PREDICTED BY IDOCK:   -4.62 KCAL/MOL
REMARK 924 INTRA-LIGAND FREE ENERGY PREDICTED BY IDOCK:   -1.10 KCAL/MOL
REMARK 927      BINDING AFFINITY PREDICTED BY RF-SCORE:    0.00 PKD
ROOT
HETATM    1  C   UNL     1     -10.195   5.056  71.345  1.00  0.00    -0.270 C  
HETATM    2  C   UNL     1      -9.200   5.950  70.558  1.00  0.00    -0.167 C  
HETATM    3  C   UNL     1      -7.970   6.130  71.495  1.00  0.00    -0.110 C  
ENDROOT
BRANCH   2   4
HETATM    4  C   UNL     1      -9.817   7.349  70.272  1.00  0.00    -0.187 A  
HETATM    5  C   UNL     1     -10.373   8.151  71.291  1.00  0.00    -0.243 A  
HETATM    6  C   UNL     1     -10.882   9.427  71.019  1.00  0.00    -0.406 A  
HETATM    7  C   UNL     1      -9.828   7.877  68.968  1.00  0.00    -0.171 A  
HETATM    8  C   UNL     1     -10.308   9.167  68.706  1.00  0.00    -0.235 A  
HETATM    9  C   UNL     1     -10.855   9.940  69.723  1.00  0.00    -0.269 A  
BRANCH   9  10
HETATM   10  O   UNL     1     -11.392  11.189  69.572  1.00  0.00    -0.244 OA 
BRANCH  10  11
HETATM   11  C   UNL     1     -11.657  11.588  68.227  1.00  0.00    -0.308 C  
BRANCH  11  12
HETATM   12  C   UNL     1     -11.730  13.077  68.182  1.00  0.00    -0.351 C  
HETATM   13  O   UNL     1     -10.682  13.752  68.892  1.00  0.00    -0.248 OA 
HETATM   14  C   UNL     1     -12.013  13.886  69.417  1.00  0.00    -0.354 C  
ENDBRANCH  11  12
ENDBRANCH  10  11
ENDBRANCH   9  10
ENDBRANCH   2   4
BRANCH   2  15
HETATM   15  C   UNL     1      -8.835   5.160  69.275  1.00  0.00    -0.115 A  
HETATM   16  C   UNL     1      -9.333   3.384  67.662  1.00  0.00    -0.246 A  
HETATM   17  C   UNL     1      -8.095   3.548  67.050  1.00  0.00    -0.087 A  
HETATM   18  C   UNL     1      -9.701   4.185  68.749  1.00  0.00    -0.166 A  
HETATM   19  C   UNL     1      -7.576   5.290  68.657  1.00  0.00    -0.082 A  
HETATM   20  C   UNL     1      -7.213   4.495  67.560  1.00  0.00    -0.069 A  
BRANCH  17  21
HETATM   21  O   UNL     1      -7.643   2.844  65.966  1.00  0.00    -0.075 OA 
BRANCH  21  22
HETATM   22  C   UNL     1      -6.534   3.423  65.273  1.00  0.00    -0.035 C  
BRANCH  22  23
HETATM   23  C   UNL     1      -6.883   3.555  63.829  1.00  0.00    -0.044 C  
HETATM   24  C   UNL     1      -8.240   4.018  63.378  1.00  0.00    -0.091 C  
HETATM   25  O   UNL     1      -7.109   4.902  63.393  1.00  0.00    -0.045 OA 
ENDBRANCH  22  23
ENDBRANCH  21  22
ENDBRANCH  17  21
ENDBRANCH   2  15
TORSDOF 8
ENDMDL
MODEL      151
REMARK 921   NORMALIZED FREE ENERGY PREDICTED BY IDOCK:   -3.08 KCAL/MOL
REMARK 922        TOTAL FREE ENERGY PREDICTED BY IDOCK:   -5.69 KCAL/MOL
REMARK 923 INTER-LIGAND FREE ENERGY PREDICTED BY IDOCK:   -4.68 KCAL/MOL
REMARK 924 INTRA-LIGAND FREE ENERGY PREDICTED BY IDOCK:   -1.00 KCAL/MOL
REMARK 927      BINDING AFFINITY PREDICTED BY RF-SCORE:    0.00 PKD
ROOT
HETATM    1  C   UNL     1     -10.928   7.028  67.059  1.00  0.00    -0.357 C  
HETATM    2  C   UNL     1      -9.513   7.612  67.312  1.00  0.00    -0.185 C  
HETATM    3  C   UNL     1      -8.679   7.247  66.050  1.00  0.00    -0.168 C  
ENDROOT
BRANCH   2   4
HETATM    4  C   UNL     1      -8.853   6.947  68.555  1.00  0.00    -0.124 A  
HETATM    5  C   UNL     1      -9.598   6.214  69.502  1.00  0.00    -0.165 A  
HETATM    6  C   UNL     1      -8.977   5.585  70.589  1.00  0.00    -0.160 A  
HETATM    7  C   UNL     1      -7.466   7.041  68.769  1.00  0.00    -0.099 A  
HETATM    8  C   UNL     1      -6.845   6.384  69.838  1.00  0.00    -0.058 A  
HETATM    9  C   UNL     1      -7.597   5.670  70.764  1.00  0.00    -0.091 A  
BRANCH   9  10
HETATM   10  O   UNL     1      -7.101   5.028  71.866  1.00  0.00    -0.062 OA 
BRANCH  10  11
HETATM   11  C   UNL     1      -7.061   3.603  71.785  1.00  0.00    -0.038 C  
BRANCH  11  12
HETATM   12  C   UNL     1      -7.850   3.043  72.919  1.00  0.00    -0.056 C  
HETATM   13  O   UNL     1      -8.945   2.200  72.533  1.00  0.00    -0.066 OA 
HETATM   14  C   UNL     1      -9.278   3.450  73.158  1.00  0.00    -0.097 C  
ENDBRANCH  11  12
ENDBRANCH  10  11
ENDBRANCH   9  10
ENDBRANCH   2   4
BRANCH   2  15
HETATM   15  C   UNL     1      -9.700   9.144  67.455  1.00  0.00    -0.204 A  
HETATM   16  C   UNL     1     -10.208  11.101  68.840  1.00  0.00    -0.209 A  
HETATM   17  C   UNL     1     -10.258  11.922  67.718  1.00  0.00    -0.200 A  
HETATM   18  C   UNL     1      -9.922   9.736  68.710  1.00  0.00    -0.179 A  
HETATM   19  C   UNL     1      -9.781   9.989  66.331  1.00  0.00    -0.266 A  
HETATM   20  C   UNL     1     -10.056  11.358  66.463  1.00  0.00    -0.250 A  
BRANCH  17  21
HETATM   21  O   UNL     1     -10.498  13.270  67.728  1.00  0.00    -0.232 OA 
BRANCH  21  22
HETATM   22  C   UNL     1     -10.155  13.967  66.527  1.00  0.00    -0.286 C  
BRANCH  22  23
HETATM   23  C   UNL     1     -11.293  14.850  66.141  1.00  0.00    -0.307 C  
HETATM   24  C   UNL     1     -11.732  15.005  64.712  1.00  0.00    -0.370 C  
HETATM   25  O   UNL     1     -12.438  14.155  65.629  1.00  0.00    -0.457 OA 
ENDBRANCH  22  23
ENDBRANCH  21  22
ENDBRANCH  17  21
ENDBRANCH   2  15
TORSDOF 8
ENDMDL
MODEL      152
REMARK 921   NORMALIZED FREE ENERGY PREDICTED BY IDOCK:   -3.05 KCAL/MOL
REMARK 922        TOTAL FREE ENERGY PREDICTED BY IDOCK:   -5.65 KCAL/MOL
REMARK 923 INTER-LIGAND FREE ENERGY PREDICTED BY IDOCK:   -4.66 KCAL/MOL
REMARK 924 INTRA-LIGAND FREE ENERGY PREDICTED BY IDOCK:   -0.99 KCAL/MOL
REMARK 927      BINDING AFFINITY PREDICTED BY RF-SCORE:    0.00 PKD
ROOT
HETATM    1  C   UNL     1      -7.266   9.242  69.025  1.00  0.00    -0.071 C  
HETATM    2  C   UNL     1      -7.708  10.393  68.082  1.00  0.00    -0.092 C  
HETATM    3  C   UNL     1      -6.583  11.465  68.177  1.00  0.00    -0.057 C  
ENDROOT
BRANCH   2   4
HETATM    4  C   UNL     1      -9.043  11.027  68.570  1.00  0.00    -0.173 A  
HETATM    5  C   UNL     1      -9.993  10.302  69.319  1.00  0.00    -0.244 A  
HETATM    6  C   UNL     1     -11.167  10.905  69.787  1.00  0.00    -0.351 A  
HETATM    7  C   UNL     1      -9.344  12.372  68.290  1.00  0.00    -0.199 A  
HETATM    8  C   UNL     1     -10.503  12.981  68.787  1.00  0.00    -0.186 A  
HETATM    9  C   UNL     1     -11.429  12.248  69.520  1.00  0.00    -0.249 A  
BRANCH   9  10
HETATM   10  O   UNL     1     -12.612  12.728  70.015  1.00  0.00    -0.045 OA 
BRANCH  10  11
HETATM   11  C   UNL     1     -12.824  12.523  71.412  1.00  0.00    -0.260 C  
BRANCH  11  12
HETATM   12  C   UNL     1     -13.051  13.850  72.053  1.00  0.00    -0.393 C  
HETATM   13  O   UNL     1     -14.323  13.995  72.700  1.00  0.00    -0.596 OA 
HETATM   14  C   UNL     1     -14.091  14.805  71.536  1.00  0.00    -0.482 C  
ENDBRANCH  11  12
ENDBRANCH  10  11
ENDBRANCH   9  10
ENDBRANCH   2   4
BRANCH   2  15
HETATM   15  C   UNL     1      -7.797   9.776  66.663  1.00  0.00    -0.109 A  
HETATM   16  C   UNL     1      -6.736   8.626  64.778  1.00  0.00    -0.069 A  
HETATM   17  C   UNL     1      -7.860   8.823  63.982  1.00  0.00    -0.140 A  
HETATM   18  C   UNL     1      -6.710   9.085  66.100  1.00  0.00    -0.070 A  
HETATM   19  C   UNL     1      -8.914   9.988  65.831  1.00  0.00    -0.182 A  
HETATM   20  C   UNL     1      -8.943   9.518  64.511  1.00  0.00    -0.256 A  
BRANCH  17  21
HETATM   21  O   UNL     1      -8.007   8.393  62.691  1.00  0.00    -0.139 OA 
BRANCH  21  22
HETATM   22  C   UNL     1      -7.445   7.111  62.400  1.00  0.00    -0.095 C  
BRANCH  22  23
HETATM   23  C   UNL     1      -8.280   6.060  63.052  1.00  0.00    -0.053 C  
HETATM   24  C   UNL     1      -8.288   4.636  62.570  1.00  0.00    -0.090 C  
HETATM   25  O   UNL     1      -7.532   5.038  63.723  1.00  0.00    -0.056 OA 
ENDBRANCH  22  23
ENDBRANCH  21  22
ENDBRANCH  17  21
ENDBRANCH   2  15
TORSDOF 8
ENDMDL
MODEL      153
REMARK 921   NORMALIZED FREE ENERGY PREDICTED BY IDOCK:   -3.03 KCAL/MOL
REMARK 922        TOTAL FREE ENERGY PREDICTED BY IDOCK:   -5.62 KCAL/MOL
REMARK 923 INTER-LIGAND FREE ENERGY PREDICTED BY IDOCK:   -5.25 KCAL/MOL
REMARK 924 INTRA-LIGAND FREE ENERGY PREDICTED BY IDOCK:   -0.37 KCAL/MOL
REMARK 927      BINDING AFFINITY PREDICTED BY RF-SCORE:    0.00 PKD
ROOT
HETATM    1  C   UNL     1     -10.332  10.662  64.735  1.00  0.00    -0.353 C  
HETATM    2  C   UNL     1      -9.356  10.949  65.908  1.00  0.00    -0.226 C  
HETATM    3  C   UNL     1      -7.928  10.823  65.301  1.00  0.00     0.009 C  
ENDROOT
BRANCH   2   4
HETATM    4  C   UNL     1      -9.515   9.885  67.033  1.00  0.00    -0.196 A  
HETATM    5  C   UNL     1     -10.640   9.848  67.882  1.00  0.00    -0.303 A  
HETATM    6  C   UNL     1     -10.784   8.854  68.858  1.00  0.00    -0.132 A  
HETATM    7  C   UNL     1      -8.532   8.899  67.233  1.00  0.00    -0.114 A  
HETATM    8  C   UNL     1      -8.695   7.888  68.188  1.00  0.00    -0.126 A  
HETATM    9  C   UNL     1      -9.809   7.870  69.018  1.00  0.00    -0.171 A  
BRANCH   9  10
HETATM   10  O   UNL     1     -10.048   6.959  70.011  1.00  0.00    -0.179 OA 
BRANCH  10  11
HETATM   11  C   UNL     1     -10.428   5.655  69.573  1.00  0.00    -0.302 C  
BRANCH  11  12
HETATM   12  C   UNL     1      -9.249   4.751  69.705  1.00  0.00    -0.122 C  
HETATM   13  O   UNL     1      -9.569   3.356  69.806  1.00  0.00    -0.175 OA 
HETATM   14  C   UNL     1      -8.992   3.975  70.967  1.00  0.00    -0.107 C  
ENDBRANCH  11  12
ENDBRANCH  10  11
ENDBRANCH   9  10
ENDBRANCH   2   4
BRANCH   2  15
HETATM   15  C   UNL     1      -9.658  12.395  66.375  1.00  0.00    -0.249 A  
HETATM   16  C   UNL     1      -9.196  14.285  67.863  1.00  0.00    -0.194 A  
HETATM   17  C   UNL     1     -10.319  14.965  67.402  1.00  0.00    -0.243 A  
HETATM   18  C   UNL     1      -8.866  13.026  67.349  1.00  0.00    -0.203 A  
HETATM   19  C   UNL     1     -10.805  13.090  65.941  1.00  0.00    -0.291 A  
HETATM   20  C   UNL     1     -11.128  14.356  66.449  1.00  0.00    -0.326 A  
BRANCH  17  21
HETATM   21  O   UNL     1     -10.720  16.209  67.810  1.00  0.00    -0.311 OA 
BRANCH  21  22
HETATM   22  C   UNL     1     -11.681  16.231  68.869  1.00  0.00    -0.160 C  
BRANCH  22  23
HETATM   23  C   UNL     1     -11.909  14.835  69.342  1.00  0.00    -0.323 C  
HETATM   24  C   UNL     1     -11.619  14.416  70.756  1.00  0.00    -0.167 C  
HETATM   25  O   UNL     1     -12.955  14.699  70.313  1.00  0.00    -0.285 OA 
ENDBRANCH  22  23
ENDBRANCH  21  22
ENDBRANCH  17  21
ENDBRANCH   2  15
TORSDOF 8
ENDMDL
MODEL      154
REMARK 921   NORMALIZED FREE ENERGY PREDICTED BY IDOCK:   -2.99 KCAL/MOL
REMARK 922        TOTAL FREE ENERGY PREDICTED BY IDOCK:   -5.56 KCAL/MOL
REMARK 923 INTER-LIGAND FREE ENERGY PREDICTED BY IDOCK:   -4.64 KCAL/MOL
REMARK 924 INTRA-LIGAND FREE ENERGY PREDICTED BY IDOCK:   -0.91 KCAL/MOL
REMARK 927      BINDING AFFINITY PREDICTED BY RF-SCORE:    0.00 PKD
ROOT
HETATM    1  C   UNL     1      -6.660  14.352  69.861  1.00  0.00    -0.133 C  
HETATM    2  C   UNL     1      -7.222  14.784  68.480  1.00  0.00    -0.115 C  
HETATM    3  C   UNL     1      -5.975  15.065  67.592  1.00  0.00    -0.089 C  
ENDROOT
BRANCH   2   4
HETATM    4  C   UNL     1      -8.050  16.096  68.605  1.00  0.00    -0.203 A  
HETATM    5  C   UNL     1      -7.522  17.357  68.258  1.00  0.00    -0.227 A  
HETATM    6  C   UNL     1      -8.300  18.519  68.334  1.00  0.00    -0.355 A  
HETATM    7  C   UNL     1      -9.381  16.065  69.059  1.00  0.00    -0.239 A  
HETATM    8  C   UNL     1     -10.166  17.224  69.103  1.00  0.00    -0.283 A  
HETATM    9  C   UNL     1      -9.626  18.458  68.761  1.00  0.00    -0.321 A  
BRANCH   9  10
HETATM   10  O   UNL     1     -10.285  19.656  68.809  1.00  0.00    -0.437 OA 
BRANCH  10  11
HETATM   11  C   UNL     1     -10.281  20.412  67.598  1.00  0.00    -0.270 C  
BRANCH  11  12
HETATM   12  C   UNL     1     -10.998  19.629  66.551  1.00  0.00    -0.217 C  
HETATM   13  O   UNL     1     -10.162  19.129  65.497  1.00  0.00    -0.430 OA 
HETATM   14  C   UNL     1     -11.124  20.135  65.140  1.00  0.00     0.607 C  
ENDBRANCH  11  12
ENDBRANCH  10  11
ENDBRANCH   9  10
ENDBRANCH   2   4
BRANCH   2  15
HETATM   15  C   UNL     1      -8.043  13.580  67.955  1.00  0.00    -0.165 A  
HETATM   16  C   UNL     1      -8.492  11.171  67.915  1.00  0.00    -0.131 A  
HETATM   17  C   UNL     1      -9.384  11.322  66.858  1.00  0.00    -0.177 A  
HETATM   18  C   UNL     1      -7.841  12.284  68.461  1.00  0.00    -0.111 A  
HETATM   19  C   UNL     1      -8.931  13.706  66.868  1.00  0.00    -0.229 A  
HETATM   20  C   UNL     1      -9.591  12.592  66.329  1.00  0.00    -0.246 A  
BRANCH  17  21
HETATM   21  O   UNL     1     -10.096  10.313  66.267  1.00  0.00    -0.222 OA 
BRANCH  21  22
HETATM   22  C   UNL     1      -9.316   9.252  65.709  1.00  0.00    -0.244 C  
BRANCH  22  23
HETATM   23  C   UNL     1      -9.792   7.956  66.273  1.00  0.00    -0.069 C  
HETATM   24  C   UNL     1      -9.694   7.642  67.740  1.00  0.00    -0.148 C  
HETATM   25  O   UNL     1     -10.928   8.067  67.141  1.00  0.00    -0.191 OA 
ENDBRANCH  22  23
ENDBRANCH  21  22
ENDBRANCH  17  21
ENDBRANCH   2  15
TORSDOF 8
ENDMDL
MODEL      155
REMARK 921   NORMALIZED FREE ENERGY PREDICTED BY IDOCK:   -2.91 KCAL/MOL
REMARK 922        TOTAL FREE ENERGY PREDICTED BY IDOCK:   -5.44 KCAL/MOL
REMARK 923 INTER-LIGAND FREE ENERGY PREDICTED BY IDOCK:   -4.47 KCAL/MOL
REMARK 924 INTRA-LIGAND FREE ENERGY PREDICTED BY IDOCK:   -0.97 KCAL/MOL
REMARK 927      BINDING AFFINITY PREDICTED BY RF-SCORE:    0.00 PKD
ROOT
HETATM    1  C   UNL     1     -11.598   7.381  69.403  1.00  0.00     0.373 C  
HETATM    2  C   UNL     1     -11.377   8.394  70.558  1.00  0.00    -0.228 C  
HETATM    3  C   UNL     1     -12.705   8.395  71.371  1.00  0.00    -0.280 C  
ENDROOT
BRANCH   2   4
HETATM    4  C   UNL     1     -11.134   9.827  70.000  1.00  0.00    -0.311 A  
HETATM    5  C   UNL     1     -12.158  10.794  69.933  1.00  0.00    -0.410 A  
HETATM    6  C   UNL     1     -11.907  12.092  69.470  1.00  0.00    -0.390 A  
HETATM    7  C   UNL     1      -9.859  10.216  69.551  1.00  0.00    -0.255 A  
HETATM    8  C   UNL     1      -9.604  11.524  69.120  1.00  0.00     0.153 A  
HETATM    9  C   UNL     1     -10.628  12.462  69.058  1.00  0.00    -0.049 A  
BRANCH   9  10
HETATM   10  O   UNL     1     -10.501  13.750  68.612  1.00  0.00    -0.239 OA 
BRANCH  10  11
HETATM   11  C   UNL     1     -11.708  14.370  68.168  1.00  0.00    -0.342 C  
BRANCH  11  12
HETATM   12  C   UNL     1     -12.023  15.501  69.087  1.00  0.00    -0.309 C  
HETATM   13  O   UNL     1     -11.037  15.745  70.100  1.00  0.00    -0.290 OA 
HETATM   14  C   UNL     1     -12.318  15.270  70.543  1.00  0.00    -0.387 C  
ENDBRANCH  11  12
ENDBRANCH  10  11
ENDBRANCH   9  10
ENDBRANCH   2   4
BRANCH   2  15
HETATM   15  C   UNL     1     -10.192   7.844  71.391  1.00  0.00    -0.226 A  
HETATM   16  C   UNL     1      -8.548   6.084  71.840  1.00  0.00    -0.137 A  
HETATM   17  C   UNL     1      -8.159   6.703  73.023  1.00  0.00    -0.106 A  
HETATM   18  C   UNL     1      -9.540   6.652  71.032  1.00  0.00    -0.178 A  
HETATM   19  C   UNL     1      -9.802   8.440  72.607  1.00  0.00    -0.329 A  
HETATM   20  C   UNL     1      -8.799   7.876  73.409  1.00  0.00    -0.324 A  
BRANCH  17  21
HETATM   21  O   UNL     1      -7.183   6.256  73.873  1.00  0.00    -0.086 OA 
BRANCH  21  22
HETATM   22  C   UNL     1      -7.292   4.887  74.271  1.00  0.00    -0.082 C  
BRANCH  22  23
HETATM   23  C   UNL     1      -6.010   4.191  73.959  1.00  0.00    -0.023 C  
HETATM   24  C   UNL     1      -5.727   3.613  72.601  1.00  0.00    -0.008 C  
HETATM   25  O   UNL     1      -5.178   4.874  73.011  1.00  0.00    -0.008 OA 
ENDBRANCH  22  23
ENDBRANCH  21  22
ENDBRANCH  17  21
ENDBRANCH   2  15
TORSDOF 8
ENDMDL
MODEL      156
REMARK 921   NORMALIZED FREE ENERGY PREDICTED BY IDOCK:   -2.87 KCAL/MOL
REMARK 922        TOTAL FREE ENERGY PREDICTED BY IDOCK:   -5.37 KCAL/MOL
REMARK 923 INTER-LIGAND FREE ENERGY PREDICTED BY IDOCK:   -4.24 KCAL/MOL
REMARK 924 INTRA-LIGAND FREE ENERGY PREDICTED BY IDOCK:   -1.13 KCAL/MOL
REMARK 927      BINDING AFFINITY PREDICTED BY RF-SCORE:    0.00 PKD
ROOT
HETATM    1  C   UNL     1     -10.893   7.227  66.958  1.00  0.00    -0.350 C  
HETATM    2  C   UNL     1      -9.500   7.910  66.992  1.00  0.00    -0.222 C  
HETATM    3  C   UNL     1      -8.689   7.260  65.834  1.00  0.00    -0.150 C  
ENDROOT
BRANCH   2   4
HETATM    4  C   UNL     1      -8.772   7.616  68.336  1.00  0.00    -0.127 A  
HETATM    5  C   UNL     1      -9.444   7.094  69.460  1.00  0.00    -0.151 A  
HETATM    6  C   UNL     1      -8.760   6.794  70.645  1.00  0.00    -0.143 A  
HETATM    7  C   UNL     1      -7.391   7.851  68.471  1.00  0.00    -0.097 A  
HETATM    8  C   UNL     1      -6.705   7.520  69.646  1.00  0.00    -0.040 A  
HETATM    9  C   UNL     1      -7.386   7.009  70.744  1.00  0.00    -0.073 A  
BRANCH   9  10
HETATM   10  O   UNL     1      -6.825   6.693  71.952  1.00  0.00    -0.065 OA 
BRANCH  10  11
HETATM   11  C   UNL     1      -5.742   5.764  71.905  1.00  0.00    -0.022 C  
BRANCH  11  12
HETATM   12  C   UNL     1      -6.110   4.570  72.718  1.00  0.00    -0.017 C  
HETATM   13  O   UNL     1      -6.110   3.329  71.997  1.00  0.00    -0.012 OA 
HETATM   14  C   UNL     1      -7.382   3.808  72.463  1.00  0.00    -0.054 C  
ENDBRANCH  11  12
ENDBRANCH  10  11
ENDBRANCH   9  10
ENDBRANCH   2   4
BRANCH   2  15
HETATM   15  C   UNL     1      -9.755   9.418  66.742  1.00  0.00    -0.257 A  
HETATM   16  C   UNL     1     -10.003  11.301  65.194  1.00  0.00    -0.312 A  
HETATM   17  C   UNL     1     -10.008  12.209  66.248  1.00  0.00    -0.229 A  
HETATM   18  C   UNL     1      -9.890   9.927  65.439  1.00  0.00    -0.384 A  
HETATM   19  C   UNL     1      -9.736  10.357  67.792  1.00  0.00    -0.181 A  
HETATM   20  C   UNL     1      -9.862  11.732  67.546  1.00  0.00    -0.195 A  
BRANCH  17  21
HETATM   21  O   UNL     1     -10.143  13.566  66.129  1.00  0.00    -0.290 OA 
BRANCH  21  22
HETATM   22  C   UNL     1     -10.516  14.257  67.324  1.00  0.00    -0.269 C  
BRANCH  22  23
HETATM   23  C   UNL     1      -9.840  15.586  67.344  1.00  0.00    -0.224 C  
HETATM   24  C   UNL     1      -9.316  16.194  68.615  1.00  0.00    -0.222 C  
HETATM   25  O   UNL     1      -8.446  15.539  67.679  1.00  0.00    -0.157 OA 
ENDBRANCH  22  23
ENDBRANCH  21  22
ENDBRANCH  17  21
ENDBRANCH   2  15
TORSDOF 8
ENDMDL
MODEL      157
REMARK 921   NORMALIZED FREE ENERGY PREDICTED BY IDOCK:   -2.79 KCAL/MOL
REMARK 922        TOTAL FREE ENERGY PREDICTED BY IDOCK:   -5.27 KCAL/MOL
REMARK 923 INTER-LIGAND FREE ENERGY PREDICTED BY IDOCK:   -4.10 KCAL/MOL
REMARK 924 INTRA-LIGAND FREE ENERGY PREDICTED BY IDOCK:   -1.17 KCAL/MOL
REMARK 927      BINDING AFFINITY PREDICTED BY RF-SCORE:    0.00 PKD
ROOT
HETATM    1  C   UNL     1      -6.930  10.859  68.969  1.00  0.00    -0.089 C  
HETATM    2  C   UNL     1      -8.364  10.324  68.710  1.00  0.00    -0.125 C  
HETATM    3  C   UNL     1      -9.211  11.573  68.329  1.00  0.00    -0.186 C  
ENDROOT
BRANCH   2   4
HETATM    4  C   UNL     1      -8.961   9.691  69.999  1.00  0.00    -0.266 A  
HETATM    5  C   UNL     1      -8.161   9.042  70.962  1.00  0.00    -0.199 A  
HETATM    6  C   UNL     1      -8.713   8.519  72.138  1.00  0.00    -0.267 A  
HETATM    7  C   UNL     1     -10.342   9.761  70.261  1.00  0.00    -0.348 A  
HETATM    8  C   UNL     1     -10.886   9.266  71.452  1.00  0.00    -0.434 A  
HETATM    9  C   UNL     1     -10.081   8.626  72.387  1.00  0.00    -0.250 A  
BRANCH   9  10
HETATM   10  O   UNL     1     -10.512   8.068  73.560  1.00  0.00    -0.120 OA 
BRANCH  10  11
HETATM   11  C   UNL     1     -10.986   6.724  73.466  1.00  0.00    -0.102 C  
BRANCH  11  12
HETATM   12  C   UNL     1     -10.014   5.831  74.160  1.00  0.00    -0.233 C  
HETATM   13  O   UNL     1      -9.454   4.798  73.337  1.00  0.00    -0.122 OA 
HETATM   14  C   UNL     1     -10.319   4.379  74.404  1.00  0.00    -0.253 C  
ENDBRANCH  11  12
ENDBRANCH  10  11
ENDBRANCH   9  10
ENDBRANCH   2   4
BRANCH   2  15
HETATM   15  C   UNL     1      -8.243   9.328  67.528  1.00  0.00    -0.114 A  
HETATM   16  C   UNL     1      -9.280   8.064  65.704  1.00  0.00     0.010 A  
HETATM   17  C   UNL     1      -8.107   7.346  65.490  1.00  0.00    -0.131 A  
HETATM   18  C   UNL     1      -9.342   9.046  66.699  1.00  0.00    -0.229 A  
HETATM   19  C   UNL     1      -7.074   8.572  67.313  1.00  0.00    -0.076 A  
HETATM   20  C   UNL     1      -7.010   7.596  66.308  1.00  0.00    -0.066 A  
BRANCH  17  21
HETATM   21  O   UNL     1      -7.923   6.388  64.531  1.00  0.00    -0.117 OA 
BRANCH  21  22
HETATM   22  C   UNL     1      -7.246   5.204  64.962  1.00  0.00    -0.066 C  
BRANCH  22  23
HETATM   23  C   UNL     1      -8.260   4.207  65.413  1.00  0.00    -0.105 C  
HETATM   24  C   UNL     1      -9.042   3.371  64.439  1.00  0.00    -0.127 C  
HETATM   25  O   UNL     1      -7.910   2.842  65.146  1.00  0.00    -0.080 OA 
ENDBRANCH  22  23
ENDBRANCH  21  22
ENDBRANCH  17  21
ENDBRANCH   2  15
TORSDOF 8
ENDMDL
MODEL      158
REMARK 921   NORMALIZED FREE ENERGY PREDICTED BY IDOCK:   -2.73 KCAL/MOL
REMARK 922        TOTAL FREE ENERGY PREDICTED BY IDOCK:   -5.17 KCAL/MOL
REMARK 923 INTER-LIGAND FREE ENERGY PREDICTED BY IDOCK:   -3.93 KCAL/MOL
REMARK 924 INTRA-LIGAND FREE ENERGY PREDICTED BY IDOCK:   -1.24 KCAL/MOL
REMARK 927      BINDING AFFINITY PREDICTED BY RF-SCORE:    0.00 PKD
ROOT
HETATM    1  C   UNL     1      -7.207  10.127  66.879  1.00  0.00    -0.092 C  
HETATM    2  C   UNL     1      -7.076   8.838  67.733  1.00  0.00    -0.083 C  
HETATM    3  C   UNL     1      -5.611   8.833  68.258  1.00  0.00    -0.038 C  
ENDROOT
BRANCH   2   4
HETATM    4  C   UNL     1      -7.295   7.569  66.858  1.00  0.00    -0.093 A  
HETATM    5  C   UNL     1      -8.459   7.378  66.084  1.00  0.00    -0.147 A  
HETATM    6  C   UNL     1      -8.615   6.250  65.269  1.00  0.00    -0.068 A  
HETATM    7  C   UNL     1      -6.316   6.561  66.797  1.00  0.00    -0.042 A  
HETATM    8  C   UNL     1      -6.462   5.451  65.955  1.00  0.00    -0.044 A  
HETATM    9  C   UNL     1      -7.618   5.279  65.203  1.00  0.00    -0.082 A  
BRANCH   9  10
HETATM   10  O   UNL     1      -7.884   4.214  64.385  1.00  0.00    -0.083 OA 
BRANCH  10  11
HETATM   11  C   UNL     1      -8.351   3.035  65.040  1.00  0.00    -0.095 C  
BRANCH  11  12
HETATM   12  C   UNL     1      -9.644   2.630  64.417  1.00  0.00    -0.134 C  
HETATM   13  O   UNL     1      -9.746   2.902  63.012  1.00  0.00    -0.092 OA 
HETATM   14  C   UNL     1     -10.611   3.650  63.882  1.00  0.00    -0.277 C  
ENDBRANCH  11  12
ENDBRANCH  10  11
ENDBRANCH   9  10
ENDBRANCH   2   4
BRANCH   2  15
HETATM   15  C   UNL     1      -8.101   8.980  68.886  1.00  0.00    -0.104 A  
HETATM   16  C   UNL     1      -9.149   8.095  70.916  1.00  0.00    -0.169 A  
HETATM   17  C   UNL     1     -10.111   9.101  70.897  1.00  0.00    -0.287 A  
HETATM   18  C   UNL     1      -8.155   8.044  69.933  1.00  0.00    -0.117 A  
HETATM   19  C   UNL     1      -9.100   9.974  68.872  1.00  0.00    -0.159 A  
HETATM   20  C   UNL     1     -10.089  10.031  69.864  1.00  0.00    -0.289 A  
BRANCH  17  21
HETATM   21  O   UNL     1     -11.108   9.266  71.820  1.00  0.00    -0.364 OA 
BRANCH  21  22
HETATM   22  C   UNL     1     -11.935   8.121  72.048  1.00  0.00    -0.340 C  
BRANCH  22  23
HETATM   23  C   UNL     1     -13.363   8.548  72.038  1.00  0.00    -0.369 C  
HETATM   24  C   UNL     1     -13.774   9.961  72.345  1.00  0.00    -0.098 C  
HETATM   25  O   UNL     1     -13.700   9.475  70.996  1.00  0.00    -0.265 OA 
ENDBRANCH  22  23
ENDBRANCH  21  22
ENDBRANCH  17  21
ENDBRANCH   2  15
TORSDOF 8
ENDMDL
MODEL      159
REMARK 921   NORMALIZED FREE ENERGY PREDICTED BY IDOCK:   -2.71 KCAL/MOL
REMARK 922        TOTAL FREE ENERGY PREDICTED BY IDOCK:   -5.14 KCAL/MOL
REMARK 923 INTER-LIGAND FREE ENERGY PREDICTED BY IDOCK:   -3.96 KCAL/MOL
REMARK 924 INTRA-LIGAND FREE ENERGY PREDICTED BY IDOCK:   -1.18 KCAL/MOL
REMARK 927      BINDING AFFINITY PREDICTED BY RF-SCORE:    0.00 PKD
ROOT
HETATM    1  C   UNL     1      -8.007   9.420  66.908  1.00  0.00    -0.109 C  
HETATM    2  C   UNL     1      -7.603   8.190  67.764  1.00  0.00    -0.098 C  
HETATM    3  C   UNL     1      -6.115   8.423  68.154  1.00  0.00    -0.050 C  
ENDROOT
BRANCH   2   4
HETATM    4  C   UNL     1      -7.700   6.879  66.930  1.00  0.00    -0.099 A  
HETATM    5  C   UNL     1      -7.989   5.630  67.518  1.00  0.00    -0.102 A  
HETATM    6  C   UNL     1      -8.116   4.471  66.743  1.00  0.00    -0.102 A  
HETATM    7  C   UNL     1      -7.515   6.899  65.536  1.00  0.00    -0.086 A  
HETATM    8  C   UNL     1      -7.675   5.744  64.760  1.00  0.00    -0.096 A  
HETATM    9  C   UNL     1      -7.956   4.522  65.360  1.00  0.00    -0.098 A  
BRANCH   9  10
HETATM   10  O   UNL     1      -8.089   3.327  64.706  1.00  0.00    -0.088 OA 
BRANCH  10  11
HETATM   11  C   UNL     1      -9.370   2.705  64.812  1.00  0.00    -0.139 C  
BRANCH  11  12
HETATM   12  C   UNL     1      -9.842   2.361  63.440  1.00  0.00    -0.118 C  
HETATM   13  O   UNL     1     -10.908   3.184  62.946  1.00  0.00    -0.193 OA 
HETATM   14  C   UNL     1     -11.218   1.805  63.200  1.00  0.00    -0.248 C  
ENDBRANCH  11  12
ENDBRANCH  10  11
ENDBRANCH   9  10
ENDBRANCH   2   4
BRANCH   2  15
HETATM   15  C   UNL     1      -8.533   8.205  69.004  1.00  0.00    -0.129 A  
HETATM   16  C   UNL     1      -8.853   7.957  71.421  1.00  0.00    -0.158 A  
HETATM   17  C   UNL     1     -10.235   8.015  71.277  1.00  0.00    -0.192 A  
HETATM   18  C   UNL     1      -8.016   8.062  70.303  1.00  0.00    -0.104 A  
HETATM   19  C   UNL     1      -9.936   8.235  68.879  1.00  0.00    -0.193 A  
HETATM   20  C   UNL     1     -10.773   8.142  70.000  1.00  0.00    -0.243 A  
BRANCH  17  21
HETATM   21  O   UNL     1     -11.145   7.954  72.297  1.00  0.00    -0.269 OA 
BRANCH  21  22
HETATM   22  C   UNL     1     -10.778   7.123  73.402  1.00  0.00    -0.368 C  
BRANCH  22  23
HETATM   23  C   UNL     1     -11.187   5.719  73.106  1.00  0.00    -0.207 C  
HETATM   24  C   UNL     1     -10.184   4.607  72.981  1.00  0.00    -0.169 C  
HETATM   25  O   UNL     1     -10.956   4.794  74.177  1.00  0.00    -0.302 OA 
ENDBRANCH  22  23
ENDBRANCH  21  22
ENDBRANCH  17  21
ENDBRANCH   2  15
TORSDOF 8
ENDMDL
MODEL      160
REMARK 921   NORMALIZED FREE ENERGY PREDICTED BY IDOCK:   -2.71 KCAL/MOL
REMARK 922        TOTAL FREE ENERGY PREDICTED BY IDOCK:   -5.14 KCAL/MOL
REMARK 923 INTER-LIGAND FREE ENERGY PREDICTED BY IDOCK:   -4.73 KCAL/MOL
REMARK 924 INTRA-LIGAND FREE ENERGY PREDICTED BY IDOCK:   -0.41 KCAL/MOL
REMARK 927      BINDING AFFINITY PREDICTED BY RF-SCORE:    0.00 PKD
ROOT
HETATM    1  C   UNL     1      -5.815  11.466  70.020  1.00  0.00    -0.126 C  
HETATM    2  C   UNL     1      -6.596  11.011  68.759  1.00  0.00    -0.061 C  
HETATM    3  C   UNL     1      -5.511  10.564  67.735  1.00  0.00    -0.043 C  
ENDROOT
BRANCH   2   4
HETATM    4  C   UNL     1      -7.400  12.195  68.147  1.00  0.00    -0.103 A  
HETATM    5  C   UNL     1      -6.897  13.512  68.116  1.00  0.00    -0.119 A  
HETATM    6  C   UNL     1      -7.618  14.554  67.520  1.00  0.00    -0.211 A  
HETATM    7  C   UNL     1      -8.670  11.984  67.581  1.00  0.00    -0.166 A  
HETATM    8  C   UNL     1      -9.374  13.022  66.957  1.00  0.00    -0.236 A  
HETATM    9  C   UNL     1      -8.863  14.314  66.940  1.00  0.00    -0.213 A  
BRANCH   9  10
HETATM   10  O   UNL     1      -9.483  15.408  66.400  1.00  0.00    -0.252 OA 
BRANCH  10  11
HETATM   11  C   UNL     1     -10.855  15.229  66.048  1.00  0.00    -0.330 C  
BRANCH  11  12
HETATM   12  C   UNL     1     -10.991  15.408  64.574  1.00  0.00    -0.203 C  
HETATM   13  O   UNL     1     -11.600  16.644  64.173  1.00  0.00    -1.102 OA 
HETATM   14  C   UNL     1     -12.340  15.441  63.909  1.00  0.00     0.271 C  
ENDBRANCH  11  12
ENDBRANCH  10  11
ENDBRANCH   9  10
ENDBRANCH   2   4
BRANCH   2  15
HETATM   15  C   UNL     1      -7.486   9.824  69.209  1.00  0.00    -0.090 A  
HETATM   16  C   UNL     1      -9.310   8.250  68.764  1.00  0.00    -0.143 A  
HETATM   17  C   UNL     1      -9.277   7.790  70.077  1.00  0.00    -0.153 A  
HETATM   18  C   UNL     1      -8.421   9.243  68.336  1.00  0.00    -0.120 A  
HETATM   19  C   UNL     1      -7.487   9.362  70.540  1.00  0.00    -0.154 A  
HETATM   20  C   UNL     1      -8.370   8.359  70.965  1.00  0.00    -0.155 A  
BRANCH  17  21
HETATM   21  O   UNL     1     -10.075   6.807  70.596  1.00  0.00    -0.187 OA 
BRANCH  21  22
HETATM   22  C   UNL     1     -10.879   7.191  71.715  1.00  0.00    -0.225 C  
BRANCH  22  23
HETATM   23  C   UNL     1     -12.216   6.542  71.593  1.00  0.00    -0.300 C  
HETATM   24  C   UNL     1     -13.491   7.340  71.586  1.00  0.00    -0.354 C  
HETATM   25  O   UNL     1     -12.911   6.836  70.373  1.00  0.00     0.044 OA 
ENDBRANCH  22  23
ENDBRANCH  21  22
ENDBRANCH  17  21
ENDBRANCH   2  15
TORSDOF 8
ENDMDL
MODEL      161
REMARK 921   NORMALIZED FREE ENERGY PREDICTED BY IDOCK:   -2.61 KCAL/MOL
REMARK 922        TOTAL FREE ENERGY PREDICTED BY IDOCK:   -5.00 KCAL/MOL
REMARK 923 INTER-LIGAND FREE ENERGY PREDICTED BY IDOCK:   -4.55 KCAL/MOL
REMARK 924 INTRA-LIGAND FREE ENERGY PREDICTED BY IDOCK:   -0.45 KCAL/MOL
REMARK 927      BINDING AFFINITY PREDICTED BY RF-SCORE:    0.00 PKD
ROOT
HETATM    1  C   UNL     1      -8.438  11.008  65.760  1.00  0.00    -0.119 C  
HETATM    2  C   UNL     1      -9.413  10.904  66.963  1.00  0.00    -0.184 C  
HETATM    3  C   UNL     1     -10.606  10.039  66.460  1.00  0.00    -0.165 C  
ENDROOT
BRANCH   2   4
HETATM    4  C   UNL     1      -9.951  12.309  67.363  1.00  0.00    -0.205 A  
HETATM    5  C   UNL     1      -9.109  13.328  67.854  1.00  0.00    -0.203 A  
HETATM    6  C   UNL     1      -9.606  14.599  68.165  1.00  0.00    -0.213 A  
HETATM    7  C   UNL     1     -11.317  12.620  67.231  1.00  0.00    -0.372 A  
HETATM    8  C   UNL     1     -11.805  13.902  67.512  1.00  0.00    -0.431 A  
HETATM    9  C   UNL     1     -10.959  14.891  67.998  1.00  0.00    -0.279 A  
BRANCH   9  10
HETATM   10  O   UNL     1     -11.336  16.160  68.346  1.00  0.00    -0.366 OA 
BRANCH  10  11
HETATM   11  C   UNL     1     -11.781  16.324  69.693  1.00  0.00    -0.077 C  
BRANCH  11  12
HETATM   12  C   UNL     1     -12.130  14.982  70.241  1.00  0.00    -0.329 C  
HETATM   13  O   UNL     1     -13.478  14.858  70.717  1.00  0.00    -0.345 OA 
HETATM   14  C   UNL     1     -12.433  14.784  71.700  1.00  0.00    -0.335 C  
ENDBRANCH  11  12
ENDBRANCH  10  11
ENDBRANCH   9  10
ENDBRANCH   2   4
BRANCH   2  15
HETATM   15  C   UNL     1      -8.626  10.197  68.094  1.00  0.00    -0.118 A  
HETATM   16  C   UNL     1      -6.885   8.627  68.809  1.00  0.00    -0.062 A  
HETATM   17  C   UNL     1      -7.301   8.719  70.134  1.00  0.00    -0.055 A  
HETATM   18  C   UNL     1      -7.531   9.363  67.809  1.00  0.00    -0.087 A  
HETATM   19  C   UNL     1      -9.047  10.254  69.438  1.00  0.00    -0.203 A  
HETATM   20  C   UNL     1      -8.392   9.525  70.441  1.00  0.00    -0.226 A  
BRANCH  17  21
HETATM   21  O   UNL     1      -6.728   8.071  71.195  1.00  0.00    -0.040 OA 
BRANCH  21  22
HETATM   22  C   UNL     1      -5.525   7.355  70.903  1.00  0.00    -0.027 C  
BRANCH  22  23
HETATM   23  C   UNL     1      -5.709   5.926  71.292  1.00  0.00    -0.021 C  
HETATM   24  C   UNL     1      -7.068   5.290  71.365  1.00  0.00    -0.066 C  
HETATM   25  O   UNL     1      -6.199   5.083  70.241  1.00  0.00    -0.020 OA 
ENDBRANCH  22  23
ENDBRANCH  21  22
ENDBRANCH  17  21
ENDBRANCH   2  15
TORSDOF 8
ENDMDL
MODEL      162
REMARK 921   NORMALIZED FREE ENERGY PREDICTED BY IDOCK:   -2.07 KCAL/MOL
REMARK 922        TOTAL FREE ENERGY PREDICTED BY IDOCK:   -4.21 KCAL/MOL
REMARK 923 INTER-LIGAND FREE ENERGY PREDICTED BY IDOCK:   -3.56 KCAL/MOL
REMARK 924 INTRA-LIGAND FREE ENERGY PREDICTED BY IDOCK:   -0.65 KCAL/MOL
REMARK 927      BINDING AFFINITY PREDICTED BY RF-SCORE:    0.00 PKD
ROOT
HETATM    1  C   UNL     1      -8.046  16.627  69.674  1.00  0.00     0.529 C  
HETATM    2  C   UNL     1      -9.004  16.978  68.504  1.00  0.00    -0.263 C  
HETATM    3  C   UNL     1     -10.357  17.359  69.174  1.00  0.00    -0.271 C  
ENDROOT
BRANCH   2   4
HETATM    4  C   UNL     1      -9.234  15.743  67.586  1.00  0.00    -0.200 A  
HETATM    5  C   UNL     1      -8.540  14.529  67.767  1.00  0.00    -0.176 A  
HETATM    6  C   UNL     1      -8.795  13.415  66.957  1.00  0.00    -0.217 A  
HETATM    7  C   UNL     1     -10.169  15.792  66.536  1.00  0.00    -0.294 A  
HETATM    8  C   UNL     1     -10.445  14.667  65.749  1.00  0.00    -0.338 A  
HETATM    9  C   UNL     1      -9.748  13.480  65.941  1.00  0.00    -0.181 A  
BRANCH   9  10
HETATM   10  O   UNL     1      -9.904  12.337  65.205  1.00  0.00    -0.241 OA 
BRANCH  10  11
HETATM   11  C   UNL     1     -10.886  11.421  65.689  1.00  0.00    -0.218 C  
BRANCH  11  12
HETATM   12  C   UNL     1     -10.183  10.250  66.288  1.00  0.00    -0.221 C  
HETATM   13  O   UNL     1     -10.901   9.010  66.203  1.00  0.00     0.401 OA 
HETATM   14  C   UNL     1     -10.711   9.561  67.516  1.00  0.00    -0.245 C  
ENDBRANCH  11  12
ENDBRANCH  10  11
ENDBRANCH   9  10
ENDBRANCH   2   4
BRANCH   2  15
HETATM   15  C   UNL     1      -8.364  18.185  67.772  1.00  0.00    -0.253 A  
HETATM   16  C   UNL     1      -8.531  20.021  66.158  1.00  0.00    -0.302 A  
HETATM   17  C   UNL     1      -7.166  20.272  66.253  1.00  0.00    -0.265 A  
HETATM   18  C   UNL     1      -9.121  19.001  66.915  1.00  0.00    -0.327 A  
HETATM   19  C   UNL     1      -6.980  18.439  67.833  1.00  0.00    -0.218 A  
HETATM   20  C   UNL     1      -6.392  19.469  67.084  1.00  0.00    -0.200 A  
BRANCH  17  21
HETATM   21  O   UNL     1      -6.490  21.258  65.586  1.00  0.00    -0.136 OA 
BRANCH  21  22
HETATM   22  C   UNL     1      -5.142  20.945  65.224  1.00  0.00    -0.191 C  
BRANCH  22  23
HETATM   23  C   UNL     1      -5.140  20.326  63.867  1.00  0.00    -0.167 C  
HETATM   24  C   UNL     1      -6.397  19.811  63.224  1.00  0.00     0.667 C  
HETATM   25  O   UNL     1      -5.834  21.082  62.867  1.00  0.00    -0.229 OA 
ENDBRANCH  22  23
ENDBRANCH  21  22
ENDBRANCH  17  21
ENDBRANCH   2  15
TORSDOF 8
ENDMDL
MODEL      163
REMARK 921   NORMALIZED FREE ENERGY PREDICTED BY IDOCK:   -2.06 KCAL/MOL
REMARK 922        TOTAL FREE ENERGY PREDICTED BY IDOCK:   -4.19 KCAL/MOL
REMARK 923 INTER-LIGAND FREE ENERGY PREDICTED BY IDOCK:   -4.52 KCAL/MOL
REMARK 924 INTRA-LIGAND FREE ENERGY PREDICTED BY IDOCK:    0.33 KCAL/MOL
REMARK 927      BINDING AFFINITY PREDICTED BY RF-SCORE:    0.00 PKD
ROOT
HETATM    1  C   UNL     1     -10.768   9.969  67.879  1.00  0.00    -0.322 C  
HETATM    2  C   UNL     1      -9.479   9.367  68.501  1.00  0.00    -0.150 C  
HETATM    3  C   UNL     1      -8.455  10.538  68.555  1.00  0.00    -0.131 C  
ENDROOT
BRANCH   2   4
HETATM    4  C   UNL     1      -8.901   8.241  67.595  1.00  0.00    -0.137 A  
HETATM    5  C   UNL     1      -9.551   7.809  66.421  1.00  0.00    -0.235 A  
HETATM    6  C   UNL     1      -8.990   6.827  65.595  1.00  0.00     0.019 A  
HETATM    7  C   UNL     1      -7.681   7.618  67.914  1.00  0.00    -0.115 A  
HETATM    8  C   UNL     1      -7.107   6.659  67.070  1.00  0.00    -0.076 A  
HETATM    9  C   UNL     1      -7.765   6.244  65.918  1.00  0.00    -0.093 A  
BRANCH   9  10
HETATM   10  O   UNL     1      -7.320   5.286  65.048  1.00  0.00    -0.065 OA 
BRANCH  10  11
HETATM   11  C   UNL     1      -6.089   5.579  64.387  1.00  0.00    -0.022 C  
BRANCH  11  12
HETATM   12  C   UNL     1      -6.370   6.509  63.256  1.00  0.00    -0.037 C  
HETATM   13  O   UNL     1      -6.197   7.899  63.564  1.00  0.00    -0.061 OA 
HETATM   14  C   UNL     1      -7.536   7.458  63.292  1.00  0.00    -0.114 C  
ENDBRANCH  11  12
ENDBRANCH  10  11
ENDBRANCH   9  10
ENDBRANCH   2   4
BRANCH   2  15
HETATM   15  C   UNL     1      -9.873   8.880  69.918  1.00  0.00    -0.190 A  
HETATM   16  C   UNL     1      -9.283   8.461  72.259  1.00  0.00    -0.329 A  
HETATM   17  C   UNL     1     -10.489   7.802  72.479  1.00  0.00    -0.284 A  
HETATM   18  C   UNL     1      -8.987   9.001  71.002  1.00  0.00    -0.304 A  
HETATM   19  C   UNL     1     -11.076   8.187  70.157  1.00  0.00    -0.187 A  
HETATM   20  C   UNL     1     -11.378   7.656  71.419  1.00  0.00    -0.285 A  
BRANCH  17  21
HETATM   21  O   UNL     1     -10.896   7.263  73.670  1.00  0.00    -0.356 OA 
BRANCH  21  22
HETATM   22  C   UNL     1      -9.914   6.491  74.366  1.00  0.00    -0.351 C  
BRANCH  22  23
HETATM   23  C   UNL     1     -10.397   5.084  74.477  1.00  0.00    -0.278 C  
HETATM   24  C   UNL     1     -11.142   4.408  73.360  1.00  0.00    -0.305 C  
HETATM   25  O   UNL     1      -9.747   4.161  73.594  1.00  0.00    -0.111 OA 
ENDBRANCH  22  23
ENDBRANCH  21  22
ENDBRANCH  17  21
ENDBRANCH   2  15
TORSDOF 8
ENDMDL
MODEL      164
REMARK 921   NORMALIZED FREE ENERGY PREDICTED BY IDOCK:   -2.01 KCAL/MOL
REMARK 922        TOTAL FREE ENERGY PREDICTED BY IDOCK:   -4.11 KCAL/MOL
REMARK 923 INTER-LIGAND FREE ENERGY PREDICTED BY IDOCK:   -3.03 KCAL/MOL
REMARK 924 INTRA-LIGAND FREE ENERGY PREDICTED BY IDOCK:   -1.08 KCAL/MOL
REMARK 927      BINDING AFFINITY PREDICTED BY RF-SCORE:    0.00 PKD
ROOT
HETATM    1  C   UNL     1     -10.579   3.833  64.165  1.00  0.00    -0.263 C  
HETATM    2  C   UNL     1      -9.178   3.748  64.828  1.00  0.00    -0.146 C  
HETATM    3  C   UNL     1      -8.591   2.376  64.387  1.00  0.00    -0.090 C  
ENDROOT
BRANCH   2   4
HETATM    4  C   UNL     1      -9.298   3.763  66.380  1.00  0.00    -0.197 A  
HETATM    5  C   UNL     1      -9.849   4.853  67.084  1.00  0.00    -0.215 A  
HETATM    6  C   UNL     1      -9.989   4.826  68.477  1.00  0.00    -0.160 A  
HETATM    7  C   UNL     1      -8.868   2.662  67.144  1.00  0.00    -0.158 A  
HETATM    8  C   UNL     1      -9.039   2.626  68.533  1.00  0.00    -0.218 A  
HETATM    9  C   UNL     1      -9.581   3.712  69.209  1.00  0.00    -0.115 A  
BRANCH   9  10
HETATM   10  O   UNL     1      -9.752   3.802  70.564  1.00  0.00    -0.185 OA 
BRANCH  10  11
HETATM   11  C   UNL     1      -8.824   3.058  71.354  1.00  0.00    -0.081 C  
BRANCH  11  12
HETATM   12  C   UNL     1      -8.217   3.977  72.359  1.00  0.00    -0.098 C  
HETATM   13  O   UNL     1      -8.603   5.353  72.226  1.00  0.00    -0.124 OA 
HETATM   14  C   UNL     1      -7.228   5.036  71.957  1.00  0.00    -0.083 C  
ENDBRANCH  11  12
ENDBRANCH  10  11
ENDBRANCH   9  10
ENDBRANCH   2   4
BRANCH   2  15
HETATM   15  C   UNL     1      -8.360   4.934  64.258  1.00  0.00    -0.130 A  
HETATM   16  C   UNL     1      -7.623   6.282  62.350  1.00  0.00    -0.071 A  
HETATM   17  C   UNL     1      -6.709   6.968  63.145  1.00  0.00    -0.048 A  
HETATM   18  C   UNL     1      -8.442   5.290  62.901  1.00  0.00    -0.096 A  
HETATM   19  C   UNL     1      -7.410   5.623  65.039  1.00  0.00    -0.071 A  
HETATM   20  C   UNL     1      -6.598   6.624  64.488  1.00  0.00    -0.042 A  
BRANCH  17  21
HETATM   21  O   UNL     1      -5.882   7.973  62.721  1.00  0.00    -0.067 OA 
BRANCH  21  22
HETATM   22  C   UNL     1      -5.144   8.639  63.750  1.00  0.00    -0.056 C  
BRANCH  22  23
HETATM   23  C   UNL     1      -5.390  10.107  63.644  1.00  0.00    -0.117 C  
HETATM   24  C   UNL     1      -6.069  10.717  62.450  1.00  0.00    -0.137 C  
HETATM   25  O   UNL     1      -6.773  10.482  63.679  1.00  0.00    -0.061 OA 
ENDBRANCH  22  23
ENDBRANCH  21  22
ENDBRANCH  17  21
ENDBRANCH   2  15
TORSDOF 8
ENDMDL
MODEL      165
REMARK 921   NORMALIZED FREE ENERGY PREDICTED BY IDOCK:   -1.45 KCAL/MOL
REMARK 922        TOTAL FREE ENERGY PREDICTED BY IDOCK:   -3.30 KCAL/MOL
REMARK 923 INTER-LIGAND FREE ENERGY PREDICTED BY IDOCK:   -2.46 KCAL/MOL
REMARK 924 INTRA-LIGAND FREE ENERGY PREDICTED BY IDOCK:   -0.83 KCAL/MOL
REMARK 927      BINDING AFFINITY PREDICTED BY RF-SCORE:    0.00 PKD
ROOT
HETATM    1  C   UNL     1      -7.861   7.567  68.082  1.00  0.00    -0.122 C  
HETATM    2  C   UNL     1      -6.944   6.363  68.424  1.00  0.00    -0.080 C  
HETATM    3  C   UNL     1      -5.487   6.891  68.267  1.00  0.00    -0.017 C  
ENDROOT
BRANCH   2   4
HETATM    4  C   UNL     1      -7.161   5.197  67.417  1.00  0.00    -0.074 A  
HETATM    5  C   UNL     1      -7.437   3.879  67.838  1.00  0.00    -0.067 A  
HETATM    6  C   UNL     1      -7.675   2.853  66.914  1.00  0.00    -0.075 A  
HETATM    7  C   UNL     1      -7.107   5.425  66.030  1.00  0.00    -0.068 A  
HETATM    8  C   UNL     1      -7.377   4.404  65.110  1.00  0.00    -0.072 A  
HETATM    9  C   UNL     1      -7.643   3.111  65.544  1.00  0.00    -0.077 A  
BRANCH   9  10
HETATM   10  O   UNL     1      -7.876   2.032  64.735  1.00  0.00    -0.067 OA 
BRANCH  10  11
HETATM   11  C   UNL     1      -9.216   1.538  64.738  1.00  0.00    -0.119 C  
BRANCH  11  12
HETATM   12  C   UNL     1      -9.818   1.799  63.399  1.00  0.00    -0.117 C  
HETATM   13  O   UNL     1     -10.664   2.956  63.336  1.00  0.00    -0.218 OA 
HETATM   14  C   UNL     1     -11.298   1.678  63.167  1.00  0.00    -0.221 C  
ENDBRANCH  11  12
ENDBRANCH  10  11
ENDBRANCH   9  10
ENDBRANCH   2   4
BRANCH   2  15
HETATM   15  C   UNL     1      -7.263   5.983  69.892  1.00  0.00    -0.074 A  
HETATM   16  C   UNL     1      -6.868   4.568  71.852  1.00  0.00    -0.042 A  
HETATM   17  C   UNL     1      -7.965   5.116  72.510  1.00  0.00    -0.102 A  
HETATM   18  C   UNL     1      -6.517   5.003  70.569  1.00  0.00    -0.030 A  
HETATM   19  C   UNL     1      -8.385   6.506  70.566  1.00  0.00    -0.133 A  
HETATM   20  C   UNL     1      -8.728   6.077  71.856  1.00  0.00    -0.137 A  
BRANCH  17  21
HETATM   21  O   UNL     1      -8.381   4.790  73.773  1.00  0.00    -0.105 OA 
BRANCH  21  22
HETATM   22  C   UNL     1      -8.660   3.404  73.992  1.00  0.00    -0.088 C  
BRANCH  22  23
HETATM   23  C   UNL     1      -9.929   3.052  73.292  1.00  0.00    -0.112 C  
HETATM   24  C   UNL     1     -10.055   1.819  72.443  1.00  0.00    -0.148 C  
HETATM   25  O   UNL     1     -10.569   1.866  73.782  1.00  0.00    -0.101 OA 
ENDBRANCH  22  23
ENDBRANCH  21  22
ENDBRANCH  17  21
ENDBRANCH   2  15
TORSDOF 8
ENDMDL
MODEL      166
REMARK 921   NORMALIZED FREE ENERGY PREDICTED BY IDOCK:   -0.81 KCAL/MOL
REMARK 922        TOTAL FREE ENERGY PREDICTED BY IDOCK:   -2.36 KCAL/MOL
REMARK 923 INTER-LIGAND FREE ENERGY PREDICTED BY IDOCK:   -1.15 KCAL/MOL
REMARK 924 INTRA-LIGAND FREE ENERGY PREDICTED BY IDOCK:   -1.21 KCAL/MOL
REMARK 927      BINDING AFFINITY PREDICTED BY RF-SCORE:    0.00 PKD
ROOT
HETATM    1  C   UNL     1      -5.819  18.213  70.103  1.00  0.00    -0.182 C  
HETATM    2  C   UNL     1      -7.211  18.364  69.433  1.00  0.00    -0.011 C  
HETATM    3  C   UNL     1      -8.104  19.082  70.487  1.00  0.00     2.439 C  
ENDROOT
BRANCH   2   4
HETATM    4  C   UNL     1      -7.830  16.971  69.121  1.00  0.00    -0.089 A  
HETATM    5  C   UNL     1      -7.037  15.836  68.855  1.00  0.00    -0.139 A  
HETATM    6  C   UNL     1      -7.615  14.581  68.622  1.00  0.00    -0.131 A  
HETATM    7  C   UNL     1      -9.225  16.792  69.108  1.00  0.00    -0.140 A  
HETATM    8  C   UNL     1      -9.798  15.530  68.906  1.00  0.00    -0.219 A  
HETATM    9  C   UNL     1      -8.999  14.423  68.643  1.00  0.00    -0.172 A  
BRANCH   9  10
HETATM   10  O   UNL     1      -9.453  13.157  68.388  1.00  0.00    -0.213 OA 
BRANCH  10  11
HETATM   11  C   UNL     1      -9.159  12.647  67.087  1.00  0.00    -0.210 C  
BRANCH  11  12
HETATM   12  C   UNL     1     -10.345  12.875  66.212  1.00  0.00    -0.268 C  
HETATM   13  O   UNL     1     -11.049  11.684  65.832  1.00  0.00    -0.303 OA 
HETATM   14  C   UNL     1     -10.371  12.399  64.786  1.00  0.00    -0.299 C  
ENDBRANCH  11  12
ENDBRANCH  10  11
ENDBRANCH   9  10
ENDBRANCH   2   4
BRANCH   2  15
HETATM   15  C   UNL     1      -6.989  19.241  68.174  1.00  0.00    -0.290 A  
HETATM   16  C   UNL     1      -7.887  20.662  66.392  1.00  0.00    -0.021 A  
HETATM   17  C   UNL     1      -6.656  20.683  65.743  1.00  0.00    -0.202 A  
HETATM   18  C   UNL     1      -8.046  19.962  67.593  1.00  0.00    -0.339 A  
HETATM   19  C   UNL     1      -5.759  19.253  67.487  1.00  0.00    -0.181 A  
HETATM   20  C   UNL     1      -5.597  19.965  66.290  1.00  0.00    -0.182 A  
BRANCH  17  21
HETATM   21  O   UNL     1      -6.378  21.356  64.584  1.00  0.00    -0.074 OA 
BRANCH  21  22
HETATM   22  C   UNL     1      -5.147  21.003  63.946  1.00  0.00    -0.196 C  
BRANCH  22  23
HETATM   23  C   UNL     1      -5.453  20.319  62.656  1.00  0.00    -0.253 C  
HETATM   24  C   UNL     1      -5.208  18.849  62.457  1.00  0.00    -0.138 C  
HETATM   25  O   UNL     1      -6.520  19.364  62.728  1.00  0.00     0.664 OA 
ENDBRANCH  22  23
ENDBRANCH  21  22
ENDBRANCH  17  21
ENDBRANCH   2  15
TORSDOF 8
ENDMDL
MODEL      167
REMARK 921   NORMALIZED FREE ENERGY PREDICTED BY IDOCK:   -0.54 KCAL/MOL
REMARK 922        TOTAL FREE ENERGY PREDICTED BY IDOCK:   -1.97 KCAL/MOL
REMARK 923 INTER-LIGAND FREE ENERGY PREDICTED BY IDOCK:   -1.93 KCAL/MOL
REMARK 924 INTRA-LIGAND FREE ENERGY PREDICTED BY IDOCK:   -0.03 KCAL/MOL
REMARK 927      BINDING AFFINITY PREDICTED BY RF-SCORE:    0.00 PKD
ROOT
HETATM    1  C   UNL     1     -10.620  12.926  64.405  1.00  0.00    -0.418 C  
HETATM    2  C   UNL     1     -10.217  12.855  65.902  1.00  0.00    -0.299 C  
HETATM    3  C   UNL     1     -11.556  12.893  66.696  1.00  0.00    -0.428 C  
ENDROOT
BRANCH   2   4
HETATM    4  C   UNL     1      -9.364  14.092  66.306  1.00  0.00    -0.215 A  
HETATM    5  C   UNL     1      -9.947  15.309  66.717  1.00  0.00    -0.249 A  
HETATM    6  C   UNL     1      -9.160  16.395  67.120  1.00  0.00    -0.220 A  
HETATM    7  C   UNL     1      -7.959  14.032  66.290  1.00  0.00     1.542 A  
HETATM    8  C   UNL     1      -7.176  15.109  66.724  1.00  0.00     0.542 A  
HETATM    9  C   UNL     1      -7.769  16.301  67.122  1.00  0.00    -0.188 A  
BRANCH   9  10
HETATM   10  O   UNL     1      -7.102  17.427  67.522  1.00  0.00    -0.158 OA 
BRANCH  10  11
HETATM   11  C   UNL     1      -5.693  17.426  67.287  1.00  0.00    -0.138 C  
BRANCH  11  12
HETATM   12  C   UNL     1      -5.203  18.832  67.355  1.00  0.00    -0.155 C  
HETATM   13  O   UNL     1      -6.218  19.832  67.189  1.00  0.00    -0.184 OA 
HETATM   14  C   UNL     1      -5.230  19.732  66.151  1.00  0.00    -0.163 C  
ENDBRANCH  11  12
ENDBRANCH  10  11
ENDBRANCH   9  10
ENDBRANCH   2   4
BRANCH   2  15
HETATM   15  C   UNL     1      -9.478  11.506  66.084  1.00  0.00    -0.239 A  
HETATM   16  C   UNL     1      -9.509   9.133  66.695  1.00  0.00    -0.242 A  
HETATM   17  C   UNL     1      -8.121   9.065  66.634  1.00  0.00    -0.107 A  
HETATM   18  C   UNL     1     -10.176  10.331  66.413  1.00  0.00    -0.290 A  
HETATM   19  C   UNL     1      -8.072  11.421  66.054  1.00  0.00     0.053 A  
HETATM   20  C   UNL     1      -7.405  10.217  66.325  1.00  0.00    -0.118 A  
BRANCH  17  21
HETATM   21  O   UNL     1      -7.368   7.945  66.859  1.00  0.00    -0.086 OA 
BRANCH  21  22
HETATM   22  C   UNL     1      -7.766   6.778  66.134  1.00  0.00    -0.091 C  
BRANCH  22  23
HETATM   23  C   UNL     1      -6.565   6.188  65.474  1.00  0.00    -0.047 C  
HETATM   24  C   UNL     1      -5.214   6.842  65.548  1.00  0.00    -0.023 C  
HETATM   25  O   UNL     1      -5.556   5.724  66.381  1.00  0.00    -0.012 OA 
ENDBRANCH  22  23
ENDBRANCH  21  22
ENDBRANCH  17  21
ENDBRANCH   2  15
TORSDOF 8
ENDMDL
MODEL      168
REMARK 921   NORMALIZED FREE ENERGY PREDICTED BY IDOCK:   -0.36 KCAL/MOL
REMARK 922        TOTAL FREE ENERGY PREDICTED BY IDOCK:   -1.70 KCAL/MOL
REMARK 923 INTER-LIGAND FREE ENERGY PREDICTED BY IDOCK:   -1.97 KCAL/MOL
REMARK 924 INTRA-LIGAND FREE ENERGY PREDICTED BY IDOCK:    0.27 KCAL/MOL
REMARK 927      BINDING AFFINITY PREDICTED BY RF-SCORE:    0.00 PKD
ROOT
HETATM    1  C   UNL     1     -10.556  13.118  65.851  1.00  0.00    -0.290 C  
HETATM    2  C   UNL     1      -9.153  12.898  66.475  1.00  0.00    -0.138 C  
HETATM    3  C   UNL     1      -8.208  12.586  65.277  1.00  0.00     2.389 C  
ENDROOT
BRANCH   2   4
HETATM    4  C   UNL     1      -9.160  11.673  67.436  1.00  0.00    -0.169 A  
HETATM    5  C   UNL     1     -10.224  11.418  68.324  1.00  0.00    -0.204 A  
HETATM    6  C   UNL     1     -10.231  10.285  69.148  1.00  0.00    -0.234 A  
HETATM    7  C   UNL     1      -8.093  10.756  67.438  1.00  0.00    -0.112 A  
HETATM    8  C   UNL     1      -8.119   9.607  68.239  1.00  0.00    -0.105 A  
HETATM    9  C   UNL     1      -9.176   9.375  69.111  1.00  0.00    -0.155 A  
BRANCH   9  10
HETATM   10  O   UNL     1      -9.282   8.313  69.968  1.00  0.00    -0.150 OA 
BRANCH  10  11
HETATM   11  C   UNL     1     -10.379   7.432  69.725  1.00  0.00    -0.222 C  
BRANCH  11  12
HETATM   12  C   UNL     1      -9.997   6.493  68.632  1.00  0.00    -0.146 C  
HETATM   13  O   UNL     1      -9.173   7.066  67.607  1.00  0.00    -0.122 OA 
HETATM   14  C   UNL     1     -10.503   6.675  67.228  1.00  0.00    -0.275 C  
ENDBRANCH  11  12
ENDBRANCH  10  11
ENDBRANCH   9  10
ENDBRANCH   2   4
BRANCH   2  15
HETATM   15  C   UNL     1      -8.778  14.230  67.172  1.00  0.00    -0.243 A  
HETATM   16  C   UNL     1      -7.262  16.137  67.431  1.00  0.00    -0.213 A  
HETATM   17  C   UNL     1      -7.942  16.566  68.567  1.00  0.00    -0.216 A  
HETATM   18  C   UNL     1      -7.681  14.995  66.739  1.00  0.00     0.174 A  
HETATM   19  C   UNL     1      -9.436  14.667  68.339  1.00  0.00    -0.209 A  
HETATM   20  C   UNL     1      -9.022  15.818  69.024  1.00  0.00    -0.246 A  
BRANCH  17  21
HETATM   21  O   UNL     1      -7.641  17.680  69.302  1.00  0.00    -0.117 OA 
BRANCH  21  22
HETATM   22  C   UNL     1      -8.041  18.926  68.726  1.00  0.00    -0.319 C  
BRANCH  22  23
HETATM   23  C   UNL     1      -6.823  19.676  68.305  1.00  0.00    -0.289 C  
HETATM   24  C   UNL     1      -5.441  19.237  68.701  1.00  0.00    -0.195 C  
HETATM   25  O   UNL     1      -5.972  18.965  67.395  1.00  0.00    -0.167 OA 
ENDBRANCH  22  23
ENDBRANCH  21  22
ENDBRANCH  17  21
ENDBRANCH   2  15
TORSDOF 8
ENDMDL
MODEL      169
REMARK 921   NORMALIZED FREE ENERGY PREDICTED BY IDOCK:   -0.01 KCAL/MOL
REMARK 922        TOTAL FREE ENERGY PREDICTED BY IDOCK:   -1.19 KCAL/MOL
REMARK 923 INTER-LIGAND FREE ENERGY PREDICTED BY IDOCK:   -1.86 KCAL/MOL
REMARK 924 INTRA-LIGAND FREE ENERGY PREDICTED BY IDOCK:    0.67 KCAL/MOL
REMARK 927      BINDING AFFINITY PREDICTED BY RF-SCORE:    0.00 PKD
ROOT
HETATM    1  C   UNL     1      -7.778   7.389  69.017  1.00  0.00    -0.118 C  
HETATM    2  C   UNL     1      -6.869   6.142  68.852  1.00  0.00    -0.066 C  
HETATM    3  C   UNL     1      -5.434   6.699  68.618  1.00  0.00    -0.016 C  
ENDROOT
BRANCH   2   4
HETATM    4  C   UNL     1      -7.289   5.311  67.605  1.00  0.00    -0.076 A  
HETATM    5  C   UNL     1      -8.083   5.851  66.572  1.00  0.00    -0.102 A  
HETATM    6  C   UNL     1      -8.411   5.100  65.436  1.00  0.00    -0.141 A  
HETATM    7  C   UNL     1      -6.871   3.976  67.457  1.00  0.00    -0.051 A  
HETATM    8  C   UNL     1      -7.174   3.239  66.305  1.00  0.00    -0.067 A  
HETATM    9  C   UNL     1      -7.961   3.788  65.299  1.00  0.00    -0.093 A  
BRANCH   9  10
HETATM   10  O   UNL     1      -8.354   3.145  64.156  1.00  0.00    -0.089 OA 
BRANCH  10  11
HETATM   11  C   UNL     1      -8.072   3.830  62.936  1.00  0.00    -0.076 C  
BRANCH  11  12
HETATM   12  C   UNL     1      -6.593   3.886  62.757  1.00  0.00    -0.026 C  
HETATM   13  O   UNL     1      -5.895   4.648  63.752  1.00  0.00    -0.016 OA 
HETATM   14  C   UNL     1      -5.892   5.171  62.414  1.00  0.00    -0.014 C  
ENDBRANCH  11  12
ENDBRANCH  10  11
ENDBRANCH   9  10
ENDBRANCH   2   4
BRANCH   2  15
HETATM   15  C   UNL     1      -6.971   5.356  70.184  1.00  0.00    -0.057 A  
HETATM   16  C   UNL     1      -6.958   3.229  71.400  1.00  0.00    -0.032 A  
HETATM   17  C   UNL     1      -7.363   3.860  72.572  1.00  0.00    -0.062 A  
HETATM   18  C   UNL     1      -6.754   3.968  70.229  1.00  0.00    -0.033 A  
HETATM   19  C   UNL     1      -7.407   5.970  71.375  1.00  0.00    -0.084 A  
HETATM   20  C   UNL     1      -7.599   5.230  72.551  1.00  0.00    -0.097 A  
BRANCH  17  21
HETATM   21  O   UNL     1      -7.563   3.245  73.779  1.00  0.00    -0.058 OA 
BRANCH  21  22
HETATM   22  C   UNL     1      -8.740   2.437  73.872  1.00  0.00    -0.070 C  
BRANCH  22  23
HETATM   23  C   UNL     1      -9.861   3.277  74.386  1.00  0.00    -0.123 C  
HETATM   24  C   UNL     1     -10.970   3.758  73.493  1.00  0.00    -0.247 C  
HETATM   25  O   UNL     1     -11.142   2.633  74.369  1.00  0.00    -0.047 OA 
ENDBRANCH  22  23
ENDBRANCH  21  22
ENDBRANCH  17  21
ENDBRANCH   2  15
TORSDOF 8
ENDMDL
MODEL      170
REMARK 921   NORMALIZED FREE ENERGY PREDICTED BY IDOCK:    1.85 KCAL/MOL
REMARK 922        TOTAL FREE ENERGY PREDICTED BY IDOCK:    1.55 KCAL/MOL
REMARK 923 INTER-LIGAND FREE ENERGY PREDICTED BY IDOCK:    2.23 KCAL/MOL
REMARK 924 INTRA-LIGAND FREE ENERGY PREDICTED BY IDOCK:   -0.68 KCAL/MOL
REMARK 927      BINDING AFFINITY PREDICTED BY RF-SCORE:    0.00 PKD
ROOT
HETATM    1  C   UNL     1      -5.783  18.109  70.405  1.00  0.00    -0.167 C  
HETATM    2  C   UNL     1      -7.206  18.523  69.942  1.00  0.00     0.546 C  
HETATM    3  C   UNL     1      -7.785  19.390  71.098  1.00  0.00     2.730 C  
ENDROOT
BRANCH   2   4
HETATM    4  C   UNL     1      -8.113  17.272  69.756  1.00  0.00     1.148 A  
HETATM    5  C   UNL     1      -9.418  17.359  69.229  1.00  0.00     0.083 A  
HETATM    6  C   UNL     1     -10.201  16.215  69.027  1.00  0.00    -0.250 A  
HETATM    7  C   UNL     1      -7.647  15.989  70.097  1.00  0.00     0.874 A  
HETATM    8  C   UNL     1      -8.420  14.845  69.863  1.00  0.00     0.333 A  
HETATM    9  C   UNL     1      -9.706  14.952  69.346  1.00  0.00    -0.091 A  
BRANCH   9  10
HETATM   10  O   UNL     1     -10.562  13.909  69.120  1.00  0.00    -0.201 OA 
BRANCH  10  11
HETATM   11  C   UNL     1     -11.240  13.406  70.272  1.00  0.00     0.436 C  
BRANCH  11  12
HETATM   12  C   UNL     1     -12.336  14.353  70.625  1.00  0.00    -0.351 C  
HETATM   13  O   UNL     1     -12.325  14.803  71.987  1.00  0.00    -0.329 OA 
HETATM   14  C   UNL     1     -13.424  13.969  71.589  1.00  0.00    -0.361 C  
ENDBRANCH  11  12
ENDBRANCH  10  11
ENDBRANCH   9  10
ENDBRANCH   2   4
BRANCH   2  15
HETATM   15  C   UNL     1      -7.012  19.348  68.645  1.00  0.00    -0.351 A  
HETATM   16  C   UNL     1      -7.958  20.634  66.786  1.00  0.00    -0.182 A  
HETATM   17  C   UNL     1      -6.722  20.686  66.150  1.00  0.00    -0.214 A  
HETATM   18  C   UNL     1      -8.097  19.985  68.019  1.00  0.00    -0.270 A  
HETATM   19  C   UNL     1      -5.776  19.390  67.971  1.00  0.00    -0.211 A  
HETATM   20  C   UNL     1      -5.635  20.051  66.742  1.00  0.00    -0.178 A  
BRANCH  17  21
HETATM   21  O   UNL     1      -6.463  21.316  64.963  1.00  0.00    -0.087 OA 
BRANCH  21  22
HETATM   22  C   UNL     1      -5.135  21.156  64.456  1.00  0.00    -0.194 C  
BRANCH  22  23
HETATM   23  C   UNL     1      -5.210  20.847  62.999  1.00  0.00    -0.194 C  
HETATM   24  C   UNL     1      -5.470  19.456  62.493  1.00  0.00    -0.278 C  
HETATM   25  O   UNL     1      -6.509  20.446  62.542  1.00  0.00    -0.015 OA 
ENDBRANCH  22  23
ENDBRANCH  21  22
ENDBRANCH  17  21
ENDBRANCH   2  15
TORSDOF 8
ENDMDL
MODEL      171
REMARK 921   NORMALIZED FREE ENERGY PREDICTED BY IDOCK:    4.61 KCAL/MOL
REMARK 922        TOTAL FREE ENERGY PREDICTED BY IDOCK:    5.60 KCAL/MOL
REMARK 923 INTER-LIGAND FREE ENERGY PREDICTED BY IDOCK:    3.37 KCAL/MOL
REMARK 924 INTRA-LIGAND FREE ENERGY PREDICTED BY IDOCK:    2.23 KCAL/MOL
REMARK 927      BINDING AFFINITY PREDICTED BY RF-SCORE:    0.00 PKD
ROOT
HETATM    1  C   UNL     1     -12.125   8.375  68.805  1.00  0.00     2.859 C  
HETATM    2  C   UNL     1     -10.577   8.352  68.691  1.00  0.00    -0.149 C  
HETATM    3  C   UNL     1     -10.272   7.810  67.264  1.00  0.00    -0.343 C  
ENDROOT
BRANCH   2   4
HETATM    4  C   UNL     1      -9.959   7.378  69.736  1.00  0.00    -0.188 A  
HETATM    5  C   UNL     1      -8.649   6.872  69.613  1.00  0.00    -0.134 A  
HETATM    6  C   UNL     1      -8.096   6.033  70.588  1.00  0.00    -0.116 A  
HETATM    7  C   UNL     1     -10.694   6.976  70.866  1.00  0.00    -0.259 A  
HETATM    8  C   UNL     1     -10.127   6.163  71.855  1.00  0.00    -0.216 A  
HETATM    9  C   UNL     1      -8.835   5.671  71.714  1.00  0.00    -0.136 A  
BRANCH   9  10
HETATM   10  O   UNL     1      -8.199   4.837  72.593  1.00  0.00    -0.108 OA 
BRANCH  10  11
HETATM   11  C   UNL     1      -9.036   3.891  73.259  1.00  0.00    -0.106 C  
BRANCH  11  12
HETATM   12  C   UNL     1     -10.458   4.245  72.987  1.00  0.00    -0.180 C  
HETATM   13  O   UNL     1     -11.420   3.334  73.537  1.00  0.00    -0.204 OA 
HETATM   14  C   UNL     1     -11.325   3.390  72.105  1.00  0.00     1.458 C  
ENDBRANCH  11  12
ENDBRANCH  10  11
ENDBRANCH   9  10
ENDBRANCH   2   4
BRANCH   2  15
HETATM   15  C   UNL     1     -10.112   9.820  68.861  1.00  0.00    -0.194 A  
HETATM   16  C   UNL     1      -8.318  11.489  68.889  1.00  0.00    -0.005 A  
HETATM   17  C   UNL     1      -9.187  12.462  69.373  1.00  0.00     1.214 A  
HETATM   18  C   UNL     1      -8.777  10.193  68.627  1.00  0.00    -0.128 A  
HETATM   19  C   UNL     1     -10.968  10.814  69.376  1.00  0.00    -0.305 A  
HETATM   20  C   UNL     1     -10.510  12.115  69.627  1.00  0.00     0.608 A  
BRANCH  17  21
HETATM   21  O   UNL     1      -8.857  13.765  69.635  1.00  0.00     0.872 OA 
BRANCH  21  22
HETATM   22  C   UNL     1      -9.887  14.724  69.387  1.00  0.00    -0.062 C  
BRANCH  22  23
HETATM   23  C   UNL     1      -9.916  15.034  67.928  1.00  0.00    -0.222 C  
HETATM   24  C   UNL     1     -10.054  13.958  66.888  1.00  0.00    -0.260 C  
HETATM   25  O   UNL     1     -11.171  14.766  67.288  1.00  0.00    -0.324 OA 
ENDBRANCH  22  23
ENDBRANCH  21  22
ENDBRANCH  17  21
ENDBRANCH   2  15
TORSDOF 8
ENDMDL
MODEL      172
REMARK 921   NORMALIZED FREE ENERGY PREDICTED BY IDOCK:    4.64 KCAL/MOL
REMARK 922        TOTAL FREE ENERGY PREDICTED BY IDOCK:    5.64 KCAL/MOL
REMARK 923 INTER-LIGAND FREE ENERGY PREDICTED BY IDOCK:    4.10 KCAL/MOL
REMARK 924 INTRA-LIGAND FREE ENERGY PREDICTED BY IDOCK:    1.54 KCAL/MOL
REMARK 927      BINDING AFFINITY PREDICTED BY RF-SCORE:    0.00 PKD
ROOT
HETATM    1  C   UNL     1     -11.251  12.520  63.069  1.00  0.00     0.167 C  
HETATM    2  C   UNL     1     -11.135  11.502  64.235  1.00  0.00    -0.385 C  
HETATM    3  C   UNL     1     -12.496  10.746  64.265  1.00  0.00     3.373 C  
ENDROOT
BRANCH   2   4
HETATM    4  C   UNL     1     -10.944  12.235  65.594  1.00  0.00    -0.338 A  
HETATM    5  C   UNL     1     -12.027  12.555  66.438  1.00  0.00    -0.386 A  
HETATM    6  C   UNL     1     -11.828  13.174  67.679  1.00  0.00    -0.405 A  
HETATM    7  C   UNL     1      -9.659  12.593  66.042  1.00  0.00    -0.190 A  
HETATM    8  C   UNL     1      -9.461  13.183  67.297  1.00  0.00    -0.225 A  
HETATM    9  C   UNL     1     -10.542  13.494  68.113  1.00  0.00    -0.245 A  
BRANCH   9  10
HETATM   10  O   UNL     1     -10.468  14.109  69.333  1.00  0.00    -0.126 OA 
BRANCH  10  11
HETATM   11  C   UNL     1      -9.176  14.592  69.703  1.00  0.00     0.455 C  
BRANCH  11  12
HETATM   12  C   UNL     1      -8.896  15.832  68.924  1.00  0.00    -0.220 C  
HETATM   13  O   UNL     1      -9.683  15.986  67.735  1.00  0.00    -0.219 OA 
HETATM   14  C   UNL     1      -8.273  15.777  67.557  1.00  0.00    -0.162 C  
ENDBRANCH  11  12
ENDBRANCH  10  11
ENDBRANCH   9  10
ENDBRANCH   2   4
BRANCH   2  15
HETATM   15  C   UNL     1      -9.961  10.560  63.868  1.00  0.00    -0.348 A  
HETATM   16  C   UNL     1      -7.722  10.223  62.931  1.00  0.00    -0.150 A  
HETATM   17  C   UNL     1      -7.872   8.841  62.985  1.00  0.00    -0.138 A  
HETATM   18  C   UNL     1      -8.747  11.068  63.375  1.00  0.00    -0.017 A  
HETATM   19  C   UNL     1     -10.101   9.158  63.890  1.00  0.00     2.782 A  
HETATM   20  C   UNL     1      -9.070   8.313  63.454  1.00  0.00     1.084 A  
BRANCH  17  21
HETATM   21  O   UNL     1      -6.929   7.923  62.607  1.00  0.00    -0.083 OA 
BRANCH  21  22
HETATM   22  C   UNL     1      -5.677   8.006  63.294  1.00  0.00    -0.059 C  
BRANCH  22  23
HETATM   23  C   UNL     1      -5.239   6.629  63.663  1.00  0.00    -0.026 C  
HETATM   24  C   UNL     1      -6.171   5.452  63.597  1.00  0.00    -0.022 C  
HETATM   25  O   UNL     1      -5.201   5.703  62.569  1.00  0.00    -0.013 OA 
ENDBRANCH  22  23
ENDBRANCH  21  22
ENDBRANCH  17  21
ENDBRANCH   2  15
TORSDOF 8
ENDMDL
