MODEL        1
REMARK 921   NORMALIZED FREE ENERGY PREDICTED BY IDOCK:   -7.34 KCAL/MOL
REMARK 922        TOTAL FREE ENERGY PREDICTED BY IDOCK:   -9.96 KCAL/MOL
REMARK 923 INTER-LIGAND FREE ENERGY PREDICTED BY IDOCK:   -8.63 KCAL/MOL
REMARK 924 INTRA-LIGAND FREE ENERGY PREDICTED BY IDOCK:   -1.33 KCAL/MOL
REMARK 927      BINDING AFFINITY PREDICTED BY RF-SCORE:    0.00 PKD
ROOT
HETATM    1 CL   UNL     1     -10.216  11.901  63.271  1.00  0.00    -0.454 Cl 
HETATM    2  C   UNL     1     -10.670  12.393  64.854  1.00  0.00    -0.294 A  
HETATM    3  C   UNL     1      -9.771  12.270  65.904  1.00  0.00    -0.247 A  
HETATM    4  C   UNL     1     -10.155  12.647  67.199  1.00  0.00    -0.224 A  
HETATM    5  C   UNL     1     -11.458  13.107  67.490  1.00  0.00    -0.371 A  
HETATM    6  C   UNL     1     -11.944  12.892  65.087  1.00  0.00    -0.452 A  
HETATM    7  C   UNL     1     -12.337  13.216  66.392  1.00  0.00    -0.300 A  
ENDROOT
BRANCH   5   8
HETATM    8  C   UNL     1     -11.896  13.352  68.903  1.00  0.00    -0.373 A  
HETATM    9  C   UNL     1     -12.191  14.629  69.451  1.00  0.00    -0.235 A  
HETATM   10  C   UNL     1     -12.716  14.746  70.752  1.00  0.00    -0.422 A  
HETATM   11  C   UNL     1     -12.145  12.237  69.738  1.00  0.00    -0.298 A  
HETATM   12  C   UNL     1     -12.909  13.625  71.551  1.00  0.00    -0.445 A  
HETATM   13  C   UNL     1     -12.618  12.367  71.047  1.00  0.00    -0.349 A  
BRANCH   9  14
HETATM   14  N   UNL     1     -11.853  15.815  68.756  1.00  0.00    -0.499 N  
HETATM   15  O   UNL     1      -9.657  16.044  69.458  1.00  0.00    -0.254 OA 
HETATM   16  H   UNL     1     -12.588  16.280  68.223  1.00  0.00     0.000 HD 
HETATM   17  C   UNL     1     -10.590  16.388  68.751  1.00  0.00    -0.310 C  
BRANCH  17  18
HETATM   18  C   UNL     1     -10.421  17.588  67.895  1.00  0.00    -0.384 A  
HETATM   19  C   UNL     1     -10.363  17.555  66.508  1.00  0.00    -0.325 A  
HETATM   20 CL   UNL     1     -10.462  16.114  65.570  1.00  0.00    -0.405 Cl 
HETATM   21  N   UNL     1     -10.186  18.651  65.732  1.00  0.00    -0.555 NA 
HETATM   22  C   UNL     1     -10.036  19.834  66.356  1.00  0.00    -0.470 A  
HETATM   23  C   UNL     1     -10.067  19.978  67.735  1.00  0.00    -0.563 A  
HETATM   24  C   UNL     1     -10.262  18.838  68.515  1.00  0.00    -0.397 A  
ENDBRANCH  17  18
ENDBRANCH   9  14
ENDBRANCH   5   8
TORSDOF 3
ENDMDL
MODEL        2
REMARK 921   NORMALIZED FREE ENERGY PREDICTED BY IDOCK:   -7.10 KCAL/MOL
REMARK 922        TOTAL FREE ENERGY PREDICTED BY IDOCK:   -9.67 KCAL/MOL
REMARK 923 INTER-LIGAND FREE ENERGY PREDICTED BY IDOCK:   -8.70 KCAL/MOL
REMARK 924 INTRA-LIGAND FREE ENERGY PREDICTED BY IDOCK:   -0.97 KCAL/MOL
REMARK 927      BINDING AFFINITY PREDICTED BY RF-SCORE:    0.00 PKD
ROOT
HETATM    1 CL   UNL     1      -7.515  19.376  68.904  1.00  0.00    -0.394 Cl 
HETATM    2  C   UNL     1      -8.459  18.085  68.274  1.00  0.00    -0.287 A  
HETATM    3  C   UNL     1      -7.990  16.781  68.348  1.00  0.00    -0.224 A  
HETATM    4  C   UNL     1      -8.751  15.735  67.808  1.00  0.00    -0.173 A  
HETATM    5  C   UNL     1      -9.971  15.965  67.137  1.00  0.00    -0.240 A  
HETATM    6  C   UNL     1      -9.680  18.350  67.669  1.00  0.00    -0.306 A  
HETATM    7  C   UNL     1     -10.408  17.305  67.085  1.00  0.00    -0.321 A  
ENDROOT
BRANCH   5   8
HETATM    8  C   UNL     1     -10.688  14.854  66.429  1.00  0.00    -0.316 A  
HETATM    9  C   UNL     1     -11.856  14.205  66.911  1.00  0.00    -0.431 A  
HETATM   10  C   UNL     1     -12.529  13.258  66.116  1.00  0.00    -0.335 A  
HETATM   11  C   UNL     1     -10.251  14.482  65.135  1.00  0.00    -0.420 A  
HETATM   12  C   UNL     1     -12.042  12.896  64.865  1.00  0.00    -0.479 A  
HETATM   13  C   UNL     1     -10.897  13.504  64.374  1.00  0.00    -0.403 A  
BRANCH   9  14
HETATM   14  N   UNL     1     -12.300  14.399  68.241  1.00  0.00    -0.597 N  
HETATM   15  O   UNL     1     -11.047  12.760  69.295  1.00  0.00    -0.217 OA 
HETATM   16  H   UNL     1     -13.034  15.089  68.401  1.00  0.00     0.000 HD 
HETATM   17  C   UNL     1     -11.805  13.715  69.341  1.00  0.00    -0.339 C  
BRANCH  17  18
HETATM   18  C   UNL     1     -12.347  14.122  70.661  1.00  0.00    -0.435 A  
HETATM   19  C   UNL     1     -12.935  13.248  71.565  1.00  0.00    -0.337 A  
HETATM   20 CL   UNL     1     -13.139  11.561  71.286  1.00  0.00    -0.369 Cl 
HETATM   21  N   UNL     1     -13.449  13.626  72.760  1.00  0.00    -0.653 NA 
HETATM   22  C   UNL     1     -13.402  14.936  73.066  1.00  0.00    -0.454 A  
HETATM   23  C   UNL     1     -12.847  15.895  72.231  1.00  0.00    -0.503 A  
HETATM   24  C   UNL     1     -12.313  15.481  71.012  1.00  0.00    -0.471 A  
ENDBRANCH  17  18
ENDBRANCH   9  14
ENDBRANCH   5   8
TORSDOF 3
ENDMDL
MODEL        3
REMARK 921   NORMALIZED FREE ENERGY PREDICTED BY IDOCK:   -6.88 KCAL/MOL
REMARK 922        TOTAL FREE ENERGY PREDICTED BY IDOCK:   -9.42 KCAL/MOL
REMARK 923 INTER-LIGAND FREE ENERGY PREDICTED BY IDOCK:   -8.76 KCAL/MOL
REMARK 924 INTRA-LIGAND FREE ENERGY PREDICTED BY IDOCK:   -0.65 KCAL/MOL
REMARK 927      BINDING AFFINITY PREDICTED BY RF-SCORE:    0.00 PKD
ROOT
HETATM    1 CL   UNL     1     -14.022  15.532  72.130  1.00  0.00    -0.607 Cl 
HETATM    2  C   UNL     1     -13.397  14.018  71.610  1.00  0.00    -0.367 A  
HETATM    3  C   UNL     1     -13.770  12.851  72.263  1.00  0.00    -0.553 A  
HETATM    4  C   UNL     1     -13.236  11.622  71.852  1.00  0.00    -0.475 A  
HETATM    5  C   UNL     1     -12.280  11.527  70.818  1.00  0.00    -0.463 A  
HETATM    6  C   UNL     1     -12.500  13.964  70.552  1.00  0.00    -0.422 A  
HETATM    7  C   UNL     1     -11.931  12.738  70.183  1.00  0.00    -0.371 A  
ENDROOT
BRANCH   5   8
HETATM    8  C   UNL     1     -11.604  10.226  70.503  1.00  0.00    -0.424 A  
HETATM    9  C   UNL     1     -11.141   9.842  69.216  1.00  0.00    -0.181 A  
HETATM   10  C   UNL     1     -10.407   8.655  69.044  1.00  0.00    -0.226 A  
HETATM   11  C   UNL     1     -11.297   9.347  71.569  1.00  0.00    -0.464 A  
HETATM   12  C   UNL     1     -10.160   7.802  70.114  1.00  0.00    -0.197 A  
HETATM   13  C   UNL     1     -10.611   8.144  71.380  1.00  0.00    -0.269 A  
BRANCH   9  14
HETATM   14  N   UNL     1     -11.509  10.575  68.062  1.00  0.00    -0.456 N  
HETATM   15  O   UNL     1      -9.486  11.614  67.621  1.00  0.00    -0.172 OA 
HETATM   16  H   UNL     1     -12.484  10.536  67.764  1.00  0.00     0.000 HD 
HETATM   17  C   UNL     1     -10.633  11.343  67.309  1.00  0.00    -0.227 C  
BRANCH  17  18
HETATM   18  C   UNL     1     -11.199  11.970  66.089  1.00  0.00    -0.394 A  
HETATM   19  C   UNL     1     -10.925  11.546  64.795  1.00  0.00    -0.273 A  
HETATM   20 CL   UNL     1      -9.875  10.236  64.409  1.00  0.00    -0.396 Cl 
HETATM   21  N   UNL     1     -11.426  12.135  63.683  1.00  0.00    -0.451 NA 
HETATM   22  C   UNL     1     -12.217  13.210  63.856  1.00  0.00    -0.433 A  
HETATM   23  C   UNL     1     -12.545  13.724  65.102  1.00  0.00    -0.471 A  
HETATM   24  C   UNL     1     -12.028  13.094  66.233  1.00  0.00    -0.473 A  
ENDBRANCH  17  18
ENDBRANCH   9  14
ENDBRANCH   5   8
TORSDOF 3
ENDMDL
MODEL        4
REMARK 921   NORMALIZED FREE ENERGY PREDICTED BY IDOCK:   -6.82 KCAL/MOL
REMARK 922        TOTAL FREE ENERGY PREDICTED BY IDOCK:   -9.35 KCAL/MOL
REMARK 923 INTER-LIGAND FREE ENERGY PREDICTED BY IDOCK:   -8.09 KCAL/MOL
REMARK 924 INTRA-LIGAND FREE ENERGY PREDICTED BY IDOCK:   -1.26 KCAL/MOL
REMARK 927      BINDING AFFINITY PREDICTED BY RF-SCORE:    0.00 PKD
ROOT
HETATM    1 CL   UNL     1     -10.684  11.122  65.955  1.00  0.00    -0.300 Cl 
HETATM    2  C   UNL     1     -10.446  12.806  66.200  1.00  0.00    -0.267 A  
HETATM    3  C   UNL     1      -9.213  13.278  66.630  1.00  0.00    -0.222 A  
HETATM    4  C   UNL     1      -9.032  14.650  66.855  1.00  0.00    -0.275 A  
HETATM    5  C   UNL     1     -10.084  15.579  66.708  1.00  0.00    -0.268 A  
HETATM    6  C   UNL     1     -11.493  13.693  65.993  1.00  0.00    -0.340 A  
HETATM    7  C   UNL     1     -11.319  15.055  66.271  1.00  0.00    -0.273 A  
ENDROOT
BRANCH   5   8
HETATM    8  C   UNL     1      -9.913  17.014  67.107  1.00  0.00    -0.281 A  
HETATM    9  C   UNL     1     -10.315  17.564  68.353  1.00  0.00    -0.378 A  
HETATM   10  C   UNL     1      -9.998  18.894  68.686  1.00  0.00    -0.470 A  
HETATM   11  C   UNL     1      -9.203  17.879  66.239  1.00  0.00    -0.204 A  
HETATM   12  C   UNL     1      -9.332  19.719  67.786  1.00  0.00    -0.443 A  
HETATM   13  C   UNL     1      -8.938  19.214  66.557  1.00  0.00    -0.359 A  
BRANCH   9  14
HETATM   14  N   UNL     1     -11.146  16.833  69.237  1.00  0.00    -0.300 N  
HETATM   15  O   UNL     1      -9.557  15.420  70.157  1.00  0.00    -0.140 OA 
HETATM   16  H   UNL     1     -12.147  17.027  69.218  1.00  0.00     0.000 HD 
HETATM   17  C   UNL     1     -10.690  15.872  70.126  1.00  0.00    -0.332 C  
BRANCH  17  18
HETATM   18  C   UNL     1     -11.711  15.276  71.023  1.00  0.00    -0.394 A  
HETATM   19  C   UNL     1     -12.277  14.022  70.836  1.00  0.00    -0.362 A  
HETATM   20 CL   UNL     1     -11.891  12.973  69.525  1.00  0.00    -0.380 Cl 
HETATM   21  N   UNL     1     -13.225  13.490  71.644  1.00  0.00    -0.373 NA 
HETATM   22  C   UNL     1     -13.653  14.244  72.674  1.00  0.00    -0.501 A  
HETATM   23  C   UNL     1     -13.163  15.513  72.945  1.00  0.00    -0.633 A  
HETATM   24  C   UNL     1     -12.179  16.035  72.107  1.00  0.00    -0.597 A  
ENDBRANCH  17  18
ENDBRANCH   9  14
ENDBRANCH   5   8
TORSDOF 3
ENDMDL
MODEL        5
REMARK 921   NORMALIZED FREE ENERGY PREDICTED BY IDOCK:   -6.79 KCAL/MOL
REMARK 922        TOTAL FREE ENERGY PREDICTED BY IDOCK:   -9.31 KCAL/MOL
REMARK 923 INTER-LIGAND FREE ENERGY PREDICTED BY IDOCK:   -8.79 KCAL/MOL
REMARK 924 INTRA-LIGAND FREE ENERGY PREDICTED BY IDOCK:   -0.52 KCAL/MOL
REMARK 927      BINDING AFFINITY PREDICTED BY RF-SCORE:    0.00 PKD
ROOT
HETATM    1 CL   UNL     1     -12.761  15.960  74.550  1.00  0.00    -0.556 Cl 
HETATM    2  C   UNL     1     -12.447  15.250  73.017  1.00  0.00    -0.422 A  
HETATM    3  C   UNL     1     -11.457  15.774  72.198  1.00  0.00    -0.444 A  
HETATM    4  C   UNL     1     -11.224  15.208  70.937  1.00  0.00    -0.324 A  
HETATM    5  C   UNL     1     -12.003  14.142  70.438  1.00  0.00    -0.400 A  
HETATM    6  C   UNL     1     -13.202  14.167  72.586  1.00  0.00    -0.612 A  
HETATM    7  C   UNL     1     -12.997  13.642  71.303  1.00  0.00    -0.399 A  
ENDROOT
BRANCH   5   8
HETATM    8  C   UNL     1     -11.842  13.659  69.027  1.00  0.00    -0.393 A  
HETATM    9  C   UNL     1     -11.502  12.330  68.658  1.00  0.00    -0.307 A  
HETATM   10  C   UNL     1     -11.498  11.941  67.305  1.00  0.00    -0.385 A  
HETATM   11  C   UNL     1     -12.155  14.544  67.968  1.00  0.00    -0.233 A  
HETATM   12  C   UNL     1     -11.774  12.855  66.295  1.00  0.00    -0.457 A  
HETATM   13  C   UNL     1     -12.098  14.162  66.625  1.00  0.00    -0.480 A  
BRANCH   9  14
HETATM   14  N   UNL     1     -11.041  11.403  69.623  1.00  0.00    -0.421 N  
HETATM   15  O   UNL     1     -13.053  10.378  70.144  1.00  0.00    -0.149 OA 
HETATM   16  H   UNL     1     -10.056  11.440  69.886  1.00  0.00     0.000 HD 
HETATM   17  C   UNL     1     -11.838  10.446  70.234  1.00  0.00    -0.312 C  
BRANCH  17  18
HETATM   18  C   UNL     1     -11.146   9.515  71.160  1.00  0.00    -0.450 A  
HETATM   19  C   UNL     1     -11.789   8.764  72.135  1.00  0.00    -0.366 A  
HETATM   20 CL   UNL     1     -13.486   8.811  72.429  1.00  0.00    -0.440 Cl 
HETATM   21  N   UNL     1     -11.152   7.932  72.993  1.00  0.00    -0.385 NA 
HETATM   22  C   UNL     1      -9.811   7.856  72.900  1.00  0.00    -0.282 A  
HETATM   23  C   UNL     1      -9.070   8.570  71.970  1.00  0.00    -0.317 A  
HETATM   24  C   UNL     1      -9.748   9.411  71.088  1.00  0.00    -0.257 A  
ENDBRANCH  17  18
ENDBRANCH   9  14
ENDBRANCH   5   8
TORSDOF 3
ENDMDL
MODEL        6
REMARK 921   NORMALIZED FREE ENERGY PREDICTED BY IDOCK:   -6.77 KCAL/MOL
REMARK 922        TOTAL FREE ENERGY PREDICTED BY IDOCK:   -9.29 KCAL/MOL
REMARK 923 INTER-LIGAND FREE ENERGY PREDICTED BY IDOCK:   -8.71 KCAL/MOL
REMARK 924 INTRA-LIGAND FREE ENERGY PREDICTED BY IDOCK:   -0.59 KCAL/MOL
REMARK 927      BINDING AFFINITY PREDICTED BY RF-SCORE:    0.00 PKD
ROOT
HETATM    1 CL   UNL     1     -12.661  16.208  74.414  1.00  0.00    -0.635 Cl 
HETATM    2  C   UNL     1     -12.464  15.328  72.951  1.00  0.00    -0.406 A  
HETATM    3  C   UNL     1     -13.232  14.198  72.711  1.00  0.00    -0.604 A  
HETATM    4  C   UNL     1     -13.048  13.468  71.528  1.00  0.00    -0.427 A  
HETATM    5  C   UNL     1     -12.061  13.814  70.580  1.00  0.00    -0.416 A  
HETATM    6  C   UNL     1     -11.518  15.735  72.019  1.00  0.00    -0.459 A  
HETATM    7  C   UNL     1     -11.304  14.969  70.866  1.00  0.00    -0.305 A  
ENDROOT
BRANCH   5   8
HETATM    8  C   UNL     1     -11.773  12.931  69.403  1.00  0.00    -0.382 A  
HETATM    9  C   UNL     1     -11.275  13.382  68.151  1.00  0.00    -0.273 A  
HETATM   10  C   UNL     1     -10.918  12.462  67.148  1.00  0.00    -0.304 A  
HETATM   11  C   UNL     1     -11.895  11.529  69.561  1.00  0.00    -0.419 A  
HETATM   12  C   UNL     1     -11.090  11.095  67.334  1.00  0.00    -0.370 A  
HETATM   13  C   UNL     1     -11.586  10.626  68.541  1.00  0.00    -0.279 A  
BRANCH   9  14
HETATM   14  N   UNL     1     -11.242  14.762  67.837  1.00  0.00    -0.293 N  
HETATM   15  O   UNL     1      -8.956  15.117  67.966  1.00  0.00    -0.168 OA 
HETATM   16  H   UNL     1     -12.133  15.242  67.707  1.00  0.00     0.000 HD 
HETATM   17  C   UNL     1     -10.080  15.505  67.692  1.00  0.00    -0.243 C  
BRANCH  17  18
HETATM   18  C   UNL     1     -10.257  16.920  67.281  1.00  0.00    -0.297 A  
HETATM   19  C   UNL     1     -10.633  17.321  66.006  1.00  0.00    -0.217 A  
HETATM   20 CL   UNL     1     -10.935  16.238  64.701  1.00  0.00    -0.357 Cl 
HETATM   21  N   UNL     1     -10.772  18.614  65.629  1.00  0.00    -0.508 NA 
HETATM   22  C   UNL     1     -10.504  19.559  66.549  1.00  0.00    -0.493 A  
HETATM   23  C   UNL     1     -10.112  19.269  67.848  1.00  0.00    -0.492 A  
HETATM   24  C   UNL     1      -9.987  17.930  68.218  1.00  0.00    -0.360 A  
ENDBRANCH  17  18
ENDBRANCH   9  14
ENDBRANCH   5   8
TORSDOF 3
ENDMDL
MODEL        7
REMARK 921   NORMALIZED FREE ENERGY PREDICTED BY IDOCK:   -6.73 KCAL/MOL
REMARK 922        TOTAL FREE ENERGY PREDICTED BY IDOCK:   -9.24 KCAL/MOL
REMARK 923 INTER-LIGAND FREE ENERGY PREDICTED BY IDOCK:   -7.92 KCAL/MOL
REMARK 924 INTRA-LIGAND FREE ENERGY PREDICTED BY IDOCK:   -1.33 KCAL/MOL
REMARK 927      BINDING AFFINITY PREDICTED BY RF-SCORE:    0.00 PKD
ROOT
HETATM    1 CL   UNL     1      -8.338   8.519  70.426  1.00  0.00    -0.117 Cl 
HETATM    2  C   UNL     1      -9.038   9.429  69.146  1.00  0.00    -0.148 A  
HETATM    3  C   UNL     1      -8.491  10.650  68.781  1.00  0.00    -0.149 A  
HETATM    4  C   UNL     1      -9.083  11.401  67.756  1.00  0.00    -0.158 A  
HETATM    5  C   UNL     1     -10.262  10.980  67.104  1.00  0.00    -0.243 A  
HETATM    6  C   UNL     1     -10.167   8.952  68.495  1.00  0.00    -0.223 A  
HETATM    7  C   UNL     1     -10.783   9.733  67.508  1.00  0.00    -0.327 A  
ENDROOT
BRANCH   5   8
HETATM    8  C   UNL     1     -10.966  11.871  66.124  1.00  0.00    -0.352 A  
HETATM    9  C   UNL     1     -11.827  12.944  66.477  1.00  0.00    -0.407 A  
HETATM   10  C   UNL     1     -12.343  13.803  65.489  1.00  0.00    -0.507 A  
HETATM   11  C   UNL     1     -10.683  11.720  64.746  1.00  0.00    -0.355 A  
HETATM   12  C   UNL     1     -12.068  13.594  64.142  1.00  0.00    -0.484 A  
HETATM   13  C   UNL     1     -11.241  12.547  63.767  1.00  0.00    -0.524 A  
BRANCH   9  14
HETATM   14  N   UNL     1     -12.285  13.103  67.807  1.00  0.00    -0.192 N  
HETATM   15  O   UNL     1     -10.602  14.474  68.618  1.00  0.00    -0.240 OA 
HETATM   16  H   UNL     1     -13.116  12.583  68.090  1.00  0.00     0.000 HD 
HETATM   17  C   UNL     1     -11.680  13.918  68.752  1.00  0.00    -0.357 C  
BRANCH  17  18
HETATM   18  C   UNL     1     -12.360  14.009  70.068  1.00  0.00    -0.397 A  
HETATM   19  C   UNL     1     -12.557  12.930  70.920  1.00  0.00    -0.270 A  
HETATM   20 CL   UNL     1     -12.054  11.320  70.574  1.00  0.00    -0.456 Cl 
HETATM   21  N   UNL     1     -13.198  13.013  72.110  1.00  0.00    -0.467 NA 
HETATM   22  C   UNL     1     -13.691  14.214  72.465  1.00  0.00    -0.522 A  
HETATM   23  C   UNL     1     -13.561  15.353  71.684  1.00  0.00    -0.603 A  
HETATM   24  C   UNL     1     -12.886  15.247  70.468  1.00  0.00    -0.421 A  
ENDBRANCH  17  18
ENDBRANCH   9  14
ENDBRANCH   5   8
TORSDOF 3
ENDMDL
MODEL        8
REMARK 921   NORMALIZED FREE ENERGY PREDICTED BY IDOCK:   -6.54 KCAL/MOL
REMARK 922        TOTAL FREE ENERGY PREDICTED BY IDOCK:   -9.02 KCAL/MOL
REMARK 923 INTER-LIGAND FREE ENERGY PREDICTED BY IDOCK:   -8.40 KCAL/MOL
REMARK 924 INTRA-LIGAND FREE ENERGY PREDICTED BY IDOCK:   -0.62 KCAL/MOL
REMARK 927      BINDING AFFINITY PREDICTED BY RF-SCORE:    0.00 PKD
ROOT
HETATM    1 CL   UNL     1     -12.244  11.731  63.293  1.00  0.00    -0.525 Cl 
HETATM    2  C   UNL     1     -11.766  12.936  64.422  1.00  0.00    -0.372 A  
HETATM    3  C   UNL     1     -12.702  13.492  65.283  1.00  0.00    -0.481 A  
HETATM    4  C   UNL     1     -12.313  14.494  66.182  1.00  0.00    -0.229 A  
HETATM    5  C   UNL     1     -10.997  15.003  66.214  1.00  0.00    -0.338 A  
HETATM    6  C   UNL     1     -10.448  13.370  64.457  1.00  0.00    -0.431 A  
HETATM    7  C   UNL     1     -10.080  14.409  65.322  1.00  0.00    -0.387 A  
ENDROOT
BRANCH   5   8
HETATM    8  C   UNL     1     -10.642  16.182  67.070  1.00  0.00    -0.292 A  
HETATM    9  C   UNL     1     -10.509  16.148  68.484  1.00  0.00    -0.269 A  
HETATM   10  C   UNL     1     -10.050  17.277  69.188  1.00  0.00    -0.252 A  
HETATM   11  C   UNL     1     -10.305  17.403  66.437  1.00  0.00    -0.317 A  
HETATM   12  C   UNL     1      -9.766  18.468  68.528  1.00  0.00    -0.399 A  
HETATM   13  C   UNL     1      -9.898  18.534  67.149  1.00  0.00    -0.335 A  
BRANCH   9  14
HETATM   14  N   UNL     1     -10.948  15.028  69.229  1.00  0.00    -0.252 N  
HETATM   15  O   UNL     1     -12.963  15.865  70.007  1.00  0.00    -0.158 OA 
HETATM   16  H   UNL     1     -10.319  14.227  69.300  1.00  0.00     0.000 HD 
HETATM   17  C   UNL     1     -12.176  14.943  69.868  1.00  0.00    -0.309 C  
BRANCH  17  18
HETATM   18  C   UNL     1     -12.480  13.651  70.531  1.00  0.00    -0.394 A  
HETATM   19  C   UNL     1     -13.226  13.528  71.696  1.00  0.00    -0.366 A  
HETATM   20 CL   UNL     1     -13.899  14.858  72.558  1.00  0.00    -0.553 Cl 
HETATM   21  N   UNL     1     -13.482  12.348  72.309  1.00  0.00    -0.471 NA 
HETATM   22  C   UNL     1     -12.956  11.238  71.760  1.00  0.00    -0.414 A  
HETATM   23  C   UNL     1     -12.188  11.249  70.605  1.00  0.00    -0.489 A  
HETATM   24  C   UNL     1     -11.947  12.473  69.983  1.00  0.00    -0.372 A  
ENDBRANCH  17  18
ENDBRANCH   9  14
ENDBRANCH   5   8
TORSDOF 3
ENDMDL
MODEL        9
REMARK 921   NORMALIZED FREE ENERGY PREDICTED BY IDOCK:   -6.54 KCAL/MOL
REMARK 922        TOTAL FREE ENERGY PREDICTED BY IDOCK:   -9.02 KCAL/MOL
REMARK 923 INTER-LIGAND FREE ENERGY PREDICTED BY IDOCK:   -8.24 KCAL/MOL
REMARK 924 INTRA-LIGAND FREE ENERGY PREDICTED BY IDOCK:   -0.78 KCAL/MOL
REMARK 927      BINDING AFFINITY PREDICTED BY RF-SCORE:    0.00 PKD
ROOT
HETATM    1 CL   UNL     1     -12.861  15.725  74.076  1.00  0.00    -0.662 Cl 
HETATM    2  C   UNL     1     -12.452  15.428  72.433  1.00  0.00    -0.379 A  
HETATM    3  C   UNL     1     -12.965  14.316  71.780  1.00  0.00    -0.430 A  
HETATM    4  C   UNL     1     -12.607  14.063  70.449  1.00  0.00    -0.374 A  
HETATM    5  C   UNL     1     -11.690  14.880  69.751  1.00  0.00    -0.344 A  
HETATM    6  C   UNL     1     -11.589  16.287  71.767  1.00  0.00    -0.436 A  
HETATM    7  C   UNL     1     -11.195  15.997  70.454  1.00  0.00    -0.401 A  
ENDROOT
BRANCH   5   8
HETATM    8  C   UNL     1     -11.199  14.502  68.385  1.00  0.00    -0.290 A  
HETATM    9  C   UNL     1     -10.766  13.203  68.009  1.00  0.00    -0.233 A  
HETATM   10  C   UNL     1     -10.442  12.915  66.670  1.00  0.00    -0.272 A  
HETATM   11  C   UNL     1     -11.265  15.466  67.350  1.00  0.00    -0.287 A  
HETATM   12  C   UNL     1     -10.484  13.903  65.693  1.00  0.00    -0.320 A  
HETATM   13  C   UNL     1     -10.891  15.184  66.033  1.00  0.00    -0.335 A  
BRANCH   9  14
HETATM   14  N   UNL     1     -10.534  12.203  68.984  1.00  0.00    -0.418 N  
HETATM   15  O   UNL     1     -12.263  10.756  68.452  1.00  0.00    -0.470 OA 
HETATM   16  H   UNL     1      -9.788  12.363  69.661  1.00  0.00     0.000 HD 
HETATM   17  C   UNL     1     -11.251  11.020  69.080  1.00  0.00    -0.255 C  
BRANCH  17  18
HETATM   18  C   UNL     1     -10.799  10.066  70.123  1.00  0.00    -0.365 A  
HETATM   19  C   UNL     1     -11.523   9.763  71.269  1.00  0.00    -0.385 A  
HETATM   20 CL   UNL     1     -13.047  10.460  71.663  1.00  0.00    -0.535 Cl 
HETATM   21  N   UNL     1     -11.097   8.908  72.229  1.00  0.00    -0.283 NA 
HETATM   22  C   UNL     1      -9.887   8.343  72.062  1.00  0.00    -0.284 A  
HETATM   23  C   UNL     1      -9.078   8.584  70.961  1.00  0.00    -0.221 A  
HETATM   24  C   UNL     1      -9.542   9.458  69.979  1.00  0.00    -0.256 A  
ENDBRANCH  17  18
ENDBRANCH   9  14
ENDBRANCH   5   8
TORSDOF 3
ENDMDL
MODEL       10
REMARK 921   NORMALIZED FREE ENERGY PREDICTED BY IDOCK:   -6.53 KCAL/MOL
REMARK 922        TOTAL FREE ENERGY PREDICTED BY IDOCK:   -9.01 KCAL/MOL
REMARK 923 INTER-LIGAND FREE ENERGY PREDICTED BY IDOCK:   -8.14 KCAL/MOL
REMARK 924 INTRA-LIGAND FREE ENERGY PREDICTED BY IDOCK:   -0.87 KCAL/MOL
REMARK 927      BINDING AFFINITY PREDICTED BY RF-SCORE:    0.00 PKD
ROOT
HETATM    1 CL   UNL     1     -10.163  11.170  65.011  1.00  0.00    -0.332 Cl 
HETATM    2  C   UNL     1     -10.863  11.779  66.457  1.00  0.00    -0.282 A  
HETATM    3  C   UNL     1     -11.738  12.855  66.406  1.00  0.00    -0.454 A  
HETATM    4  C   UNL     1     -12.285  13.365  67.592  1.00  0.00    -0.202 A  
HETATM    5  C   UNL     1     -11.937  12.852  68.860  1.00  0.00    -0.291 A  
HETATM    6  C   UNL     1     -10.535  11.209  67.680  1.00  0.00    -0.230 A  
HETATM    7  C   UNL     1     -11.045  11.759  68.863  1.00  0.00    -0.297 A  
ENDROOT
BRANCH   5   8
HETATM    8  C   UNL     1     -12.408  13.514  70.120  1.00  0.00    -0.345 A  
HETATM    9  C   UNL     1     -12.558  14.916  70.294  1.00  0.00    -0.313 A  
HETATM   10  C   UNL     1     -13.126  15.435  71.472  1.00  0.00    -0.545 A  
HETATM   11  C   UNL     1     -12.845  12.698  71.192  1.00  0.00    -0.311 A  
HETATM   12  C   UNL     1     -13.506  14.598  72.515  1.00  0.00    -0.565 A  
HETATM   13  C   UNL     1     -13.361  13.226  72.379  1.00  0.00    -0.616 A  
BRANCH   9  14
HETATM   14  N   UNL     1     -12.030  15.826  69.347  1.00  0.00    -0.437 N  
HETATM   15  O   UNL     1      -9.807  15.792  69.997  1.00  0.00    -0.237 OA 
HETATM   16  H   UNL     1     -12.685  16.287  68.714  1.00  0.00     0.000 HD 
HETATM   17  C   UNL     1     -10.684  16.135  69.221  1.00  0.00    -0.295 C  
BRANCH  17  18
HETATM   18  C   UNL     1     -10.326  17.054  68.113  1.00  0.00    -0.347 A  
HETATM   19  C   UNL     1      -9.645  16.665  66.966  1.00  0.00    -0.244 A  
HETATM   20 CL   UNL     1      -9.100  15.060  66.663  1.00  0.00    -0.289 Cl 
HETATM   21  N   UNL     1      -9.301  17.512  65.967  1.00  0.00    -0.510 NA 
HETATM   22  C   UNL     1      -9.622  18.810  66.117  1.00  0.00    -0.220 A  
HETATM   23  C   UNL     1     -10.291  19.306  67.226  1.00  0.00    -0.538 A  
HETATM   24  C   UNL     1     -10.647  18.415  68.238  1.00  0.00    -0.240 A  
ENDBRANCH  17  18
ENDBRANCH   9  14
ENDBRANCH   5   8
TORSDOF 3
ENDMDL
MODEL       11
REMARK 921   NORMALIZED FREE ENERGY PREDICTED BY IDOCK:   -6.50 KCAL/MOL
REMARK 922        TOTAL FREE ENERGY PREDICTED BY IDOCK:   -8.98 KCAL/MOL
REMARK 923 INTER-LIGAND FREE ENERGY PREDICTED BY IDOCK:   -8.49 KCAL/MOL
REMARK 924 INTRA-LIGAND FREE ENERGY PREDICTED BY IDOCK:   -0.49 KCAL/MOL
REMARK 927      BINDING AFFINITY PREDICTED BY RF-SCORE:    0.00 PKD
ROOT
HETATM    1 CL   UNL     1     -12.647  16.042  74.478  1.00  0.00    -0.650 Cl 
HETATM    2  C   UNL     1     -12.356  15.313  72.949  1.00  0.00    -0.408 A  
HETATM    3  C   UNL     1     -11.444  15.881  72.070  1.00  0.00    -0.422 A  
HETATM    4  C   UNL     1     -11.231  15.298  70.813  1.00  0.00    -0.353 A  
HETATM    5  C   UNL     1     -11.956  14.166  70.379  1.00  0.00    -0.400 A  
HETATM    6  C   UNL     1     -13.051  14.169  72.583  1.00  0.00    -0.564 A  
HETATM    7  C   UNL     1     -12.871  13.623  71.305  1.00  0.00    -0.424 A  
ENDROOT
BRANCH   5   8
HETATM    8  C   UNL     1     -11.829  13.656  68.975  1.00  0.00    -0.393 A  
HETATM    9  C   UNL     1     -11.506  12.318  68.624  1.00  0.00    -0.307 A  
HETATM   10  C   UNL     1     -11.532  11.904  67.279  1.00  0.00    -0.385 A  
HETATM   11  C   UNL     1     -12.156  14.524  67.906  1.00  0.00    -0.261 A  
HETATM   12  C   UNL     1     -11.823  12.801  66.258  1.00  0.00    -0.485 A  
HETATM   13  C   UNL     1     -12.131  14.116  66.570  1.00  0.00    -0.481 A  
BRANCH   9  14
HETATM   14  N   UNL     1     -11.032  11.405  69.596  1.00  0.00    -0.441 N  
HETATM   15  O   UNL     1     -12.980  10.205  69.960  1.00  0.00    -0.014 OA 
HETATM   16  H   UNL     1     -10.072  11.515  69.925  1.00  0.00     0.000 HD 
HETATM   17  C   UNL     1     -11.784  10.370  70.132  1.00  0.00    -0.312 C  
BRANCH  17  18
HETATM   18  C   UNL     1     -11.078   9.473  71.081  1.00  0.00    -0.450 A  
HETATM   19  C   UNL     1      -9.719   9.192  71.024  1.00  0.00    -0.289 A  
HETATM   20 CL   UNL     1      -8.649   9.827  69.834  1.00  0.00    -0.221 Cl 
HETATM   21  N   UNL     1      -9.082   8.356  71.878  1.00  0.00    -0.199 NA 
HETATM   22  C   UNL     1      -9.828   7.749  72.820  1.00  0.00    -0.246 A  
HETATM   23  C   UNL     1     -11.193   7.950  72.959  1.00  0.00    -0.346 A  
HETATM   24  C   UNL     1     -11.826   8.825  72.076  1.00  0.00    -0.442 A  
ENDBRANCH  17  18
ENDBRANCH   9  14
ENDBRANCH   5   8
TORSDOF 3
ENDMDL
MODEL       12
REMARK 921   NORMALIZED FREE ENERGY PREDICTED BY IDOCK:   -6.42 KCAL/MOL
REMARK 922        TOTAL FREE ENERGY PREDICTED BY IDOCK:   -8.89 KCAL/MOL
REMARK 923 INTER-LIGAND FREE ENERGY PREDICTED BY IDOCK:   -8.78 KCAL/MOL
REMARK 924 INTRA-LIGAND FREE ENERGY PREDICTED BY IDOCK:   -0.10 KCAL/MOL
REMARK 927      BINDING AFFINITY PREDICTED BY RF-SCORE:    0.00 PKD
ROOT
HETATM    1 CL   UNL     1     -12.649  15.760  74.310  1.00  0.00    -0.735 Cl 
HETATM    2  C   UNL     1     -12.494  15.295  72.662  1.00  0.00    -0.380 A  
HETATM    3  C   UNL     1     -13.057  14.106  72.220  1.00  0.00    -0.514 A  
HETATM    4  C   UNL     1     -12.903  13.719  70.881  1.00  0.00    -0.341 A  
HETATM    5  C   UNL     1     -12.144  14.477  69.963  1.00  0.00    -0.395 A  
HETATM    6  C   UNL     1     -11.784  16.098  71.780  1.00  0.00    -0.568 A  
HETATM    7  C   UNL     1     -11.591  15.676  70.457  1.00  0.00    -0.383 A  
ENDROOT
BRANCH   5   8
HETATM    8  C   UNL     1     -11.860  13.965  68.583  1.00  0.00    -0.407 A  
HETATM    9  C   UNL     1     -11.902  12.598  68.200  1.00  0.00    -0.315 A  
HETATM   10  C   UNL     1     -11.743  12.226  66.852  1.00  0.00    -0.404 A  
HETATM   11  C   UNL     1     -11.638  14.901  67.545  1.00  0.00    -0.355 A  
HETATM   12  C   UNL     1     -11.489  13.178  65.870  1.00  0.00    -0.366 A  
HETATM   13  C   UNL     1     -11.430  14.519  66.217  1.00  0.00    -0.358 A  
BRANCH   9  14
HETATM   14  N   UNL     1     -11.981  11.572  69.172  1.00  0.00    -0.330 N  
HETATM   15  O   UNL     1      -9.759  10.916  69.202  1.00  0.00    -0.193 OA 
HETATM   16  H   UNL     1     -12.902  11.338  69.543  1.00  0.00     0.000 HD 
HETATM   17  C   UNL     1     -10.891  10.863  69.655  1.00  0.00    -0.216 C  
BRANCH  17  18
HETATM   18  C   UNL     1     -11.174   9.882  70.731  1.00  0.00    -0.427 A  
HETATM   19  C   UNL     1     -10.233   9.007  71.257  1.00  0.00    -0.314 A  
HETATM   20 CL   UNL     1      -8.596   8.918  70.730  1.00  0.00    -0.210 Cl 
HETATM   21  N   UNL     1     -10.501   8.098  72.224  1.00  0.00    -0.276 NA 
HETATM   22  C   UNL     1     -11.767   8.032  72.677  1.00  0.00    -0.358 A  
HETATM   23  C   UNL     1     -12.787   8.850  72.213  1.00  0.00    -0.475 A  
HETATM   24  C   UNL     1     -12.485   9.788  71.226  1.00  0.00    -0.461 A  
ENDBRANCH  17  18
ENDBRANCH   9  14
ENDBRANCH   5   8
TORSDOF 3
ENDMDL
MODEL       13
REMARK 921   NORMALIZED FREE ENERGY PREDICTED BY IDOCK:   -6.40 KCAL/MOL
REMARK 922        TOTAL FREE ENERGY PREDICTED BY IDOCK:   -8.85 KCAL/MOL
REMARK 923 INTER-LIGAND FREE ENERGY PREDICTED BY IDOCK:   -7.78 KCAL/MOL
REMARK 924 INTRA-LIGAND FREE ENERGY PREDICTED BY IDOCK:   -1.08 KCAL/MOL
REMARK 927      BINDING AFFINITY PREDICTED BY RF-SCORE:    0.00 PKD
ROOT
HETATM    1 CL   UNL     1     -11.536  16.242  64.394  1.00  0.00    -0.323 Cl 
HETATM    2  C   UNL     1     -11.229  14.639  64.933  1.00  0.00    -0.396 A  
HETATM    3  C   UNL     1     -10.111  14.369  65.710  1.00  0.00    -0.361 A  
HETATM    4  C   UNL     1      -9.851  13.055  66.123  1.00  0.00    -0.275 A  
HETATM    5  C   UNL     1     -10.666  11.970  65.732  1.00  0.00    -0.319 A  
HETATM    6  C   UNL     1     -12.087  13.609  64.570  1.00  0.00    -0.459 A  
HETATM    7  C   UNL     1     -11.789  12.292  64.943  1.00  0.00    -0.417 A  
ENDROOT
BRANCH   5   8
HETATM    8  C   UNL     1     -10.280  10.557  66.051  1.00  0.00    -0.310 A  
HETATM    9  C   UNL     1     -10.762   9.815  67.163  1.00  0.00    -0.202 A  
HETATM   10  C   UNL     1     -10.440   8.453  67.310  1.00  0.00    -0.373 A  
HETATM   11  C   UNL     1      -9.465   9.853  65.133  1.00  0.00    -0.338 A  
HETATM   12  C   UNL     1      -9.604   7.811  66.403  1.00  0.00    -0.235 A  
HETATM   13  C   UNL     1      -9.109   8.513  65.314  1.00  0.00    -0.047 A  
BRANCH   9  14
HETATM   14  N   UNL     1     -11.469  10.452  68.211  1.00  0.00    -0.510 N  
HETATM   15  O   UNL     1      -9.711  10.830  69.671  1.00  0.00    -0.080 OA 
HETATM   16  H   UNL     1     -12.483  10.529  68.122  1.00  0.00     0.000 HD 
HETATM   17  C   UNL     1     -10.878  10.980  69.349  1.00  0.00    -0.231 C  
BRANCH  17  18
HETATM   18  C   UNL     1     -11.786  11.679  70.292  1.00  0.00    -0.414 A  
HETATM   19  C   UNL     1     -12.565  11.036  71.246  1.00  0.00    -0.412 A  
HETATM   20 CL   UNL     1     -12.607   9.329  71.469  1.00  0.00    -0.401 Cl 
HETATM   21  N   UNL     1     -13.409  11.675  72.090  1.00  0.00    -0.394 NA 
HETATM   22  C   UNL     1     -13.508  13.012  71.971  1.00  0.00    -0.492 A  
HETATM   23  C   UNL     1     -12.785  13.751  71.046  1.00  0.00    -0.416 A  
HETATM   24  C   UNL     1     -11.912  13.073  70.195  1.00  0.00    -0.374 A  
ENDBRANCH  17  18
ENDBRANCH   9  14
ENDBRANCH   5   8
TORSDOF 3
ENDMDL
MODEL       14
REMARK 921   NORMALIZED FREE ENERGY PREDICTED BY IDOCK:   -6.38 KCAL/MOL
REMARK 922        TOTAL FREE ENERGY PREDICTED BY IDOCK:   -8.83 KCAL/MOL
REMARK 923 INTER-LIGAND FREE ENERGY PREDICTED BY IDOCK:   -7.54 KCAL/MOL
REMARK 924 INTRA-LIGAND FREE ENERGY PREDICTED BY IDOCK:   -1.29 KCAL/MOL
REMARK 927      BINDING AFFINITY PREDICTED BY RF-SCORE:    0.00 PKD
ROOT
HETATM    1 CL   UNL     1     -12.844  12.163  64.310  1.00  0.00    -0.417 Cl 
HETATM    2  C   UNL     1     -11.715  13.072  65.233  1.00  0.00    -0.353 A  
HETATM    3  C   UNL     1     -11.935  14.423  65.466  1.00  0.00    -0.358 A  
HETATM    4  C   UNL     1     -10.997  15.166  66.196  1.00  0.00    -0.331 A  
HETATM    5  C   UNL     1      -9.794  14.597  66.669  1.00  0.00    -0.280 A  
HETATM    6  C   UNL     1     -10.571  12.461  65.726  1.00  0.00    -0.288 A  
HETATM    7  C   UNL     1      -9.613  13.223  66.409  1.00  0.00    -0.260 A  
ENDROOT
BRANCH   5   8
HETATM    8  C   UNL     1      -8.734  15.445  67.306  1.00  0.00    -0.215 A  
HETATM    9  C   UNL     1      -8.572  15.626  68.706  1.00  0.00    -0.193 A  
HETATM   10  C   UNL     1      -7.471  16.340  69.213  1.00  0.00    -0.217 A  
HETATM   11  C   UNL     1      -7.745  16.029  66.479  1.00  0.00    -0.167 A  
HETATM   12  C   UNL     1      -6.543  16.929  68.362  1.00  0.00    -0.155 A  
HETATM   13  C   UNL     1      -6.682  16.779  66.990  1.00  0.00    -0.241 A  
BRANCH   9  14
HETATM   14  N   UNL     1      -9.572  15.203  69.614  1.00  0.00    -0.436 N  
HETATM   15  O   UNL     1     -10.898  17.103  69.618  1.00  0.00    -0.170 OA 
HETATM   16  H   UNL     1      -9.457  14.292  70.059  1.00  0.00     0.000 HD 
HETATM   17  C   UNL     1     -10.699  15.944  69.940  1.00  0.00    -0.334 C  
BRANCH  17  18
HETATM   18  C   UNL     1     -11.668  15.289  70.853  1.00  0.00    -0.386 A  
HETATM   19  C   UNL     1     -12.287  14.073  70.593  1.00  0.00    -0.375 A  
HETATM   20 CL   UNL     1     -12.035  13.147  69.163  1.00  0.00    -0.347 Cl 
HETATM   21  N   UNL     1     -13.188  13.489  71.418  1.00  0.00    -0.307 NA 
HETATM   22  C   UNL     1     -13.513  14.150  72.545  1.00  0.00    -0.534 A  
HETATM   23  C   UNL     1     -12.963  15.374  72.897  1.00  0.00    -0.577 A  
HETATM   24  C   UNL     1     -12.028  15.951  72.038  1.00  0.00    -0.602 A  
ENDBRANCH  17  18
ENDBRANCH   9  14
ENDBRANCH   5   8
TORSDOF 3
ENDMDL
MODEL       15
REMARK 921   NORMALIZED FREE ENERGY PREDICTED BY IDOCK:   -6.38 KCAL/MOL
REMARK 922        TOTAL FREE ENERGY PREDICTED BY IDOCK:   -8.83 KCAL/MOL
REMARK 923 INTER-LIGAND FREE ENERGY PREDICTED BY IDOCK:   -7.86 KCAL/MOL
REMARK 924 INTRA-LIGAND FREE ENERGY PREDICTED BY IDOCK:   -0.97 KCAL/MOL
REMARK 927      BINDING AFFINITY PREDICTED BY RF-SCORE:    0.00 PKD
ROOT
HETATM    1 CL   UNL     1     -10.735   7.940  72.994  1.00  0.00    -0.438 Cl 
HETATM    2  C   UNL     1     -10.678   8.925  71.587  1.00  0.00    -0.347 A  
HETATM    3  C   UNL     1      -9.464   9.178  70.964  1.00  0.00    -0.344 A  
HETATM    4  C   UNL     1      -9.419  10.005  69.833  1.00  0.00    -0.221 A  
HETATM    5  C   UNL     1     -10.572  10.641  69.324  1.00  0.00    -0.263 A  
HETATM    6  C   UNL     1     -11.844   9.489  71.087  1.00  0.00    -0.436 A  
HETATM    7  C   UNL     1     -11.783  10.356  69.988  1.00  0.00    -0.366 A  
ENDROOT
BRANCH   5   8
HETATM    8  C   UNL     1     -10.476  11.646  68.214  1.00  0.00    -0.223 A  
HETATM    9  C   UNL     1     -10.462  13.055  68.393  1.00  0.00    -0.252 A  
HETATM   10  C   UNL     1     -10.243  13.914  67.301  1.00  0.00    -0.249 A  
HETATM   11  C   UNL     1     -10.275  11.179  66.893  1.00  0.00    -0.260 A  
HETATM   12  C   UNL     1     -10.088  13.412  66.013  1.00  0.00    -0.308 A  
HETATM   13  C   UNL     1     -10.109  12.041  65.806  1.00  0.00    -0.267 A  
BRANCH   9  14
HETATM   14  N   UNL     1     -10.788  13.632  69.644  1.00  0.00    -0.446 N  
HETATM   15  O   UNL     1     -12.889  14.464  69.133  1.00  0.00     0.229 OA 
HETATM   16  H   UNL     1     -10.079  13.612  70.377  1.00  0.00     0.000 HD 
HETATM   17  C   UNL     1     -12.007  14.223  69.941  1.00  0.00    -0.339 C  
BRANCH  17  18
HETATM   18  C   UNL     1     -12.180  14.699  71.335  1.00  0.00    -0.411 A  
HETATM   19  C   UNL     1     -12.840  13.986  72.327  1.00  0.00    -0.315 A  
HETATM   20 CL   UNL     1     -13.574  12.447  72.085  1.00  0.00    -0.531 Cl 
HETATM   21  N   UNL     1     -13.015  14.433  73.593  1.00  0.00    -0.394 NA 
HETATM   22  C   UNL     1     -12.535  15.656  73.889  1.00  0.00    -0.630 A  
HETATM   23  C   UNL     1     -11.870  16.456  72.972  1.00  0.00    -0.471 A  
HETATM   24  C   UNL     1     -11.690  15.970  71.677  1.00  0.00    -0.583 A  
ENDBRANCH  17  18
ENDBRANCH   9  14
ENDBRANCH   5   8
TORSDOF 3
ENDMDL
MODEL       16
REMARK 921   NORMALIZED FREE ENERGY PREDICTED BY IDOCK:   -6.38 KCAL/MOL
REMARK 922        TOTAL FREE ENERGY PREDICTED BY IDOCK:   -8.83 KCAL/MOL
REMARK 923 INTER-LIGAND FREE ENERGY PREDICTED BY IDOCK:   -8.31 KCAL/MOL
REMARK 924 INTRA-LIGAND FREE ENERGY PREDICTED BY IDOCK:   -0.52 KCAL/MOL
REMARK 927      BINDING AFFINITY PREDICTED BY RF-SCORE:    0.00 PKD
ROOT
HETATM    1 CL   UNL     1     -11.670   7.312  70.499  1.00  0.00    -0.293 Cl 
HETATM    2  C   UNL     1     -12.023   8.984  70.693  1.00  0.00    -0.099 A  
HETATM    3  C   UNL     1     -11.279   9.935  70.009  1.00  0.00    -0.327 A  
HETATM    4  C   UNL     1     -11.553  11.297  70.192  1.00  0.00    -0.393 A  
HETATM    5  C   UNL     1     -12.537  11.749  71.098  1.00  0.00    -0.412 A  
HETATM    6  C   UNL     1     -13.036   9.383  71.554  1.00  0.00    -0.449 A  
HETATM    7  C   UNL     1     -13.267  10.748  71.772  1.00  0.00    -0.523 A  
ENDROOT
BRANCH   5   8
HETATM    8  C   UNL     1     -12.703  13.209  71.397  1.00  0.00    -0.390 A  
HETATM    9  C   UNL     1     -12.769  14.236  70.418  1.00  0.00    -0.295 A  
HETATM   10  C   UNL     1     -13.052  15.563  70.790  1.00  0.00    -0.446 A  
HETATM   11  C   UNL     1     -12.921  13.605  72.739  1.00  0.00    -0.273 A  
HETATM   12  C   UNL     1     -13.223  15.914  72.125  1.00  0.00    -0.409 A  
HETATM   13  C   UNL     1     -13.152  14.935  73.104  1.00  0.00    -0.615 A  
BRANCH   9  14
HETATM   14  N   UNL     1     -12.433  13.976  69.068  1.00  0.00    -0.442 N  
HETATM   15  O   UNL     1     -10.195  14.576  69.121  1.00  0.00    -0.226 OA 
HETATM   16  H   UNL     1     -13.181  13.684  68.439  1.00  0.00     0.000 HD 
HETATM   17  C   UNL     1     -11.154  14.092  68.542  1.00  0.00    -0.257 C  
BRANCH  17  18
HETATM   18  C   UNL     1     -10.995  13.697  67.121  1.00  0.00    -0.299 A  
HETATM   19  C   UNL     1     -10.657  14.576  66.100  1.00  0.00    -0.306 A  
HETATM   20 CL   UNL     1     -10.388  16.262  66.326  1.00  0.00    -0.321 Cl 
HETATM   21  N   UNL     1     -10.534  14.216  64.801  1.00  0.00    -0.433 NA 
HETATM   22  C   UNL     1     -10.780  12.930  64.489  1.00  0.00    -0.371 A  
HETATM   23  C   UNL     1     -11.134  11.972  65.428  1.00  0.00    -0.369 A  
HETATM   24  C   UNL     1     -11.243  12.363  66.762  1.00  0.00    -0.363 A  
ENDBRANCH  17  18
ENDBRANCH   9  14
ENDBRANCH   5   8
TORSDOF 3
ENDMDL
MODEL       17
REMARK 921   NORMALIZED FREE ENERGY PREDICTED BY IDOCK:   -6.36 KCAL/MOL
REMARK 922        TOTAL FREE ENERGY PREDICTED BY IDOCK:   -8.81 KCAL/MOL
REMARK 923 INTER-LIGAND FREE ENERGY PREDICTED BY IDOCK:   -7.63 KCAL/MOL
REMARK 924 INTRA-LIGAND FREE ENERGY PREDICTED BY IDOCK:   -1.18 KCAL/MOL
REMARK 927      BINDING AFFINITY PREDICTED BY RF-SCORE:    0.00 PKD
ROOT
HETATM    1 CL   UNL     1     -11.654  16.104  64.208  1.00  0.00    -0.294 Cl 
HETATM    2  C   UNL     1     -11.306  14.519  64.776  1.00  0.00    -0.396 A  
HETATM    3  C   UNL     1     -10.228  14.306  65.623  1.00  0.00    -0.366 A  
HETATM    4  C   UNL     1      -9.932  13.007  66.060  1.00  0.00    -0.277 A  
HETATM    5  C   UNL     1     -10.669  11.884  65.627  1.00  0.00    -0.325 A  
HETATM    6  C   UNL     1     -12.090  13.449  64.367  1.00  0.00    -0.468 A  
HETATM    7  C   UNL     1     -11.755  12.149  64.767  1.00  0.00    -0.390 A  
ENDROOT
BRANCH   5   8
HETATM    8  C   UNL     1     -10.239  10.491  65.979  1.00  0.00    -0.310 A  
HETATM    9  C   UNL     1     -10.699   9.760  67.106  1.00  0.00    -0.202 A  
HETATM   10  C   UNL     1     -10.333   8.413  67.284  1.00  0.00    -0.369 A  
HETATM   11  C   UNL     1      -9.398   9.794  65.078  1.00  0.00    -0.325 A  
HETATM   12  C   UNL     1      -9.474   7.779  66.394  1.00  0.00    -0.245 A  
HETATM   13  C   UNL     1      -9.000   8.471  65.290  1.00  0.00    -0.102 A  
BRANCH   9  14
HETATM   14  N   UNL     1     -11.430  10.397  68.137  1.00  0.00    -0.499 N  
HETATM   15  O   UNL     1      -9.702  10.789  69.630  1.00  0.00    -0.080 OA 
HETATM   16  H   UNL     1     -12.442  10.468  68.029  1.00  0.00     0.000 HD 
HETATM   17  C   UNL     1     -10.863  10.932  69.285  1.00  0.00    -0.241 C  
BRANCH  17  18
HETATM   18  C   UNL     1     -11.793  11.630  70.208  1.00  0.00    -0.414 A  
HETATM   19  C   UNL     1     -11.937  13.009  70.275  1.00  0.00    -0.285 A  
HETATM   20 CL   UNL     1     -11.047  14.122  69.308  1.00  0.00    -0.287 Cl 
HETATM   21  N   UNL     1     -12.770  13.643  71.134  1.00  0.00    -0.355 NA 
HETATM   22  C   UNL     1     -13.479  12.878  71.985  1.00  0.00    -0.473 A  
HETATM   23  C   UNL     1     -13.403  11.493  72.011  1.00  0.00    -0.397 A  
HETATM   24  C   UNL     1     -12.547  10.861  71.109  1.00  0.00    -0.532 A  
ENDBRANCH  17  18
ENDBRANCH   9  14
ENDBRANCH   5   8
TORSDOF 3
ENDMDL
MODEL       18
REMARK 921   NORMALIZED FREE ENERGY PREDICTED BY IDOCK:   -6.35 KCAL/MOL
REMARK 922        TOTAL FREE ENERGY PREDICTED BY IDOCK:   -8.80 KCAL/MOL
REMARK 923 INTER-LIGAND FREE ENERGY PREDICTED BY IDOCK:   -7.47 KCAL/MOL
REMARK 924 INTRA-LIGAND FREE ENERGY PREDICTED BY IDOCK:   -1.33 KCAL/MOL
REMARK 927      BINDING AFFINITY PREDICTED BY RF-SCORE:    0.00 PKD
ROOT
HETATM    1 CL   UNL     1      -8.059  19.325  65.958  1.00  0.00    -0.290 Cl 
HETATM    2  C   UNL     1      -8.953  18.415  67.109  1.00  0.00    -0.268 A  
HETATM    3  C   UNL     1      -8.356  17.350  67.769  1.00  0.00    -0.218 A  
HETATM    4  C   UNL     1      -9.098  16.594  68.686  1.00  0.00    -0.245 A  
HETATM    5  C   UNL     1     -10.465  16.845  68.933  1.00  0.00    -0.346 A  
HETATM    6  C   UNL     1     -10.281  18.730  67.362  1.00  0.00    -0.444 A  
HETATM    7  C   UNL     1     -11.030  17.936  68.240  1.00  0.00     0.041 A  
ENDROOT
BRANCH   5   8
HETATM    8  C   UNL     1     -11.279  15.927  69.795  1.00  0.00    -0.339 A  
HETATM    9  C   UNL     1     -11.958  14.768  69.332  1.00  0.00    -0.303 A  
HETATM   10  C   UNL     1     -12.593  13.899  70.239  1.00  0.00    -0.328 A  
HETATM   11  C   UNL     1     -11.297  16.149  71.193  1.00  0.00    -0.368 A  
HETATM   12  C   UNL     1     -12.618  14.177  71.601  1.00  0.00    -0.420 A  
HETATM   13  C   UNL     1     -11.974  15.307  72.081  1.00  0.00    -0.503 A  
BRANCH   9  14
HETATM   14  N   UNL     1     -12.119  14.524  67.947  1.00  0.00    -0.596 N  
HETATM   15  O   UNL     1     -10.093  13.487  67.515  1.00  0.00    -0.229 OA 
HETATM   16  H   UNL     1     -12.962  14.880  67.496  1.00  0.00     0.000 HD 
HETATM   17  C   UNL     1     -11.208  13.833  67.162  1.00  0.00    -0.311 C  
BRANCH  17  18
HETATM   18  C   UNL     1     -11.599  13.614  65.747  1.00  0.00    -0.349 A  
HETATM   19  C   UNL     1     -11.583  14.603  64.772  1.00  0.00    -0.418 A  
HETATM   20 CL   UNL     1     -11.121  16.237  65.058  1.00  0.00    -0.329 Cl 
HETATM   21  N   UNL     1     -11.962  14.405  63.487  1.00  0.00    -0.115 NA 
HETATM   22  C   UNL     1     -12.402  13.177  63.154  1.00  0.00    -0.123 A  
HETATM   23  C   UNL     1     -12.469  12.121  64.052  1.00  0.00    -0.541 A  
HETATM   24  C   UNL     1     -12.062  12.345  65.366  1.00  0.00    -0.428 A  
ENDBRANCH  17  18
ENDBRANCH   9  14
ENDBRANCH   5   8
TORSDOF 3
ENDMDL
MODEL       19
REMARK 921   NORMALIZED FREE ENERGY PREDICTED BY IDOCK:   -6.35 KCAL/MOL
REMARK 922        TOTAL FREE ENERGY PREDICTED BY IDOCK:   -8.80 KCAL/MOL
REMARK 923 INTER-LIGAND FREE ENERGY PREDICTED BY IDOCK:   -7.56 KCAL/MOL
REMARK 924 INTRA-LIGAND FREE ENERGY PREDICTED BY IDOCK:   -1.25 KCAL/MOL
REMARK 927      BINDING AFFINITY PREDICTED BY RF-SCORE:    0.00 PKD
ROOT
HETATM    1 CL   UNL     1      -7.493  17.747  66.169  1.00  0.00    -0.326 Cl 
HETATM    2  C   UNL     1      -8.157  16.210  66.559  1.00  0.00    -0.296 A  
HETATM    3  C   UNL     1      -7.457  15.340  67.384  1.00  0.00    -0.239 A  
HETATM    4  C   UNL     1      -7.990  14.077  67.676  1.00  0.00    -0.186 A  
HETATM    5  C   UNL     1      -9.205  13.628  67.115  1.00  0.00    -0.244 A  
HETATM    6  C   UNL     1      -9.381  15.829  66.028  1.00  0.00    -0.384 A  
HETATM    7  C   UNL     1      -9.881  14.544  66.282  1.00  0.00    -0.322 A  
ENDROOT
BRANCH   5   8
HETATM    8  C   UNL     1      -9.676  12.218  67.313  1.00  0.00    -0.195 A  
HETATM    9  C   UNL     1     -10.567  11.795  68.335  1.00  0.00    -0.216 A  
HETATM   10  C   UNL     1     -11.050  10.474  68.364  1.00  0.00    -0.335 A  
HETATM   11  C   UNL     1      -9.306  11.240  66.358  1.00  0.00    -0.210 A  
HETATM   12  C   UNL     1     -10.629   9.536  67.427  1.00  0.00    -0.337 A  
HETATM   13  C   UNL     1      -9.750   9.916  66.425  1.00  0.00    -0.270 A  
BRANCH   9  14
HETATM   14  N   UNL     1     -10.893  12.650  69.415  1.00  0.00    -0.446 N  
HETATM   15  O   UNL     1     -12.503  13.957  68.380  1.00  0.00    -0.114 OA 
HETATM   16  H   UNL     1     -10.359  12.552  70.279  1.00  0.00     0.000 HD 
HETATM   17  C   UNL     1     -11.890  13.614  69.378  1.00  0.00    -0.339 C  
BRANCH  17  18
HETATM   18  C   UNL     1     -12.130  14.354  70.642  1.00  0.00    -0.404 A  
HETATM   19  C   UNL     1     -11.598  15.605  70.926  1.00  0.00    -0.389 A  
HETATM   20 CL   UNL     1     -10.567  16.482  69.861  1.00  0.00    -0.266 Cl 
HETATM   21  N   UNL     1     -11.801  16.268  72.089  1.00  0.00    -0.531 NA 
HETATM   22  C   UNL     1     -12.546  15.655  73.028  1.00  0.00    -0.459 A  
HETATM   23  C   UNL     1     -13.114  14.402  72.853  1.00  0.00    -0.612 A  
HETATM   24  C   UNL     1     -12.903  13.743  71.642  1.00  0.00    -0.438 A  
ENDBRANCH  17  18
ENDBRANCH   9  14
ENDBRANCH   5   8
TORSDOF 3
ENDMDL
MODEL       20
REMARK 921   NORMALIZED FREE ENERGY PREDICTED BY IDOCK:   -6.35 KCAL/MOL
REMARK 922        TOTAL FREE ENERGY PREDICTED BY IDOCK:   -8.80 KCAL/MOL
REMARK 923 INTER-LIGAND FREE ENERGY PREDICTED BY IDOCK:   -8.40 KCAL/MOL
REMARK 924 INTRA-LIGAND FREE ENERGY PREDICTED BY IDOCK:   -0.41 KCAL/MOL
REMARK 927      BINDING AFFINITY PREDICTED BY RF-SCORE:    0.00 PKD
ROOT
HETATM    1 CL   UNL     1     -12.435  14.845  72.708  1.00  0.00    -0.439 Cl 
HETATM    2  C   UNL     1     -12.267  14.551  71.022  1.00  0.00    -0.339 A  
HETATM    3  C   UNL     1     -12.123  13.252  70.554  1.00  0.00    -0.391 A  
HETATM    4  C   UNL     1     -11.959  13.021  69.182  1.00  0.00    -0.320 A  
HETATM    5  C   UNL     1     -11.883  14.076  68.247  1.00  0.00    -0.406 A  
HETATM    6  C   UNL     1     -12.251  15.615  70.131  1.00  0.00    -0.387 A  
HETATM    7  C   UNL     1     -12.034  15.378  68.767  1.00  0.00    -0.278 A  
ENDROOT
BRANCH   5   8
HETATM    8  C   UNL     1     -11.547  13.815  66.809  1.00  0.00    -0.394 A  
HETATM    9  C   UNL     1     -10.611  14.562  66.045  1.00  0.00    -0.307 A  
HETATM   10  C   UNL     1     -10.271  14.163  64.739  1.00  0.00    -0.311 A  
HETATM   11  C   UNL     1     -12.111  12.680  66.177  1.00  0.00    -0.399 A  
HETATM   12  C   UNL     1     -10.878  13.063  64.144  1.00  0.00    -0.433 A  
HETATM   13  C   UNL     1     -11.805  12.321  64.861  1.00  0.00    -0.417 A  
BRANCH   9  14
HETATM   14  N   UNL     1     -10.092  15.787  66.527  1.00  0.00    -0.269 N  
HETATM   15  O   UNL     1     -10.886  17.203  64.874  1.00  0.00    -0.751 OA 
HETATM   16  H   UNL     1      -9.499  15.759  67.357  1.00  0.00     0.000 HD 
HETATM   17  C   UNL     1     -10.334  17.024  65.948  1.00  0.00    -0.298 C  
BRANCH  17  18
HETATM   18  C   UNL     1      -9.763  18.198  66.652  1.00  0.00    -0.334 A  
HETATM   19  C   UNL     1      -8.405  18.478  66.727  1.00  0.00    -0.269 A  
HETATM   20 CL   UNL     1      -7.175  17.496  66.026  1.00  0.00    -0.338 Cl 
HETATM   21  N   UNL     1      -7.886  19.539  67.389  1.00  0.00    -0.251 NA 
HETATM   22  C   UNL     1      -8.748  20.350  68.030  1.00  0.00     0.014 A  
HETATM   23  C   UNL     1     -10.121  20.156  68.030  1.00  0.00    -0.519 A  
HETATM   24  C   UNL     1     -10.635  19.065  67.330  1.00  0.00    -0.559 A  
ENDBRANCH  17  18
ENDBRANCH   9  14
ENDBRANCH   5   8
TORSDOF 3
ENDMDL
MODEL       21
REMARK 921   NORMALIZED FREE ENERGY PREDICTED BY IDOCK:   -6.32 KCAL/MOL
REMARK 922        TOTAL FREE ENERGY PREDICTED BY IDOCK:   -8.76 KCAL/MOL
REMARK 923 INTER-LIGAND FREE ENERGY PREDICTED BY IDOCK:   -7.48 KCAL/MOL
REMARK 924 INTRA-LIGAND FREE ENERGY PREDICTED BY IDOCK:   -1.28 KCAL/MOL
REMARK 927      BINDING AFFINITY PREDICTED BY RF-SCORE:    0.00 PKD
ROOT
HETATM    1 CL   UNL     1     -12.452  15.463  64.081  1.00  0.00    -0.149 Cl 
HETATM    2  C   UNL     1     -11.594  14.237  64.926  1.00  0.00    -0.384 A  
HETATM    3  C   UNL     1     -12.217  13.034  65.229  1.00  0.00    -0.513 A  
HETATM    4  C   UNL     1     -11.522  12.049  65.942  1.00  0.00    -0.392 A  
HETATM    5  C   UNL     1     -10.208  12.253  66.417  1.00  0.00    -0.247 A  
HETATM    6  C   UNL     1     -10.284  14.459  65.328  1.00  0.00    -0.416 A  
HETATM    7  C   UNL     1      -9.614  13.489  66.087  1.00  0.00    -0.219 A  
ENDROOT
BRANCH   5   8
HETATM    8  C   UNL     1      -9.542  11.252  67.313  1.00  0.00    -0.188 A  
HETATM    9  C   UNL     1      -9.808  11.101  68.700  1.00  0.00    -0.202 A  
HETATM   10  C   UNL     1      -9.225  10.050  69.431  1.00  0.00    -0.229 A  
HETATM   11  C   UNL     1      -8.663  10.305  66.736  1.00  0.00    -0.132 A  
HETATM   12  C   UNL     1      -8.336   9.165  68.831  1.00  0.00    -0.124 A  
HETATM   13  C   UNL     1      -8.048   9.295  67.481  1.00  0.00    -0.107 A  
BRANCH   9  14
HETATM   14  N   UNL     1     -10.562  12.069  69.406  1.00  0.00    -0.439 N  
HETATM   15  O   UNL     1     -12.651  11.076  69.281  1.00  0.00    -0.361 OA 
HETATM   16  H   UNL     1     -10.082  12.916  69.712  1.00  0.00     0.000 HD 
HETATM   17  C   UNL     1     -11.909  11.945  69.710  1.00  0.00    -0.340 C  
BRANCH  17  18
HETATM   18  C   UNL     1     -12.498  13.035  70.527  1.00  0.00    -0.306 A  
HETATM   19  C   UNL     1     -12.486  14.375  70.164  1.00  0.00    -0.339 A  
HETATM   20 CL   UNL     1     -11.772  14.979  68.718  1.00  0.00    -0.356 Cl 
HETATM   21  N   UNL     1     -13.004  15.370  70.923  1.00  0.00    -0.468 NA 
HETATM   22  C   UNL     1     -13.540  15.028  72.109  1.00  0.00    -0.427 A  
HETATM   23  C   UNL     1     -13.594  13.721  72.573  1.00  0.00    -0.680 A  
HETATM   24  C   UNL     1     -13.065  12.712  71.769  1.00  0.00    -0.461 A  
ENDBRANCH  17  18
ENDBRANCH   9  14
ENDBRANCH   5   8
TORSDOF 3
ENDMDL
MODEL       22
REMARK 921   NORMALIZED FREE ENERGY PREDICTED BY IDOCK:   -6.30 KCAL/MOL
REMARK 922        TOTAL FREE ENERGY PREDICTED BY IDOCK:   -8.74 KCAL/MOL
REMARK 923 INTER-LIGAND FREE ENERGY PREDICTED BY IDOCK:   -7.72 KCAL/MOL
REMARK 924 INTRA-LIGAND FREE ENERGY PREDICTED BY IDOCK:   -1.02 KCAL/MOL
REMARK 927      BINDING AFFINITY PREDICTED BY RF-SCORE:    0.00 PKD
ROOT
HETATM    1 CL   UNL     1     -12.835  11.856  63.456  1.00  0.00    -0.587 Cl 
HETATM    2  C   UNL     1     -11.887  12.818  64.520  1.00  0.00    -0.379 A  
HETATM    3  C   UNL     1     -12.409  13.991  65.046  1.00  0.00    -0.458 A  
HETATM    4  C   UNL     1     -11.621  14.786  65.891  1.00  0.00    -0.286 A  
HETATM    5  C   UNL     1     -10.281  14.461  66.192  1.00  0.00    -0.317 A  
HETATM    6  C   UNL     1     -10.591  12.433  64.832  1.00  0.00    -0.326 A  
HETATM    7  C   UNL     1      -9.794  13.261  65.634  1.00  0.00    -0.177 A  
ENDROOT
BRANCH   5   8
HETATM    8  C   UNL     1      -9.409  15.405  66.965  1.00  0.00    -0.238 A  
HETATM    9  C   UNL     1      -9.200  15.350  68.369  1.00  0.00    -0.192 A  
HETATM   10  C   UNL     1      -8.265  16.202  68.988  1.00  0.00    -0.244 A  
HETATM   11  C   UNL     1      -8.644  16.359  66.253  1.00  0.00    -0.375 A  
HETATM   12  C   UNL     1      -7.562  17.150  68.253  1.00  0.00    -0.224 A  
HETATM   13  C   UNL     1      -7.755  17.235  66.883  1.00  0.00    -0.250 A  
BRANCH   9  14
HETATM   14  N   UNL     1     -10.008  14.532  69.194  1.00  0.00    -0.381 N  
HETATM   15  O   UNL     1     -11.734  16.018  69.615  1.00  0.00    -0.328 OA 
HETATM   16  H   UNL     1      -9.653  13.607  69.441  1.00  0.00     0.000 HD 
HETATM   17  C   UNL     1     -11.249  14.901  69.689  1.00  0.00    -0.275 C  
BRANCH  17  18
HETATM   18  C   UNL     1     -11.974  13.868  70.471  1.00  0.00    -0.384 A  
HETATM   19  C   UNL     1     -12.023  12.523  70.128  1.00  0.00    -0.301 A  
HETATM   20 CL   UNL     1     -11.265  11.851  68.735  1.00  0.00    -0.284 Cl 
HETATM   21  N   UNL     1     -12.704  11.587  70.832  1.00  0.00    -0.313 NA 
HETATM   22  C   UNL     1     -13.389  12.003  71.913  1.00  0.00    -0.304 A  
HETATM   23  C   UNL     1     -13.416  13.323  72.337  1.00  0.00    -0.670 A  
HETATM   24  C   UNL     1     -12.698  14.268  71.605  1.00  0.00    -0.430 A  
ENDBRANCH  17  18
ENDBRANCH   9  14
ENDBRANCH   5   8
TORSDOF 3
ENDMDL
MODEL       23
REMARK 921   NORMALIZED FREE ENERGY PREDICTED BY IDOCK:   -6.29 KCAL/MOL
REMARK 922        TOTAL FREE ENERGY PREDICTED BY IDOCK:   -8.73 KCAL/MOL
REMARK 923 INTER-LIGAND FREE ENERGY PREDICTED BY IDOCK:   -8.13 KCAL/MOL
REMARK 924 INTRA-LIGAND FREE ENERGY PREDICTED BY IDOCK:   -0.60 KCAL/MOL
REMARK 927      BINDING AFFINITY PREDICTED BY RF-SCORE:    0.00 PKD
ROOT
HETATM    1 CL   UNL     1     -13.046  14.325  72.946  1.00  0.00    -0.594 Cl 
HETATM    2  C   UNL     1     -12.576  14.273  71.293  1.00  0.00    -0.364 A  
HETATM    3  C   UNL     1     -12.597  15.431  70.528  1.00  0.00    -0.471 A  
HETATM    4  C   UNL     1     -12.239  15.378  69.174  1.00  0.00    -0.192 A  
HETATM    5  C   UNL     1     -11.901  14.165  68.534  1.00  0.00    -0.390 A  
HETATM    6  C   UNL     1     -12.199  13.068  70.717  1.00  0.00    -0.359 A  
HETATM    7  C   UNL     1     -11.894  13.015  69.350  1.00  0.00    -0.380 A  
ENDROOT
BRANCH   5   8
HETATM    8  C   UNL     1     -11.678  14.106  67.053  1.00  0.00    -0.430 A  
HETATM    9  C   UNL     1     -10.556  14.657  66.378  1.00  0.00    -0.301 A  
HETATM   10  C   UNL     1     -10.372  14.441  65.000  1.00  0.00    -0.449 A  
HETATM   11  C   UNL     1     -12.582  13.358  66.261  1.00  0.00    -0.231 A  
HETATM   12  C   UNL     1     -11.306  13.732  64.253  1.00  0.00    -0.344 A  
HETATM   13  C   UNL     1     -12.418  13.193  64.883  1.00  0.00    -0.490 A  
BRANCH   9  14
HETATM   14  N   UNL     1      -9.665  15.533  67.043  1.00  0.00    -0.221 N  
HETATM   15  O   UNL     1     -10.045  17.456  65.809  1.00  0.00    -0.544 OA 
HETATM   16  H   UNL     1      -9.079  15.144  67.783  1.00  0.00     0.000 HD 
HETATM   17  C   UNL     1      -9.535  16.884  66.759  1.00  0.00    -0.255 C  
BRANCH  17  18
HETATM   18  C   UNL     1      -8.602  17.647  67.624  1.00  0.00    -0.224 A  
HETATM   19  C   UNL     1      -8.911  18.861  68.224  1.00  0.00    -0.328 A  
HETATM   20 CL   UNL     1     -10.418  19.674  68.042  1.00  0.00    -0.561 Cl 
HETATM   21  N   UNL     1      -8.049  19.565  68.996  1.00  0.00    -0.303 NA 
HETATM   22  C   UNL     1      -6.814  19.058  69.164  1.00  0.00    -0.307 A  
HETATM   23  C   UNL     1      -6.398  17.860  68.601  1.00  0.00    -0.209 A  
HETATM   24  C   UNL     1      -7.306  17.146  67.821  1.00  0.00    -0.179 A  
ENDBRANCH  17  18
ENDBRANCH   9  14
ENDBRANCH   5   8
TORSDOF 3
ENDMDL
MODEL       24
REMARK 921   NORMALIZED FREE ENERGY PREDICTED BY IDOCK:   -6.22 KCAL/MOL
REMARK 922        TOTAL FREE ENERGY PREDICTED BY IDOCK:   -8.64 KCAL/MOL
REMARK 923 INTER-LIGAND FREE ENERGY PREDICTED BY IDOCK:   -8.31 KCAL/MOL
REMARK 924 INTRA-LIGAND FREE ENERGY PREDICTED BY IDOCK:   -0.34 KCAL/MOL
REMARK 927      BINDING AFFINITY PREDICTED BY RF-SCORE:    0.00 PKD
ROOT
HETATM    1 CL   UNL     1     -12.759   6.982  71.939  1.00  0.00    -0.347 Cl 
HETATM    2  C   UNL     1     -12.511   8.644  71.577  1.00  0.00    -0.323 A  
HETATM    3  C   UNL     1     -13.380   9.601  72.082  1.00  0.00    -0.545 A  
HETATM    4  C   UNL     1     -13.189  10.953  71.761  1.00  0.00    -0.513 A  
HETATM    5  C   UNL     1     -12.162  11.379  70.891  1.00  0.00    -0.447 A  
HETATM    6  C   UNL     1     -11.455   9.026  70.761  1.00  0.00    -0.331 A  
HETATM    7  C   UNL     1     -11.304  10.372  70.403  1.00  0.00    -0.417 A  
ENDROOT
BRANCH   5   8
HETATM    8  C   UNL     1     -12.075  12.805  70.436  1.00  0.00    -0.382 A  
HETATM    9  C   UNL     1     -11.611  13.223  69.160  1.00  0.00    -0.319 A  
HETATM   10  C   UNL     1     -11.683  14.576  68.778  1.00  0.00    -0.362 A  
HETATM   11  C   UNL     1     -12.588  13.819  71.280  1.00  0.00    -0.444 A  
HETATM   12  C   UNL     1     -12.160  15.544  69.655  1.00  0.00    -0.352 A  
HETATM   13  C   UNL     1     -12.609  15.167  70.912  1.00  0.00    -0.441 A  
BRANCH   9  14
HETATM   14  N   UNL     1     -10.954  12.317  68.293  1.00  0.00    -0.218 N  
HETATM   15  O   UNL     1     -12.396  12.426  66.482  1.00  0.00    -0.511 OA 
HETATM   16  H   UNL     1     -10.131  11.830  68.648  1.00  0.00     0.000 HD 
HETATM   17  C   UNL     1     -11.354  12.048  66.992  1.00  0.00    -0.336 C  
BRANCH  17  18
HETATM   18  C   UNL     1     -10.484  11.126  66.220  1.00  0.00    -0.312 A  
HETATM   19  C   UNL     1     -10.021  11.383  64.936  1.00  0.00    -0.265 A  
HETATM   20 CL   UNL     1     -10.399  12.804  64.038  1.00  0.00    -0.429 Cl 
HETATM   21  N   UNL     1      -9.246  10.530  64.225  1.00  0.00    -0.224 NA 
HETATM   22  C   UNL     1      -8.932   9.355  64.801  1.00  0.00    -0.194 A  
HETATM   23  C   UNL     1      -9.350   8.993  66.073  1.00  0.00    -0.305 A  
HETATM   24  C   UNL     1     -10.137   9.892  66.791  1.00  0.00    -0.292 A  
ENDBRANCH  17  18
ENDBRANCH   9  14
ENDBRANCH   5   8
TORSDOF 3
ENDMDL
MODEL       25
REMARK 921   NORMALIZED FREE ENERGY PREDICTED BY IDOCK:   -6.17 KCAL/MOL
REMARK 922        TOTAL FREE ENERGY PREDICTED BY IDOCK:   -8.58 KCAL/MOL
REMARK 923 INTER-LIGAND FREE ENERGY PREDICTED BY IDOCK:   -7.76 KCAL/MOL
REMARK 924 INTRA-LIGAND FREE ENERGY PREDICTED BY IDOCK:   -0.83 KCAL/MOL
REMARK 927      BINDING AFFINITY PREDICTED BY RF-SCORE:    0.00 PKD
ROOT
HETATM    1 CL   UNL     1      -7.540  19.483  66.632  1.00  0.00    -0.256 Cl 
HETATM    2  C   UNL     1      -8.607  18.443  67.488  1.00  0.00    -0.257 A  
HETATM    3  C   UNL     1      -9.921  18.828  67.714  1.00  0.00    -0.396 A  
HETATM    4  C   UNL     1     -10.780  17.988  68.436  1.00  0.00    -0.132 A  
HETATM    5  C   UNL     1     -10.340  16.768  68.995  1.00  0.00    -0.326 A  
HETATM    6  C   UNL     1      -8.148  17.226  67.974  1.00  0.00    -0.221 A  
HETATM    7  C   UNL     1      -8.998  16.417  68.740  1.00  0.00    -0.245 A  
ENDROOT
BRANCH   5   8
HETATM    8  C   UNL     1     -11.228  15.964  69.896  1.00  0.00    -0.348 A  
HETATM    9  C   UNL     1     -11.926  14.789  69.511  1.00  0.00    -0.311 A  
HETATM   10  C   UNL     1     -12.636  14.032  70.462  1.00  0.00    -0.399 A  
HETATM   11  C   UNL     1     -11.305  16.320  71.265  1.00  0.00    -0.272 A  
HETATM   12  C   UNL     1     -12.716  14.440  71.788  1.00  0.00    -0.427 A  
HETATM   13  C   UNL     1     -12.054  15.590  72.192  1.00  0.00    -0.509 A  
BRANCH   9  14
HETATM   14  N   UNL     1     -12.029  14.418  68.148  1.00  0.00    -0.505 N  
HETATM   15  O   UNL     1     -10.140  13.088  67.981  1.00  0.00    -0.222 OA 
HETATM   16  H   UNL     1     -12.785  14.828  67.599  1.00  0.00     0.000 HD 
HETATM   17  C   UNL     1     -11.172  13.534  67.509  1.00  0.00    -0.283 C  
BRANCH  17  18
HETATM   18  C   UNL     1     -11.498  13.215  66.097  1.00  0.00    -0.366 A  
HETATM   19  C   UNL     1     -11.221  11.998  65.489  1.00  0.00    -0.321 A  
HETATM   20 CL   UNL     1     -10.443  10.678  66.276  1.00  0.00    -0.291 Cl 
HETATM   21  N   UNL     1     -11.500  11.718  64.193  1.00  0.00    -0.346 NA 
HETATM   22  C   UNL     1     -12.057  12.696  63.456  1.00  0.00    -0.561 A  
HETATM   23  C   UNL     1     -12.365  13.951  63.960  1.00  0.00    -0.355 A  
HETATM   24  C   UNL     1     -12.081  14.213  65.300  1.00  0.00    -0.407 A  
ENDBRANCH  17  18
ENDBRANCH   9  14
ENDBRANCH   5   8
TORSDOF 3
ENDMDL
MODEL       26
REMARK 921   NORMALIZED FREE ENERGY PREDICTED BY IDOCK:   -6.12 KCAL/MOL
REMARK 922        TOTAL FREE ENERGY PREDICTED BY IDOCK:   -8.53 KCAL/MOL
REMARK 923 INTER-LIGAND FREE ENERGY PREDICTED BY IDOCK:   -7.45 KCAL/MOL
REMARK 924 INTRA-LIGAND FREE ENERGY PREDICTED BY IDOCK:   -1.08 KCAL/MOL
REMARK 927      BINDING AFFINITY PREDICTED BY RF-SCORE:    0.00 PKD
ROOT
HETATM    1 CL   UNL     1      -7.933   7.876  71.567  1.00  0.00    -0.098 Cl 
HETATM    2  C   UNL     1      -8.720   8.778  70.333  1.00  0.00    -0.166 A  
HETATM    3  C   UNL     1      -9.926   8.333  69.810  1.00  0.00    -0.191 A  
HETATM    4  C   UNL     1     -10.549   9.057  68.785  1.00  0.00    -0.196 A  
HETATM    5  C   UNL     1      -9.966  10.212  68.220  1.00  0.00    -0.168 A  
HETATM    6  C   UNL     1      -8.137   9.938  69.843  1.00  0.00    -0.200 A  
HETATM    7  C   UNL     1      -8.741  10.626  68.783  1.00  0.00    -0.157 A  
ENDROOT
BRANCH   5   8
HETATM    8  C   UNL     1     -10.569  10.878  67.019  1.00  0.00    -0.307 A  
HETATM    9  C   UNL     1     -11.440  11.999  67.065  1.00  0.00    -0.338 A  
HETATM   10  C   UNL     1     -11.856  12.633  65.879  1.00  0.00    -0.499 A  
HETATM   11  C   UNL     1     -10.171  10.444  65.732  1.00  0.00    -0.305 A  
HETATM   12  C   UNL     1     -11.470  12.149  64.634  1.00  0.00    -0.388 A  
HETATM   13  C   UNL     1     -10.630  11.048  64.558  1.00  0.00    -0.383 A  
BRANCH   9  14
HETATM   14  N   UNL     1     -12.007  12.430  68.288  1.00  0.00    -0.300 N  
HETATM   15  O   UNL     1     -10.320  13.849  69.001  1.00  0.00    -0.200 OA 
HETATM   16  H   UNL     1     -12.893  12.014  68.575  1.00  0.00     0.000 HD 
HETATM   17  C   UNL     1     -11.440  13.381  69.124  1.00  0.00    -0.300 C  
BRANCH  17  18
HETATM   18  C   UNL     1     -12.232  13.753  70.322  1.00  0.00    -0.429 A  
HETATM   19  C   UNL     1     -12.756  12.837  71.226  1.00  0.00    -0.269 A  
HETATM   20 CL   UNL     1     -12.581  11.130  71.084  1.00  0.00    -0.503 Cl 
HETATM   21  N   UNL     1     -13.498  13.180  72.306  1.00  0.00    -0.567 NA 
HETATM   22  C   UNL     1     -13.754  14.488  72.491  1.00  0.00    -0.476 A  
HETATM   23  C   UNL     1     -13.289  15.483  71.645  1.00  0.00    -0.585 A  
HETATM   24  C   UNL     1     -12.517  15.109  70.545  1.00  0.00    -0.429 A  
ENDBRANCH  17  18
ENDBRANCH   9  14
ENDBRANCH   5   8
TORSDOF 3
ENDMDL
MODEL       27
REMARK 921   NORMALIZED FREE ENERGY PREDICTED BY IDOCK:   -6.12 KCAL/MOL
REMARK 922        TOTAL FREE ENERGY PREDICTED BY IDOCK:   -8.53 KCAL/MOL
REMARK 923 INTER-LIGAND FREE ENERGY PREDICTED BY IDOCK:   -7.26 KCAL/MOL
REMARK 924 INTRA-LIGAND FREE ENERGY PREDICTED BY IDOCK:   -1.28 KCAL/MOL
REMARK 927      BINDING AFFINITY PREDICTED BY RF-SCORE:    0.00 PKD
ROOT
HETATM    1 CL   UNL     1     -10.447  10.724  65.621  1.00  0.00    -0.287 Cl 
HETATM    2  C   UNL     1     -10.984  11.626  66.982  1.00  0.00    -0.288 A  
HETATM    3  C   UNL     1     -11.706  12.797  66.798  1.00  0.00    -0.459 A  
HETATM    4  C   UNL     1     -12.117  13.544  67.911  1.00  0.00    -0.304 A  
HETATM    5  C   UNL     1     -11.777  13.173  69.230  1.00  0.00    -0.376 A  
HETATM    6  C   UNL     1     -10.674  11.196  68.265  1.00  0.00    -0.234 A  
HETATM    7  C   UNL     1     -11.043  11.977  69.368  1.00  0.00    -0.198 A  
ENDROOT
BRANCH   5   8
HETATM    8  C   UNL     1     -12.089  14.068  70.392  1.00  0.00    -0.426 A  
HETATM    9  C   UNL     1     -11.479  15.328  70.632  1.00  0.00    -0.319 A  
HETATM   10  C   UNL     1     -11.928  16.153  71.680  1.00  0.00    -0.528 A  
HETATM   11  C   UNL     1     -13.142  13.703  71.265  1.00  0.00    -0.357 A  
HETATM   12  C   UNL     1     -12.940  15.737  72.538  1.00  0.00    -0.556 A  
HETATM   13  C   UNL     1     -13.546  14.507  72.335  1.00  0.00    -0.566 A  
BRANCH   9  14
HETATM   14  N   UNL     1     -10.332  15.731  69.908  1.00  0.00    -0.310 N  
HETATM   15  O   UNL     1     -11.366  16.885  68.185  1.00  0.00    -0.217 OA 
HETATM   16  H   UNL     1      -9.423  15.401  70.234  1.00  0.00     0.000 HD 
HETATM   17  C   UNL     1     -10.359  16.543  68.784  1.00  0.00    -0.286 C  
BRANCH  17  18
HETATM   18  C   UNL     1      -9.040  16.916  68.216  1.00  0.00    -0.235 A  
HETATM   19  C   UNL     1      -8.233  16.052  67.487  1.00  0.00    -0.152 A  
HETATM   20 CL   UNL     1      -8.632  14.412  67.145  1.00  0.00    -0.229 Cl 
HETATM   21  N   UNL     1      -7.020  16.390  66.988  1.00  0.00    -0.205 NA 
HETATM   22  C   UNL     1      -6.570  17.633  67.242  1.00  0.00    -0.157 A  
HETATM   23  C   UNL     1      -7.290  18.570  67.968  1.00  0.00    -0.261 A  
HETATM   24  C   UNL     1      -8.542  18.205  68.461  1.00  0.00    -0.307 A  
ENDBRANCH  17  18
ENDBRANCH   9  14
ENDBRANCH   5   8
TORSDOF 3
ENDMDL
MODEL       28
REMARK 921   NORMALIZED FREE ENERGY PREDICTED BY IDOCK:   -6.11 KCAL/MOL
REMARK 922        TOTAL FREE ENERGY PREDICTED BY IDOCK:   -8.52 KCAL/MOL
REMARK 923 INTER-LIGAND FREE ENERGY PREDICTED BY IDOCK:   -8.07 KCAL/MOL
REMARK 924 INTRA-LIGAND FREE ENERGY PREDICTED BY IDOCK:   -0.45 KCAL/MOL
REMARK 927      BINDING AFFINITY PREDICTED BY RF-SCORE:    0.00 PKD
ROOT
HETATM    1 CL   UNL     1      -8.598  16.530  66.166  1.00  0.00    -0.362 Cl 
HETATM    2  C   UNL     1      -9.758  16.045  67.337  1.00  0.00    -0.232 A  
HETATM    3  C   UNL     1      -9.597  16.409  68.667  1.00  0.00    -0.240 A  
HETATM    4  C   UNL     1     -10.531  15.987  69.623  1.00  0.00    -0.300 A  
HETATM    5  C   UNL     1     -11.619  15.152  69.291  1.00  0.00    -0.344 A  
HETATM    6  C   UNL     1     -10.844  15.268  66.958  1.00  0.00    -0.321 A  
HETATM    7  C   UNL     1     -11.743  14.807  67.929  1.00  0.00    -0.367 A  
ENDROOT
BRANCH   5   8
HETATM    8  C   UNL     1     -12.513  14.583  70.352  1.00  0.00    -0.407 A  
HETATM    9  C   UNL     1     -12.425  13.261  70.863  1.00  0.00    -0.342 A  
HETATM   10  C   UNL     1     -13.226  12.858  71.948  1.00  0.00    -0.521 A  
HETATM   11  C   UNL     1     -13.447  15.440  70.982  1.00  0.00    -0.510 A  
HETATM   12  C   UNL     1     -14.158  13.722  72.512  1.00  0.00    -0.495 A  
HETATM   13  C   UNL     1     -14.274  15.015  72.026  1.00  0.00    -0.649 A  
BRANCH   9  14
HETATM   14  N   UNL     1     -11.626  12.284  70.222  1.00  0.00    -0.533 N  
HETATM   15  O   UNL     1     -13.058  10.469  70.382  1.00  0.00    -0.279 OA 
HETATM   16  H   UNL     1     -10.686  12.554  69.932  1.00  0.00     0.000 HD 
HETATM   17  C   UNL     1     -12.035  10.984  69.961  1.00  0.00    -0.351 C  
BRANCH  17  18
HETATM   18  C   UNL     1     -11.077  10.138  69.208  1.00  0.00    -0.270 A  
HETATM   19  C   UNL     1     -10.190   9.248  69.799  1.00  0.00    -0.211 A  
HETATM   20 CL   UNL     1     -10.056   9.002  71.498  1.00  0.00    -0.399 Cl 
HETATM   21  N   UNL     1      -9.302   8.493  69.109  1.00  0.00    -0.153 NA 
HETATM   22  C   UNL     1      -9.271   8.642  67.772  1.00  0.00    -0.134 A  
HETATM   23  C   UNL     1     -10.105   9.510  67.082  1.00  0.00    -0.290 A  
HETATM   24  C   UNL     1     -11.020  10.268  67.811  1.00  0.00    -0.360 A  
ENDBRANCH  17  18
ENDBRANCH   9  14
ENDBRANCH   5   8
TORSDOF 3
ENDMDL
MODEL       29
REMARK 921   NORMALIZED FREE ENERGY PREDICTED BY IDOCK:   -6.11 KCAL/MOL
REMARK 922        TOTAL FREE ENERGY PREDICTED BY IDOCK:   -8.51 KCAL/MOL
REMARK 923 INTER-LIGAND FREE ENERGY PREDICTED BY IDOCK:   -7.13 KCAL/MOL
REMARK 924 INTRA-LIGAND FREE ENERGY PREDICTED BY IDOCK:   -1.38 KCAL/MOL
REMARK 927      BINDING AFFINITY PREDICTED BY RF-SCORE:    0.00 PKD
ROOT
HETATM    1 CL   UNL     1      -5.712  13.127  69.472  1.00  0.00    -0.088 Cl 
HETATM    2  C   UNL     1      -6.530  14.520  68.885  1.00  0.00    -0.092 A  
HETATM    3  C   UNL     1      -7.658  14.992  69.543  1.00  0.00    -0.181 A  
HETATM    4  C   UNL     1      -8.338  16.111  69.045  1.00  0.00    -0.247 A  
HETATM    5  C   UNL     1      -7.945  16.758  67.853  1.00  0.00    -0.182 A  
HETATM    6  C   UNL     1      -6.078  15.159  67.739  1.00  0.00    -0.164 A  
HETATM    7  C   UNL     1      -6.795  16.245  67.219  1.00  0.00    -0.230 A  
ENDROOT
BRANCH   5   8
HETATM    8  C   UNL     1      -8.778  17.852  67.254  1.00  0.00    -0.240 A  
HETATM    9  C   UNL     1      -9.856  17.649  66.351  1.00  0.00    -0.309 A  
HETATM   10  C   UNL     1     -10.659  18.728  65.940  1.00  0.00    -0.405 A  
HETATM   11  C   UNL     1      -8.564  19.182  67.687  1.00  0.00    -0.327 A  
HETATM   12  C   UNL     1     -10.389  20.025  66.362  1.00  0.00    -0.573 A  
HETATM   13  C   UNL     1      -9.336  20.256  67.234  1.00  0.00    -0.538 A  
BRANCH   9  14
HETATM   14  N   UNL     1     -10.073  16.386  65.750  1.00  0.00    -0.341 N  
HETATM   15  O   UNL     1     -11.319  15.385  67.428  1.00  0.00    -0.319 OA 
HETATM   16  H   UNL     1      -9.626  16.203  64.851  1.00  0.00     0.000 HD 
HETATM   17  C   UNL     1     -10.853  15.379  66.300  1.00  0.00    -0.301 C  
BRANCH  17  18
HETATM   18  C   UNL     1     -11.020  14.158  65.474  1.00  0.00    -0.310 A  
HETATM   19  C   UNL     1     -10.259  13.005  65.623  1.00  0.00    -0.287 A  
HETATM   20 CL   UNL     1      -8.996  12.823  66.779  1.00  0.00    -0.212 Cl 
HETATM   21  N   UNL     1     -10.400  11.900  64.853  1.00  0.00    -0.275 NA 
HETATM   22  C   UNL     1     -11.320  11.944  63.871  1.00  0.00    -0.428 A  
HETATM   23  C   UNL     1     -12.124  13.047  63.628  1.00  0.00    -0.604 A  
HETATM   24  C   UNL     1     -11.971  14.169  64.442  1.00  0.00    -0.478 A  
ENDBRANCH  17  18
ENDBRANCH   9  14
ENDBRANCH   5   8
TORSDOF 3
ENDMDL
MODEL       30
REMARK 921   NORMALIZED FREE ENERGY PREDICTED BY IDOCK:   -6.10 KCAL/MOL
REMARK 922        TOTAL FREE ENERGY PREDICTED BY IDOCK:   -8.51 KCAL/MOL
REMARK 923 INTER-LIGAND FREE ENERGY PREDICTED BY IDOCK:   -7.56 KCAL/MOL
REMARK 924 INTRA-LIGAND FREE ENERGY PREDICTED BY IDOCK:   -0.95 KCAL/MOL
REMARK 927      BINDING AFFINITY PREDICTED BY RF-SCORE:    0.00 PKD
ROOT
HETATM    1 CL   UNL     1      -7.977  19.623  67.019  1.00  0.00    -0.297 Cl 
HETATM    2  C   UNL     1      -8.670  18.137  66.503  1.00  0.00    -0.268 A  
HETATM    3  C   UNL     1      -9.958  18.113  65.987  1.00  0.00    -0.220 A  
HETATM    4  C   UNL     1     -10.529  16.895  65.594  1.00  0.00    -0.252 A  
HETATM    5  C   UNL     1      -9.854  15.665  65.751  1.00  0.00    -0.386 A  
HETATM    6  C   UNL     1      -7.950  16.956  66.625  1.00  0.00    -0.300 A  
HETATM    7  C   UNL     1      -8.548  15.737  66.280  1.00  0.00    -0.307 A  
ENDROOT
BRANCH   5   8
HETATM    8  C   UNL     1     -10.542  14.362  65.474  1.00  0.00    -0.360 A  
HETATM    9  C   UNL     1     -11.560  13.793  66.285  1.00  0.00    -0.350 A  
HETATM   10  C   UNL     1     -12.234  12.627  65.876  1.00  0.00    -0.375 A  
HETATM   11  C   UNL     1     -10.250  13.685  64.266  1.00  0.00     0.086 A  
HETATM   12  C   UNL     1     -11.888  11.973  64.699  1.00  0.00    -0.342 A  
HETATM   13  C   UNL     1     -10.889  12.499  63.893  1.00  0.00    -0.472 A  
BRANCH   9  14
HETATM   14  N   UNL     1     -11.836  14.308  67.574  1.00  0.00    -0.398 N  
HETATM   15  O   UNL     1     -11.184  12.488  68.850  1.00  0.00    -0.251 OA 
HETATM   16  H   UNL     1     -12.272  15.229  67.635  1.00  0.00     0.000 HD 
HETATM   17  C   UNL     1     -11.554  13.647  68.760  1.00  0.00    -0.324 C  
BRANCH  17  18
HETATM   18  C   UNL     1     -11.849  14.393  70.009  1.00  0.00    -0.377 A  
HETATM   19  C   UNL     1     -11.357  15.660  70.295  1.00  0.00    -0.344 A  
HETATM   20 CL   UNL     1     -10.318  16.552  69.252  1.00  0.00    -0.303 Cl 
HETATM   21  N   UNL     1     -11.610  16.328  71.446  1.00  0.00    -0.427 NA 
HETATM   22  C   UNL     1     -12.366  15.705  72.369  1.00  0.00    -0.426 A  
HETATM   23  C   UNL     1     -12.898  14.436  72.190  1.00  0.00    -0.418 A  
HETATM   24  C   UNL     1     -12.635  13.772  70.993  1.00  0.00    -0.446 A  
ENDBRANCH  17  18
ENDBRANCH   9  14
ENDBRANCH   5   8
TORSDOF 3
ENDMDL
MODEL       31
REMARK 921   NORMALIZED FREE ENERGY PREDICTED BY IDOCK:   -6.09 KCAL/MOL
REMARK 922        TOTAL FREE ENERGY PREDICTED BY IDOCK:   -8.49 KCAL/MOL
REMARK 923 INTER-LIGAND FREE ENERGY PREDICTED BY IDOCK:   -7.42 KCAL/MOL
REMARK 924 INTRA-LIGAND FREE ENERGY PREDICTED BY IDOCK:   -1.07 KCAL/MOL
REMARK 927      BINDING AFFINITY PREDICTED BY RF-SCORE:    0.00 PKD
ROOT
HETATM    1 CL   UNL     1      -8.346   7.176  70.059  1.00  0.00    -0.136 Cl 
HETATM    2  C   UNL     1      -8.911   8.221  68.817  1.00  0.00    -0.144 A  
HETATM    3  C   UNL     1      -8.276   9.434  68.587  1.00  0.00    -0.112 A  
HETATM    4  C   UNL     1      -8.759  10.295  67.592  1.00  0.00    -0.121 A  
HETATM    5  C   UNL     1      -9.913   9.996  66.836  1.00  0.00    -0.263 A  
HETATM    6  C   UNL     1     -10.018   7.863  68.060  1.00  0.00    -0.213 A  
HETATM    7  C   UNL     1     -10.525   8.753  67.104  1.00  0.00    -0.354 A  
ENDROOT
BRANCH   5   8
HETATM    8  C   UNL     1     -10.502  10.999  65.891  1.00  0.00    -0.300 A  
HETATM    9  C   UNL     1     -11.343  12.078  66.274  1.00  0.00    -0.357 A  
HETATM   10  C   UNL     1     -11.746  13.042  65.331  1.00  0.00    -0.401 A  
HETATM   11  C   UNL     1     -10.120  10.954  64.529  1.00  0.00    -0.404 A  
HETATM   12  C   UNL     1     -11.377  12.937  63.994  1.00  0.00    -0.466 A  
HETATM   13  C   UNL     1     -10.566  11.887  63.589  1.00  0.00    -0.500 A  
BRANCH   9  14
HETATM   14  N   UNL     1     -11.895  12.144  67.575  1.00  0.00    -0.305 N  
HETATM   15  O   UNL     1     -10.201  13.314  68.638  1.00  0.00    -0.232 OA 
HETATM   16  H   UNL     1     -12.777  11.659  67.744  1.00  0.00     0.000 HD 
HETATM   17  C   UNL     1     -11.318  12.824  68.638  1.00  0.00    -0.294 C  
BRANCH  17  18
HETATM   18  C   UNL     1     -12.095  12.839  69.902  1.00  0.00    -0.329 A  
HETATM   19  C   UNL     1     -12.511  13.996  70.548  1.00  0.00    -0.359 A  
HETATM   20 CL   UNL     1     -12.175  15.590  69.989  1.00  0.00    -0.393 Cl 
HETATM   21  N   UNL     1     -13.201  14.006  71.714  1.00  0.00    -0.353 NA 
HETATM   22  C   UNL     1     -13.473  12.816  72.282  1.00  0.00    -0.490 A  
HETATM   23  C   UNL     1     -13.094  11.602  71.728  1.00  0.00    -0.487 A  
HETATM   24  C   UNL     1     -12.396  11.615  70.521  1.00  0.00    -0.410 A  
ENDBRANCH  17  18
ENDBRANCH   9  14
ENDBRANCH   5   8
TORSDOF 3
ENDMDL
MODEL       32
REMARK 921   NORMALIZED FREE ENERGY PREDICTED BY IDOCK:   -6.08 KCAL/MOL
REMARK 922        TOTAL FREE ENERGY PREDICTED BY IDOCK:   -8.49 KCAL/MOL
REMARK 923 INTER-LIGAND FREE ENERGY PREDICTED BY IDOCK:   -8.30 KCAL/MOL
REMARK 924 INTRA-LIGAND FREE ENERGY PREDICTED BY IDOCK:   -0.18 KCAL/MOL
REMARK 927      BINDING AFFINITY PREDICTED BY RF-SCORE:    0.00 PKD
ROOT
HETATM    1 CL   UNL     1     -13.828  16.180  73.150  1.00  0.00    -0.456 Cl 
HETATM    2  C   UNL     1     -13.295  14.840  72.215  1.00  0.00    -0.391 A  
HETATM    3  C   UNL     1     -13.725  13.558  72.529  1.00  0.00    -0.664 A  
HETATM    4  C   UNL     1     -13.266  12.465  71.781  1.00  0.00    -0.435 A  
HETATM    5  C   UNL     1     -12.329  12.614  70.735  1.00  0.00    -0.372 A  
HETATM    6  C   UNL     1     -12.415  15.036  71.160  1.00  0.00    -0.400 A  
HETATM    7  C   UNL     1     -11.920  13.933  70.451  1.00  0.00    -0.393 A  
ENDROOT
BRANCH   5   8
HETATM    8  C   UNL     1     -11.731  11.419  70.055  1.00  0.00    -0.416 A  
HETATM    9  C   UNL     1     -10.848  11.474  68.944  1.00  0.00    -0.218 A  
HETATM   10  C   UNL     1     -10.239  10.304  68.453  1.00  0.00    -0.189 A  
HETATM   11  C   UNL     1     -11.963  10.137  70.610  1.00  0.00    -0.423 A  
HETATM   12  C   UNL     1     -10.525   9.061  69.005  1.00  0.00    -0.235 A  
HETATM   13  C   UNL     1     -11.393   8.974  70.083  1.00  0.00    -0.139 A  
BRANCH   9  14
HETATM   14  N   UNL     1     -10.653  12.681  68.230  1.00  0.00    -0.230 N  
HETATM   15  O   UNL     1     -12.274  12.411  66.597  1.00  0.00    -0.562 OA 
HETATM   16  H   UNL     1      -9.888  13.289  68.522  1.00  0.00     0.000 HD 
HETATM   17  C   UNL     1     -11.433  13.092  67.159  1.00  0.00    -0.334 C  
BRANCH  17  18
HETATM   18  C   UNL     1     -11.115  14.428  66.596  1.00  0.00    -0.326 A  
HETATM   19  C   UNL     1     -11.073  14.711  65.237  1.00  0.00    -0.360 A  
HETATM   20 CL   UNL     1     -11.366  13.552  63.998  1.00  0.00    -0.357 Cl 
HETATM   21  N   UNL     1     -10.761  15.926  64.726  1.00  0.00    -0.576 NA 
HETATM   22  C   UNL     1     -10.453  16.903  65.599  1.00  0.00    -0.238 A  
HETATM   23  C   UNL     1     -10.453  16.725  66.975  1.00  0.00    -0.285 A  
HETATM   24  C   UNL     1     -10.790  15.469  67.479  1.00  0.00    -0.306 A  
ENDBRANCH  17  18
ENDBRANCH   9  14
ENDBRANCH   5   8
TORSDOF 3
ENDMDL
MODEL       33
REMARK 921   NORMALIZED FREE ENERGY PREDICTED BY IDOCK:   -6.04 KCAL/MOL
REMARK 922        TOTAL FREE ENERGY PREDICTED BY IDOCK:   -8.44 KCAL/MOL
REMARK 923 INTER-LIGAND FREE ENERGY PREDICTED BY IDOCK:   -7.12 KCAL/MOL
REMARK 924 INTRA-LIGAND FREE ENERGY PREDICTED BY IDOCK:   -1.31 KCAL/MOL
REMARK 927      BINDING AFFINITY PREDICTED BY RF-SCORE:    0.00 PKD
ROOT
HETATM    1 CL   UNL     1      -8.284  17.646  66.487  1.00  0.00    -0.290 Cl 
HETATM    2  C   UNL     1      -9.314  16.720  67.505  1.00  0.00    -0.231 A  
HETATM    3  C   UNL     1     -10.525  16.247  67.021  1.00  0.00    -0.306 A  
HETATM    4  C   UNL     1     -11.374  15.516  67.864  1.00  0.00    -0.309 A  
HETATM    5  C   UNL     1     -11.064  15.281  69.221  1.00  0.00    -0.277 A  
HETATM    6  C   UNL     1      -8.945  16.466  68.819  1.00  0.00    -0.245 A  
HETATM    7  C   UNL     1      -9.823  15.781  69.668  1.00  0.00    -0.275 A  
ENDROOT
BRANCH   5   8
HETATM    8  C   UNL     1     -12.055  14.637  70.143  1.00  0.00    -0.385 A  
HETATM    9  C   UNL     1     -12.045  13.267  70.518  1.00  0.00    -0.314 A  
HETATM   10  C   UNL     1     -12.942  12.783  71.488  1.00  0.00    -0.388 A  
HETATM   11  C   UNL     1     -13.015  15.456  70.784  1.00  0.00    -0.510 A  
HETATM   12  C   UNL     1     -13.894  13.616  72.064  1.00  0.00    -0.565 A  
HETATM   13  C   UNL     1     -13.936  14.955  71.709  1.00  0.00    -0.583 A  
BRANCH   9  14
HETATM   14  N   UNL     1     -11.221  12.335  69.842  1.00  0.00    -0.485 N  
HETATM   15  O   UNL     1     -12.390  12.184  67.847  1.00  0.00    -0.310 OA 
HETATM   16  H   UNL     1     -10.433  11.937  70.354  1.00  0.00     0.000 HD 
HETATM   17  C   UNL     1     -11.414  11.924  68.531  1.00  0.00    -0.295 C  
BRANCH  17  18
HETATM   18  C   UNL     1     -10.393  10.999  67.981  1.00  0.00    -0.209 A  
HETATM   19  C   UNL     1      -9.136  11.396  67.543  1.00  0.00    -0.157 A  
HETATM   20 CL   UNL     1      -8.576  13.024  67.557  1.00  0.00    -0.180 Cl 
HETATM   21  N   UNL     1      -8.215  10.551  67.020  1.00  0.00    -0.123 NA 
HETATM   22  C   UNL     1      -8.560   9.256  66.902  1.00  0.00    -0.127 A  
HETATM   23  C   UNL     1      -9.792   8.756  67.297  1.00  0.00    -0.260 A  
HETATM   24  C   UNL     1     -10.720   9.641  67.844  1.00  0.00    -0.302 A  
ENDBRANCH  17  18
ENDBRANCH   9  14
ENDBRANCH   5   8
TORSDOF 3
ENDMDL
MODEL       34
REMARK 921   NORMALIZED FREE ENERGY PREDICTED BY IDOCK:   -6.02 KCAL/MOL
REMARK 922        TOTAL FREE ENERGY PREDICTED BY IDOCK:   -8.42 KCAL/MOL
REMARK 923 INTER-LIGAND FREE ENERGY PREDICTED BY IDOCK:   -7.23 KCAL/MOL
REMARK 924 INTRA-LIGAND FREE ENERGY PREDICTED BY IDOCK:   -1.18 KCAL/MOL
REMARK 927      BINDING AFFINITY PREDICTED BY RF-SCORE:    0.00 PKD
ROOT
HETATM    1 CL   UNL     1      -8.127  10.320  64.732  1.00  0.00    -0.156 Cl 
HETATM    2  C   UNL     1      -9.060  10.628  66.142  1.00  0.00    -0.170 A  
HETATM    3  C   UNL     1     -10.446  10.652  66.066  1.00  0.00    -0.250 A  
HETATM    4  C   UNL     1     -11.201  10.932  67.213  1.00  0.00    -0.307 A  
HETATM    5  C   UNL     1     -10.598  11.244  68.451  1.00  0.00    -0.226 A  
HETATM    6  C   UNL     1      -8.427  10.878  67.352  1.00  0.00    -0.120 A  
HETATM    7  C   UNL     1      -9.189  11.208  68.480  1.00  0.00    -0.183 A  
ENDROOT
BRANCH   5   8
HETATM    8  C   UNL     1     -11.419  11.696  69.621  1.00  0.00    -0.359 A  
HETATM    9  C   UNL     1     -11.764  13.045  69.899  1.00  0.00    -0.256 A  
HETATM   10  C   UNL     1     -12.644  13.358  70.952  1.00  0.00    -0.406 A  
HETATM   11  C   UNL     1     -11.996  10.715  70.464  1.00  0.00    -0.446 A  
HETATM   12  C   UNL     1     -13.156  12.365  71.778  1.00  0.00    -0.446 A  
HETATM   13  C   UNL     1     -12.828  11.039  71.538  1.00  0.00    -0.555 A  
BRANCH   9  14
HETATM   14  N   UNL     1     -11.139  14.112  69.209  1.00  0.00    -0.271 N  
HETATM   15  O   UNL     1     -12.478  14.165  67.318  1.00  0.00    -0.253 OA 
HETATM   16  H   UNL     1     -10.300  14.520  69.622  1.00  0.00     0.000 HD 
HETATM   17  C   UNL     1     -11.592  14.641  68.009  1.00  0.00    -0.340 C  
BRANCH  17  18
HETATM   18  C   UNL     1     -10.842  15.810  67.487  1.00  0.00    -0.315 A  
HETATM   19  C   UNL     1     -10.126  15.810  66.297  1.00  0.00    -0.303 A  
HETATM   20 CL   UNL     1      -9.987  14.448  65.253  1.00  0.00    -0.366 Cl 
HETATM   21  N   UNL     1      -9.425  16.873  65.835  1.00  0.00    -0.517 NA 
HETATM   22  C   UNL     1      -9.410  17.982  66.597  1.00  0.00    -0.291 A  
HETATM   23  C   UNL     1     -10.081  18.086  67.807  1.00  0.00    -0.359 A  
HETATM   24  C   UNL     1     -10.806  16.984  68.257  1.00  0.00    -0.341 A  
ENDBRANCH  17  18
ENDBRANCH   9  14
ENDBRANCH   5   8
TORSDOF 3
ENDMDL
MODEL       35
REMARK 921   NORMALIZED FREE ENERGY PREDICTED BY IDOCK:   -6.00 KCAL/MOL
REMARK 922        TOTAL FREE ENERGY PREDICTED BY IDOCK:   -8.39 KCAL/MOL
REMARK 923 INTER-LIGAND FREE ENERGY PREDICTED BY IDOCK:   -7.76 KCAL/MOL
REMARK 924 INTRA-LIGAND FREE ENERGY PREDICTED BY IDOCK:   -0.64 KCAL/MOL
REMARK 927      BINDING AFFINITY PREDICTED BY RF-SCORE:    0.00 PKD
ROOT
HETATM    1 CL   UNL     1     -11.833   5.827  72.120  1.00  0.00    -0.250 Cl 
HETATM    2  C   UNL     1     -12.087   7.498  71.806  1.00  0.00    -0.308 A  
HETATM    3  C   UNL     1     -11.004   8.333  71.569  1.00  0.00    -0.312 A  
HETATM    4  C   UNL     1     -11.215   9.700  71.341  1.00  0.00    -0.426 A  
HETATM    5  C   UNL     1     -12.502  10.279  71.394  1.00  0.00    -0.528 A  
HETATM    6  C   UNL     1     -13.375   8.017  71.814  1.00  0.00    -0.370 A  
HETATM    7  C   UNL     1     -13.571   9.393  71.638  1.00  0.00    -0.437 A  
ENDROOT
BRANCH   5   8
HETATM    8  C   UNL     1     -12.687  11.764  71.307  1.00  0.00    -0.420 A  
HETATM    9  C   UNL     1     -12.046  12.608  70.361  1.00  0.00    -0.300 A  
HETATM   10  C   UNL     1     -12.380  13.973  70.276  1.00  0.00    -0.425 A  
HETATM   11  C   UNL     1     -13.648  12.378  72.146  1.00  0.00    -0.405 A  
HETATM   12  C   UNL     1     -13.303  14.541  71.146  1.00  0.00    -0.415 A  
HETATM   13  C   UNL     1     -13.936  13.744  72.088  1.00  0.00    -0.638 A  
BRANCH   9  14
HETATM   14  N   UNL     1     -10.975  12.131  69.568  1.00  0.00    -0.462 N  
HETATM   15  O   UNL     1     -12.151  11.575  67.651  1.00  0.00    -0.623 OA 
HETATM   16  H   UNL     1     -10.050  12.082  69.996  1.00  0.00     0.000 HD 
HETATM   17  C   UNL     1     -11.097  11.724  68.248  1.00  0.00    -0.240 C  
BRANCH  17  18
HETATM   18  C   UNL     1      -9.839  11.331  67.566  1.00  0.00    -0.195 A  
HETATM   19  C   UNL     1      -9.579  10.056  67.083  1.00  0.00    -0.165 A  
HETATM   20 CL   UNL     1     -10.671   8.730  67.214  1.00  0.00    -0.299 Cl 
HETATM   21  N   UNL     1      -8.421   9.695  66.481  1.00  0.00    -0.123 NA 
HETATM   22  C   UNL     1      -7.462  10.634  66.373  1.00  0.00    -0.138 A  
HETATM   23  C   UNL     1      -7.613  11.935  66.831  1.00  0.00    -0.093 A  
HETATM   24  C   UNL     1      -8.819  12.287  67.436  1.00  0.00    -0.185 A  
ENDBRANCH  17  18
ENDBRANCH   9  14
ENDBRANCH   5   8
TORSDOF 3
ENDMDL
MODEL       36
REMARK 921   NORMALIZED FREE ENERGY PREDICTED BY IDOCK:   -5.98 KCAL/MOL
REMARK 922        TOTAL FREE ENERGY PREDICTED BY IDOCK:   -8.36 KCAL/MOL
REMARK 923 INTER-LIGAND FREE ENERGY PREDICTED BY IDOCK:   -7.38 KCAL/MOL
REMARK 924 INTRA-LIGAND FREE ENERGY PREDICTED BY IDOCK:   -0.98 KCAL/MOL
REMARK 927      BINDING AFFINITY PREDICTED BY RF-SCORE:    0.00 PKD
ROOT
HETATM    1 CL   UNL     1      -7.904  18.066  66.164  1.00  0.00    -0.275 Cl 
HETATM    2  C   UNL     1      -8.468  16.483  66.525  1.00  0.00    -0.293 A  
HETATM    3  C   UNL     1      -7.843  15.732  67.511  1.00  0.00    -0.182 A  
HETATM    4  C   UNL     1      -8.288  14.431  67.782  1.00  0.00    -0.172 A  
HETATM    5  C   UNL     1      -9.332  13.827  67.048  1.00  0.00    -0.250 A  
HETATM    6  C   UNL     1      -9.533  15.947  65.814  1.00  0.00    -0.316 A  
HETATM    7  C   UNL     1      -9.937  14.627  66.056  1.00  0.00    -0.337 A  
ENDROOT
BRANCH   5   8
HETATM    8  C   UNL     1      -9.685  12.383  67.246  1.00  0.00    -0.201 A  
HETATM    9  C   UNL     1     -10.481  11.881  68.310  1.00  0.00    -0.205 A  
HETATM   10  C   UNL     1     -10.862  10.526  68.342  1.00  0.00    -0.284 A  
HETATM   11  C   UNL     1      -9.299  11.449  66.255  1.00  0.00    -0.228 A  
HETATM   12  C   UNL     1     -10.429   9.635  67.366  1.00  0.00    -0.319 A  
HETATM   13  C   UNL     1      -9.640  10.095  66.322  1.00  0.00    -0.245 A  
BRANCH   9  14
HETATM   14  N   UNL     1     -10.806  12.694  69.421  1.00  0.00    -0.446 N  
HETATM   15  O   UNL     1     -12.534  13.924  68.489  1.00  0.00    -0.128 OA 
HETATM   16  H   UNL     1     -10.228  12.610  70.258  1.00  0.00     0.000 HD 
HETATM   17  C   UNL     1     -11.858  13.598  69.451  1.00  0.00    -0.339 C  
BRANCH  17  18
HETATM   18  C   UNL     1     -12.081  14.298  70.740  1.00  0.00    -0.418 A  
HETATM   19  C   UNL     1     -12.713  13.728  71.838  1.00  0.00    -0.253 A  
HETATM   20 CL   UNL     1     -13.347  12.127  71.865  1.00  0.00    -0.517 Cl 
HETATM   21  N   UNL     1     -12.935  14.377  73.005  1.00  0.00    -0.505 NA 
HETATM   22  C   UNL     1     -12.535  15.660  73.085  1.00  0.00    -0.476 A  
HETATM   23  C   UNL     1     -11.906  16.329  72.045  1.00  0.00    -0.568 A  
HETATM   24  C   UNL     1     -11.676  15.637  70.857  1.00  0.00    -0.423 A  
ENDBRANCH  17  18
ENDBRANCH   9  14
ENDBRANCH   5   8
TORSDOF 3
ENDMDL
MODEL       37
REMARK 921   NORMALIZED FREE ENERGY PREDICTED BY IDOCK:   -5.97 KCAL/MOL
REMARK 922        TOTAL FREE ENERGY PREDICTED BY IDOCK:   -8.35 KCAL/MOL
REMARK 923 INTER-LIGAND FREE ENERGY PREDICTED BY IDOCK:   -7.03 KCAL/MOL
REMARK 924 INTRA-LIGAND FREE ENERGY PREDICTED BY IDOCK:   -1.33 KCAL/MOL
REMARK 927      BINDING AFFINITY PREDICTED BY RF-SCORE:    0.00 PKD
ROOT
HETATM    1 CL   UNL     1     -10.896   6.868  73.397  1.00  0.00    -0.326 Cl 
HETATM    2  C   UNL     1     -10.353   7.653  71.968  1.00  0.00    -0.207 A  
HETATM    3  C   UNL     1      -9.288   8.542  72.026  1.00  0.00    -0.353 A  
HETATM    4  C   UNL     1      -8.866   9.201  70.863  1.00  0.00    -0.292 A  
HETATM    5  C   UNL     1      -9.524   9.032  69.625  1.00  0.00    -0.174 A  
HETATM    6  C   UNL     1     -10.994   7.417  70.760  1.00  0.00    -0.272 A  
HETATM    7  C   UNL     1     -10.600   8.120  69.614  1.00  0.00    -0.223 A  
ENDROOT
BRANCH   5   8
HETATM    8  C   UNL     1      -9.159   9.865  68.433  1.00  0.00    -0.123 A  
HETATM    9  C   UNL     1      -9.377  11.264  68.323  1.00  0.00    -0.180 A  
HETATM   10  C   UNL     1      -8.886  11.981  67.216  1.00  0.00    -0.183 A  
HETATM   11  C   UNL     1      -8.445   9.256  67.373  1.00  0.00    -0.122 A  
HETATM   12  C   UNL     1      -8.223  11.335  66.179  1.00  0.00    -0.088 A  
HETATM   13  C   UNL     1      -8.006   9.967  66.253  1.00  0.00    -0.111 A  
BRANCH   9  14
HETATM   14  N   UNL     1     -10.194  11.948  69.255  1.00  0.00    -0.411 N  
HETATM   15  O   UNL     1     -12.265  11.554  68.293  1.00  0.00    -0.561 OA 
HETATM   16  H   UNL     1      -9.733  12.456  70.010  1.00  0.00     0.000 HD 
HETATM   17  C   UNL     1     -11.580  11.975  69.211  1.00  0.00    -0.321 C  
BRANCH  17  18
HETATM   18  C   UNL     1     -12.255  12.683  70.327  1.00  0.00    -0.347 A  
HETATM   19  C   UNL     1     -12.809  12.049  71.432  1.00  0.00    -0.288 A  
HETATM   20 CL   UNL     1     -12.811  10.343  71.667  1.00  0.00    -0.545 Cl 
HETATM   21  N   UNL     1     -13.444  12.697  72.437  1.00  0.00    -0.487 NA 
HETATM   22  C   UNL     1     -13.559  14.034  72.336  1.00  0.00    -0.557 A  
HETATM   23  C   UNL     1     -13.052  14.764  71.272  1.00  0.00    -0.433 A  
HETATM   24  C   UNL     1     -12.391  14.078  70.253  1.00  0.00    -0.425 A  
ENDBRANCH  17  18
ENDBRANCH   9  14
ENDBRANCH   5   8
TORSDOF 3
ENDMDL
MODEL       38
REMARK 921   NORMALIZED FREE ENERGY PREDICTED BY IDOCK:   -5.90 KCAL/MOL
REMARK 922        TOTAL FREE ENERGY PREDICTED BY IDOCK:   -8.27 KCAL/MOL
REMARK 923 INTER-LIGAND FREE ENERGY PREDICTED BY IDOCK:   -7.95 KCAL/MOL
REMARK 924 INTRA-LIGAND FREE ENERGY PREDICTED BY IDOCK:   -0.32 KCAL/MOL
REMARK 927      BINDING AFFINITY PREDICTED BY RF-SCORE:    0.00 PKD
ROOT
HETATM    1 CL   UNL     1     -10.430   6.925  73.965  1.00  0.00    -0.372 Cl 
HETATM    2  C   UNL     1     -10.465   7.851  72.518  1.00  0.00    -0.300 A  
HETATM    3  C   UNL     1     -11.659   8.023  71.831  1.00  0.00    -0.348 A  
HETATM    4  C   UNL     1     -11.676   8.755  70.636  1.00  0.00    -0.194 A  
HETATM    5  C   UNL     1     -10.500   9.292  70.068  1.00  0.00    -0.254 A  
HETATM    6  C   UNL     1      -9.294   8.407  72.022  1.00  0.00    -0.332 A  
HETATM    7  C   UNL     1      -9.311   9.092  70.800  1.00  0.00    -0.325 A  
ENDROOT
BRANCH   5   8
HETATM    8  C   UNL     1     -10.517   9.932  68.712  1.00  0.00    -0.234 A  
HETATM    9  C   UNL     1     -10.669  11.324  68.474  1.00  0.00    -0.201 A  
HETATM   10  C   UNL     1     -10.546  11.846  67.172  1.00  0.00    -0.264 A  
HETATM   11  C   UNL     1     -10.254   9.126  67.579  1.00  0.00    -0.304 A  
HETATM   12  C   UNL     1     -10.325  11.011  66.083  1.00  0.00    -0.306 A  
HETATM   13  C   UNL     1     -10.184   9.646  66.283  1.00  0.00    -0.286 A  
BRANCH   9  14
HETATM   14  N   UNL     1     -11.068  12.200  69.511  1.00  0.00    -0.458 N  
HETATM   15  O   UNL     1     -12.241  13.754  68.254  1.00  0.00    -0.335 OA 
HETATM   16  H   UNL     1     -10.730  12.007  70.454  1.00  0.00     0.000 HD 
HETATM   17  C   UNL     1     -11.889  13.304  69.333  1.00  0.00    -0.329 C  
BRANCH  17  18
HETATM   18  C   UNL     1     -12.256  14.050  70.562  1.00  0.00    -0.435 A  
HETATM   19  C   UNL     1     -11.756  15.303  70.892  1.00  0.00    -0.344 A  
HETATM   20 CL   UNL     1     -10.621  16.175  69.933  1.00  0.00    -0.311 Cl 
HETATM   21  N   UNL     1     -12.076  15.971  72.026  1.00  0.00    -0.492 NA 
HETATM   22  C   UNL     1     -12.912  15.363  72.887  1.00  0.00    -0.470 A  
HETATM   23  C   UNL     1     -13.460  14.109  72.661  1.00  0.00    -0.634 A  
HETATM   24  C   UNL     1     -13.126  13.444  71.481  1.00  0.00    -0.427 A  
ENDBRANCH  17  18
ENDBRANCH   9  14
ENDBRANCH   5   8
TORSDOF 3
ENDMDL
MODEL       39
REMARK 921   NORMALIZED FREE ENERGY PREDICTED BY IDOCK:   -5.90 KCAL/MOL
REMARK 922        TOTAL FREE ENERGY PREDICTED BY IDOCK:   -8.26 KCAL/MOL
REMARK 923 INTER-LIGAND FREE ENERGY PREDICTED BY IDOCK:   -8.27 KCAL/MOL
REMARK 924 INTRA-LIGAND FREE ENERGY PREDICTED BY IDOCK:    0.01 KCAL/MOL
REMARK 927      BINDING AFFINITY PREDICTED BY RF-SCORE:    0.00 PKD
ROOT
HETATM    1 CL   UNL     1     -13.857  15.816  72.885  1.00  0.00    -0.641 Cl 
HETATM    2  C   UNL     1     -13.340  14.395  72.068  1.00  0.00    -0.384 A  
HETATM    3  C   UNL     1     -13.719  13.146  72.540  1.00  0.00    -0.563 A  
HETATM    4  C   UNL     1     -13.271  11.989  71.886  1.00  0.00    -0.469 A  
HETATM    5  C   UNL     1     -12.397  12.044  70.779  1.00  0.00    -0.403 A  
HETATM    6  C   UNL     1     -12.523  14.496  70.950  1.00  0.00    -0.415 A  
HETATM    7  C   UNL     1     -12.038  13.334  70.335  1.00  0.00    -0.401 A  
ENDROOT
BRANCH   5   8
HETATM    8  C   UNL     1     -11.805  10.796  70.196  1.00  0.00    -0.427 A  
HETATM    9  C   UNL     1     -11.289  10.681  68.877  1.00  0.00    -0.274 A  
HETATM   10  C   UNL     1     -10.639   9.504  68.462  1.00  0.00    -0.247 A  
HETATM   11  C   UNL     1     -11.636   9.669  71.036  1.00  0.00    -0.436 A  
HETATM   12  C   UNL     1     -10.530   8.407  69.309  1.00  0.00    -0.223 A  
HETATM   13  C   UNL     1     -11.035   8.486  70.598  1.00  0.00    -0.268 A  
BRANCH   9  14
HETATM   14  N   UNL     1     -11.523  11.693  67.915  1.00  0.00    -0.301 N  
HETATM   15  O   UNL     1      -9.477  12.776  68.010  1.00  0.00    -0.201 OA 
HETATM   16  H   UNL     1     -12.453  11.748  67.498  1.00  0.00     0.000 HD 
HETATM   17  C   UNL     1     -10.573  12.614  67.499  1.00  0.00    -0.221 C  
BRANCH  17  18
HETATM   18  C   UNL     1     -10.993  13.543  66.421  1.00  0.00    -0.297 A  
HETATM   19  C   UNL     1     -10.396  14.773  66.175  1.00  0.00    -0.304 A  
HETATM   20 CL   UNL     1      -9.089  15.414  67.095  1.00  0.00    -0.223 Cl 
HETATM   21  N   UNL     1     -10.797  15.628  65.205  1.00  0.00    -0.416 NA 
HETATM   22  C   UNL     1     -11.853  15.263  64.455  1.00  0.00    -0.295 A  
HETATM   23  C   UNL     1     -12.528  14.063  64.623  1.00  0.00    -0.366 A  
HETATM   24  C   UNL     1     -12.091  13.192  65.620  1.00  0.00    -0.501 A  
ENDBRANCH  17  18
ENDBRANCH   9  14
ENDBRANCH   5   8
TORSDOF 3
ENDMDL
MODEL       40
REMARK 921   NORMALIZED FREE ENERGY PREDICTED BY IDOCK:   -5.88 KCAL/MOL
REMARK 922        TOTAL FREE ENERGY PREDICTED BY IDOCK:   -8.25 KCAL/MOL
REMARK 923 INTER-LIGAND FREE ENERGY PREDICTED BY IDOCK:   -7.07 KCAL/MOL
REMARK 924 INTRA-LIGAND FREE ENERGY PREDICTED BY IDOCK:   -1.18 KCAL/MOL
REMARK 927      BINDING AFFINITY PREDICTED BY RF-SCORE:    0.00 PKD
ROOT
HETATM    1 CL   UNL     1      -7.001   9.165  65.954  1.00  0.00    -0.087 Cl 
HETATM    2  C   UNL     1      -8.163   9.146  67.221  1.00  0.00    -0.114 A  
HETATM    3  C   UNL     1      -9.425   8.615  66.998  1.00  0.00    -0.221 A  
HETATM    4  C   UNL     1     -10.378   8.627  68.027  1.00  0.00    -0.277 A  
HETATM    5  C   UNL     1     -10.116   9.212  69.285  1.00  0.00    -0.196 A  
HETATM    6  C   UNL     1      -7.845   9.683  68.461  1.00  0.00    -0.085 A  
HETATM    7  C   UNL     1      -8.820   9.739  69.466  1.00  0.00    -0.202 A  
ENDROOT
BRANCH   5   8
HETATM    8  C   UNL     1     -11.197   9.356  70.313  1.00  0.00    -0.286 A  
HETATM    9  C   UNL     1     -11.923  10.551  70.566  1.00  0.00    -0.342 A  
HETATM   10  C   UNL     1     -13.006  10.556  71.464  1.00  0.00    -0.565 A  
HETATM   11  C   UNL     1     -11.619   8.204  71.020  1.00  0.00    -0.301 A  
HETATM   12  C   UNL     1     -13.361   9.409  72.165  1.00  0.00    -0.545 A  
HETATM   13  C   UNL     1     -12.664   8.230  71.948  1.00  0.00    -0.373 A  
BRANCH   9  14
HETATM   14  N   UNL     1     -11.501  11.787  70.019  1.00  0.00    -0.497 N  
HETATM   15  O   UNL     1     -12.275  11.518  67.852  1.00  0.00    -0.586 OA 
HETATM   16  H   UNL     1     -10.957  12.411  70.616  1.00  0.00     0.000 HD 
HETATM   17  C   UNL     1     -11.778  12.208  68.727  1.00  0.00    -0.321 C  
BRANCH  17  18
HETATM   18  C   UNL     1     -11.315  13.572  68.372  1.00  0.00    -0.327 A  
HETATM   19  C   UNL     1     -10.291  13.839  67.473  1.00  0.00    -0.241 A  
HETATM   20 CL   UNL     1      -9.391  12.626  66.645  1.00  0.00    -0.235 Cl 
HETATM   21  N   UNL     1      -9.856  15.084  67.168  1.00  0.00    -0.231 NA 
HETATM   22  C   UNL     1     -10.445  16.117  67.799  1.00  0.00    -0.295 A  
HETATM   23  C   UNL     1     -11.468  15.963  68.722  1.00  0.00    -0.393 A  
HETATM   24  C   UNL     1     -11.909  14.672  69.012  1.00  0.00    -0.346 A  
ENDBRANCH  17  18
ENDBRANCH   9  14
ENDBRANCH   5   8
TORSDOF 3
ENDMDL
MODEL       41
REMARK 921   NORMALIZED FREE ENERGY PREDICTED BY IDOCK:   -5.86 KCAL/MOL
REMARK 922        TOTAL FREE ENERGY PREDICTED BY IDOCK:   -8.22 KCAL/MOL
REMARK 923 INTER-LIGAND FREE ENERGY PREDICTED BY IDOCK:   -7.47 KCAL/MOL
REMARK 924 INTRA-LIGAND FREE ENERGY PREDICTED BY IDOCK:   -0.75 KCAL/MOL
REMARK 927      BINDING AFFINITY PREDICTED BY RF-SCORE:    0.00 PKD
ROOT
HETATM    1 CL   UNL     1      -9.135   8.629  71.629  1.00  0.00    -0.294 Cl 
HETATM    2  C   UNL     1      -9.741   9.448  70.245  1.00  0.00    -0.246 A  
HETATM    3  C   UNL     1      -8.867   9.904  69.269  1.00  0.00    -0.178 A  
HETATM    4  C   UNL     1      -9.364  10.595  68.156  1.00  0.00    -0.152 A  
HETATM    5  C   UNL     1     -10.736  10.895  68.011  1.00  0.00    -0.263 A  
HETATM    6  C   UNL     1     -11.104   9.675  70.116  1.00  0.00    -0.314 A  
HETATM    7  C   UNL     1     -11.587  10.413  69.027  1.00  0.00    -0.220 A  
ENDROOT
BRANCH   5   8
HETATM    8  C   UNL     1     -11.224  11.772  66.897  1.00  0.00    -0.387 A  
HETATM    9  C   UNL     1     -11.843  13.039  67.072  1.00  0.00    -0.377 A  
HETATM   10  C   UNL     1     -12.154  13.845  65.961  1.00  0.00    -0.465 A  
HETATM   11  C   UNL     1     -10.963  11.381  65.562  1.00  0.00    -0.248 A  
HETATM   12  C   UNL     1     -11.914  13.403  64.665  1.00  0.00    -0.441 A  
HETATM   13  C   UNL     1     -11.322  12.166  64.462  1.00  0.00    -0.393 A  
BRANCH   9  14
HETATM   14  N   UNL     1     -12.272  13.468  68.351  1.00  0.00    -0.309 N  
HETATM   15  O   UNL     1     -10.214  13.999  69.274  1.00  0.00    -0.079 OA 
HETATM   16  H   UNL     1     -13.265  13.390  68.571  1.00  0.00     0.000 HD 
HETATM   17  C   UNL     1     -11.433  13.988  69.326  1.00  0.00    -0.295 C  
BRANCH  17  18
HETATM   18  C   UNL     1     -12.091  14.454  70.572  1.00  0.00    -0.404 A  
HETATM   19  C   UNL     1     -11.947  15.731  71.099  1.00  0.00    -0.423 A  
HETATM   20 CL   UNL     1     -10.970  16.963  70.396  1.00  0.00     0.078 Cl 
HETATM   21  N   UNL     1     -12.531  16.146  72.248  1.00  0.00    -0.456 NA 
HETATM   22  C   UNL     1     -13.274  15.249  72.923  1.00  0.00    -0.508 A  
HETATM   23  C   UNL     1     -13.474  13.946  72.492  1.00  0.00    -0.676 A  
HETATM   24  C   UNL     1     -12.874  13.544  71.299  1.00  0.00    -0.420 A  
ENDBRANCH  17  18
ENDBRANCH   9  14
ENDBRANCH   5   8
TORSDOF 3
ENDMDL
MODEL       42
REMARK 921   NORMALIZED FREE ENERGY PREDICTED BY IDOCK:   -5.84 KCAL/MOL
REMARK 922        TOTAL FREE ENERGY PREDICTED BY IDOCK:   -8.20 KCAL/MOL
REMARK 923 INTER-LIGAND FREE ENERGY PREDICTED BY IDOCK:   -6.80 KCAL/MOL
REMARK 924 INTRA-LIGAND FREE ENERGY PREDICTED BY IDOCK:   -1.41 KCAL/MOL
REMARK 927      BINDING AFFINITY PREDICTED BY RF-SCORE:    0.00 PKD
ROOT
HETATM    1 CL   UNL     1     -11.524  16.472  68.257  1.00  0.00    -0.195 Cl 
HETATM    2  C   UNL     1     -11.057  14.882  67.800  1.00  0.00    -0.309 A  
HETATM    3  C   UNL     1      -9.845  14.362  68.234  1.00  0.00    -0.229 A  
HETATM    4  C   UNL     1      -9.456  13.076  67.835  1.00  0.00    -0.219 A  
HETATM    5  C   UNL     1     -10.238  12.295  66.956  1.00  0.00    -0.230 A  
HETATM    6  C   UNL     1     -11.881  14.127  66.978  1.00  0.00    -0.458 A  
HETATM    7  C   UNL     1     -11.460  12.863  66.541  1.00  0.00    -0.390 A  
ENDROOT
BRANCH   5   8
HETATM    8  C   UNL     1      -9.729  10.991  66.417  1.00  0.00    -0.235 A  
HETATM    9  C   UNL     1     -10.169   9.710  66.843  1.00  0.00    -0.237 A  
HETATM   10  C   UNL     1      -9.724   8.546  66.190  1.00  0.00    -0.259 A  
HETATM   11  C   UNL     1      -8.825  11.015  65.328  1.00  0.00    -0.139 A  
HETATM   12  C   UNL     1      -8.806   8.614  65.149  1.00  0.00    -0.147 A  
HETATM   13  C   UNL     1      -8.349   9.850  64.719  1.00  0.00    -0.163 A  
BRANCH   9  14
HETATM   14  N   UNL     1     -10.964   9.563  68.006  1.00  0.00    -0.486 N  
HETATM   15  O   UNL     1      -9.304   9.727  69.614  1.00  0.00    -0.191 OA 
HETATM   16  H   UNL     1     -11.959   9.373  67.881  1.00  0.00     0.000 HD 
HETATM   17  C   UNL     1     -10.482   9.661  69.303  1.00  0.00    -0.217 C  
BRANCH  17  18
HETATM   18  C   UNL     1     -11.492   9.555  70.384  1.00  0.00    -0.297 A  
HETATM   19  C   UNL     1     -12.253  10.620  70.848  1.00  0.00    -0.395 A  
HETATM   20 CL   UNL     1     -12.129  12.230  70.249  1.00  0.00    -0.414 Cl 
HETATM   21  N   UNL     1     -13.159  10.524  71.850  1.00  0.00    -0.479 NA 
HETATM   22  C   UNL     1     -13.303   9.323  72.441  1.00  0.00    -0.449 A  
HETATM   23  C   UNL     1     -12.586   8.197  72.063  1.00  0.00    -0.366 A  
HETATM   24  C   UNL     1     -11.668   8.316  71.020  1.00  0.00    -0.293 A  
ENDBRANCH  17  18
ENDBRANCH   9  14
ENDBRANCH   5   8
TORSDOF 3
ENDMDL
MODEL       43
REMARK 921   NORMALIZED FREE ENERGY PREDICTED BY IDOCK:   -5.80 KCAL/MOL
REMARK 922        TOTAL FREE ENERGY PREDICTED BY IDOCK:   -8.16 KCAL/MOL
REMARK 923 INTER-LIGAND FREE ENERGY PREDICTED BY IDOCK:   -8.28 KCAL/MOL
REMARK 924 INTRA-LIGAND FREE ENERGY PREDICTED BY IDOCK:    0.13 KCAL/MOL
REMARK 927      BINDING AFFINITY PREDICTED BY RF-SCORE:    0.00 PKD
ROOT
HETATM    1 CL   UNL     1      -9.691  10.149  63.952  1.00  0.00    -0.323 Cl 
HETATM    2  C   UNL     1     -10.325  11.011  65.297  1.00  0.00    -0.275 A  
HETATM    3  C   UNL     1     -11.352  11.926  65.114  1.00  0.00    -0.328 A  
HETATM    4  C   UNL     1     -11.846  12.647  66.210  1.00  0.00    -0.471 A  
HETATM    5  C   UNL     1     -11.298  12.513  67.504  1.00  0.00    -0.368 A  
HETATM    6  C   UNL     1      -9.792  10.810  66.563  1.00  0.00    -0.246 A  
HETATM    7  C   UNL     1     -10.256  11.573  67.643  1.00  0.00    -0.205 A  
ENDROOT
BRANCH   5   8
HETATM    8  C   UNL     1     -11.733  13.408  68.626  1.00  0.00    -0.384 A  
HETATM    9  C   UNL     1     -11.964  12.981  69.961  1.00  0.00    -0.312 A  
HETATM   10  C   UNL     1     -12.248  13.917  70.973  1.00  0.00    -0.421 A  
HETATM   11  C   UNL     1     -11.820  14.801  68.388  1.00  0.00    -0.319 A  
HETATM   12  C   UNL     1     -12.362  15.273  70.686  1.00  0.00    -0.427 A  
HETATM   13  C   UNL     1     -12.154  15.717  69.389  1.00  0.00    -0.287 A  
BRANCH   9  14
HETATM   14  N   UNL     1     -12.037  11.605  70.283  1.00  0.00    -0.358 N  
HETATM   15  O   UNL     1     -13.376  11.734  72.169  1.00  0.00    -0.497 OA 
HETATM   16  H   UNL     1     -11.490  10.955  69.717  1.00  0.00     0.000 HD 
HETATM   17  C   UNL     1     -12.800  11.080  71.315  1.00  0.00    -0.425 C  
BRANCH  17  18
HETATM   18  C   UNL     1     -12.802   9.601  71.438  1.00  0.00    -0.471 A  
HETATM   19  C   UNL     1     -11.655   8.819  71.476  1.00  0.00    -0.303 A  
HETATM   20 CL   UNL     1     -10.054   9.446  71.369  1.00  0.00    -0.338 Cl 
HETATM   21  N   UNL     1     -11.662   7.468  71.566  1.00  0.00    -0.270 NA 
HETATM   22  C   UNL     1     -12.861   6.856  71.596  1.00  0.00    -0.335 A  
HETATM   23  C   UNL     1     -14.067   7.540  71.553  1.00  0.00    -0.550 A  
HETATM   24  C   UNL     1     -14.036   8.932  71.473  1.00  0.00    -0.365 A  
ENDBRANCH  17  18
ENDBRANCH   9  14
ENDBRANCH   5   8
TORSDOF 3
ENDMDL
MODEL       44
REMARK 921   NORMALIZED FREE ENERGY PREDICTED BY IDOCK:   -5.74 KCAL/MOL
REMARK 922        TOTAL FREE ENERGY PREDICTED BY IDOCK:   -8.08 KCAL/MOL
REMARK 923 INTER-LIGAND FREE ENERGY PREDICTED BY IDOCK:   -7.79 KCAL/MOL
REMARK 924 INTRA-LIGAND FREE ENERGY PREDICTED BY IDOCK:   -0.29 KCAL/MOL
REMARK 927      BINDING AFFINITY PREDICTED BY RF-SCORE:    0.00 PKD
ROOT
HETATM    1 CL   UNL     1     -13.767  13.190  72.542  1.00  0.00    -0.653 Cl 
HETATM    2  C   UNL     1     -12.876  14.018  71.328  1.00  0.00    -0.358 A  
HETATM    3  C   UNL     1     -12.686  15.390  71.420  1.00  0.00    -0.488 A  
HETATM    4  C   UNL     1     -11.982  16.065  70.413  1.00  0.00    -0.245 A  
HETATM    5  C   UNL     1     -11.495  15.402  69.265  1.00  0.00    -0.344 A  
HETATM    6  C   UNL     1     -12.367  13.319  70.242  1.00  0.00    -0.334 A  
HETATM    7  C   UNL     1     -11.711  14.009  69.214  1.00  0.00    -0.372 A  
ENDROOT
BRANCH   5   8
HETATM    8  C   UNL     1     -10.887  16.167  68.128  1.00  0.00    -0.329 A  
HETATM    9  C   UNL     1     -10.390  15.585  66.932  1.00  0.00    -0.290 A  
HETATM   10  C   UNL     1      -9.953  16.395  65.868  1.00  0.00    -0.358 A  
HETATM   11  C   UNL     1     -10.898  17.582  68.180  1.00  0.00    -0.246 A  
HETATM   12  C   UNL     1      -9.946  17.781  65.977  1.00  0.00    -0.219 A  
HETATM   13  C   UNL     1     -10.414  18.378  67.138  1.00  0.00    -0.434 A  
BRANCH   9  14
HETATM   14  N   UNL     1     -10.207  14.185  66.826  1.00  0.00    -0.259 N  
HETATM   15  O   UNL     1     -12.094  13.656  65.590  1.00  0.00    -0.374 OA 
HETATM   16  H   UNL     1      -9.416  13.770  67.318  1.00  0.00     0.000 HD 
HETATM   17  C   UNL     1     -11.031  13.339  66.097  1.00  0.00    -0.279 C  
BRANCH  17  18
HETATM   18  C   UNL     1     -10.622  11.914  66.047  1.00  0.00    -0.304 A  
HETATM   19  C   UNL     1     -10.227  11.256  64.889  1.00  0.00    -0.286 A  
HETATM   20 CL   UNL     1     -10.165  11.991  63.333  1.00  0.00    -0.464 Cl 
HETATM   21  N   UNL     1      -9.876   9.949  64.844  1.00  0.00    -0.286 NA 
HETATM   22  C   UNL     1      -9.942   9.250  65.992  1.00  0.00    -0.255 A  
HETATM   23  C   UNL     1     -10.334   9.806  67.201  1.00  0.00    -0.311 A  
HETATM   24  C   UNL     1     -10.679  11.156  67.227  1.00  0.00    -0.304 A  
ENDBRANCH  17  18
ENDBRANCH   9  14
ENDBRANCH   5   8
TORSDOF 3
ENDMDL
MODEL       45
REMARK 921   NORMALIZED FREE ENERGY PREDICTED BY IDOCK:   -5.73 KCAL/MOL
REMARK 922        TOTAL FREE ENERGY PREDICTED BY IDOCK:   -8.08 KCAL/MOL
REMARK 923 INTER-LIGAND FREE ENERGY PREDICTED BY IDOCK:   -6.85 KCAL/MOL
REMARK 924 INTRA-LIGAND FREE ENERGY PREDICTED BY IDOCK:   -1.23 KCAL/MOL
REMARK 927      BINDING AFFINITY PREDICTED BY RF-SCORE:    0.00 PKD
ROOT
HETATM    1 CL   UNL     1      -9.553  10.853  63.033  1.00  0.00    -0.347 Cl 
HETATM    2  C   UNL     1     -10.147  11.459  64.528  1.00  0.00    -0.287 A  
HETATM    3  C   UNL     1      -9.300  11.562  65.622  1.00  0.00    -0.221 A  
HETATM    4  C   UNL     1      -9.797  12.031  66.846  1.00  0.00    -0.217 A  
HETATM    5  C   UNL     1     -11.158  12.360  67.027  1.00  0.00    -0.327 A  
HETATM    6  C   UNL     1     -11.482  11.823  64.647  1.00  0.00    -0.303 A  
HETATM    7  C   UNL     1     -11.981  12.239  65.888  1.00  0.00    -0.358 A  
ENDROOT
BRANCH   5   8
HETATM    8  C   UNL     1     -11.699  12.705  68.382  1.00  0.00    -0.377 A  
HETATM    9  C   UNL     1     -11.821  11.792  69.464  1.00  0.00    -0.337 A  
HETATM   10  C   UNL     1     -12.223  12.239  70.736  1.00  0.00    -0.354 A  
HETATM   11  C   UNL     1     -12.015  14.056  68.662  1.00  0.00    -0.389 A  
HETATM   12  C   UNL     1     -12.561  13.570  70.956  1.00  0.00    -0.438 A  
HETATM   13  C   UNL     1     -12.462  14.481  69.916  1.00  0.00    -0.300 A  
BRANCH   9  14
HETATM   14  N   UNL     1     -11.663  10.400  69.262  1.00  0.00    -0.470 N  
HETATM   15  O   UNL     1      -9.492  10.157  70.034  1.00  0.00    -0.187 OA 
HETATM   16  H   UNL     1     -12.427   9.894  68.813  1.00  0.00     0.000 HD 
HETATM   17  C   UNL     1     -10.540   9.676  69.635  1.00  0.00    -0.233 C  
BRANCH  17  18
HETATM   18  C   UNL     1     -10.602   8.211  69.408  1.00  0.00    -0.206 A  
HETATM   19  C   UNL     1     -10.412   7.604  68.174  1.00  0.00    -0.181 A  
HETATM   20 CL   UNL     1     -10.090   8.460  66.715  1.00  0.00    -0.351 Cl 
HETATM   21  N   UNL     1     -10.492   6.268  67.967  1.00  0.00    -0.196 NA 
HETATM   22  C   UNL     1     -10.798   5.495  69.026  1.00  0.00    -0.084 A  
HETATM   23  C   UNL     1     -11.019   5.999  70.299  1.00  0.00    -0.412 A  
HETATM   24  C   UNL     1     -10.919   7.377  70.492  1.00  0.00    -0.270 A  
ENDBRANCH  17  18
ENDBRANCH   9  14
ENDBRANCH   5   8
TORSDOF 3
ENDMDL
MODEL       46
REMARK 921   NORMALIZED FREE ENERGY PREDICTED BY IDOCK:   -5.69 KCAL/MOL
REMARK 922        TOTAL FREE ENERGY PREDICTED BY IDOCK:   -8.02 KCAL/MOL
REMARK 923 INTER-LIGAND FREE ENERGY PREDICTED BY IDOCK:   -8.14 KCAL/MOL
REMARK 924 INTRA-LIGAND FREE ENERGY PREDICTED BY IDOCK:    0.12 KCAL/MOL
REMARK 927      BINDING AFFINITY PREDICTED BY RF-SCORE:    0.00 PKD
ROOT
HETATM    1 CL   UNL     1     -13.750  13.720  72.431  1.00  0.00    -0.654 Cl 
HETATM    2  C   UNL     1     -12.922  12.603  71.420  1.00  0.00    -0.258 A  
HETATM    3  C   UNL     1     -12.182  13.061  70.338  1.00  0.00    -0.386 A  
HETATM    4  C   UNL     1     -11.532  12.144  69.501  1.00  0.00    -0.334 A  
HETATM    5  C   UNL     1     -11.643  10.749  69.687  1.00  0.00    -0.388 A  
HETATM    6  C   UNL     1     -13.013  11.241  71.671  1.00  0.00    -0.537 A  
HETATM    7  C   UNL     1     -12.404  10.330  70.798  1.00  0.00    -0.445 A  
ENDROOT
BRANCH   5   8
HETATM    8  C   UNL     1     -11.073   9.786  68.689  1.00  0.00    -0.140 A  
HETATM    9  C   UNL     1     -10.698  10.121  67.360  1.00  0.00    -0.277 A  
HETATM   10  C   UNL     1     -10.055   9.177  66.538  1.00  0.00    -0.357 A  
HETATM   11  C   UNL     1     -10.775   8.468  69.112  1.00  0.00    -0.128 A  
HETATM   12  C   UNL     1      -9.817   7.881  66.982  1.00  0.00    -0.293 A  
HETATM   13  C   UNL     1     -10.183   7.522  68.271  1.00  0.00    -0.218 A  
BRANCH   9  14
HETATM   14  N   UNL     1     -11.070  11.362  66.791  1.00  0.00    -0.294 N  
HETATM   15  O   UNL     1      -9.321  11.622  65.293  1.00  0.00    -0.196 OA 
HETATM   16  H   UNL     1     -11.889  11.835  67.173  1.00  0.00     0.000 HD 
HETATM   17  C   UNL     1     -10.396  11.979  65.747  1.00  0.00    -0.254 C  
BRANCH  17  18
HETATM   18  C   UNL     1     -10.992  13.240  65.240  1.00  0.00    -0.307 A  
HETATM   19  C   UNL     1     -11.983  13.299  64.269  1.00  0.00    -0.421 A  
HETATM   20 CL   UNL     1     -12.660  11.918  63.494  1.00  0.00    -0.655 Cl 
HETATM   21  N   UNL     1     -12.509  14.452  63.793  1.00  0.00    -0.786 NA 
HETATM   22  C   UNL     1     -12.015  15.605  64.281  1.00  0.00    -0.115 A  
HETATM   23  C   UNL     1     -11.018  15.660  65.244  1.00  0.00    -0.375 A  
HETATM   24  C   UNL     1     -10.500  14.460  65.729  1.00  0.00    -0.329 A  
ENDBRANCH  17  18
ENDBRANCH   9  14
ENDBRANCH   5   8
TORSDOF 3
ENDMDL
MODEL       47
REMARK 921   NORMALIZED FREE ENERGY PREDICTED BY IDOCK:   -5.61 KCAL/MOL
REMARK 922        TOTAL FREE ENERGY PREDICTED BY IDOCK:   -7.93 KCAL/MOL
REMARK 923 INTER-LIGAND FREE ENERGY PREDICTED BY IDOCK:   -6.51 KCAL/MOL
REMARK 924 INTRA-LIGAND FREE ENERGY PREDICTED BY IDOCK:   -1.42 KCAL/MOL
REMARK 927      BINDING AFFINITY PREDICTED BY RF-SCORE:    0.00 PKD
ROOT
HETATM    1 CL   UNL     1     -10.071  20.456  67.114  1.00  0.00    -0.556 Cl 
HETATM    2  C   UNL     1      -9.401  18.907  67.440  1.00  0.00    -0.289 A  
HETATM    3  C   UNL     1      -9.981  18.087  68.398  1.00  0.00    -0.382 A  
HETATM    4  C   UNL     1      -9.414  16.836  68.679  1.00  0.00    -0.255 A  
HETATM    5  C   UNL     1      -8.230  16.391  68.052  1.00  0.00    -0.169 A  
HETATM    6  C   UNL     1      -8.266  18.486  66.761  1.00  0.00    -0.268 A  
HETATM    7  C   UNL     1      -7.676  17.257  67.087  1.00  0.00    -0.220 A  
ENDROOT
BRANCH   5   8
HETATM    8  C   UNL     1      -7.554  15.124  68.483  1.00  0.00    -0.120 A  
HETATM    9  C   UNL     1      -7.614  13.892  67.777  1.00  0.00    -0.169 A  
HETATM   10  C   UNL     1      -6.844  12.790  68.193  1.00  0.00    -0.094 A  
HETATM   11  C   UNL     1      -6.700  15.160  69.611  1.00  0.00    -0.181 A  
HETATM   12  C   UNL     1      -6.047  12.860  69.330  1.00  0.00    -0.109 A  
HETATM   13  C   UNL     1      -5.978  14.045  70.046  1.00  0.00    -0.142 A  
BRANCH   9  14
HETATM   14  N   UNL     1      -8.536  13.704  66.720  1.00  0.00    -0.438 N  
HETATM   15  O   UNL     1     -10.396  13.085  67.955  1.00  0.00    -0.221 OA 
HETATM   16  H   UNL     1      -8.192  13.805  65.765  1.00  0.00     0.000 HD 
HETATM   17  C   UNL     1      -9.876  13.391  66.894  1.00  0.00    -0.256 C  
BRANCH  17  18
HETATM   18  C   UNL     1     -10.694  13.313  65.659  1.00  0.00    -0.292 A  
HETATM   19  C   UNL     1     -11.174  14.420  64.970  1.00  0.00    -0.375 A  
HETATM   20 CL   UNL     1     -10.905  16.051  65.454  1.00  0.00    -0.361 Cl 
HETATM   21  N   UNL     1     -11.939  14.345  63.856  1.00  0.00    -0.345 NA 
HETATM   22  C   UNL     1     -12.267  13.117  63.412  1.00  0.00    -0.444 A  
HETATM   23  C   UNL     1     -11.851  11.947  64.030  1.00  0.00    -0.458 A  
HETATM   24  C   UNL     1     -11.054  12.048  65.169  1.00  0.00    -0.369 A  
ENDBRANCH  17  18
ENDBRANCH   9  14
ENDBRANCH   5   8
TORSDOF 3
ENDMDL
MODEL       48
REMARK 921   NORMALIZED FREE ENERGY PREDICTED BY IDOCK:   -5.56 KCAL/MOL
REMARK 922        TOTAL FREE ENERGY PREDICTED BY IDOCK:   -7.87 KCAL/MOL
REMARK 923 INTER-LIGAND FREE ENERGY PREDICTED BY IDOCK:   -7.15 KCAL/MOL
REMARK 924 INTRA-LIGAND FREE ENERGY PREDICTED BY IDOCK:   -0.72 KCAL/MOL
REMARK 927      BINDING AFFINITY PREDICTED BY RF-SCORE:    0.00 PKD
ROOT
HETATM    1 CL   UNL     1      -6.232  10.718  70.509  1.00  0.00    -0.121 Cl 
HETATM    2  C   UNL     1      -7.359  10.990  69.240  1.00  0.00    -0.113 A  
HETATM    3  C   UNL     1      -7.325  12.179  68.524  1.00  0.00    -0.105 A  
HETATM    4  C   UNL     1      -8.263  12.408  67.509  1.00  0.00    -0.173 A  
HETATM    5  C   UNL     1      -9.289  11.484  67.214  1.00  0.00    -0.170 A  
HETATM    6  C   UNL     1      -8.318  10.031  68.946  1.00  0.00    -0.130 A  
HETATM    7  C   UNL     1      -9.285  10.291  67.966  1.00  0.00    -0.138 A  
ENDROOT
BRANCH   5   8
HETATM    8  C   UNL     1     -10.376  11.819  66.236  1.00  0.00    -0.259 A  
HETATM    9  C   UNL     1     -11.584  12.491  66.563  1.00  0.00    -0.388 A  
HETATM   10  C   UNL     1     -12.487  12.872  65.554  1.00  0.00    -0.462 A  
HETATM   11  C   UNL     1     -10.157  11.552  64.863  1.00  0.00    -0.314 A  
HETATM   12  C   UNL     1     -12.250  12.556  64.221  1.00  0.00    -0.535 A  
HETATM   13  C   UNL     1     -11.085  11.889  63.873  1.00  0.00    -0.483 A  
BRANCH   9  14
HETATM   14  N   UNL     1     -11.966  12.685  67.912  1.00  0.00    -0.324 N  
HETATM   15  O   UNL     1     -11.083  14.800  68.248  1.00  0.00    -0.255 OA 
HETATM   16  H   UNL     1     -12.428  11.912  68.391  1.00  0.00     0.000 HD 
HETATM   17  C   UNL     1     -11.755  13.855  68.626  1.00  0.00    -0.361 C  
BRANCH  17  18
HETATM   18  C   UNL     1     -12.302  13.885  70.005  1.00  0.00    -0.378 A  
HETATM   19  C   UNL     1     -12.504  12.757  70.789  1.00  0.00    -0.271 A  
HETATM   20 CL   UNL     1     -12.166  11.148  70.274  1.00  0.00    -0.417 Cl 
HETATM   21  N   UNL     1     -13.024  12.786  72.039  1.00  0.00    -0.314 NA 
HETATM   22  C   UNL     1     -13.385  13.986  72.531  1.00  0.00    -0.539 A  
HETATM   23  C   UNL     1     -13.236  15.174  71.829  1.00  0.00    -0.484 A  
HETATM   24  C   UNL     1     -12.687  15.121  70.549  1.00  0.00    -0.416 A  
ENDBRANCH  17  18
ENDBRANCH   9  14
ENDBRANCH   5   8
TORSDOF 3
ENDMDL
MODEL       49
REMARK 921   NORMALIZED FREE ENERGY PREDICTED BY IDOCK:   -5.56 KCAL/MOL
REMARK 922        TOTAL FREE ENERGY PREDICTED BY IDOCK:   -7.87 KCAL/MOL
REMARK 923 INTER-LIGAND FREE ENERGY PREDICTED BY IDOCK:   -6.70 KCAL/MOL
REMARK 924 INTRA-LIGAND FREE ENERGY PREDICTED BY IDOCK:   -1.16 KCAL/MOL
REMARK 927      BINDING AFFINITY PREDICTED BY RF-SCORE:    0.00 PKD
ROOT
HETATM    1 CL   UNL     1      -8.550   4.812  65.179  1.00  0.00    -0.134 Cl 
HETATM    2  C   UNL     1      -9.209   5.912  66.323  1.00  0.00    -0.158 A  
HETATM    3  C   UNL     1      -8.459   6.997  66.756  1.00  0.00    -0.118 A  
HETATM    4  C   UNL     1      -8.992   7.876  67.710  1.00  0.00    -0.128 A  
HETATM    5  C   UNL     1     -10.260   7.670  68.294  1.00  0.00    -0.229 A  
HETATM    6  C   UNL     1     -10.483   5.702  66.832  1.00  0.00    -0.349 A  
HETATM    7  C   UNL     1     -10.986   6.555  67.824  1.00  0.00    -0.407 A  
ENDROOT
BRANCH   5   8
HETATM    8  C   UNL     1     -10.742   8.528  69.425  1.00  0.00    -0.166 A  
HETATM    9  C   UNL     1     -11.500   9.719  69.274  1.00  0.00     0.072 A  
HETATM   10  C   UNL     1     -12.014  10.390  70.400  1.00  0.00    -0.409 A  
HETATM   11  C   UNL     1     -10.531   8.082  70.752  1.00  0.00    -0.221 A  
HETATM   12  C   UNL     1     -11.750   9.936  71.687  1.00  0.00    -0.327 A  
HETATM   13  C   UNL     1     -11.002   8.782  71.866  1.00  0.00    -0.435 A  
BRANCH   9  14
HETATM   14  N   UNL     1     -11.655  10.327  68.005  1.00  0.00    -0.442 N  
HETATM   15  O   UNL     1      -9.885  11.821  68.091  1.00  0.00    -0.178 OA 
HETATM   16  H   UNL     1     -12.456  10.050  67.438  1.00  0.00     0.000 HD 
HETATM   17  C   UNL     1     -10.789  11.275  67.479  1.00  0.00    -0.245 C  
BRANCH  17  18
HETATM   18  C   UNL     1     -11.082  11.732  66.098  1.00  0.00    -0.358 A  
HETATM   19  C   UNL     1     -10.506  11.188  64.958  1.00  0.00    -0.293 A  
HETATM   20 CL   UNL     1      -9.352   9.910  64.974  1.00  0.00    -0.300 Cl 
HETATM   21  N   UNL     1     -10.760  11.622  63.700  1.00  0.00    -0.399 NA 
HETATM   22  C   UNL     1     -11.605  12.661  63.563  1.00  0.00    -0.514 A  
HETATM   23  C   UNL     1     -12.226  13.285  64.635  1.00  0.00    -0.460 A  
HETATM   24  C   UNL     1     -11.960  12.813  65.920  1.00  0.00    -0.506 A  
ENDBRANCH  17  18
ENDBRANCH   9  14
ENDBRANCH   5   8
TORSDOF 3
ENDMDL
MODEL       50
REMARK 921   NORMALIZED FREE ENERGY PREDICTED BY IDOCK:   -5.54 KCAL/MOL
REMARK 922        TOTAL FREE ENERGY PREDICTED BY IDOCK:   -7.84 KCAL/MOL
REMARK 923 INTER-LIGAND FREE ENERGY PREDICTED BY IDOCK:   -6.67 KCAL/MOL
REMARK 924 INTRA-LIGAND FREE ENERGY PREDICTED BY IDOCK:   -1.17 KCAL/MOL
REMARK 927      BINDING AFFINITY PREDICTED BY RF-SCORE:    0.00 PKD
ROOT
HETATM    1 CL   UNL     1      -7.230   8.024  64.930  1.00  0.00    -0.071 Cl 
HETATM    2  C   UNL     1      -8.011   9.410  65.582  1.00  0.00    -0.103 A  
HETATM    3  C   UNL     1      -9.374   9.591  65.396  1.00  0.00    -0.324 A  
HETATM    4  C   UNL     1     -10.000  10.737  65.906  1.00  0.00    -0.304 A  
HETATM    5  C   UNL     1      -9.279  11.754  66.568  1.00  0.00    -0.206 A  
HETATM    6  C   UNL     1      -7.272  10.360  66.274  1.00  0.00    -0.127 A  
HETATM    7  C   UNL     1      -7.897  11.527  66.733  1.00  0.00    -0.146 A  
ENDROOT
BRANCH   5   8
HETATM    8  C   UNL     1      -9.939  13.041  66.963  1.00  0.00    -0.242 A  
HETATM    9  C   UNL     1     -10.424  13.339  68.264  1.00  0.00    -0.250 A  
HETATM   10  C   UNL     1     -10.915  14.622  68.570  1.00  0.00    -0.261 A  
HETATM   11  C   UNL     1      -9.997  14.092  66.016  1.00  0.00    -0.340 A  
HETATM   12  C   UNL     1     -10.988  15.613  67.598  1.00  0.00    -0.315 A  
HETATM   13  C   UNL     1     -10.533  15.347  66.315  1.00  0.00    -0.310 A  
BRANCH   9  14
HETATM   14  N   UNL     1     -10.540  12.327  69.247  1.00  0.00    -0.440 N  
HETATM   15  O   UNL     1     -12.387  11.206  68.410  1.00  0.00    -0.556 OA 
HETATM   16  H   UNL     1      -9.900  12.359  70.041  1.00  0.00     0.000 HD 
HETATM   17  C   UNL     1     -11.463  11.293  69.202  1.00  0.00    -0.297 C  
BRANCH  17  18
HETATM   18  C   UNL     1     -11.369  10.286  70.289  1.00  0.00    -0.398 A  
HETATM   19  C   UNL     1     -10.262   9.479  70.510  1.00  0.00    -0.287 A  
HETATM   20 CL   UNL     1      -8.834   9.511  69.548  1.00  0.00    -0.167 Cl 
HETATM   21  N   UNL     1     -10.189   8.546  71.490  1.00  0.00    -0.226 NA 
HETATM   22  C   UNL     1     -11.271   8.386  72.273  1.00  0.00    -0.376 A  
HETATM   23  C   UNL     1     -12.432   9.131  72.131  1.00  0.00    -0.436 A  
HETATM   24  C   UNL     1     -12.481  10.095  71.125  1.00  0.00    -0.490 A  
ENDBRANCH  17  18
ENDBRANCH   9  14
ENDBRANCH   5   8
TORSDOF 3
ENDMDL
MODEL       51
REMARK 921   NORMALIZED FREE ENERGY PREDICTED BY IDOCK:   -5.52 KCAL/MOL
REMARK 922        TOTAL FREE ENERGY PREDICTED BY IDOCK:   -7.82 KCAL/MOL
REMARK 923 INTER-LIGAND FREE ENERGY PREDICTED BY IDOCK:   -6.41 KCAL/MOL
REMARK 924 INTRA-LIGAND FREE ENERGY PREDICTED BY IDOCK:   -1.41 KCAL/MOL
REMARK 927      BINDING AFFINITY PREDICTED BY RF-SCORE:    0.00 PKD
ROOT
HETATM    1 CL   UNL     1      -8.814   3.610  68.654  1.00  0.00    -0.142 Cl 
HETATM    2  C   UNL     1      -9.085   5.142  67.923  1.00  0.00    -0.112 A  
HETATM    3  C   UNL     1      -8.187   6.179  68.131  1.00  0.00    -0.114 A  
HETATM    4  C   UNL     1      -8.427   7.435  67.556  1.00  0.00    -0.116 A  
HETATM    5  C   UNL     1      -9.591   7.704  66.803  1.00  0.00    -0.269 A  
HETATM    6  C   UNL     1     -10.216   5.349  67.145  1.00  0.00    -0.266 A  
HETATM    7  C   UNL     1     -10.475   6.621  66.618  1.00  0.00    -0.222 A  
ENDROOT
BRANCH   5   8
HETATM    8  C   UNL     1      -9.905   9.093  66.333  1.00  0.00    -0.350 A  
HETATM    9  C   UNL     1     -10.665  10.045  67.064  1.00  0.00    -0.178 A  
HETATM   10  C   UNL     1     -10.801  11.365  66.596  1.00  0.00    -0.339 A  
HETATM   11  C   UNL     1      -9.324   9.548  65.125  1.00  0.00    -0.316 A  
HETATM   12  C   UNL     1     -10.244  11.758  65.384  1.00  0.00    -0.301 A  
HETATM   13  C   UNL     1      -9.507  10.847  64.642  1.00  0.00    -0.285 A  
BRANCH   9  14
HETATM   14  N   UNL     1     -11.401   9.662  68.211  1.00  0.00    -0.505 N  
HETATM   15  O   UNL     1      -9.792  10.052  69.832  1.00  0.00    -0.235 OA 
HETATM   16  H   UNL     1     -12.337   9.282  68.070  1.00  0.00     0.000 HD 
HETATM   17  C   UNL     1     -10.935   9.769  69.513  1.00  0.00    -0.227 C  
BRANCH  17  18
HETATM   18  C   UNL     1     -11.892   9.387  70.581  1.00  0.00    -0.268 A  
HETATM   19  C   UNL     1     -12.136   8.079  70.980  1.00  0.00    -0.217 A  
HETATM   20 CL   UNL     1     -11.377   6.699  70.283  1.00  0.00    -0.400 Cl 
HETATM   21  N   UNL     1     -13.026   7.734  71.940  1.00  0.00    -0.306 NA 
HETATM   22  C   UNL     1     -13.727   8.726  72.519  1.00  0.00    -0.368 A  
HETATM   23  C   UNL     1     -13.570  10.064  72.189  1.00  0.00    -0.351 A  
HETATM   24  C   UNL     1     -12.639  10.398  71.207  1.00  0.00    -0.525 A  
ENDBRANCH  17  18
ENDBRANCH   9  14
ENDBRANCH   5   8
TORSDOF 3
ENDMDL
MODEL       52
REMARK 921   NORMALIZED FREE ENERGY PREDICTED BY IDOCK:   -5.49 KCAL/MOL
REMARK 922        TOTAL FREE ENERGY PREDICTED BY IDOCK:   -7.78 KCAL/MOL
REMARK 923 INTER-LIGAND FREE ENERGY PREDICTED BY IDOCK:   -6.58 KCAL/MOL
REMARK 924 INTRA-LIGAND FREE ENERGY PREDICTED BY IDOCK:   -1.20 KCAL/MOL
REMARK 927      BINDING AFFINITY PREDICTED BY RF-SCORE:    0.00 PKD
ROOT
HETATM    1 CL   UNL     1      -6.722  12.221  67.579  1.00  0.00    -0.123 Cl 
HETATM    2  C   UNL     1      -7.730  11.070  68.362  1.00  0.00    -0.119 A  
HETATM    3  C   UNL     1      -8.897  10.636  67.748  1.00  0.00    -0.133 A  
HETATM    4  C   UNL     1      -9.729   9.719  68.403  1.00  0.00    -0.162 A  
HETATM    5  C   UNL     1      -9.449   9.249  69.705  1.00  0.00    -0.188 A  
HETATM    6  C   UNL     1      -7.389  10.592  69.620  1.00  0.00    -0.133 A  
HETATM    7  C   UNL     1      -8.254   9.716  70.290  1.00  0.00    -0.217 A  
ENDROOT
BRANCH   5   8
HETATM    8  C   UNL     1     -10.432   8.395  70.449  1.00  0.00    -0.228 A  
HETATM    9  C   UNL     1     -11.596   8.878  71.103  1.00  0.00    -0.300 A  
HETATM   10  C   UNL     1     -12.525   7.984  71.668  1.00  0.00    -0.347 A  
HETATM   11  C   UNL     1     -10.268   6.989  70.418  1.00  0.00    -0.209 A  
HETATM   12  C   UNL     1     -12.304   6.612  71.648  1.00  0.00    -0.382 A  
HETATM   13  C   UNL     1     -11.169   6.111  71.026  1.00  0.00    -0.361 A  
BRANCH   9  14
HETATM   14  N   UNL     1     -11.791  10.265  71.311  1.00  0.00    -0.360 N  
HETATM   15  O   UNL     1     -12.875  10.789  69.332  1.00  0.00    -0.182 OA 
HETATM   16  H   UNL     1     -11.394  10.680  72.155  1.00  0.00     0.000 HD 
HETATM   17  C   UNL     1     -12.483  11.098  70.445  1.00  0.00    -0.299 C  
BRANCH  17  18
HETATM   18  C   UNL     1     -12.644  12.507  70.883  1.00  0.00    -0.331 A  
HETATM   19  C   UNL     1     -12.038  13.591  70.262  1.00  0.00    -0.355 A  
HETATM   20 CL   UNL     1     -10.995  13.465  68.898  1.00  0.00    -0.285 Cl 
HETATM   21  N   UNL     1     -12.170  14.873  70.679  1.00  0.00    -0.294 NA 
HETATM   22  C   UNL     1     -12.916  15.093  71.777  1.00  0.00    -0.367 A  
HETATM   23  C   UNL     1     -13.556  14.082  72.479  1.00  0.00    -0.670 A  
HETATM   24  C   UNL     1     -13.417  12.771  72.025  1.00  0.00    -0.540 A  
ENDBRANCH  17  18
ENDBRANCH   9  14
ENDBRANCH   5   8
TORSDOF 3
ENDMDL
MODEL       53
REMARK 921   NORMALIZED FREE ENERGY PREDICTED BY IDOCK:   -5.46 KCAL/MOL
REMARK 922        TOTAL FREE ENERGY PREDICTED BY IDOCK:   -7.75 KCAL/MOL
REMARK 923 INTER-LIGAND FREE ENERGY PREDICTED BY IDOCK:   -7.13 KCAL/MOL
REMARK 924 INTRA-LIGAND FREE ENERGY PREDICTED BY IDOCK:   -0.62 KCAL/MOL
REMARK 927      BINDING AFFINITY PREDICTED BY RF-SCORE:    0.00 PKD
ROOT
HETATM    1 CL   UNL     1     -12.838  15.722  71.331  1.00  0.00    -0.532 Cl 
HETATM    2  C   UNL     1     -12.844  14.005  71.261  1.00  0.00    -0.358 A  
HETATM    3  C   UNL     1     -13.548  13.274  72.208  1.00  0.00    -0.703 A  
HETATM    4  C   UNL     1     -13.528  11.873  72.163  1.00  0.00    -0.300 A  
HETATM    5  C   UNL     1     -12.767  11.164  71.208  1.00  0.00    -0.531 A  
HETATM    6  C   UNL     1     -12.125  13.348  70.272  1.00  0.00    -0.419 A  
HETATM    7  C   UNL     1     -12.067  11.948  70.267  1.00  0.00    -0.409 A  
ENDROOT
BRANCH   5   8
HETATM    8  C   UNL     1     -12.631   9.673  71.277  1.00  0.00    -0.443 A  
HETATM    9  C   UNL     1     -11.401   8.966  71.213  1.00  0.00    -0.300 A  
HETATM   10  C   UNL     1     -11.364   7.573  71.413  1.00  0.00    -0.284 A  
HETATM   11  C   UNL     1     -13.788   8.898  71.533  1.00  0.00    -0.388 A  
HETATM   12  C   UNL     1     -12.530   6.847  71.624  1.00  0.00    -0.418 A  
HETATM   13  C   UNL     1     -13.747   7.509  71.679  1.00  0.00    -0.465 A  
BRANCH   9  14
HETATM   14  N   UNL     1     -10.205   9.619  70.829  1.00  0.00    -0.290 N  
HETATM   15  O   UNL     1     -10.145   9.000  68.597  1.00  0.00    -0.178 OA 
HETATM   16  H   UNL     1      -9.671  10.099  71.553  1.00  0.00     0.000 HD 
HETATM   17  C   UNL     1      -9.711   9.651  69.533  1.00  0.00    -0.203 C  
BRANCH  17  18
HETATM   18  C   UNL     1      -8.483  10.457  69.323  1.00  0.00    -0.162 A  
HETATM   19  C   UNL     1      -8.398  11.536  68.452  1.00  0.00    -0.154 A  
HETATM   20 CL   UNL     1      -9.701  12.092  67.472  1.00  0.00    -0.183 Cl 
HETATM   21  N   UNL     1      -7.270  12.255  68.246  1.00  0.00    -0.093 NA 
HETATM   22  C   UNL     1      -6.164  11.877  68.914  1.00  0.00    -0.064 A  
HETATM   23  C   UNL     1      -6.136  10.809  69.798  1.00  0.00    -0.081 A  
HETATM   24  C   UNL     1      -7.313  10.089  70.005  1.00  0.00    -0.172 A  
ENDBRANCH  17  18
ENDBRANCH   9  14
ENDBRANCH   5   8
TORSDOF 3
ENDMDL
MODEL       54
REMARK 921   NORMALIZED FREE ENERGY PREDICTED BY IDOCK:   -5.45 KCAL/MOL
REMARK 922        TOTAL FREE ENERGY PREDICTED BY IDOCK:   -7.74 KCAL/MOL
REMARK 923 INTER-LIGAND FREE ENERGY PREDICTED BY IDOCK:   -6.41 KCAL/MOL
REMARK 924 INTRA-LIGAND FREE ENERGY PREDICTED BY IDOCK:   -1.32 KCAL/MOL
REMARK 927      BINDING AFFINITY PREDICTED BY RF-SCORE:    0.00 PKD
ROOT
HETATM    1 CL   UNL     1     -10.370  19.095  68.532  1.00  0.00    -0.424 Cl 
HETATM    2  C   UNL     1     -10.438  17.632  67.632  1.00  0.00    -0.372 A  
HETATM    3  C   UNL     1      -9.982  17.600  66.322  1.00  0.00    -0.324 A  
HETATM    4  C   UNL     1     -10.066  16.412  65.584  1.00  0.00    -0.314 A  
HETATM    5  C   UNL     1     -10.650  15.240  66.112  1.00  0.00    -0.318 A  
HETATM    6  C   UNL     1     -10.972  16.488  68.209  1.00  0.00    -0.346 A  
HETATM    7  C   UNL     1     -11.100  15.319  67.446  1.00  0.00    -0.326 A  
ENDROOT
BRANCH   5   8
HETATM    8  C   UNL     1     -10.874  14.031  65.254  1.00  0.00    -0.352 A  
HETATM    9  C   UNL     1     -10.188  12.795  65.398  1.00  0.00    -0.283 A  
HETATM   10  C   UNL     1     -10.556  11.677  64.627  1.00  0.00    -0.366 A  
HETATM   11  C   UNL     1     -11.916  14.063  64.296  1.00  0.00    -0.463 A  
HETATM   12  C   UNL     1     -11.561  11.765  63.670  1.00  0.00    -0.521 A  
HETATM   13  C   UNL     1     -12.240  12.961  63.499  1.00  0.00    -0.595 A  
BRANCH   9  14
HETATM   14  N   UNL     1      -9.045  12.690  66.226  1.00  0.00    -0.423 N  
HETATM   15  O   UNL     1     -10.059  11.931  68.166  1.00  0.00    -0.186 OA 
HETATM   16  H   UNL     1      -8.151  13.002  65.845  1.00  0.00     0.000 HD 
HETATM   17  C   UNL     1      -9.057  12.193  67.521  1.00  0.00    -0.180 C  
BRANCH  17  18
HETATM   18  C   UNL     1      -7.738  12.092  68.193  1.00  0.00    -0.135 A  
HETATM   19  C   UNL     1      -7.073  13.165  68.771  1.00  0.00    -0.098 A  
HETATM   20 CL   UNL     1      -7.669  14.781  68.780  1.00  0.00    -0.129 Cl 
HETATM   21  N   UNL     1      -5.859  13.073  69.364  1.00  0.00    -0.089 NA 
HETATM   22  C   UNL     1      -5.262  11.867  69.367  1.00  0.00    -0.057 A  
HETATM   23  C   UNL     1      -5.833  10.732  68.810  1.00  0.00    -0.040 A  
HETATM   24  C   UNL     1      -7.088  10.847  68.215  1.00  0.00    -0.075 A  
ENDBRANCH  17  18
ENDBRANCH   9  14
ENDBRANCH   5   8
TORSDOF 3
ENDMDL
MODEL       55
REMARK 921   NORMALIZED FREE ENERGY PREDICTED BY IDOCK:   -5.44 KCAL/MOL
REMARK 922        TOTAL FREE ENERGY PREDICTED BY IDOCK:   -7.73 KCAL/MOL
REMARK 923 INTER-LIGAND FREE ENERGY PREDICTED BY IDOCK:   -6.73 KCAL/MOL
REMARK 924 INTRA-LIGAND FREE ENERGY PREDICTED BY IDOCK:   -0.99 KCAL/MOL
REMARK 927      BINDING AFFINITY PREDICTED BY RF-SCORE:    0.00 PKD
ROOT
HETATM    1 CL   UNL     1      -9.334   8.575  71.570  1.00  0.00    -0.261 Cl 
HETATM    2  C   UNL     1      -9.531   9.155  69.964  1.00  0.00    -0.198 A  
HETATM    3  C   UNL     1      -8.418   9.385  69.167  1.00  0.00    -0.134 A  
HETATM    4  C   UNL     1      -8.582   9.885  67.868  1.00  0.00    -0.125 A  
HETATM    5  C   UNL     1      -9.852  10.216  67.347  1.00  0.00    -0.225 A  
HETATM    6  C   UNL     1     -10.802   9.418  69.472  1.00  0.00    -0.231 A  
HETATM    7  C   UNL     1     -10.954   9.967  68.192  1.00  0.00    -0.261 A  
ENDROOT
BRANCH   5   8
HETATM    8  C   UNL     1      -9.992  10.897  66.018  1.00  0.00    -0.290 A  
HETATM    9  C   UNL     1     -10.104  12.301  65.833  1.00  0.00    -0.251 A  
HETATM   10  C   UNL     1     -10.104  12.855  64.540  1.00  0.00    -0.259 A  
HETATM   11  C   UNL     1      -9.897  10.114  64.843  1.00  0.00    -0.390 A  
HETATM   12  C   UNL     1     -10.048  12.045  63.412  1.00  0.00    -0.437 A  
HETATM   13  C   UNL     1      -9.950  10.670  63.561  1.00  0.00    -0.347 A  
BRANCH   9  14
HETATM   14  N   UNL     1     -10.341  13.162  66.931  1.00  0.00    -0.245 N  
HETATM   15  O   UNL     1     -12.601  13.560  66.610  1.00  0.00    -0.271 OA 
HETATM   16  H   UNL     1      -9.542  13.433  67.505  1.00  0.00     0.000 HD 
HETATM   17  C   UNL     1     -11.586  13.663  67.280  1.00  0.00    -0.356 C  
BRANCH  17  18
HETATM   18  C   UNL     1     -11.636  14.487  68.513  1.00  0.00    -0.344 A  
HETATM   19  C   UNL     1     -11.116  15.770  68.616  1.00  0.00    -0.327 A  
HETATM   20 CL   UNL     1     -10.319  16.596  67.331  1.00  0.00    -0.288 Cl 
HETATM   21  N   UNL     1     -11.144  16.510  69.749  1.00  0.00    -0.309 NA 
HETATM   22  C   UNL     1     -11.691  15.947  70.843  1.00  0.00    -0.420 A  
HETATM   23  C   UNL     1     -12.229  14.669  70.853  1.00  0.00    -0.391 A  
HETATM   24  C   UNL     1     -12.201  13.929  69.672  1.00  0.00    -0.374 A  
ENDBRANCH  17  18
ENDBRANCH   9  14
ENDBRANCH   5   8
TORSDOF 3
ENDMDL
MODEL       56
REMARK 921   NORMALIZED FREE ENERGY PREDICTED BY IDOCK:   -5.43 KCAL/MOL
REMARK 922        TOTAL FREE ENERGY PREDICTED BY IDOCK:   -7.72 KCAL/MOL
REMARK 923 INTER-LIGAND FREE ENERGY PREDICTED BY IDOCK:   -7.13 KCAL/MOL
REMARK 924 INTRA-LIGAND FREE ENERGY PREDICTED BY IDOCK:   -0.59 KCAL/MOL
REMARK 927      BINDING AFFINITY PREDICTED BY RF-SCORE:    0.00 PKD
ROOT
HETATM    1 CL   UNL     1     -12.247   6.524  72.194  1.00  0.00    -0.322 Cl 
HETATM    2  C   UNL     1     -12.352   8.190  71.784  1.00  0.00    -0.321 A  
HETATM    3  C   UNL     1     -11.349   8.785  71.031  1.00  0.00    -0.332 A  
HETATM    4  C   UNL     1     -11.425  10.150  70.724  1.00  0.00    -0.442 A  
HETATM    5  C   UNL     1     -12.473  10.968  71.199  1.00  0.00    -0.502 A  
HETATM    6  C   UNL     1     -13.428   8.947  72.227  1.00  0.00    -0.503 A  
HETATM    7  C   UNL     1     -13.469  10.321  71.959  1.00  0.00    -0.385 A  
ENDROOT
BRANCH   5   8
HETATM    8  C   UNL     1     -12.452  12.454  70.993  1.00  0.00    -0.353 A  
HETATM    9  C   UNL     1     -12.271  13.097  69.739  1.00  0.00    -0.202 A  
HETATM   10  C   UNL     1     -12.391  14.495  69.627  1.00  0.00    -0.284 A  
HETATM   11  C   UNL     1     -12.739  13.295  72.095  1.00  0.00    -0.167 A  
HETATM   12  C   UNL     1     -12.637  15.286  70.744  1.00  0.00    -0.474 A  
HETATM   13  C   UNL     1     -12.805  14.686  71.983  1.00  0.00    -0.403 A  
BRANCH   9  14
HETATM   14  N   UNL     1     -11.847  12.368  68.602  1.00  0.00    -0.317 N  
HETATM   15  O   UNL     1      -9.633  13.048  68.529  1.00  0.00    -0.197 OA 
HETATM   16  H   UNL     1     -12.548  11.828  68.095  1.00  0.00     0.000 HD 
HETATM   17  C   UNL     1     -10.543  12.339  68.131  1.00  0.00    -0.214 C  
BRANCH  17  18
HETATM   18  C   UNL     1     -10.287  11.450  66.971  1.00  0.00    -0.258 A  
HETATM   19  C   UNL     1      -9.636  10.226  67.054  1.00  0.00    -0.171 A  
HETATM   20 CL   UNL     1      -9.010   9.561  68.514  1.00  0.00    -0.127 Cl 
HETATM   21  N   UNL     1      -9.385   9.428  65.989  1.00  0.00    -0.200 NA 
HETATM   22  C   UNL     1      -9.775   9.870  64.779  1.00  0.00    -0.235 A  
HETATM   23  C   UNL     1     -10.424  11.081  64.582  1.00  0.00    -0.398 A  
HETATM   24  C   UNL     1     -10.683  11.881  65.695  1.00  0.00    -0.325 A  
ENDBRANCH  17  18
ENDBRANCH   9  14
ENDBRANCH   5   8
TORSDOF 3
ENDMDL
MODEL       57
REMARK 921   NORMALIZED FREE ENERGY PREDICTED BY IDOCK:   -5.42 KCAL/MOL
REMARK 922        TOTAL FREE ENERGY PREDICTED BY IDOCK:   -7.70 KCAL/MOL
REMARK 923 INTER-LIGAND FREE ENERGY PREDICTED BY IDOCK:   -6.57 KCAL/MOL
REMARK 924 INTRA-LIGAND FREE ENERGY PREDICTED BY IDOCK:   -1.13 KCAL/MOL
REMARK 927      BINDING AFFINITY PREDICTED BY RF-SCORE:    0.00 PKD
ROOT
HETATM    1 CL   UNL     1      -7.349   7.380  64.875  1.00  0.00    -0.075 Cl 
HETATM    2  C   UNL     1      -8.263   7.858  66.250  1.00  0.00    -0.117 A  
HETATM    3  C   UNL     1      -9.511   7.297  66.484  1.00  0.00    -0.218 A  
HETATM    4  C   UNL     1     -10.264   7.711  67.591  1.00  0.00    -0.277 A  
HETATM    5  C   UNL     1      -9.819   8.728  68.463  1.00  0.00    -0.183 A  
HETATM    6  C   UNL     1      -7.764   8.824  67.113  1.00  0.00    -0.096 A  
HETATM    7  C   UNL     1      -8.547   9.269  68.186  1.00  0.00    -0.125 A  
ENDROOT
BRANCH   5   8
HETATM    8  C   UNL     1     -10.708   9.265  69.544  1.00  0.00    -0.236 A  
HETATM    9  C   UNL     1     -11.783  10.170  69.336  1.00  0.00    -0.028 A  
HETATM   10  C   UNL     1     -12.640  10.520  70.396  1.00  0.00    -0.364 A  
HETATM   11  C   UNL     1     -10.553   8.766  70.860  1.00  0.00    -0.276 A  
HETATM   12  C   UNL     1     -12.427  10.035  71.682  1.00  0.00    -0.513 A  
HETATM   13  C   UNL     1     -11.378   9.160  71.917  1.00  0.00    -0.416 A  
BRANCH   9  14
HETATM   14  N   UNL     1     -11.946  10.833  68.097  1.00  0.00    -0.295 N  
HETATM   15  O   UNL     1     -10.645  12.706  68.504  1.00  0.00    -0.236 OA 
HETATM   16  H   UNL     1     -12.580  10.417  67.414  1.00  0.00     0.000 HD 
HETATM   17  C   UNL     1     -11.302  12.011  67.747  1.00  0.00    -0.303 C  
BRANCH  17  18
HETATM   18  C   UNL     1     -11.546  12.504  66.369  1.00  0.00    -0.449 A  
HETATM   19  C   UNL     1     -11.127  11.847  65.220  1.00  0.00    -0.299 A  
HETATM   20 CL   UNL     1     -10.246  10.367  65.219  1.00  0.00    -0.361 Cl 
HETATM   21  N   UNL     1     -11.333  12.312  63.964  1.00  0.00    -0.365 NA 
HETATM   22  C   UNL     1     -11.961  13.495  63.838  1.00  0.00    -0.440 A  
HETATM   23  C   UNL     1     -12.412  14.239  64.919  1.00  0.00    -0.403 A  
HETATM   24  C   UNL     1     -12.200  13.735  66.202  1.00  0.00    -0.499 A  
ENDBRANCH  17  18
ENDBRANCH   9  14
ENDBRANCH   5   8
TORSDOF 3
ENDMDL
MODEL       58
REMARK 921   NORMALIZED FREE ENERGY PREDICTED BY IDOCK:   -5.41 KCAL/MOL
REMARK 922        TOTAL FREE ENERGY PREDICTED BY IDOCK:   -7.70 KCAL/MOL
REMARK 923 INTER-LIGAND FREE ENERGY PREDICTED BY IDOCK:   -7.05 KCAL/MOL
REMARK 924 INTRA-LIGAND FREE ENERGY PREDICTED BY IDOCK:   -0.64 KCAL/MOL
REMARK 927      BINDING AFFINITY PREDICTED BY RF-SCORE:    0.00 PKD
ROOT
HETATM    1 CL   UNL     1     -14.020  15.990  73.056  1.00  0.00    -0.505 Cl 
HETATM    2  C   UNL     1     -13.306  15.013  71.835  1.00  0.00    -0.381 A  
HETATM    3  C   UNL     1     -13.267  13.634  71.983  1.00  0.00    -0.522 A  
HETATM    4  C   UNL     1     -12.659  12.845  70.997  1.00  0.00    -0.376 A  
HETATM    5  C   UNL     1     -12.030  13.409  69.866  1.00  0.00    -0.408 A  
HETATM    6  C   UNL     1     -12.746  15.607  70.712  1.00  0.00    -0.483 A  
HETATM    7  C   UNL     1     -12.094  14.814  69.758  1.00  0.00    -0.364 A  
ENDROOT
BRANCH   5   8
HETATM    8  C   UNL     1     -11.248  12.560  68.909  1.00  0.00    -0.330 A  
HETATM    9  C   UNL     1      -9.924  12.835  68.475  1.00  0.00    -0.164 A  
HETATM   10  C   UNL     1      -9.227  11.913  67.672  1.00  0.00    -0.183 A  
HETATM   11  C   UNL     1     -11.809  11.334  68.478  1.00  0.00    -0.355 A  
HETATM   12  C   UNL     1      -9.831  10.737  67.241  1.00  0.00    -0.208 A  
HETATM   13  C   UNL     1     -11.127  10.447  67.639  1.00  0.00    -0.361 A  
BRANCH   9  14
HETATM   14  N   UNL     1      -9.320  14.089  68.732  1.00  0.00    -0.371 N  
HETATM   15  O   UNL     1      -9.530  15.042  66.631  1.00  0.00    -0.236 OA 
HETATM   16  H   UNL     1      -8.917  14.242  69.657  1.00  0.00     0.000 HD 
HETATM   17  C   UNL     1      -9.239  15.125  67.813  1.00  0.00    -0.180 C  
BRANCH  17  18
HETATM   18  C   UNL     1      -8.637  16.388  68.304  1.00  0.00    -0.200 A  
HETATM   19  C   UNL     1      -9.310  17.602  68.363  1.00  0.00    -0.289 A  
HETATM   20 CL   UNL     1     -10.941  17.828  67.859  1.00  0.00    -0.224 Cl 
HETATM   21  N   UNL     1      -8.750  18.758  68.791  1.00  0.00    -0.312 NA 
HETATM   22  C   UNL     1      -7.455  18.720  69.157  1.00  0.00    -0.172 A  
HETATM   23  C   UNL     1      -6.688  17.565  69.127  1.00  0.00    -0.243 A  
HETATM   24  C   UNL     1      -7.289  16.383  68.694  1.00  0.00    -0.186 A  
ENDBRANCH  17  18
ENDBRANCH   9  14
ENDBRANCH   5   8
TORSDOF 3
ENDMDL
MODEL       59
REMARK 921   NORMALIZED FREE ENERGY PREDICTED BY IDOCK:   -5.40 KCAL/MOL
REMARK 922        TOTAL FREE ENERGY PREDICTED BY IDOCK:   -7.68 KCAL/MOL
REMARK 923 INTER-LIGAND FREE ENERGY PREDICTED BY IDOCK:   -6.83 KCAL/MOL
REMARK 924 INTRA-LIGAND FREE ENERGY PREDICTED BY IDOCK:   -0.85 KCAL/MOL
REMARK 927      BINDING AFFINITY PREDICTED BY RF-SCORE:    0.00 PKD
ROOT
HETATM    1 CL   UNL     1     -12.744  14.424  65.704  1.00  0.00    -0.378 Cl 
HETATM    2  C   UNL     1     -11.791  12.993  65.725  1.00  0.00    -0.404 A  
HETATM    3  C   UNL     1     -11.748  12.171  64.608  1.00  0.00    -0.400 A  
HETATM    4  C   UNL     1     -10.992  10.991  64.640  1.00  0.00    -0.150 A  
HETATM    5  C   UNL     1     -10.302  10.574  65.798  1.00  0.00    -0.270 A  
HETATM    6  C   UNL     1     -11.083  12.648  66.868  1.00  0.00    -0.315 A  
HETATM    7  C   UNL     1     -10.374  11.440  66.909  1.00  0.00    -0.262 A  
ENDROOT
BRANCH   5   8
HETATM    8  C   UNL     1      -9.633   9.233  65.862  1.00  0.00    -0.345 A  
HETATM    9  C   UNL     1      -9.957   8.207  66.789  1.00  0.00    -0.279 A  
HETATM   10  C   UNL     1      -9.360   6.937  66.690  1.00  0.00    -0.198 A  
HETATM   11  C   UNL     1      -8.681   8.903  64.867  1.00  0.00    -0.184 A  
HETATM   12  C   UNL     1      -8.401   6.668  65.719  1.00  0.00    -0.143 A  
HETATM   13  C   UNL     1      -8.056   7.654  64.808  1.00  0.00    -0.121 A  
BRANCH   9  14
HETATM   14  N   UNL     1     -10.790   8.470  67.903  1.00  0.00    -0.482 N  
HETATM   15  O   UNL     1      -9.160   8.789  69.519  1.00  0.00    -0.142 OA 
HETATM   16  H   UNL     1     -11.799   8.400  67.770  1.00  0.00     0.000 HD 
HETATM   17  C   UNL     1     -10.327   8.818  69.164  1.00  0.00    -0.217 C  
BRANCH  17  18
HETATM   18  C   UNL     1     -11.365   9.131  70.177  1.00  0.00    -0.164 A  
HETATM   19  C   UNL     1     -11.986   8.180  70.976  1.00  0.00    -0.240 A  
HETATM   20 CL   UNL     1     -11.659   6.491  70.902  1.00  0.00    -0.401 Cl 
HETATM   21  N   UNL     1     -12.949   8.467  71.884  1.00  0.00    -0.345 NA 
HETATM   22  C   UNL     1     -13.334   9.753  71.992  1.00  0.00    -0.451 A  
HETATM   23  C   UNL     1     -12.788  10.779  71.235  1.00  0.00    -0.540 A  
HETATM   24  C   UNL     1     -11.789  10.462  70.315  1.00  0.00    -0.399 A  
ENDBRANCH  17  18
ENDBRANCH   9  14
ENDBRANCH   5   8
TORSDOF 3
ENDMDL
MODEL       60
REMARK 921   NORMALIZED FREE ENERGY PREDICTED BY IDOCK:   -5.37 KCAL/MOL
REMARK 922        TOTAL FREE ENERGY PREDICTED BY IDOCK:   -7.65 KCAL/MOL
REMARK 923 INTER-LIGAND FREE ENERGY PREDICTED BY IDOCK:   -6.24 KCAL/MOL
REMARK 924 INTRA-LIGAND FREE ENERGY PREDICTED BY IDOCK:   -1.41 KCAL/MOL
REMARK 927      BINDING AFFINITY PREDICTED BY RF-SCORE:    0.00 PKD
ROOT
HETATM    1 CL   UNL     1      -8.161   5.435  64.364  1.00  0.00    -0.118 Cl 
HETATM    2  C   UNL     1      -8.803   5.668  65.941  1.00  0.00    -0.152 A  
HETATM    3  C   UNL     1      -8.005   6.200  66.944  1.00  0.00    -0.105 A  
HETATM    4  C   UNL     1      -8.525   6.362  68.236  1.00  0.00    -0.115 A  
HETATM    5  C   UNL     1      -9.833   5.953  68.574  1.00  0.00    -0.166 A  
HETATM    6  C   UNL     1     -10.112   5.301  66.218  1.00  0.00    -0.239 A  
HETATM    7  C   UNL     1     -10.607   5.417  67.524  1.00  0.00    -0.204 A  
ENDROOT
BRANCH   5   8
HETATM    8  C   UNL     1     -10.313   5.987  69.995  1.00  0.00    -0.290 A  
HETATM    9  C   UNL     1     -11.166   6.984  70.539  1.00  0.00    -0.295 A  
HETATM   10  C   UNL     1     -11.664   6.863  71.850  1.00  0.00    -0.334 A  
HETATM   11  C   UNL     1      -9.995   4.901  70.844  1.00  0.00    -0.287 A  
HETATM   12  C   UNL     1     -11.295   5.797  72.662  1.00  0.00    -0.349 A  
HETATM   13  C   UNL     1     -10.453   4.815  72.162  1.00  0.00    -0.243 A  
BRANCH   9  14
HETATM   14  N   UNL     1     -11.437   8.177  69.828  1.00  0.00    -0.432 N  
HETATM   15  O   UNL     1      -9.643   9.454  70.547  1.00  0.00    -0.239 OA 
HETATM   16  H   UNL     1     -12.297   8.220  69.279  1.00  0.00     0.000 HD 
HETATM   17  C   UNL     1     -10.613   9.293  69.825  1.00  0.00    -0.231 C  
BRANCH  17  18
HETATM   18  C   UNL     1     -11.036  10.415  68.951  1.00  0.00    -0.296 A  
HETATM   19  C   UNL     1     -10.926  10.409  67.566  1.00  0.00    -0.295 A  
HETATM   20 CL   UNL     1     -10.267   9.105  66.654  1.00  0.00    -0.339 Cl 
HETATM   21  N   UNL     1     -11.293  11.444  66.773  1.00  0.00    -0.405 NA 
HETATM   22  C   UNL     1     -11.769  12.548  67.378  1.00  0.00    -0.366 A  
HETATM   23  C   UNL     1     -11.910  12.664  68.753  1.00  0.00    -0.341 A  
HETATM   24  C   UNL     1     -11.538  11.581  69.550  1.00  0.00    -0.400 A  
ENDBRANCH  17  18
ENDBRANCH   9  14
ENDBRANCH   5   8
TORSDOF 3
ENDMDL
MODEL       61
REMARK 921   NORMALIZED FREE ENERGY PREDICTED BY IDOCK:   -5.34 KCAL/MOL
REMARK 922        TOTAL FREE ENERGY PREDICTED BY IDOCK:   -7.62 KCAL/MOL
REMARK 923 INTER-LIGAND FREE ENERGY PREDICTED BY IDOCK:   -6.24 KCAL/MOL
REMARK 924 INTRA-LIGAND FREE ENERGY PREDICTED BY IDOCK:   -1.37 KCAL/MOL
REMARK 927      BINDING AFFINITY PREDICTED BY RF-SCORE:    0.00 PKD
ROOT
HETATM    1 CL   UNL     1     -10.957  16.504  64.639  1.00  0.00    -0.280 Cl 
HETATM    2  C   UNL     1     -11.157  15.270  65.819  1.00  0.00    -0.301 A  
HETATM    3  C   UNL     1     -10.207  15.103  66.817  1.00  0.00    -0.265 A  
HETATM    4  C   UNL     1     -10.360  14.078  67.760  1.00  0.00    -0.236 A  
HETATM    5  C   UNL     1     -11.433  13.163  67.705  1.00  0.00    -0.352 A  
HETATM    6  C   UNL     1     -12.256  14.425  65.760  1.00  0.00    -0.353 A  
HETATM    7  C   UNL     1     -12.374  13.371  66.675  1.00  0.00    -0.324 A  
ENDROOT
BRANCH   5   8
HETATM    8  C   UNL     1     -11.492  11.980  68.625  1.00  0.00    -0.350 A  
HETATM    9  C   UNL     1     -10.953  10.698  68.335  1.00  0.00    -0.251 A  
HETATM   10  C   UNL     1     -10.946   9.686  69.312  1.00  0.00    -0.194 A  
HETATM   11  C   UNL     1     -12.021  12.159  69.926  1.00  0.00    -0.380 A  
HETATM   12  C   UNL     1     -11.511   9.894  70.566  1.00  0.00    -0.391 A  
HETATM   13  C   UNL     1     -12.055  11.131  70.873  1.00  0.00    -0.427 A  
BRANCH   9  14
HETATM   14  N   UNL     1     -10.524  10.369  67.027  1.00  0.00    -0.243 N  
HETATM   15  O   UNL     1      -8.321  11.073  67.170  1.00  0.00    -0.126 OA 
HETATM   16  H   UNL     1     -11.219  10.003  66.376  1.00  0.00     0.000 HD 
HETATM   17  C   UNL     1      -9.222  10.510  66.570  1.00  0.00    -0.161 C  
BRANCH  17  18
HETATM   18  C   UNL     1      -8.959  10.033  65.190  1.00  0.00    -0.227 A  
HETATM   19  C   UNL     1      -9.298  10.739  64.043  1.00  0.00    -0.252 A  
HETATM   20 CL   UNL     1     -10.088  12.269  64.047  1.00  0.00    -0.360 Cl 
HETATM   21  N   UNL     1      -9.077  10.291  62.784  1.00  0.00    -0.254 NA 
HETATM   22  C   UNL     1      -8.516   9.074  62.651  1.00  0.00    -0.210 A  
HETATM   23  C   UNL     1      -8.149   8.281  63.728  1.00  0.00    -0.126 A  
HETATM   24  C   UNL     1      -8.375   8.768  65.015  1.00  0.00    -0.180 A  
ENDBRANCH  17  18
ENDBRANCH   9  14
ENDBRANCH   5   8
TORSDOF 3
ENDMDL
MODEL       62
REMARK 921   NORMALIZED FREE ENERGY PREDICTED BY IDOCK:   -5.34 KCAL/MOL
REMARK 922        TOTAL FREE ENERGY PREDICTED BY IDOCK:   -7.61 KCAL/MOL
REMARK 923 INTER-LIGAND FREE ENERGY PREDICTED BY IDOCK:   -6.44 KCAL/MOL
REMARK 924 INTRA-LIGAND FREE ENERGY PREDICTED BY IDOCK:   -1.17 KCAL/MOL
REMARK 927      BINDING AFFINITY PREDICTED BY RF-SCORE:    0.00 PKD
ROOT
HETATM    1 CL   UNL     1     -10.727  19.657  66.267  1.00  0.00    -0.557 Cl 
HETATM    2  C   UNL     1      -9.860  18.355  66.979  1.00  0.00    -0.326 A  
HETATM    3  C   UNL     1      -8.576  18.056  66.546  1.00  0.00    -0.280 A  
HETATM    4  C   UNL     1      -7.884  16.975  67.110  1.00  0.00    -0.203 A  
HETATM    5  C   UNL     1      -8.470  16.135  68.082  1.00  0.00    -0.175 A  
HETATM    6  C   UNL     1     -10.454  17.587  67.971  1.00  0.00    -0.387 A  
HETATM    7  C   UNL     1      -9.776  16.477  68.492  1.00  0.00    -0.239 A  
ENDROOT
BRANCH   5   8
HETATM    8  C   UNL     1      -7.774  14.894  68.554  1.00  0.00    -0.123 A  
HETATM    9  C   UNL     1      -7.785  13.647  67.873  1.00  0.00    -0.157 A  
HETATM   10  C   UNL     1      -6.999  12.574  68.330  1.00  0.00    -0.089 A  
HETATM   11  C   UNL     1      -6.950  14.974  69.703  1.00  0.00    -0.191 A  
HETATM   12  C   UNL     1      -6.233  12.685  69.485  1.00  0.00    -0.121 A  
HETATM   13  C   UNL     1      -6.212  13.886  70.178  1.00  0.00    -0.123 A  
BRANCH   9  14
HETATM   14  N   UNL     1      -8.675  13.415  66.797  1.00  0.00    -0.417 N  
HETATM   15  O   UNL     1     -10.538  12.734  67.995  1.00  0.00    -0.214 OA 
HETATM   16  H   UNL     1      -8.314  13.522  65.849  1.00  0.00     0.000 HD 
HETATM   17  C   UNL     1     -10.006  13.052  66.944  1.00  0.00    -0.243 C  
BRANCH  17  18
HETATM   18  C   UNL     1     -10.792  12.933  65.691  1.00  0.00    -0.296 A  
HETATM   19  C   UNL     1     -10.894  11.769  64.941  1.00  0.00    -0.298 A  
HETATM   20 CL   UNL     1     -10.109  10.289  65.342  1.00  0.00    -0.367 Cl 
HETATM   21  N   UNL     1     -11.595  11.670  63.787  1.00  0.00    -0.386 NA 
HETATM   22  C   UNL     1     -12.206  12.782  63.338  1.00  0.00    -0.504 A  
HETATM   23  C   UNL     1     -12.160  13.999  64.002  1.00  0.00    -0.413 A  
HETATM   24  C   UNL     1     -11.443  14.074  65.195  1.00  0.00    -0.328 A  
ENDBRANCH  17  18
ENDBRANCH   9  14
ENDBRANCH   5   8
TORSDOF 3
ENDMDL
MODEL       63
REMARK 921   NORMALIZED FREE ENERGY PREDICTED BY IDOCK:   -5.33 KCAL/MOL
REMARK 922        TOTAL FREE ENERGY PREDICTED BY IDOCK:   -7.60 KCAL/MOL
REMARK 923 INTER-LIGAND FREE ENERGY PREDICTED BY IDOCK:   -6.89 KCAL/MOL
REMARK 924 INTRA-LIGAND FREE ENERGY PREDICTED BY IDOCK:   -0.70 KCAL/MOL
REMARK 927      BINDING AFFINITY PREDICTED BY RF-SCORE:    0.00 PKD
ROOT
HETATM    1 CL   UNL     1      -5.939  14.495  70.665  1.00  0.00    -0.181 Cl 
HETATM    2  C   UNL     1      -7.131  14.483  69.427  1.00  0.00    -0.140 A  
HETATM    3  C   UNL     1      -8.161  15.413  69.446  1.00  0.00    -0.250 A  
HETATM    4  C   UNL     1      -9.146  15.381  68.449  1.00  0.00    -0.191 A  
HETATM    5  C   UNL     1      -9.161  14.394  67.440  1.00  0.00    -0.202 A  
HETATM    6  C   UNL     1      -7.077  13.527  68.422  1.00  0.00    -0.107 A  
HETATM    7  C   UNL     1      -8.095  13.470  67.460  1.00  0.00    -0.190 A  
ENDROOT
BRANCH   5   8
HETATM    8  C   UNL     1     -10.308  14.282  66.481  1.00  0.00    -0.278 A  
HETATM    9  C   UNL     1     -11.453  13.464  66.678  1.00  0.00    -0.344 A  
HETATM   10  C   UNL     1     -12.537  13.521  65.782  1.00  0.00    -0.490 A  
HETATM   11  C   UNL     1     -10.326  15.125  65.344  1.00  0.00    -0.415 A  
HETATM   12  C   UNL     1     -12.495  14.336  64.656  1.00  0.00    -0.371 A  
HETATM   13  C   UNL     1     -11.385  15.136  64.432  1.00  0.00    -0.211 A  
BRANCH   9  14
HETATM   14  N   UNL     1     -11.482  12.489  67.703  1.00  0.00    -0.312 N  
HETATM   15  O   UNL     1     -12.065  13.844  69.489  1.00  0.00    -0.321 OA 
HETATM   16  H   UNL     1     -11.206  11.536  67.462  1.00  0.00     0.000 HD 
HETATM   17  C   UNL     1     -11.862  12.739  69.013  1.00  0.00    -0.297 C  
BRANCH  17  18
HETATM   18  C   UNL     1     -11.902  11.563  69.917  1.00  0.00    -0.430 A  
HETATM   19  C   UNL     1     -12.609  11.521  71.112  1.00  0.00    -0.359 A  
HETATM   20 CL   UNL     1     -13.535  12.833  71.734  1.00  0.00    -0.424 Cl 
HETATM   21  N   UNL     1     -12.625  10.454  71.945  1.00  0.00    -0.359 NA 
HETATM   22  C   UNL     1     -11.887   9.384  71.595  1.00  0.00    -0.394 A  
HETATM   23  C   UNL     1     -11.135   9.325  70.430  1.00  0.00    -0.300 A  
HETATM   24  C   UNL     1     -11.144  10.431  69.581  1.00  0.00    -0.328 A  
ENDBRANCH  17  18
ENDBRANCH   9  14
ENDBRANCH   5   8
TORSDOF 3
ENDMDL
MODEL       64
REMARK 921   NORMALIZED FREE ENERGY PREDICTED BY IDOCK:   -5.30 KCAL/MOL
REMARK 922        TOTAL FREE ENERGY PREDICTED BY IDOCK:   -7.56 KCAL/MOL
REMARK 923 INTER-LIGAND FREE ENERGY PREDICTED BY IDOCK:   -6.22 KCAL/MOL
REMARK 924 INTRA-LIGAND FREE ENERGY PREDICTED BY IDOCK:   -1.34 KCAL/MOL
REMARK 927      BINDING AFFINITY PREDICTED BY RF-SCORE:    0.00 PKD
ROOT
HETATM    1 CL   UNL     1     -12.690  12.326  64.295  1.00  0.00    -0.487 Cl 
HETATM    2  C   UNL     1     -11.924  13.585  65.180  1.00  0.00    -0.368 A  
HETATM    3  C   UNL     1     -12.372  13.911  66.453  1.00  0.00    -0.468 A  
HETATM    4  C   UNL     1     -11.762  14.958  67.159  1.00  0.00    -0.292 A  
HETATM    5  C   UNL     1     -10.728  15.738  66.599  1.00  0.00    -0.287 A  
HETATM    6  C   UNL     1     -10.874  14.293  64.612  1.00  0.00    -0.384 A  
HETATM    7  C   UNL     1     -10.306  15.371  65.304  1.00  0.00    -0.420 A  
ENDROOT
BRANCH   5   8
HETATM    8  C   UNL     1     -10.200  16.950  67.306  1.00  0.00    -0.297 A  
HETATM    9  C   UNL     1      -9.078  16.958  68.177  1.00  0.00    -0.231 A  
HETATM   10  C   UNL     1      -8.582  18.168  68.697  1.00  0.00    -0.282 A  
HETATM   11  C   UNL     1     -10.779  18.209  67.017  1.00  0.00    -0.274 A  
HETATM   12  C   UNL     1      -9.206  19.378  68.415  1.00  0.00    -0.415 A  
HETATM   13  C   UNL     1     -10.310  19.401  67.578  1.00  0.00    -0.556 A  
BRANCH   9  14
HETATM   14  N   UNL     1      -8.509  15.747  68.641  1.00  0.00    -0.180 N  
HETATM   15  O   UNL     1      -6.942  15.409  66.969  1.00  0.00    -0.230 OA 
HETATM   16  H   UNL     1      -8.918  15.316  69.471  1.00  0.00     0.000 HD 
HETATM   17  C   UNL     1      -7.433  15.107  68.044  1.00  0.00    -0.120 C  
BRANCH  17  18
HETATM   18  C   UNL     1      -6.935  13.890  68.731  1.00  0.00    -0.108 A  
HETATM   19  C   UNL     1      -7.466  12.620  68.549  1.00  0.00    -0.121 A  
HETATM   20 CL   UNL     1      -8.794  12.266  67.512  1.00  0.00    -0.173 Cl 
HETATM   21  N   UNL     1      -7.023  11.514  69.194  1.00  0.00    -0.112 NA 
HETATM   22  C   UNL     1      -6.022  11.675  70.081  1.00  0.00    -0.161 A  
HETATM   23  C   UNL     1      -5.428  12.900  70.346  1.00  0.00    -0.146 A  
HETATM   24  C   UNL     1      -5.892  14.022  69.661  1.00  0.00    -0.109 A  
ENDBRANCH  17  18
ENDBRANCH   9  14
ENDBRANCH   5   8
TORSDOF 3
ENDMDL
MODEL       65
REMARK 921   NORMALIZED FREE ENERGY PREDICTED BY IDOCK:   -5.28 KCAL/MOL
REMARK 922        TOTAL FREE ENERGY PREDICTED BY IDOCK:   -7.54 KCAL/MOL
REMARK 923 INTER-LIGAND FREE ENERGY PREDICTED BY IDOCK:   -6.42 KCAL/MOL
REMARK 924 INTRA-LIGAND FREE ENERGY PREDICTED BY IDOCK:   -1.12 KCAL/MOL
REMARK 927      BINDING AFFINITY PREDICTED BY RF-SCORE:    0.00 PKD
ROOT
HETATM    1 CL   UNL     1     -13.741   9.064  72.649  1.00  0.00    -0.481 Cl 
HETATM    2  C   UNL     1     -12.506   8.601  71.546  1.00  0.00    -0.323 A  
HETATM    3  C   UNL     1     -12.502   7.324  71.005  1.00  0.00    -0.323 A  
HETATM    4  C   UNL     1     -11.477   6.942  70.127  1.00  0.00    -0.354 A  
HETATM    5  C   UNL     1     -10.405   7.804  69.807  1.00  0.00    -0.221 A  
HETATM    6  C   UNL     1     -11.500   9.498  71.216  1.00  0.00    -0.447 A  
HETATM    7  C   UNL     1     -10.451   9.091  70.380  1.00  0.00    -0.254 A  
ENDROOT
BRANCH   5   8
HETATM    8  C   UNL     1      -9.240   7.322  68.996  1.00  0.00    -0.139 A  
HETATM    9  C   UNL     1      -8.824   7.884  67.759  1.00  0.00    -0.122 A  
HETATM   10  C   UNL     1      -7.642   7.445  67.134  1.00  0.00    -0.107 A  
HETATM   11  C   UNL     1      -8.413   6.306  69.533  1.00  0.00    -0.129 A  
HETATM   12  C   UNL     1      -6.881   6.417  67.679  1.00  0.00    -0.076 A  
HETATM   13  C   UNL     1      -7.269   5.841  68.880  1.00  0.00    -0.082 A  
BRANCH   9  14
HETATM   14  N   UNL     1      -9.644   8.806  67.067  1.00  0.00    -0.166 N  
HETATM   15  O   UNL     1      -8.603  10.777  67.699  1.00  0.00    -0.122 OA 
HETATM   16  H   UNL     1     -10.452   8.440  66.563  1.00  0.00     0.000 HD 
HETATM   17  C   UNL     1      -9.424  10.175  67.026  1.00  0.00    -0.167 C  
BRANCH  17  18
HETATM   18  C   UNL     1     -10.354  10.961  66.179  1.00  0.00    -0.305 A  
HETATM   19  C   UNL     1     -11.406  11.722  66.673  1.00  0.00    -0.316 A  
HETATM   20 CL   UNL     1     -11.801  11.856  68.344  1.00  0.00    -0.379 Cl 
HETATM   21  N   UNL     1     -12.267  12.420  65.894  1.00  0.00    -0.632 NA 
HETATM   22  C   UNL     1     -12.095  12.345  64.561  1.00  0.00    -0.417 A  
HETATM   23  C   UNL     1     -11.085  11.606  63.963  1.00  0.00    -0.458 A  
HETATM   24  C   UNL     1     -10.203  10.905  64.784  1.00  0.00    -0.398 A  
ENDBRANCH  17  18
ENDBRANCH   9  14
ENDBRANCH   5   8
TORSDOF 3
ENDMDL
MODEL       66
REMARK 921   NORMALIZED FREE ENERGY PREDICTED BY IDOCK:   -5.26 KCAL/MOL
REMARK 922        TOTAL FREE ENERGY PREDICTED BY IDOCK:   -7.52 KCAL/MOL
REMARK 923 INTER-LIGAND FREE ENERGY PREDICTED BY IDOCK:   -6.98 KCAL/MOL
REMARK 924 INTRA-LIGAND FREE ENERGY PREDICTED BY IDOCK:   -0.54 KCAL/MOL
REMARK 927      BINDING AFFINITY PREDICTED BY RF-SCORE:    0.00 PKD
ROOT
HETATM    1 CL   UNL     1     -12.631  15.944  71.482  1.00  0.00    -0.496 Cl 
HETATM    2  C   UNL     1     -12.697  14.233  71.332  1.00  0.00    -0.352 A  
HETATM    3  C   UNL     1     -13.334  13.475  72.304  1.00  0.00    -0.628 A  
HETATM    4  C   UNL     1     -13.361  12.078  72.192  1.00  0.00    -0.396 A  
HETATM    5  C   UNL     1     -12.712  11.398  71.139  1.00  0.00    -0.479 A  
HETATM    6  C   UNL     1     -12.091  13.608  70.251  1.00  0.00    -0.427 A  
HETATM    7  C   UNL     1     -12.077  12.209  70.175  1.00  0.00    -0.368 A  
ENDROOT
BRANCH   5   8
HETATM    8  C   UNL     1     -12.616   9.901  71.124  1.00  0.00    -0.464 A  
HETATM    9  C   UNL     1     -11.450   9.165  70.784  1.00  0.00    -0.282 A  
HETATM   10  C   UNL     1     -11.421   7.765  70.921  1.00  0.00    -0.294 A  
HETATM   11  C   UNL     1     -13.722   9.147  71.584  1.00  0.00    -0.433 A  
HETATM   12  C   UNL     1     -12.544   7.061  71.341  1.00  0.00    -0.428 A  
HETATM   13  C   UNL     1     -13.701   7.752  71.668  1.00  0.00    -0.434 A  
BRANCH   9  14
HETATM   14  N   UNL     1     -10.336   9.803  70.186  1.00  0.00    -0.265 N  
HETATM   15  O   UNL     1     -10.809   9.365  67.961  1.00  0.00    -0.220 OA 
HETATM   16  H   UNL     1      -9.629  10.203  70.803  1.00  0.00     0.000 HD 
HETATM   17  C   UNL     1     -10.142   9.921  68.818  1.00  0.00    -0.174 C  
BRANCH  17  18
HETATM   18  C   UNL     1      -8.950  10.696  68.393  1.00  0.00    -0.149 A  
HETATM   19  C   UNL     1      -7.666  10.171  68.314  1.00  0.00    -0.088 A  
HETATM   20 CL   UNL     1      -7.260   8.546  68.713  1.00  0.00    -0.077 Cl 
HETATM   21  N   UNL     1      -6.577  10.887  67.946  1.00  0.00    -0.062 NA 
HETATM   22  C   UNL     1      -6.760  12.191  67.666  1.00  0.00    -0.118 A  
HETATM   23  C   UNL     1      -7.996  12.818  67.723  1.00  0.00    -0.157 A  
HETATM   24  C   UNL     1      -9.106  12.058  68.092  1.00  0.00    -0.191 A  
ENDBRANCH  17  18
ENDBRANCH   9  14
ENDBRANCH   5   8
TORSDOF 3
ENDMDL
MODEL       67
REMARK 921   NORMALIZED FREE ENERGY PREDICTED BY IDOCK:   -5.23 KCAL/MOL
REMARK 922        TOTAL FREE ENERGY PREDICTED BY IDOCK:   -7.48 KCAL/MOL
REMARK 923 INTER-LIGAND FREE ENERGY PREDICTED BY IDOCK:   -6.57 KCAL/MOL
REMARK 924 INTRA-LIGAND FREE ENERGY PREDICTED BY IDOCK:   -0.90 KCAL/MOL
REMARK 927      BINDING AFFINITY PREDICTED BY RF-SCORE:    0.00 PKD
ROOT
HETATM    1 CL   UNL     1     -11.818  10.005  71.331  1.00  0.00    -0.458 Cl 
HETATM    2  C   UNL     1     -11.630  11.092  70.013  1.00  0.00    -0.338 A  
HETATM    3  C   UNL     1     -11.983  12.427  70.156  1.00  0.00    -0.376 A  
HETATM    4  C   UNL     1     -11.854  13.302  69.070  1.00  0.00    -0.365 A  
HETATM    5  C   UNL     1     -11.419  12.863  67.800  1.00  0.00    -0.369 A  
HETATM    6  C   UNL     1     -11.147  10.629  68.796  1.00  0.00    -0.316 A  
HETATM    7  C   UNL     1     -11.071  11.500  67.701  1.00  0.00    -0.324 A  
ENDROOT
BRANCH   5   8
HETATM    8  C   UNL     1     -11.440  13.780  66.614  1.00  0.00    -0.362 A  
HETATM    9  C   UNL     1     -10.367  14.623  66.220  1.00  0.00    -0.294 A  
HETATM   10  C   UNL     1     -10.434  15.355  65.019  1.00  0.00    -0.411 A  
HETATM   11  C   UNL     1     -12.557  13.738  65.745  1.00  0.00    -0.525 A  
HETATM   12  C   UNL     1     -11.568  15.313  64.216  1.00  0.00    -0.204 A  
HETATM   13  C   UNL     1     -12.636  14.507  64.581  1.00  0.00    -0.220 A  
BRANCH   9  14
HETATM   14  N   UNL     1      -9.264  14.845  67.078  1.00  0.00    -0.221 N  
HETATM   15  O   UNL     1     -10.020  16.741  68.174  1.00  0.00    -0.252 OA 
HETATM   16  H   UNL     1      -8.454  14.232  66.981  1.00  0.00     0.000 HD 
HETATM   17  C   UNL     1      -9.208  15.840  68.043  1.00  0.00    -0.188 C  
BRANCH  17  18
HETATM   18  C   UNL     1      -7.994  15.856  68.895  1.00  0.00    -0.204 A  
HETATM   19  C   UNL     1      -7.246  16.995  69.166  1.00  0.00    -0.209 A  
HETATM   20 CL   UNL     1      -7.605  18.559  68.541  1.00  0.00    -0.316 Cl 
HETATM   21  N   UNL     1      -6.125  17.002  69.926  1.00  0.00    -0.224 NA 
HETATM   22  C   UNL     1      -5.709  15.823  70.424  1.00  0.00    -0.114 A  
HETATM   23  C   UNL     1      -6.374  14.625  70.206  1.00  0.00    -0.171 A  
HETATM   24  C   UNL     1      -7.532  14.644  69.431  1.00  0.00    -0.112 A  
ENDBRANCH  17  18
ENDBRANCH   9  14
ENDBRANCH   5   8
TORSDOF 3
ENDMDL
MODEL       68
REMARK 921   NORMALIZED FREE ENERGY PREDICTED BY IDOCK:   -5.22 KCAL/MOL
REMARK 922        TOTAL FREE ENERGY PREDICTED BY IDOCK:   -7.47 KCAL/MOL
REMARK 923 INTER-LIGAND FREE ENERGY PREDICTED BY IDOCK:   -6.59 KCAL/MOL
REMARK 924 INTRA-LIGAND FREE ENERGY PREDICTED BY IDOCK:   -0.88 KCAL/MOL
REMARK 927      BINDING AFFINITY PREDICTED BY RF-SCORE:    0.00 PKD
ROOT
HETATM    1 CL   UNL     1     -11.402  15.581  67.524  1.00  0.00    -0.282 Cl 
HETATM    2  C   UNL     1     -11.676  14.139  68.418  1.00  0.00    -0.345 A  
HETATM    3  C   UNL     1     -11.855  14.197  69.793  1.00  0.00    -0.381 A  
HETATM    4  C   UNL     1     -12.050  13.015  70.521  1.00  0.00    -0.373 A  
HETATM    5  C   UNL     1     -12.021  11.743  69.909  1.00  0.00    -0.405 A  
HETATM    6  C   UNL     1     -11.694  12.912  67.768  1.00  0.00    -0.412 A  
HETATM    7  C   UNL     1     -11.837  11.733  68.510  1.00  0.00    -0.365 A  
ENDROOT
BRANCH   5   8
HETATM    8  C   UNL     1     -12.072  10.488  70.726  1.00  0.00    -0.470 A  
HETATM    9  C   UNL     1     -11.000   9.567  70.867  1.00  0.00    -0.337 A  
HETATM   10  C   UNL     1     -11.100   8.481  71.757  1.00  0.00    -0.378 A  
HETATM   11  C   UNL     1     -13.223  10.236  71.511  1.00  0.00    -0.484 A  
HETATM   12  C   UNL     1     -12.265   8.250  72.479  1.00  0.00    -0.367 A  
HETATM   13  C   UNL     1     -13.333   9.126  72.353  1.00  0.00    -0.527 A  
BRANCH   9  14
HETATM   14  N   UNL     1      -9.859   9.645  70.032  1.00  0.00    -0.232 N  
HETATM   15  O   UNL     1     -10.307   7.863  68.622  1.00  0.00    -0.203 OA 
HETATM   16  H   UNL     1      -9.151  10.344  70.259  1.00  0.00     0.000 HD 
HETATM   17  C   UNL     1      -9.639   8.837  68.927  1.00  0.00    -0.158 C  
BRANCH  17  18
HETATM   18  C   UNL     1      -8.419   9.132  68.135  1.00  0.00    -0.125 A  
HETATM   19  C   UNL     1      -8.430   9.544  66.809  1.00  0.00    -0.127 A  
HETATM   20 CL   UNL     1      -9.861   9.761  65.876  1.00  0.00    -0.334 Cl 
HETATM   21  N   UNL     1      -7.314   9.790  66.083  1.00  0.00    -0.098 NA 
HETATM   22  C   UNL     1      -6.127   9.597  66.689  1.00  0.00    -0.063 A  
HETATM   23  C   UNL     1      -6.002   9.177  68.005  1.00  0.00    -0.049 A  
HETATM   24  C   UNL     1      -7.165   8.941  68.737  1.00  0.00    -0.075 A  
ENDBRANCH  17  18
ENDBRANCH   9  14
ENDBRANCH   5   8
TORSDOF 3
ENDMDL
MODEL       69
REMARK 921   NORMALIZED FREE ENERGY PREDICTED BY IDOCK:   -5.20 KCAL/MOL
REMARK 922        TOTAL FREE ENERGY PREDICTED BY IDOCK:   -7.45 KCAL/MOL
REMARK 923 INTER-LIGAND FREE ENERGY PREDICTED BY IDOCK:   -6.23 KCAL/MOL
REMARK 924 INTRA-LIGAND FREE ENERGY PREDICTED BY IDOCK:   -1.22 KCAL/MOL
REMARK 927      BINDING AFFINITY PREDICTED BY RF-SCORE:    0.00 PKD
ROOT
HETATM    1 CL   UNL     1      -5.590   7.902  64.952  1.00  0.00    -0.036 Cl 
HETATM    2  C   UNL     1      -6.989   8.896  65.062  1.00  0.00    -0.073 A  
HETATM    3  C   UNL     1      -8.155   8.529  64.404  1.00  0.00    -0.163 A  
HETATM    4  C   UNL     1      -9.284   9.357  64.474  1.00  0.00    -0.155 A  
HETATM    5  C   UNL     1      -9.267  10.593  65.157  1.00  0.00    -0.241 A  
HETATM    6  C   UNL     1      -6.945  10.077  65.789  1.00  0.00    -0.112 A  
HETATM    7  C   UNL     1      -8.061  10.924  65.810  1.00  0.00    -0.094 A  
ENDROOT
BRANCH   5   8
HETATM    8  C   UNL     1     -10.431  11.534  65.085  1.00  0.00    -0.340 A  
HETATM    9  C   UNL     1     -11.288  11.850  66.173  1.00  0.00    -0.324 A  
HETATM   10  C   UNL     1     -12.278  12.841  66.041  1.00  0.00    -0.380 A  
HETATM   11  C   UNL     1     -10.646  12.256  63.886  1.00  0.00    -0.462 A  
HETATM   12  C   UNL     1     -12.479  13.499  64.833  1.00  0.00    -0.429 A  
HETATM   13  C   UNL     1     -11.666  13.203  63.749  1.00  0.00    -0.519 A  
BRANCH   9  14
HETATM   14  N   UNL     1     -11.251  11.096  67.371  1.00  0.00    -0.303 N  
HETATM   15  O   UNL     1      -9.735  12.376  68.568  1.00  0.00    -0.206 OA 
HETATM   16  H   UNL     1     -11.785  10.228  67.403  1.00  0.00     0.000 HD 
HETATM   17  C   UNL     1     -10.538  11.459  68.504  1.00  0.00    -0.198 C  
BRANCH  17  18
HETATM   18  C   UNL     1     -10.693  10.574  69.684  1.00  0.00    -0.302 A  
HETATM   19  C   UNL     1      -9.765   9.614  70.067  1.00  0.00    -0.241 A  
HETATM   20 CL   UNL     1      -8.299   9.295  69.220  1.00  0.00    -0.119 Cl 
HETATM   21  N   UNL     1      -9.920   8.792  71.132  1.00  0.00    -0.224 NA 
HETATM   22  C   UNL     1     -11.059   8.907  71.840  1.00  0.00    -0.372 A  
HETATM   23  C   UNL     1     -12.056   9.823  71.539  1.00  0.00    -0.493 A  
HETATM   24  C   UNL     1     -11.869  10.668  70.445  1.00  0.00    -0.441 A  
ENDBRANCH  17  18
ENDBRANCH   9  14
ENDBRANCH   5   8
TORSDOF 3
ENDMDL
MODEL       70
REMARK 921   NORMALIZED FREE ENERGY PREDICTED BY IDOCK:   -5.19 KCAL/MOL
REMARK 922        TOTAL FREE ENERGY PREDICTED BY IDOCK:   -7.43 KCAL/MOL
REMARK 923 INTER-LIGAND FREE ENERGY PREDICTED BY IDOCK:   -6.43 KCAL/MOL
REMARK 924 INTRA-LIGAND FREE ENERGY PREDICTED BY IDOCK:   -1.00 KCAL/MOL
REMARK 927      BINDING AFFINITY PREDICTED BY RF-SCORE:    0.00 PKD
ROOT
HETATM    1 CL   UNL     1     -10.757   6.625  73.678  1.00  0.00    -0.306 Cl 
HETATM    2  C   UNL     1     -10.926   7.943  72.586  1.00  0.00    -0.378 A  
HETATM    3  C   UNL     1     -12.188   8.428  72.273  1.00  0.00    -0.449 A  
HETATM    4  C   UNL     1     -12.322   9.484  71.361  1.00  0.00    -0.451 A  
HETATM    5  C   UNL     1     -11.210  10.049  70.699  1.00  0.00    -0.425 A  
HETATM    6  C   UNL     1      -9.801   8.504  71.998  1.00  0.00    -0.383 A  
HETATM    7  C   UNL     1      -9.948   9.524  71.048  1.00  0.00    -0.269 A  
ENDROOT
BRANCH   5   8
HETATM    8  C   UNL     1     -11.389  11.066  69.612  1.00  0.00    -0.363 A  
HETATM    9  C   UNL     1     -11.382  10.776  68.221  1.00  0.00    -0.309 A  
HETATM   10  C   UNL     1     -11.684  11.778  67.280  1.00  0.00    -0.293 A  
HETATM   11  C   UNL     1     -11.697  12.399  69.975  1.00  0.00    -0.307 A  
HETATM   12  C   UNL     1     -11.944  13.084  67.679  1.00  0.00    -0.353 A  
HETATM   13  C   UNL     1     -11.945  13.399  69.030  1.00  0.00    -0.357 A  
BRANCH   9  14
HETATM   14  N   UNL     1     -10.955   9.515  67.743  1.00  0.00    -0.495 N  
HETATM   15  O   UNL     1      -8.665   9.861  67.775  1.00  0.00    -0.128 OA 
HETATM   16  H   UNL     1     -11.672   8.845  67.461  1.00  0.00     0.000 HD 
HETATM   17  C   UNL     1      -9.628   9.127  67.631  1.00  0.00    -0.149 C  
BRANCH  17  18
HETATM   18  C   UNL     1      -9.391   7.732  67.182  1.00  0.00    -0.185 A  
HETATM   19  C   UNL     1      -8.846   7.391  65.951  1.00  0.00    -0.120 A  
HETATM   20 CL   UNL     1      -8.376   8.534  64.751  1.00  0.00    -0.168 Cl 
HETATM   21  N   UNL     1      -8.652   6.117  65.536  1.00  0.00    -0.148 NA 
HETATM   22  C   UNL     1      -9.037   5.130  66.367  1.00  0.00    -0.131 A  
HETATM   23  C   UNL     1      -9.602   5.360  67.613  1.00  0.00    -0.142 A  
HETATM   24  C   UNL     1      -9.781   6.680  68.025  1.00  0.00    -0.126 A  
ENDBRANCH  17  18
ENDBRANCH   9  14
ENDBRANCH   5   8
TORSDOF 3
ENDMDL
MODEL       71
REMARK 921   NORMALIZED FREE ENERGY PREDICTED BY IDOCK:   -5.18 KCAL/MOL
REMARK 922        TOTAL FREE ENERGY PREDICTED BY IDOCK:   -7.42 KCAL/MOL
REMARK 923 INTER-LIGAND FREE ENERGY PREDICTED BY IDOCK:   -7.12 KCAL/MOL
REMARK 924 INTRA-LIGAND FREE ENERGY PREDICTED BY IDOCK:   -0.29 KCAL/MOL
REMARK 927      BINDING AFFINITY PREDICTED BY RF-SCORE:    0.00 PKD
ROOT
HETATM    1 CL   UNL     1     -13.123  13.481  72.705  1.00  0.00    -0.476 Cl 
HETATM    2  C   UNL     1     -12.655  13.271  71.064  1.00  0.00    -0.324 A  
HETATM    3  C   UNL     1     -12.294  12.014  70.600  1.00  0.00    -0.394 A  
HETATM    4  C   UNL     1     -11.887  11.853  69.269  1.00  0.00    -0.379 A  
HETATM    5  C   UNL     1     -11.781  12.944  68.380  1.00  0.00    -0.382 A  
HETATM    6  C   UNL     1     -12.616  14.363  70.209  1.00  0.00    -0.380 A  
HETATM    7  C   UNL     1     -12.158  14.202  68.894  1.00  0.00    -0.339 A  
ENDROOT
BRANCH   5   8
HETATM    8  C   UNL     1     -11.192  12.775  67.011  1.00  0.00    -0.336 A  
HETATM    9  C   UNL     1     -10.983  11.527  66.366  1.00  0.00    -0.284 A  
HETATM   10  C   UNL     1     -10.541  11.476  65.031  1.00  0.00    -0.354 A  
HETATM   11  C   UNL     1     -10.919  13.933  66.243  1.00  0.00    -0.298 A  
HETATM   12  C   UNL     1     -10.249  12.638  64.326  1.00  0.00    -0.358 A  
HETATM   13  C   UNL     1     -10.432  13.871  64.934  1.00  0.00    -0.446 A  
BRANCH   9  14
HETATM   14  N   UNL     1     -11.093  10.311  67.082  1.00  0.00    -0.179 N  
HETATM   15  O   UNL     1      -8.874   9.647  67.031  1.00  0.00    -0.130 OA 
HETATM   16  H   UNL     1     -12.026  10.007  67.363  1.00  0.00     0.000 HD 
HETATM   17  C   UNL     1     -10.019   9.504  67.427  1.00  0.00    -0.189 C  
BRANCH  17  18
HETATM   18  C   UNL     1     -10.338   8.309  68.248  1.00  0.00    -0.242 A  
HETATM   19  C   UNL     1     -10.129   8.227  69.618  1.00  0.00    -0.199 A  
HETATM   20 CL   UNL     1      -9.455   9.492  70.572  1.00  0.00    -0.318 Cl 
HETATM   21  N   UNL     1     -10.400   7.127  70.360  1.00  0.00    -0.201 NA 
HETATM   22  C   UNL     1     -10.878   6.047  69.714  1.00  0.00    -0.363 A  
HETATM   23  C   UNL     1     -11.113   6.018  68.347  1.00  0.00    -0.271 A  
HETATM   24  C   UNL     1     -10.838   7.166  67.605  1.00  0.00    -0.279 A  
ENDBRANCH  17  18
ENDBRANCH   9  14
ENDBRANCH   5   8
TORSDOF 3
ENDMDL
MODEL       72
REMARK 921   NORMALIZED FREE ENERGY PREDICTED BY IDOCK:   -5.10 KCAL/MOL
REMARK 922        TOTAL FREE ENERGY PREDICTED BY IDOCK:   -7.33 KCAL/MOL
REMARK 923 INTER-LIGAND FREE ENERGY PREDICTED BY IDOCK:   -6.09 KCAL/MOL
REMARK 924 INTRA-LIGAND FREE ENERGY PREDICTED BY IDOCK:   -1.24 KCAL/MOL
REMARK 927      BINDING AFFINITY PREDICTED BY RF-SCORE:    0.00 PKD
ROOT
HETATM    1 CL   UNL     1      -7.245   5.746  67.744  1.00  0.00    -0.074 Cl 
HETATM    2  C   UNL     1      -8.388   6.735  68.563  1.00  0.00    -0.120 A  
HETATM    3  C   UNL     1      -8.161   7.117  69.878  1.00  0.00    -0.133 A  
HETATM    4  C   UNL     1      -9.110   7.900  70.550  1.00  0.00    -0.154 A  
HETATM    5  C   UNL     1     -10.329   8.280  69.949  1.00  0.00    -0.218 A  
HETATM    6  C   UNL     1      -9.551   7.132  67.917  1.00  0.00    -0.145 A  
HETATM    7  C   UNL     1     -10.517   7.870  68.613  1.00  0.00    -0.196 A  
ENDROOT
BRANCH   5   8
HETATM    8  C   UNL     1     -11.397   8.980  70.737  1.00  0.00    -0.329 A  
HETATM    9  C   UNL     1     -11.749  10.347  70.589  1.00  0.00    -0.351 A  
HETATM   10  C   UNL     1     -12.850  10.883  71.284  1.00  0.00    -0.536 A  
HETATM   11  C   UNL     1     -12.198   8.216  71.619  1.00  0.00    -0.343 A  
HETATM   12  C   UNL     1     -13.586  10.105  72.171  1.00  0.00    -0.295 A  
HETATM   13  C   UNL     1     -13.257   8.769  72.344  1.00  0.00    -0.441 A  
BRANCH   9  14
HETATM   14  N   UNL     1     -10.936  11.232  69.840  1.00  0.00    -0.471 N  
HETATM   15  O   UNL     1     -12.127  11.240  67.853  1.00  0.00    -0.634 OA 
HETATM   16  H   UNL     1     -10.076  11.569  70.273  1.00  0.00     0.000 HD 
HETATM   17  C   UNL     1     -11.229  11.671  68.558  1.00  0.00    -0.256 C  
BRANCH  17  18
HETATM   18  C   UNL     1     -10.289  12.659  67.975  1.00  0.00    -0.231 A  
HETATM   19  C   UNL     1      -8.936  12.420  67.767  1.00  0.00    -0.182 A  
HETATM   20 CL   UNL     1      -8.142  10.946  68.168  1.00  0.00    -0.114 Cl 
HETATM   21  N   UNL     1      -8.076  13.333  67.255  1.00  0.00    -0.168 NA 
HETATM   22  C   UNL     1      -8.570  14.549  66.957  1.00  0.00    -0.217 A  
HETATM   23  C   UNL     1      -9.901  14.896  67.135  1.00  0.00    -0.231 A  
HETATM   24  C   UNL     1     -10.771  13.937  67.652  1.00  0.00    -0.255 A  
ENDBRANCH  17  18
ENDBRANCH   9  14
ENDBRANCH   5   8
TORSDOF 3
ENDMDL
MODEL       73
REMARK 921   NORMALIZED FREE ENERGY PREDICTED BY IDOCK:   -5.09 KCAL/MOL
REMARK 922        TOTAL FREE ENERGY PREDICTED BY IDOCK:   -7.32 KCAL/MOL
REMARK 923 INTER-LIGAND FREE ENERGY PREDICTED BY IDOCK:   -7.15 KCAL/MOL
REMARK 924 INTRA-LIGAND FREE ENERGY PREDICTED BY IDOCK:   -0.17 KCAL/MOL
REMARK 927      BINDING AFFINITY PREDICTED BY RF-SCORE:    0.00 PKD
ROOT
HETATM    1 CL   UNL     1     -12.656  10.118  71.605  1.00  0.00    -0.507 Cl 
HETATM    2  C   UNL     1     -12.241  11.336  70.465  1.00  0.00    -0.383 A  
HETATM    3  C   UNL     1     -11.717  10.981  69.230  1.00  0.00    -0.397 A  
HETATM    4  C   UNL     1     -11.354  11.979  68.314  1.00  0.00    -0.342 A  
HETATM    5  C   UNL     1     -11.455  13.353  68.623  1.00  0.00    -0.345 A  
HETATM    6  C   UNL     1     -12.407  12.675  70.789  1.00  0.00    -0.372 A  
HETATM    7  C   UNL     1     -11.992  13.666  69.889  1.00  0.00    -0.415 A  
ENDROOT
BRANCH   5   8
HETATM    8  C   UNL     1     -10.914  14.398  67.695  1.00  0.00    -0.294 A  
HETATM    9  C   UNL     1     -10.217  14.129  66.486  1.00  0.00    -0.278 A  
HETATM   10  C   UNL     1      -9.857  15.176  65.618  1.00  0.00    -0.378 A  
HETATM   11  C   UNL     1     -11.200  15.758  67.965  1.00  0.00    -0.338 A  
HETATM   12  C   UNL     1     -10.125  16.501  65.942  1.00  0.00    -0.359 A  
HETATM   13  C   UNL     1     -10.793  16.795  67.121  1.00  0.00    -0.102 A  
BRANCH   9  14
HETATM   14  N   UNL     1      -9.762  12.823  66.185  1.00  0.00    -0.285 N  
HETATM   15  O   UNL     1     -11.464  12.154  64.764  1.00  0.00    -0.318 OA 
HETATM   16  H   UNL     1      -8.923  12.490  66.661  1.00  0.00     0.000 HD 
HETATM   17  C   UNL     1     -10.378  11.965  65.287  1.00  0.00    -0.276 C  
BRANCH  17  18
HETATM   18  C   UNL     1      -9.699  10.667  65.052  1.00  0.00    -0.336 A  
HETATM   19  C   UNL     1      -9.088  10.312  63.856  1.00  0.00    -0.254 A  
HETATM   20 CL   UNL     1      -9.040  11.317  62.458  1.00  0.00    -0.361 Cl 
HETATM   21  N   UNL     1      -8.488   9.118  63.638  1.00  0.00    -0.192 NA 
HETATM   22  C   UNL     1      -8.512   8.220  64.641  1.00  0.00    -0.051 A  
HETATM   23  C   UNL     1      -9.104   8.468  65.871  1.00  0.00    -0.237 A  
HETATM   24  C   UNL     1      -9.705   9.709  66.078  1.00  0.00    -0.331 A  
ENDBRANCH  17  18
ENDBRANCH   9  14
ENDBRANCH   5   8
TORSDOF 3
ENDMDL
MODEL       74
REMARK 921   NORMALIZED FREE ENERGY PREDICTED BY IDOCK:   -5.07 KCAL/MOL
REMARK 922        TOTAL FREE ENERGY PREDICTED BY IDOCK:   -7.30 KCAL/MOL
REMARK 923 INTER-LIGAND FREE ENERGY PREDICTED BY IDOCK:   -6.81 KCAL/MOL
REMARK 924 INTRA-LIGAND FREE ENERGY PREDICTED BY IDOCK:   -0.49 KCAL/MOL
REMARK 927      BINDING AFFINITY PREDICTED BY RF-SCORE:    0.00 PKD
ROOT
HETATM    1 CL   UNL     1     -13.635  14.907  72.911  1.00  0.00    -0.529 Cl 
HETATM    2  C   UNL     1     -12.835  14.631  71.414  1.00  0.00    -0.330 A  
HETATM    3  C   UNL     1     -12.497  15.701  70.599  1.00  0.00    -0.463 A  
HETATM    4  C   UNL     1     -11.870  15.468  69.367  1.00  0.00    -0.392 A  
HETATM    5  C   UNL     1     -11.610  14.164  68.893  1.00  0.00    -0.345 A  
HETATM    6  C   UNL     1     -12.550  13.334  71.010  1.00  0.00    -0.408 A  
HETATM    7  C   UNL     1     -11.971  13.107  69.754  1.00  0.00    -0.382 A  
ENDROOT
BRANCH   5   8
HETATM    8  C   UNL     1     -11.086  13.933  67.507  1.00  0.00    -0.302 A  
HETATM    9  C   UNL     1     -10.415  12.757  67.079  1.00  0.00    -0.237 A  
HETATM   10  C   UNL     1     -10.071  12.581  65.725  1.00  0.00    -0.278 A  
HETATM   11  C   UNL     1     -11.365  14.896  66.508  1.00  0.00    -0.319 A  
HETATM   12  C   UNL     1     -10.331  13.571  64.784  1.00  0.00    -0.405 A  
HETATM   13  C   UNL     1     -10.974  14.735  65.176  1.00  0.00    -0.403 A  
BRANCH   9  14
HETATM   14  N   UNL     1      -9.967  11.793  68.014  1.00  0.00    -0.182 N  
HETATM   15  O   UNL     1     -11.641  10.214  67.750  1.00  0.00    -0.239 OA 
HETATM   16  H   UNL     1      -9.144  12.019  68.573  1.00  0.00     0.000 HD 
HETATM   17  C   UNL     1     -10.571  10.562  68.221  1.00  0.00    -0.206 C  
BRANCH  17  18
HETATM   18  C   UNL     1      -9.901   9.661  69.191  1.00  0.00    -0.189 A  
HETATM   19  C   UNL     1      -8.873   8.787  68.862  1.00  0.00    -0.137 A  
HETATM   20 CL   UNL     1      -8.230   8.604  67.275  1.00  0.00    -0.105 Cl 
HETATM   21  N   UNL     1      -8.278   7.951  69.746  1.00  0.00    -0.120 NA 
HETATM   22  C   UNL     1      -8.737   7.960  71.011  1.00  0.00    -0.133 A  
HETATM   23  C   UNL     1      -9.765   8.784  71.443  1.00  0.00    -0.351 A  
HETATM   24  C   UNL     1     -10.355   9.647  70.519  1.00  0.00    -0.359 A  
ENDBRANCH  17  18
ENDBRANCH   9  14
ENDBRANCH   5   8
TORSDOF 3
ENDMDL
MODEL       75
REMARK 921   NORMALIZED FREE ENERGY PREDICTED BY IDOCK:   -5.07 KCAL/MOL
REMARK 922        TOTAL FREE ENERGY PREDICTED BY IDOCK:   -7.30 KCAL/MOL
REMARK 923 INTER-LIGAND FREE ENERGY PREDICTED BY IDOCK:   -6.14 KCAL/MOL
REMARK 924 INTRA-LIGAND FREE ENERGY PREDICTED BY IDOCK:   -1.16 KCAL/MOL
REMARK 927      BINDING AFFINITY PREDICTED BY RF-SCORE:    0.00 PKD
ROOT
HETATM    1 CL   UNL     1     -11.806   6.778  70.791  1.00  0.00    -0.431 Cl 
HETATM    2  C   UNL     1     -10.904   6.966  69.340  1.00  0.00    -0.249 A  
HETATM    3  C   UNL     1     -11.232   6.220  68.216  1.00  0.00    -0.251 A  
HETATM    4  C   UNL     1     -10.475   6.356  67.044  1.00  0.00    -0.349 A  
HETATM    5  C   UNL     1      -9.344   7.198  66.975  1.00  0.00    -0.181 A  
HETATM    6  C   UNL     1      -9.831   7.846  69.299  1.00  0.00    -0.177 A  
HETATM    7  C   UNL     1      -9.049   7.936  68.140  1.00  0.00    -0.133 A  
ENDROOT
BRANCH   5   8
HETATM    8  C   UNL     1      -8.457   7.207  65.766  1.00  0.00    -0.151 A  
HETATM    9  C   UNL     1      -8.438   8.231  64.782  1.00  0.00    -0.070 A  
HETATM   10  C   UNL     1      -7.482   8.214  63.749  1.00  0.00    -0.120 A  
HETATM   11  C   UNL     1      -7.484   6.189  65.632  1.00  0.00    -0.082 A  
HETATM   12  C   UNL     1      -6.569   7.173  63.634  1.00  0.00    -0.044 A  
HETATM   13  C   UNL     1      -6.572   6.153  64.574  1.00  0.00    -0.038 A  
BRANCH   9  14
HETATM   14  N   UNL     1      -9.449   9.221  64.742  1.00  0.00    -0.432 N  
HETATM   15  O   UNL     1      -8.371  10.901  65.918  1.00  0.00    -0.163 OA 
HETATM   16  H   UNL     1     -10.342   8.973  64.314  1.00  0.00     0.000 HD 
HETATM   17  C   UNL     1      -9.309  10.506  65.245  1.00  0.00    -0.213 C  
BRANCH  17  18
HETATM   18  C   UNL     1     -10.459  11.419  65.034  1.00  0.00    -0.361 A  
HETATM   19  C   UNL     1     -11.311  11.848  66.044  1.00  0.00    -0.316 A  
HETATM   20 CL   UNL     1     -11.170  11.372  67.693  1.00  0.00    -0.323 Cl 
HETATM   21  N   UNL     1     -12.373  12.664  65.843  1.00  0.00    -0.595 NA 
HETATM   22  C   UNL     1     -12.621  13.056  64.580  1.00  0.00    -0.362 A  
HETATM   23  C   UNL     1     -11.842  12.678  63.497  1.00  0.00    -0.619 A  
HETATM   24  C   UNL     1     -10.746  11.848  63.728  1.00  0.00    -0.476 A  
ENDBRANCH  17  18
ENDBRANCH   9  14
ENDBRANCH   5   8
TORSDOF 3
ENDMDL
MODEL       76
REMARK 921   NORMALIZED FREE ENERGY PREDICTED BY IDOCK:   -5.07 KCAL/MOL
REMARK 922        TOTAL FREE ENERGY PREDICTED BY IDOCK:   -7.29 KCAL/MOL
REMARK 923 INTER-LIGAND FREE ENERGY PREDICTED BY IDOCK:   -6.28 KCAL/MOL
REMARK 924 INTRA-LIGAND FREE ENERGY PREDICTED BY IDOCK:   -1.01 KCAL/MOL
REMARK 927      BINDING AFFINITY PREDICTED BY RF-SCORE:    0.00 PKD
ROOT
HETATM    1 CL   UNL     1     -14.383   7.207  71.513  1.00  0.00    -0.536 Cl 
HETATM    2  C   UNL     1     -12.784   7.767  71.224  1.00  0.00    -0.250 A  
HETATM    3  C   UNL     1     -11.947   7.068  70.366  1.00  0.00    -0.256 A  
HETATM    4  C   UNL     1     -10.635   7.514  70.155  1.00  0.00    -0.241 A  
HETATM    5  C   UNL     1     -10.107   8.635  70.830  1.00  0.00    -0.244 A  
HETATM    6  C   UNL     1     -12.322   8.907  71.867  1.00  0.00    -0.445 A  
HETATM    7  C   UNL     1     -10.993   9.315  71.692  1.00  0.00    -0.433 A  
ENDROOT
BRANCH   5   8
HETATM    8  C   UNL     1      -8.657   8.999  70.712  1.00  0.00    -0.259 A  
HETATM    9  C   UNL     1      -8.149  10.065  69.923  1.00  0.00    -0.166 A  
HETATM   10  C   UNL     1      -6.785  10.409  69.974  1.00  0.00    -0.145 A  
HETATM   11  C   UNL     1      -7.719   8.315  71.521  1.00  0.00    -0.114 A  
HETATM   12  C   UNL     1      -5.892   9.684  70.755  1.00  0.00    -0.072 A  
HETATM   13  C   UNL     1      -6.357   8.630  71.527  1.00  0.00    -0.066 A  
BRANCH   9  14
HETATM   14  N   UNL     1      -8.970  10.726  68.978  1.00  0.00    -0.272 N  
HETATM   15  O   UNL     1      -8.928   9.148  67.282  1.00  0.00    -0.123 OA 
HETATM   16  H   UNL     1      -9.298  11.665  69.206  1.00  0.00     0.000 HD 
HETATM   17  C   UNL     1      -9.360  10.183  67.762  1.00  0.00    -0.141 C  
BRANCH  17  18
HETATM   18  C   UNL     1     -10.289  11.005  66.948  1.00  0.00    -0.279 A  
HETATM   19  C   UNL     1     -11.422  11.632  67.451  1.00  0.00    -0.285 A  
HETATM   20 CL   UNL     1     -11.930  11.538  69.094  1.00  0.00    -0.389 Cl 
HETATM   21  N   UNL     1     -12.279  12.364  66.700  1.00  0.00    -0.497 NA 
HETATM   22  C   UNL     1     -12.019  12.461  65.383  1.00  0.00    -0.398 A  
HETATM   23  C   UNL     1     -10.922  11.866  64.776  1.00  0.00    -0.366 A  
HETATM   24  C   UNL     1     -10.046  11.128  65.571  1.00  0.00    -0.309 A  
ENDBRANCH  17  18
ENDBRANCH   9  14
ENDBRANCH   5   8
TORSDOF 3
ENDMDL
MODEL       77
REMARK 921   NORMALIZED FREE ENERGY PREDICTED BY IDOCK:   -5.04 KCAL/MOL
REMARK 922        TOTAL FREE ENERGY PREDICTED BY IDOCK:   -7.26 KCAL/MOL
REMARK 923 INTER-LIGAND FREE ENERGY PREDICTED BY IDOCK:   -6.35 KCAL/MOL
REMARK 924 INTRA-LIGAND FREE ENERGY PREDICTED BY IDOCK:   -0.91 KCAL/MOL
REMARK 927      BINDING AFFINITY PREDICTED BY RF-SCORE:    0.00 PKD
ROOT
HETATM    1 CL   UNL     1     -10.975  15.915  64.801  1.00  0.00    -0.461 Cl 
HETATM    2  C   UNL     1     -11.158  14.663  65.965  1.00  0.00    -0.332 A  
HETATM    3  C   UNL     1     -10.498  14.745  67.183  1.00  0.00    -0.265 A  
HETATM    4  C   UNL     1     -10.628  13.708  68.117  1.00  0.00    -0.255 A  
HETATM    5  C   UNL     1     -11.376  12.542  67.843  1.00  0.00    -0.343 A  
HETATM    6  C   UNL     1     -11.947  13.558  65.676  1.00  0.00    -0.429 A  
HETATM    7  C   UNL     1     -12.029  12.502  66.594  1.00  0.00    -0.351 A  
ENDROOT
BRANCH   5   8
HETATM    8  C   UNL     1     -11.372  11.378  68.789  1.00  0.00    -0.334 A  
HETATM    9  C   UNL     1     -10.805  10.106  68.508  1.00  0.00    -0.237 A  
HETATM   10  C   UNL     1     -10.738   9.116  69.506  1.00  0.00    -0.226 A  
HETATM   11  C   UNL     1     -11.864  11.570  70.102  1.00  0.00    -0.440 A  
HETATM   12  C   UNL     1     -11.269   9.335  70.772  1.00  0.00    -0.351 A  
HETATM   13  C   UNL     1     -11.839  10.563  71.071  1.00  0.00    -0.438 A  
BRANCH   9  14
HETATM   14  N   UNL     1     -10.409   9.761  67.194  1.00  0.00    -0.237 N  
HETATM   15  O   UNL     1      -8.400  10.911  67.098  1.00  0.00    -0.121 OA 
HETATM   16  H   UNL     1     -11.055   9.205  66.633  1.00  0.00     0.000 HD 
HETATM   17  C   UNL     1      -9.201  10.125  66.618  1.00  0.00    -0.155 C  
BRANCH  17  18
HETATM   18  C   UNL     1      -8.940   9.596  65.257  1.00  0.00    -0.246 A  
HETATM   19  C   UNL     1      -8.292   8.395  64.998  1.00  0.00    -0.158 A  
HETATM   20 CL   UNL     1      -7.677   7.346  66.217  1.00  0.00    -0.091 Cl 
HETATM   21  N   UNL     1      -8.037   7.926  63.753  1.00  0.00    -0.120 NA 
HETATM   22  C   UNL     1      -8.418   8.690  62.713  1.00  0.00    -0.143 A  
HETATM   23  C   UNL     1      -9.063   9.910  62.860  1.00  0.00    -0.291 A  
HETATM   24  C   UNL     1      -9.327  10.368  64.150  1.00  0.00    -0.323 A  
ENDBRANCH  17  18
ENDBRANCH   9  14
ENDBRANCH   5   8
TORSDOF 3
ENDMDL
MODEL       78
REMARK 921   NORMALIZED FREE ENERGY PREDICTED BY IDOCK:   -5.04 KCAL/MOL
REMARK 922        TOTAL FREE ENERGY PREDICTED BY IDOCK:   -7.26 KCAL/MOL
REMARK 923 INTER-LIGAND FREE ENERGY PREDICTED BY IDOCK:   -6.44 KCAL/MOL
REMARK 924 INTRA-LIGAND FREE ENERGY PREDICTED BY IDOCK:   -0.82 KCAL/MOL
REMARK 927      BINDING AFFINITY PREDICTED BY RF-SCORE:    0.00 PKD
ROOT
HETATM    1 CL   UNL     1     -10.739   7.175  73.537  1.00  0.00    -0.411 Cl 
HETATM    2  C   UNL     1     -10.488   7.808  71.959  1.00  0.00    -0.224 A  
HETATM    3  C   UNL     1     -11.085   7.200  70.863  1.00  0.00    -0.290 A  
HETATM    4  C   UNL     1     -10.854   7.704  69.576  1.00  0.00    -0.171 A  
HETATM    5  C   UNL     1      -9.985   8.792  69.340  1.00  0.00    -0.196 A  
HETATM    6  C   UNL     1      -9.668   8.913  71.778  1.00  0.00    -0.365 A  
HETATM    7  C   UNL     1      -9.401   9.377  70.483  1.00  0.00    -0.319 A  
ENDROOT
BRANCH   5   8
HETATM    8  C   UNL     1      -9.628   9.212  67.946  1.00  0.00    -0.168 A  
HETATM    9  C   UNL     1      -9.614  10.554  67.481  1.00  0.00    -0.160 A  
HETATM   10  C   UNL     1      -9.144  10.860  66.190  1.00  0.00    -0.201 A  
HETATM   11  C   UNL     1      -9.163   8.228  67.040  1.00  0.00    -0.187 A  
HETATM   12  C   UNL     1      -8.732   9.857  65.320  1.00  0.00    -0.181 A  
HETATM   13  C   UNL     1      -8.746   8.536  65.742  1.00  0.00    -0.210 A  
BRANCH   9  14
HETATM   14  N   UNL     1     -10.182  11.596  68.251  1.00  0.00    -0.193 N  
HETATM   15  O   UNL     1     -12.207  11.813  67.146  1.00  0.00    -0.446 OA 
HETATM   16  H   UNL     1      -9.610  12.011  68.987  1.00  0.00     0.000 HD 
HETATM   17  C   UNL     1     -11.465  12.092  68.073  1.00  0.00    -0.319 C  
BRANCH  17  18
HETATM   18  C   UNL     1     -11.902  13.133  69.037  1.00  0.00    -0.358 A  
HETATM   19  C   UNL     1     -11.951  14.491  68.749  1.00  0.00    -0.280 A  
HETATM   20 CL   UNL     1     -11.497  15.176  67.235  1.00  0.00    -0.324 Cl 
HETATM   21  N   UNL     1     -12.329  15.440  69.638  1.00  0.00    -0.272 NA 
HETATM   22  C   UNL     1     -12.651  15.032  70.879  1.00  0.00    -0.356 A  
HETATM   23  C   UNL     1     -12.626  13.703  71.275  1.00  0.00    -0.435 A  
HETATM   24  C   UNL     1     -12.246  12.741  70.340  1.00  0.00    -0.371 A  
ENDBRANCH  17  18
ENDBRANCH   9  14
ENDBRANCH   5   8
TORSDOF 3
ENDMDL
MODEL       79
REMARK 921   NORMALIZED FREE ENERGY PREDICTED BY IDOCK:   -5.01 KCAL/MOL
REMARK 922        TOTAL FREE ENERGY PREDICTED BY IDOCK:   -7.23 KCAL/MOL
REMARK 923 INTER-LIGAND FREE ENERGY PREDICTED BY IDOCK:   -6.49 KCAL/MOL
REMARK 924 INTRA-LIGAND FREE ENERGY PREDICTED BY IDOCK:   -0.73 KCAL/MOL
REMARK 927      BINDING AFFINITY PREDICTED BY RF-SCORE:    0.00 PKD
ROOT
HETATM    1 CL   UNL     1     -12.909  14.574  72.736  1.00  0.00    -0.497 Cl 
HETATM    2  C   UNL     1     -12.461  14.423  71.084  1.00  0.00    -0.359 A  
HETATM    3  C   UNL     1     -12.377  15.552  70.281  1.00  0.00    -0.431 A  
HETATM    4  C   UNL     1     -12.039  15.420  68.927  1.00  0.00    -0.226 A  
HETATM    5  C   UNL     1     -11.826  14.160  68.326  1.00  0.00    -0.391 A  
HETATM    6  C   UNL     1     -12.208  13.169  70.546  1.00  0.00    -0.405 A  
HETATM    7  C   UNL     1     -11.922  13.042  69.180  1.00  0.00    -0.320 A  
ENDROOT
BRANCH   5   8
HETATM    8  C   UNL     1     -11.623  14.031  66.846  1.00  0.00    -0.407 A  
HETATM    9  C   UNL     1     -10.426  14.366  66.159  1.00  0.00    -0.291 A  
HETATM   10  C   UNL     1     -10.288  14.092  64.785  1.00  0.00    -0.407 A  
HETATM   11  C   UNL     1     -12.645  13.433  66.072  1.00  0.00    -0.361 A  
HETATM   12  C   UNL     1     -11.333  13.537  64.055  1.00  0.00    -0.306 A  
HETATM   13  C   UNL     1     -12.518  13.211  64.698  1.00  0.00    -0.433 A  
BRANCH   9  14
HETATM   14  N   UNL     1      -9.395  15.090  66.804  1.00  0.00    -0.236 N  
HETATM   15  O   UNL     1      -8.532  13.402  68.135  1.00  0.00    -0.159 OA 
HETATM   16  H   UNL     1      -9.320  16.089  66.608  1.00  0.00     0.000 HD 
HETATM   17  C   UNL     1      -8.478  14.534  67.683  1.00  0.00    -0.182 C  
BRANCH  17  18
HETATM   18  C   UNL     1      -7.425  15.447  68.192  1.00  0.00    -0.120 A  
HETATM   19  C   UNL     1      -6.088  15.096  68.330  1.00  0.00    -0.107 A  
HETATM   20 CL   UNL     1      -5.452  13.542  67.947  1.00  0.00    -0.117 Cl 
HETATM   21  N   UNL     1      -5.134  15.925  68.816  1.00  0.00    -0.102 NA 
HETATM   22  C   UNL     1      -5.522  17.153  69.207  1.00  0.00    -0.168 A  
HETATM   23  C   UNL     1      -6.831  17.601  69.123  1.00  0.00    -0.229 A  
HETATM   24  C   UNL     1      -7.795  16.735  68.608  1.00  0.00    -0.241 A  
ENDBRANCH  17  18
ENDBRANCH   9  14
ENDBRANCH   5   8
TORSDOF 3
ENDMDL
MODEL       80
REMARK 921   NORMALIZED FREE ENERGY PREDICTED BY IDOCK:   -5.00 KCAL/MOL
REMARK 922        TOTAL FREE ENERGY PREDICTED BY IDOCK:   -7.21 KCAL/MOL
REMARK 923 INTER-LIGAND FREE ENERGY PREDICTED BY IDOCK:   -6.21 KCAL/MOL
REMARK 924 INTRA-LIGAND FREE ENERGY PREDICTED BY IDOCK:   -1.00 KCAL/MOL
REMARK 927      BINDING AFFINITY PREDICTED BY RF-SCORE:    0.00 PKD
ROOT
HETATM    1 CL   UNL     1     -11.814  14.570  65.996  1.00  0.00    -0.363 Cl 
HETATM    2  C   UNL     1     -11.744  13.394  67.248  1.00  0.00    -0.380 A  
HETATM    3  C   UNL     1     -11.562  12.055  66.934  1.00  0.00    -0.389 A  
HETATM    4  C   UNL     1     -11.534  11.097  67.957  1.00  0.00    -0.366 A  
HETATM    5  C   UNL     1     -11.736  11.440  69.311  1.00  0.00    -0.404 A  
HETATM    6  C   UNL     1     -11.894  13.782  68.572  1.00  0.00    -0.406 A  
HETATM    7  C   UNL     1     -11.917  12.812  69.583  1.00  0.00    -0.354 A  
ENDROOT
BRANCH   5   8
HETATM    8  C   UNL     1     -11.861  10.384  70.368  1.00  0.00    -0.418 A  
HETATM    9  C   UNL     1     -10.793   9.572  70.835  1.00  0.00    -0.337 A  
HETATM   10  C   UNL     1     -10.981   8.694  71.919  1.00  0.00    -0.412 A  
HETATM   11  C   UNL     1     -13.099  10.241  71.041  1.00  0.00    -0.458 A  
HETATM   12  C   UNL     1     -12.225   8.559  72.526  1.00  0.00    -0.383 A  
HETATM   13  C   UNL     1     -13.289   9.330  72.083  1.00  0.00    -0.537 A  
BRANCH   9  14
HETATM   14  N   UNL     1      -9.555   9.534  70.150  1.00  0.00    -0.233 N  
HETATM   15  O   UNL     1      -9.988   7.780  68.699  1.00  0.00    -0.171 OA 
HETATM   16  H   UNL     1      -8.819  10.167  70.462  1.00  0.00     0.000 HD 
HETATM   17  C   UNL     1      -9.275   8.693  69.083  1.00  0.00    -0.152 C  
BRANCH  17  18
HETATM   18  C   UNL     1      -7.944   8.863  68.450  1.00  0.00    -0.105 A  
HETATM   19  C   UNL     1      -6.775   8.282  68.924  1.00  0.00    -0.053 A  
HETATM   20 CL   UNL     1      -6.690   7.289  70.328  1.00  0.00    -0.050 Cl 
HETATM   21  N   UNL     1      -5.558   8.458  68.356  1.00  0.00    -0.033 NA 
HETATM   22  C   UNL     1      -5.488   9.266  67.282  1.00  0.00    -0.041 A  
HETATM   23  C   UNL     1      -6.590   9.904  66.734  1.00  0.00    -0.071 A  
HETATM   24  C   UNL     1      -7.836   9.699  67.327  1.00  0.00    -0.095 A  
ENDBRANCH  17  18
ENDBRANCH   9  14
ENDBRANCH   5   8
TORSDOF 3
ENDMDL
MODEL       81
REMARK 921   NORMALIZED FREE ENERGY PREDICTED BY IDOCK:   -5.00 KCAL/MOL
REMARK 922        TOTAL FREE ENERGY PREDICTED BY IDOCK:   -7.21 KCAL/MOL
REMARK 923 INTER-LIGAND FREE ENERGY PREDICTED BY IDOCK:   -5.98 KCAL/MOL
REMARK 924 INTRA-LIGAND FREE ENERGY PREDICTED BY IDOCK:   -1.23 KCAL/MOL
REMARK 927      BINDING AFFINITY PREDICTED BY RF-SCORE:    0.00 PKD
ROOT
HETATM    1 CL   UNL     1      -8.693   7.731  65.348  1.00  0.00    -0.103 Cl 
HETATM    2  C   UNL     1      -9.109   6.964  66.829  1.00  0.00    -0.145 A  
HETATM    3  C   UNL     1     -10.427   6.614  67.084  1.00  0.00    -0.358 A  
HETATM    4  C   UNL     1     -10.765   6.014  68.305  1.00  0.00    -0.352 A  
HETATM    5  C   UNL     1      -9.811   5.793  69.321  1.00  0.00    -0.220 A  
HETATM    6  C   UNL     1      -8.129   6.716  67.780  1.00  0.00    -0.116 A  
HETATM    7  C   UNL     1      -8.484   6.164  69.018  1.00  0.00    -0.118 A  
ENDROOT
BRANCH   5   8
HETATM    8  C   UNL     1     -10.221   5.298  70.676  1.00  0.00    -0.327 A  
HETATM    9  C   UNL     1     -11.147   5.951  71.532  1.00  0.00    -0.250 A  
HETATM   10  C   UNL     1     -11.564   5.345  72.732  1.00  0.00    -0.293 A  
HETATM   11  C   UNL     1      -9.749   4.035  71.108  1.00  0.00    -0.257 A  
HETATM   12  C   UNL     1     -11.045   4.120  73.135  1.00  0.00    -0.269 A  
HETATM   13  C   UNL     1     -10.131   3.464  72.325  1.00  0.00    -0.219 A  
BRANCH   9  14
HETATM   14  N   UNL     1     -11.577   7.273  71.266  1.00  0.00    -0.274 N  
HETATM   15  O   UNL     1      -9.871   8.437  72.316  1.00  0.00    -0.259 OA 
HETATM   16  H   UNL     1     -12.470   7.396  70.788  1.00  0.00     0.000 HD 
HETATM   17  C   UNL     1     -10.866   8.413  71.610  1.00  0.00    -0.268 C  
BRANCH  17  18
HETATM   18  C   UNL     1     -11.450   9.704  71.171  1.00  0.00    -0.456 A  
HETATM   19  C   UNL     1     -10.983  10.445  70.092  1.00  0.00    -0.300 A  
HETATM   20 CL   UNL     1      -9.645   9.985  69.110  1.00  0.00    -0.202 Cl 
HETATM   21  N   UNL     1     -11.505  11.634  69.708  1.00  0.00    -0.282 NA 
HETATM   22  C   UNL     1     -12.522  12.128  70.438  1.00  0.00    -0.144 A  
HETATM   23  C   UNL     1     -13.057  11.477  71.540  1.00  0.00    -0.429 A  
HETATM   24  C   UNL     1     -12.512  10.248  71.910  1.00  0.00    -0.336 A  
ENDBRANCH  17  18
ENDBRANCH   9  14
ENDBRANCH   5   8
TORSDOF 3
ENDMDL
MODEL       82
REMARK 921   NORMALIZED FREE ENERGY PREDICTED BY IDOCK:   -4.98 KCAL/MOL
REMARK 922        TOTAL FREE ENERGY PREDICTED BY IDOCK:   -7.19 KCAL/MOL
REMARK 923 INTER-LIGAND FREE ENERGY PREDICTED BY IDOCK:   -6.38 KCAL/MOL
REMARK 924 INTRA-LIGAND FREE ENERGY PREDICTED BY IDOCK:   -0.80 KCAL/MOL
REMARK 927      BINDING AFFINITY PREDICTED BY RF-SCORE:    0.00 PKD
ROOT
HETATM    1 CL   UNL     1      -5.266  12.814  69.193  1.00  0.00    -0.068 Cl 
HETATM    2  C   UNL     1      -6.078  14.296  68.878  1.00  0.00    -0.087 A  
HETATM    3  C   UNL     1      -7.093  14.725  69.722  1.00  0.00    -0.132 A  
HETATM    4  C   UNL     1      -7.772  15.920  69.444  1.00  0.00    -0.199 A  
HETATM    5  C   UNL     1      -7.493  16.691  68.295  1.00  0.00    -0.182 A  
HETATM    6  C   UNL     1      -5.736  15.051  67.765  1.00  0.00    -0.108 A  
HETATM    7  C   UNL     1      -6.455  16.216  67.467  1.00  0.00    -0.202 A  
ENDROOT
BRANCH   5   8
HETATM    8  C   UNL     1      -8.336  17.877  67.934  1.00  0.00    -0.247 A  
HETATM    9  C   UNL     1      -9.591  17.809  67.272  1.00  0.00    -0.272 A  
HETATM   10  C   UNL     1     -10.368  18.968  67.088  1.00  0.00    -0.496 A  
HETATM   11  C   UNL     1      -7.925  19.159  68.370  1.00  0.00    -0.376 A  
HETATM   12  C   UNL     1      -9.907  20.214  67.499  1.00  0.00    -0.574 A  
HETATM   13  C   UNL     1      -8.679  20.312  68.137  1.00  0.00    -0.077 A  
BRANCH   9  14
HETATM   14  N   UNL     1     -10.035  16.604  66.676  1.00  0.00    -0.270 N  
HETATM   15  O   UNL     1     -11.296  15.765  68.430  1.00  0.00    -0.344 OA 
HETATM   16  H   UNL     1      -9.684  16.376  65.746  1.00  0.00     0.000 HD 
HETATM   17  C   UNL     1     -10.916  15.713  67.271  1.00  0.00    -0.275 C  
BRANCH  17  18
HETATM   18  C   UNL     1     -11.320  14.547  66.448  1.00  0.00    -0.349 A  
HETATM   19  C   UNL     1     -11.643  14.618  65.099  1.00  0.00    -0.371 A  
HETATM   20 CL   UNL     1     -11.640  16.075  64.180  1.00  0.00    -0.246 Cl 
HETATM   21  N   UNL     1     -12.033  13.555  64.357  1.00  0.00    -0.403 NA 
HETATM   22  C   UNL     1     -12.131  12.367  64.981  1.00  0.00    -0.407 A  
HETATM   23  C   UNL     1     -11.843  12.186  66.326  1.00  0.00    -0.320 A  
HETATM   24  C   UNL     1     -11.432  13.292  67.069  1.00  0.00    -0.378 A  
ENDBRANCH  17  18
ENDBRANCH   9  14
ENDBRANCH   5   8
TORSDOF 3
ENDMDL
MODEL       83
REMARK 921   NORMALIZED FREE ENERGY PREDICTED BY IDOCK:   -4.98 KCAL/MOL
REMARK 922        TOTAL FREE ENERGY PREDICTED BY IDOCK:   -7.19 KCAL/MOL
REMARK 923 INTER-LIGAND FREE ENERGY PREDICTED BY IDOCK:   -5.86 KCAL/MOL
REMARK 924 INTRA-LIGAND FREE ENERGY PREDICTED BY IDOCK:   -1.33 KCAL/MOL
REMARK 927      BINDING AFFINITY PREDICTED BY RF-SCORE:    0.00 PKD
ROOT
HETATM    1 CL   UNL     1     -10.267  14.001  64.851  1.00  0.00    -0.422 Cl 
HETATM    2  C   UNL     1     -10.234  12.754  66.034  1.00  0.00    -0.278 A  
HETATM    3  C   UNL     1     -11.303  11.877  66.149  1.00  0.00    -0.383 A  
HETATM    4  C   UNL     1     -11.284  10.880  67.133  1.00  0.00    -0.258 A  
HETATM    5  C   UNL     1     -10.225  10.762  68.060  1.00  0.00    -0.203 A  
HETATM    6  C   UNL     1      -9.149  12.640  66.891  1.00  0.00    -0.218 A  
HETATM    7  C   UNL     1      -9.161  11.675  67.906  1.00  0.00    -0.171 A  
ENDROOT
BRANCH   5   8
HETATM    8  C   UNL     1     -10.299   9.793  69.202  1.00  0.00    -0.225 A  
HETATM    9  C   UNL     1     -10.862  10.079  70.475  1.00  0.00    -0.314 A  
HETATM   10  C   UNL     1     -11.000   9.066  71.442  1.00  0.00    -0.394 A  
HETATM   11  C   UNL     1      -9.884   8.457  68.986  1.00  0.00    -0.184 A  
HETATM   12  C   UNL     1     -10.543   7.776  71.200  1.00  0.00    -0.235 A  
HETATM   13  C   UNL     1      -9.978   7.470  69.971  1.00  0.00    -0.186 A  
BRANCH   9  14
HETATM   14  N   UNL     1     -11.184  11.407  70.845  1.00  0.00     0.295 N  
HETATM   15  O   UNL     1     -13.273  11.573  69.859  1.00  0.00     0.546 OA 
HETATM   16  H   UNL     1     -10.476  11.946  71.345  1.00  0.00     0.000 HD 
HETATM   17  C   UNL     1     -12.396  12.025  70.576  1.00  0.00    -0.282 C  
BRANCH  17  18
HETATM   18  C   UNL     1     -12.566  13.395  71.119  1.00  0.00    -0.430 A  
HETATM   19  C   UNL     1     -12.022  14.535  70.543  1.00  0.00    -0.318 A  
HETATM   20 CL   UNL     1     -11.055  14.531  69.118  1.00  0.00    -0.268 Cl 
HETATM   21  N   UNL     1     -12.161  15.782  71.054  1.00  0.00    -0.393 NA 
HETATM   22  C   UNL     1     -12.849  15.906  72.204  1.00  0.00    -0.423 A  
HETATM   23  C   UNL     1     -13.424  14.832  72.868  1.00  0.00    -0.541 A  
HETATM   24  C   UNL     1     -13.279  13.559  72.317  1.00  0.00    -0.571 A  
ENDBRANCH  17  18
ENDBRANCH   9  14
ENDBRANCH   5   8
TORSDOF 3
ENDMDL
MODEL       84
REMARK 921   NORMALIZED FREE ENERGY PREDICTED BY IDOCK:   -4.96 KCAL/MOL
REMARK 922        TOTAL FREE ENERGY PREDICTED BY IDOCK:   -7.17 KCAL/MOL
REMARK 923 INTER-LIGAND FREE ENERGY PREDICTED BY IDOCK:   -5.81 KCAL/MOL
REMARK 924 INTRA-LIGAND FREE ENERGY PREDICTED BY IDOCK:   -1.36 KCAL/MOL
REMARK 927      BINDING AFFINITY PREDICTED BY RF-SCORE:    0.00 PKD
ROOT
HETATM    1 CL   UNL     1      -6.587   8.098  66.766  1.00  0.00    -0.056 Cl 
HETATM    2  C   UNL     1      -7.899   8.403  67.835  1.00  0.00    -0.107 A  
HETATM    3  C   UNL     1      -9.205   8.218  67.403  1.00  0.00    -0.163 A  
HETATM    4  C   UNL     1     -10.271   8.494  68.270  1.00  0.00    -0.244 A  
HETATM    5  C   UNL     1     -10.067   9.010  69.568  1.00  0.00    -0.199 A  
HETATM    6  C   UNL     1      -7.652   8.859  69.122  1.00  0.00    -0.080 A  
HETATM    7  C   UNL     1      -8.725   9.183  69.963  1.00  0.00    -0.186 A  
ENDROOT
BRANCH   5   8
HETATM    8  C   UNL     1     -11.222   9.449  70.418  1.00  0.00    -0.309 A  
HETATM    9  C   UNL     1     -11.826   8.663  71.435  1.00  0.00    -0.297 A  
HETATM   10  C   UNL     1     -12.824   9.208  72.265  1.00  0.00    -0.472 A  
HETATM   11  C   UNL     1     -11.692  10.778  70.290  1.00  0.00    -0.442 A  
HETATM   12  C   UNL     1     -13.281  10.508  72.078  1.00  0.00    -0.483 A  
HETATM   13  C   UNL     1     -12.719  11.295  71.085  1.00  0.00    -0.492 A  
BRANCH   9  14
HETATM   14  N   UNL     1     -11.531   7.284  71.561  1.00  0.00    -0.254 N  
HETATM   15  O   UNL     1      -9.739   7.420  73.023  1.00  0.00    -0.169 OA 
HETATM   16  H   UNL     1     -12.068   6.629  70.993  1.00  0.00     0.000 HD 
HETATM   17  C   UNL     1     -10.561   6.764  72.405  1.00  0.00    -0.214 C  
BRANCH  17  18
HETATM   18  C   UNL     1     -10.461   5.284  72.450  1.00  0.00    -0.268 A  
HETATM   19  C   UNL     1      -9.828   4.515  71.482  1.00  0.00    -0.190 A  
HETATM   20 CL   UNL     1      -9.077   5.161  70.073  1.00  0.00    -0.152 Cl 
HETATM   21  N   UNL     1      -9.758   3.163  71.515  1.00  0.00    -0.157 NA 
HETATM   22  C   UNL     1     -10.362   2.538  72.542  1.00  0.00    -0.137 A  
HETATM   23  C   UNL     1     -11.030   3.207  73.556  1.00  0.00    -0.323 A  
HETATM   24  C   UNL     1     -11.080   4.600  73.508  1.00  0.00    -0.412 A  
ENDBRANCH  17  18
ENDBRANCH   9  14
ENDBRANCH   5   8
TORSDOF 3
ENDMDL
MODEL       85
REMARK 921   NORMALIZED FREE ENERGY PREDICTED BY IDOCK:   -4.95 KCAL/MOL
REMARK 922        TOTAL FREE ENERGY PREDICTED BY IDOCK:   -7.15 KCAL/MOL
REMARK 923 INTER-LIGAND FREE ENERGY PREDICTED BY IDOCK:   -6.63 KCAL/MOL
REMARK 924 INTRA-LIGAND FREE ENERGY PREDICTED BY IDOCK:   -0.53 KCAL/MOL
REMARK 927      BINDING AFFINITY PREDICTED BY RF-SCORE:    0.00 PKD
ROOT
HETATM    1 CL   UNL     1      -7.647   5.479  66.040  1.00  0.00    -0.086 Cl 
HETATM    2  C   UNL     1      -8.575   6.924  66.116  1.00  0.00    -0.143 A  
HETATM    3  C   UNL     1      -8.075   8.100  65.575  1.00  0.00    -0.130 A  
HETATM    4  C   UNL     1      -8.825   9.281  65.665  1.00  0.00    -0.216 A  
HETATM    5  C   UNL     1     -10.065   9.334  66.337  1.00  0.00    -0.337 A  
HETATM    6  C   UNL     1      -9.815   6.919  66.740  1.00  0.00    -0.243 A  
HETATM    7  C   UNL     1     -10.533   8.115  66.871  1.00  0.00    -0.379 A  
ENDROOT
BRANCH   5   8
HETATM    8  C   UNL     1     -10.772  10.637  66.560  1.00  0.00    -0.218 A  
HETATM    9  C   UNL     1     -11.302  11.072  67.804  1.00  0.00    -0.292 A  
HETATM   10  C   UNL     1     -11.837  12.366  67.942  1.00  0.00    -0.370 A  
HETATM   11  C   UNL     1     -10.831  11.566  65.493  1.00  0.00    -0.313 A  
HETATM   12  C   UNL     1     -11.910  13.232  66.857  1.00  0.00    -0.446 A  
HETATM   13  C   UNL     1     -11.412  12.831  65.627  1.00  0.00    -0.379 A  
BRANCH   9  14
HETATM   14  N   UNL     1     -11.417  10.179  68.896  1.00  0.00    -0.482 N  
HETATM   15  O   UNL     1      -9.293  10.412  69.792  1.00  0.00    -0.142 OA 
HETATM   16  H   UNL     1     -12.284   9.649  68.988  1.00  0.00     0.000 HD 
HETATM   17  C   UNL     1     -10.431   9.977  69.851  1.00  0.00    -0.274 C  
BRANCH  17  18
HETATM   18  C   UNL     1     -10.778   9.057  70.963  1.00  0.00    -0.339 A  
HETATM   19  C   UNL     1     -11.885   9.213  71.787  1.00  0.00    -0.383 A  
HETATM   20 CL   UNL     1     -13.015  10.506  71.656  1.00  0.00    -0.552 Cl 
HETATM   21  N   UNL     1     -12.186   8.384  72.815  1.00  0.00    -0.248 NA 
HETATM   22  C   UNL     1     -11.340   7.365  73.056  1.00  0.00    -0.234 A  
HETATM   23  C   UNL     1     -10.201   7.125  72.302  1.00  0.00    -0.213 A  
HETATM   24  C   UNL     1      -9.917   7.984  71.241  1.00  0.00    -0.211 A  
ENDBRANCH  17  18
ENDBRANCH   9  14
ENDBRANCH   5   8
TORSDOF 3
ENDMDL
MODEL       86
REMARK 921   NORMALIZED FREE ENERGY PREDICTED BY IDOCK:   -4.95 KCAL/MOL
REMARK 922        TOTAL FREE ENERGY PREDICTED BY IDOCK:   -7.15 KCAL/MOL
REMARK 923 INTER-LIGAND FREE ENERGY PREDICTED BY IDOCK:   -6.15 KCAL/MOL
REMARK 924 INTRA-LIGAND FREE ENERGY PREDICTED BY IDOCK:   -1.00 KCAL/MOL
REMARK 927      BINDING AFFINITY PREDICTED BY RF-SCORE:    0.00 PKD
ROOT
HETATM    1 CL   UNL     1     -13.051  13.834  65.674  1.00  0.00    -0.355 Cl 
HETATM    2  C   UNL     1     -11.596  13.152  66.284  1.00  0.00    -0.356 A  
HETATM    3  C   UNL     1     -11.113  11.961  65.760  1.00  0.00    -0.367 A  
HETATM    4  C   UNL     1      -9.941  11.395  66.280  1.00  0.00    -0.259 A  
HETATM    5  C   UNL     1      -9.248  11.972  67.366  1.00  0.00    -0.180 A  
HETATM    6  C   UNL     1     -10.915  13.781  67.318  1.00  0.00    -0.302 A  
HETATM    7  C   UNL     1      -9.774  13.181  67.867  1.00  0.00    -0.221 A  
ENDROOT
BRANCH   5   8
HETATM    8  C   UNL     1      -8.090  11.268  68.009  1.00  0.00    -0.128 A  
HETATM    9  C   UNL     1      -8.192  10.379  69.112  1.00  0.00    -0.157 A  
HETATM   10  C   UNL     1      -7.065   9.669  69.567  1.00  0.00    -0.072 A  
HETATM   11  C   UNL     1      -6.808  11.398  67.423  1.00  0.00    -0.101 A  
HETATM   12  C   UNL     1      -5.816   9.856  68.985  1.00  0.00    -0.034 A  
HETATM   13  C   UNL     1      -5.684  10.727  67.914  1.00  0.00    -0.042 A  
BRANCH   9  14
HETATM   14  N   UNL     1      -9.392  10.278  69.857  1.00  0.00    -0.408 N  
HETATM   15  O   UNL     1     -10.488   8.685  68.580  1.00  0.00    -0.209 OA 
HETATM   16  H   UNL     1      -9.513  10.905  70.652  1.00  0.00     0.000 HD 
HETATM   17  C   UNL     1     -10.414   9.383  69.578  1.00  0.00    -0.218 C  
BRANCH  17  18
HETATM   18  C   UNL     1     -11.555   9.380  70.526  1.00  0.00    -0.291 A  
HETATM   19  C   UNL     1     -12.102   8.232  71.085  1.00  0.00    -0.252 A  
HETATM   20 CL   UNL     1     -11.548   6.636  70.751  1.00  0.00    -0.409 Cl 
HETATM   21  N   UNL     1     -13.157   8.231  71.933  1.00  0.00    -0.338 NA 
HETATM   22  C   UNL     1     -13.717   9.420  72.225  1.00  0.00    -0.426 A  
HETATM   23  C   UNL     1     -13.258  10.625  71.714  1.00  0.00    -0.526 A  
HETATM   24  C   UNL     1     -12.162  10.603  70.852  1.00  0.00    -0.497 A  
ENDBRANCH  17  18
ENDBRANCH   9  14
ENDBRANCH   5   8
TORSDOF 3
ENDMDL
MODEL       87
REMARK 921   NORMALIZED FREE ENERGY PREDICTED BY IDOCK:   -4.94 KCAL/MOL
REMARK 922        TOTAL FREE ENERGY PREDICTED BY IDOCK:   -7.14 KCAL/MOL
REMARK 923 INTER-LIGAND FREE ENERGY PREDICTED BY IDOCK:   -5.81 KCAL/MOL
REMARK 924 INTRA-LIGAND FREE ENERGY PREDICTED BY IDOCK:   -1.33 KCAL/MOL
REMARK 927      BINDING AFFINITY PREDICTED BY RF-SCORE:    0.00 PKD
ROOT
HETATM    1 CL   UNL     1     -10.740  17.691  67.796  1.00  0.00    -0.379 Cl 
HETATM    2  C   UNL     1      -9.919  16.183  67.874  1.00  0.00    -0.239 A  
HETATM    3  C   UNL     1      -8.914  15.986  68.811  1.00  0.00    -0.226 A  
HETATM    4  C   UNL     1      -8.229  14.763  68.851  1.00  0.00    -0.165 A  
HETATM    5  C   UNL     1      -8.491  13.726  67.929  1.00  0.00    -0.176 A  
HETATM    6  C   UNL     1     -10.245  15.169  66.982  1.00  0.00    -0.262 A  
HETATM    7  C   UNL     1      -9.519  13.971  66.995  1.00  0.00    -0.253 A  
ENDROOT
BRANCH   5   8
HETATM    8  C   UNL     1      -7.639  12.493  67.888  1.00  0.00    -0.133 A  
HETATM    9  C   UNL     1      -8.002  11.237  68.446  1.00  0.00    -0.140 A  
HETATM   10  C   UNL     1      -7.191  10.104  68.247  1.00  0.00    -0.080 A  
HETATM   11  C   UNL     1      -6.431  12.527  67.152  1.00  0.00    -0.053 A  
HETATM   12  C   UNL     1      -5.992  10.193  67.549  1.00  0.00    -0.053 A  
HETATM   13  C   UNL     1      -5.606  11.408  67.003  1.00  0.00    -0.101 A  
BRANCH   9  14
HETATM   14  N   UNL     1      -9.115  11.121  69.312  1.00  0.00    -0.392 N  
HETATM   15  O   UNL     1     -10.699  10.395  67.785  1.00  0.00    -0.236 OA 
HETATM   16  H   UNL     1      -8.996  11.413  70.282  1.00  0.00     0.000 HD 
HETATM   17  C   UNL     1     -10.357  10.634  68.932  1.00  0.00    -0.207 C  
BRANCH  17  18
HETATM   18  C   UNL     1     -11.370  10.517  70.009  1.00  0.00    -0.392 A  
HETATM   19  C   UNL     1     -12.139  11.575  70.476  1.00  0.00    -0.378 A  
HETATM   20 CL   UNL     1     -12.022  13.189  69.886  1.00  0.00    -0.398 Cl 
HETATM   21  N   UNL     1     -13.047  11.468  71.475  1.00  0.00    -0.398 NA 
HETATM   22  C   UNL     1     -13.186  10.263  72.059  1.00  0.00    -0.411 A  
HETATM   23  C   UNL     1     -12.461   9.144  71.678  1.00  0.00    -0.434 A  
HETATM   24  C   UNL     1     -11.541   9.273  70.639  1.00  0.00    -0.305 A  
ENDBRANCH  17  18
ENDBRANCH   9  14
ENDBRANCH   5   8
TORSDOF 3
ENDMDL
MODEL       88
REMARK 921   NORMALIZED FREE ENERGY PREDICTED BY IDOCK:   -4.93 KCAL/MOL
REMARK 922        TOTAL FREE ENERGY PREDICTED BY IDOCK:   -7.13 KCAL/MOL
REMARK 923 INTER-LIGAND FREE ENERGY PREDICTED BY IDOCK:   -7.07 KCAL/MOL
REMARK 924 INTRA-LIGAND FREE ENERGY PREDICTED BY IDOCK:   -0.06 KCAL/MOL
REMARK 927      BINDING AFFINITY PREDICTED BY RF-SCORE:    0.00 PKD
ROOT
HETATM    1 CL   UNL     1     -13.535  14.550  72.820  1.00  0.00    -0.572 Cl 
HETATM    2  C   UNL     1     -12.973  13.675  71.452  1.00  0.00    -0.347 A  
HETATM    3  C   UNL     1     -12.985  12.287  71.461  1.00  0.00    -0.390 A  
HETATM    4  C   UNL     1     -12.500  11.579  70.353  1.00  0.00    -0.324 A  
HETATM    5  C   UNL     1     -11.944  12.231  69.231  1.00  0.00    -0.308 A  
HETATM    6  C   UNL     1     -12.484  14.357  70.346  1.00  0.00    -0.420 A  
HETATM    7  C   UNL     1     -11.952  13.641  69.266  1.00  0.00    -0.384 A  
ENDROOT
BRANCH   5   8
HETATM    8  C   UNL     1     -11.286  11.453  68.130  1.00  0.00    -0.374 A  
HETATM    9  C   UNL     1     -10.689  10.174  68.284  1.00  0.00    -0.238 A  
HETATM   10  C   UNL     1     -10.208   9.468  67.166  1.00  0.00    -0.305 A  
HETATM   11  C   UNL     1     -11.350  11.962  66.810  1.00  0.00    -0.393 A  
HETATM   12  C   UNL     1     -10.256  10.023  65.892  1.00  0.00    -0.275 A  
HETATM   13  C   UNL     1     -10.823  11.276  65.712  1.00  0.00    -0.257 A  
BRANCH   9  14
HETATM   14  N   UNL     1     -10.451   9.633  69.570  1.00  0.00    -0.211 N  
HETATM   15  O   UNL     1     -11.034   7.429  69.160  1.00  0.00    -0.155 OA 
HETATM   16  H   UNL     1     -10.175  10.275  70.314  1.00  0.00     0.000 HD 
HETATM   17  C   UNL     1     -10.567   8.288  69.889  1.00  0.00    -0.232 C  
BRANCH  17  18
HETATM   18  C   UNL     1     -10.196   7.911  71.275  1.00  0.00    -0.218 A  
HETATM   19  C   UNL     1     -11.074   7.347  72.191  1.00  0.00    -0.252 A  
HETATM   20 CL   UNL     1     -12.731   7.012  71.863  1.00  0.00    -0.347 Cl 
HETATM   21  N   UNL     1     -10.738   7.024  73.463  1.00  0.00    -0.360 NA 
HETATM   22  C   UNL     1      -9.480   7.295  73.858  1.00  0.00    -0.271 A  
HETATM   23  C   UNL     1      -8.527   7.867  73.028  1.00  0.00    -0.233 A  
HETATM   24  C   UNL     1      -8.891   8.179  71.719  1.00  0.00    -0.206 A  
ENDBRANCH  17  18
ENDBRANCH   9  14
ENDBRANCH   5   8
TORSDOF 3
ENDMDL
MODEL       89
REMARK 921   NORMALIZED FREE ENERGY PREDICTED BY IDOCK:   -4.91 KCAL/MOL
REMARK 922        TOTAL FREE ENERGY PREDICTED BY IDOCK:   -7.10 KCAL/MOL
REMARK 923 INTER-LIGAND FREE ENERGY PREDICTED BY IDOCK:   -6.43 KCAL/MOL
REMARK 924 INTRA-LIGAND FREE ENERGY PREDICTED BY IDOCK:   -0.68 KCAL/MOL
REMARK 927      BINDING AFFINITY PREDICTED BY RF-SCORE:    0.00 PKD
ROOT
HETATM    1 CL   UNL     1     -12.251  14.259  72.123  1.00  0.00    -0.237 Cl 
HETATM    2  C   UNL     1     -12.129  13.776  70.478  1.00  0.00    -0.345 A  
HETATM    3  C   UNL     1     -12.023  12.430  70.156  1.00  0.00    -0.376 A  
HETATM    4  C   UNL     1     -11.896  12.043  68.815  1.00  0.00    -0.358 A  
HETATM    5  C   UNL     1     -11.819  12.985  67.766  1.00  0.00    -0.395 A  
HETATM    6  C   UNL     1     -12.111  14.733  69.474  1.00  0.00    -0.328 A  
HETATM    7  C   UNL     1     -11.930  14.340  68.141  1.00  0.00    -0.343 A  
ENDROOT
BRANCH   5   8
HETATM    8  C   UNL     1     -11.523  12.558  66.360  1.00  0.00    -0.418 A  
HETATM    9  C   UNL     1     -10.583  11.556  65.997  1.00  0.00    -0.261 A  
HETATM   10  C   UNL     1     -10.466  11.136  64.659  1.00  0.00    -0.400 A  
HETATM   11  C   UNL     1     -12.302  13.099  65.309  1.00  0.00    -0.532 A  
HETATM   12  C   UNL     1     -11.225  11.723  63.652  1.00  0.00    -0.519 A  
HETATM   13  C   UNL     1     -12.142  12.711  63.976  1.00  0.00    -0.542 A  
BRANCH   9  14
HETATM   14  N   UNL     1      -9.662  11.047  66.942  1.00  0.00    -0.185 N  
HETATM   15  O   UNL     1     -10.668   9.007  67.380  1.00  0.00    -0.271 OA 
HETATM   16  H   UNL     1      -8.892  11.652  67.231  1.00  0.00     0.000 HD 
HETATM   17  C   UNL     1      -9.733   9.780  67.502  1.00  0.00    -0.157 C  
BRANCH  17  18
HETATM   18  C   UNL     1      -8.624   9.406  68.415  1.00  0.00    -0.124 A  
HETATM   19  C   UNL     1      -7.698   8.406  68.148  1.00  0.00    -0.103 A  
HETATM   20 CL   UNL     1      -7.706   7.435  66.726  1.00  0.00    -0.107 Cl 
HETATM   21  N   UNL     1      -6.700   8.053  68.994  1.00  0.00    -0.051 NA 
HETATM   22  C   UNL     1      -6.627   8.703  70.170  1.00  0.00    -0.038 A  
HETATM   23  C   UNL     1      -7.506   9.710  70.540  1.00  0.00    -0.147 A  
HETATM   24  C   UNL     1      -8.518  10.066  69.649  1.00  0.00    -0.193 A  
ENDBRANCH  17  18
ENDBRANCH   9  14
ENDBRANCH   5   8
TORSDOF 3
ENDMDL
MODEL       90
REMARK 921   NORMALIZED FREE ENERGY PREDICTED BY IDOCK:   -4.90 KCAL/MOL
REMARK 922        TOTAL FREE ENERGY PREDICTED BY IDOCK:   -7.09 KCAL/MOL
REMARK 923 INTER-LIGAND FREE ENERGY PREDICTED BY IDOCK:   -5.75 KCAL/MOL
REMARK 924 INTRA-LIGAND FREE ENERGY PREDICTED BY IDOCK:   -1.34 KCAL/MOL
REMARK 927      BINDING AFFINITY PREDICTED BY RF-SCORE:    0.00 PKD
ROOT
HETATM    1 CL   UNL     1      -8.621   4.260  66.027  1.00  0.00    -0.113 Cl 
HETATM    2  C   UNL     1      -9.251   5.779  66.526  1.00  0.00    -0.143 A  
HETATM    3  C   UNL     1      -8.389   6.801  66.897  1.00  0.00    -0.114 A  
HETATM    4  C   UNL     1      -8.908   8.029  67.330  1.00  0.00    -0.134 A  
HETATM    5  C   UNL     1     -10.296   8.254  67.453  1.00  0.00    -0.350 A  
HETATM    6  C   UNL     1     -10.624   5.976  66.581  1.00  0.00    -0.312 A  
HETATM    7  C   UNL     1     -11.135   7.188  67.066  1.00  0.00    -0.159 A  
ENDROOT
BRANCH   5   8
HETATM    8  C   UNL     1     -10.826   9.515  68.068  1.00  0.00    -0.225 A  
HETATM    9  C   UNL     1     -11.042   9.711  69.458  1.00  0.00    -0.168 A  
HETATM   10  C   UNL     1     -11.423  10.972  69.953  1.00  0.00    -0.400 A  
HETATM   11  C   UNL     1     -11.028  10.642  67.236  1.00  0.00    -0.348 A  
HETATM   12  C   UNL     1     -11.648  12.042  69.094  1.00  0.00    -0.370 A  
HETATM   13  C   UNL     1     -11.456  11.877  67.731  1.00  0.00    -0.389 A  
BRANCH   9  14
HETATM   14  N   UNL     1     -11.001   8.622  70.362  1.00  0.00    -0.235 N  
HETATM   15  O   UNL     1      -8.731   8.608  70.825  1.00  0.00    -0.143 OA 
HETATM   16  H   UNL     1     -11.868   8.110  70.530  1.00  0.00     0.000 HD 
HETATM   17  C   UNL     1      -9.863   8.204  71.035  1.00  0.00    -0.179 C  
BRANCH  17  18
HETATM   18  C   UNL     1     -10.047   7.092  72.000  1.00  0.00    -0.201 A  
HETATM   19  C   UNL     1     -10.297   5.776  71.634  1.00  0.00    -0.214 A  
HETATM   20 CL   UNL     1     -10.448   5.236  70.006  1.00  0.00    -0.371 Cl 
HETATM   21  N   UNL     1     -10.486   4.767  72.518  1.00  0.00    -0.201 NA 
HETATM   22  C   UNL     1     -10.451   5.077  73.828  1.00  0.00    -0.257 A  
HETATM   23  C   UNL     1     -10.220   6.361  74.301  1.00  0.00    -0.362 A  
HETATM   24  C   UNL     1     -10.015   7.381  73.373  1.00  0.00    -0.365 A  
ENDBRANCH  17  18
ENDBRANCH   9  14
ENDBRANCH   5   8
TORSDOF 3
ENDMDL
MODEL       91
REMARK 921   NORMALIZED FREE ENERGY PREDICTED BY IDOCK:   -4.89 KCAL/MOL
REMARK 922        TOTAL FREE ENERGY PREDICTED BY IDOCK:   -7.09 KCAL/MOL
REMARK 923 INTER-LIGAND FREE ENERGY PREDICTED BY IDOCK:   -7.05 KCAL/MOL
REMARK 924 INTRA-LIGAND FREE ENERGY PREDICTED BY IDOCK:   -0.04 KCAL/MOL
REMARK 927      BINDING AFFINITY PREDICTED BY RF-SCORE:    0.00 PKD
ROOT
HETATM    1 CL   UNL     1     -13.141  15.978  73.776  1.00  0.00    -0.607 Cl 
HETATM    2  C   UNL     1     -12.675  15.372  72.237  1.00  0.00    -0.379 A  
HETATM    3  C   UNL     1     -13.254  14.211  71.742  1.00  0.00    -0.450 A  
HETATM    4  C   UNL     1     -12.849  13.706  70.499  1.00  0.00    -0.167 A  
HETATM    5  C   UNL     1     -11.825  14.313  69.740  1.00  0.00    -0.380 A  
HETATM    6  C   UNL     1     -11.701  16.030  71.498  1.00  0.00    -0.554 A  
HETATM    7  C   UNL     1     -11.266  15.489  70.281  1.00  0.00    -0.342 A  
ENDROOT
BRANCH   5   8
HETATM    8  C   UNL     1     -11.299  13.669  68.492  1.00  0.00    -0.325 A  
HETATM    9  C   UNL     1     -10.252  14.193  67.688  1.00  0.00    -0.241 A  
HETATM   10  C   UNL     1      -9.742  13.452  66.605  1.00  0.00    -0.275 A  
HETATM   11  C   UNL     1     -11.790  12.392  68.130  1.00  0.00    -0.372 A  
HETATM   12  C   UNL     1     -10.281  12.218  66.262  1.00  0.00    -0.251 A  
HETATM   13  C   UNL     1     -11.312  11.687  67.022  1.00  0.00    -0.373 A  
BRANCH   9  14
HETATM   14  N   UNL     1      -9.782  15.514  67.876  1.00  0.00    -0.211 N  
HETATM   15  O   UNL     1      -7.921  15.064  69.181  1.00  0.00    -0.174 OA 
HETATM   16  H   UNL     1     -10.342  16.278  67.496  1.00  0.00     0.000 HD 
HETATM   17  C   UNL     1      -8.610  15.842  68.542  1.00  0.00    -0.190 C  
BRANCH  17  18
HETATM   18  C   UNL     1      -8.252  17.282  68.562  1.00  0.00    -0.267 A  
HETATM   19  C   UNL     1      -6.950  17.763  68.511  1.00  0.00    -0.238 A  
HETATM   20 CL   UNL     1      -5.552  16.761  68.431  1.00  0.00    -0.120 Cl 
HETATM   21  N   UNL     1      -6.626  19.077  68.552  1.00  0.00    -0.243 NA 
HETATM   22  C   UNL     1      -7.635  19.960  68.674  1.00  0.00    -0.216 A  
HETATM   23  C   UNL     1      -8.970  19.587  68.745  1.00  0.00    -0.364 A  
HETATM   24  C   UNL     1      -9.281  18.229  68.688  1.00  0.00    -0.309 A  
ENDBRANCH  17  18
ENDBRANCH   9  14
ENDBRANCH   5   8
TORSDOF 3
ENDMDL
MODEL       92
REMARK 921   NORMALIZED FREE ENERGY PREDICTED BY IDOCK:   -4.88 KCAL/MOL
REMARK 922        TOTAL FREE ENERGY PREDICTED BY IDOCK:   -7.08 KCAL/MOL
REMARK 923 INTER-LIGAND FREE ENERGY PREDICTED BY IDOCK:   -7.49 KCAL/MOL
REMARK 924 INTRA-LIGAND FREE ENERGY PREDICTED BY IDOCK:    0.42 KCAL/MOL
REMARK 927      BINDING AFFINITY PREDICTED BY RF-SCORE:    0.00 PKD
ROOT
HETATM    1 CL   UNL     1     -12.472   6.489  71.407  1.00  0.00    -0.288 Cl 
HETATM    2  C   UNL     1     -12.531   8.206  71.469  1.00  0.00    -0.307 A  
HETATM    3  C   UNL     1     -13.575   8.841  72.126  1.00  0.00    -0.480 A  
HETATM    4  C   UNL     1     -13.633  10.242  72.150  1.00  0.00    -0.245 A  
HETATM    5  C   UNL     1     -12.684  11.043  71.480  1.00  0.00    -0.521 A  
HETATM    6  C   UNL     1     -11.546   8.957  70.842  1.00  0.00    -0.331 A  
HETATM    7  C   UNL     1     -11.641  10.355  70.826  1.00  0.00    -0.450 A  
ENDROOT
BRANCH   5   8
HETATM    8  C   UNL     1     -12.854  12.530  71.385  1.00  0.00    -0.359 A  
HETATM    9  C   UNL     1     -12.196  13.363  70.441  1.00  0.00    -0.345 A  
HETATM   10  C   UNL     1     -12.515  14.731  70.347  1.00  0.00    -0.405 A  
HETATM   11  C   UNL     1     -13.817  13.157  72.212  1.00  0.00    -0.586 A  
HETATM   12  C   UNL     1     -13.441  15.312  71.207  1.00  0.00    -0.591 A  
HETATM   13  C   UNL     1     -14.090  14.526  72.146  1.00  0.00    -0.616 A  
BRANCH   9  14
HETATM   14  N   UNL     1     -11.122  12.872  69.661  1.00  0.00    -0.472 N  
HETATM   15  O   UNL     1     -10.786  14.710  68.292  1.00  0.00    -0.232 OA 
HETATM   16  H   UNL     1     -10.823  11.909  69.816  1.00  0.00     0.000 HD 
HETATM   17  C   UNL     1     -10.449  13.611  68.700  1.00  0.00    -0.234 C  
BRANCH  17  18
HETATM   18  C   UNL     1      -9.299  12.938  68.046  1.00  0.00    -0.213 A  
HETATM   19  C   UNL     1      -7.969  13.259  68.286  1.00  0.00    -0.144 A  
HETATM   20 CL   UNL     1      -7.452  14.496  69.366  1.00  0.00    -0.109 Cl 
HETATM   21  N   UNL     1      -6.923  12.658  67.671  1.00  0.00    -0.125 NA 
HETATM   22  C   UNL     1      -7.203  11.710  66.757  1.00  0.00    -0.082 A  
HETATM   23  C   UNL     1      -8.495  11.322  66.434  1.00  0.00    -0.169 A  
HETATM   24  C   UNL     1      -9.557  11.945  67.088  1.00  0.00    -0.192 A  
ENDBRANCH  17  18
ENDBRANCH   9  14
ENDBRANCH   5   8
TORSDOF 3
ENDMDL
MODEL       93
REMARK 921   NORMALIZED FREE ENERGY PREDICTED BY IDOCK:   -4.85 KCAL/MOL
REMARK 922        TOTAL FREE ENERGY PREDICTED BY IDOCK:   -7.04 KCAL/MOL
REMARK 923 INTER-LIGAND FREE ENERGY PREDICTED BY IDOCK:   -6.13 KCAL/MOL
REMARK 924 INTRA-LIGAND FREE ENERGY PREDICTED BY IDOCK:   -0.91 KCAL/MOL
REMARK 927      BINDING AFFINITY PREDICTED BY RF-SCORE:    0.00 PKD
ROOT
HETATM    1 CL   UNL     1     -10.070  15.241  64.737  1.00  0.00    -0.118 Cl 
HETATM    2  C   UNL     1     -10.603  14.352  66.108  1.00  0.00    -0.298 A  
HETATM    3  C   UNL     1     -11.713  13.525  66.010  1.00  0.00    -0.389 A  
HETATM    4  C   UNL     1     -12.161  12.823  67.139  1.00  0.00    -0.236 A  
HETATM    5  C   UNL     1     -11.548  12.966  68.402  1.00  0.00    -0.369 A  
HETATM    6  C   UNL     1      -9.938  14.481  67.319  1.00  0.00    -0.236 A  
HETATM    7  C   UNL     1     -10.424  13.818  68.454  1.00  0.00    -0.256 A  
ENDROOT
BRANCH   5   8
HETATM    8  C   UNL     1     -12.138  12.333  69.627  1.00  0.00    -0.277 A  
HETATM    9  C   UNL     1     -12.063  10.950  69.942  1.00  0.00    -0.354 A  
HETATM   10  C   UNL     1     -12.539  10.470  71.176  1.00  0.00    -0.520 A  
HETATM   11  C   UNL     1     -12.722  13.170  70.608  1.00  0.00    -0.203 A  
HETATM   12  C   UNL     1     -13.140  11.323  72.095  1.00  0.00    -0.272 A  
HETATM   13  C   UNL     1     -13.238  12.676  71.809  1.00  0.00    -0.457 A  
BRANCH   9  14
HETATM   14  N   UNL     1     -11.624  10.008  68.981  1.00  0.00    -0.489 N  
HETATM   15  O   UNL     1      -9.459   9.685  69.739  1.00  0.00    -0.191 OA 
HETATM   16  H   UNL     1     -12.264   9.767  68.224  1.00  0.00     0.000 HD 
HETATM   17  C   UNL     1     -10.383   9.389  68.999  1.00  0.00    -0.210 C  
BRANCH  17  18
HETATM   18  C   UNL     1     -10.145   8.372  67.946  1.00  0.00    -0.254 A  
HETATM   19  C   UNL     1     -10.664   7.084  67.975  1.00  0.00    -0.194 A  
HETATM   20 CL   UNL     1     -11.651   6.467  69.245  1.00  0.00    -0.333 Cl 
HETATM   21  N   UNL     1     -10.427   6.150  67.023  1.00  0.00    -0.241 NA 
HETATM   22  C   UNL     1      -9.618   6.497  66.005  1.00  0.00     0.110 A  
HETATM   23  C   UNL     1      -9.038   7.752  65.885  1.00  0.00    -0.122 A  
HETATM   24  C   UNL     1      -9.306   8.701  66.870  1.00  0.00    -0.216 A  
ENDBRANCH  17  18
ENDBRANCH   9  14
ENDBRANCH   5   8
TORSDOF 3
ENDMDL
MODEL       94
REMARK 921   NORMALIZED FREE ENERGY PREDICTED BY IDOCK:   -4.83 KCAL/MOL
REMARK 922        TOTAL FREE ENERGY PREDICTED BY IDOCK:   -7.01 KCAL/MOL
REMARK 923 INTER-LIGAND FREE ENERGY PREDICTED BY IDOCK:   -7.07 KCAL/MOL
REMARK 924 INTRA-LIGAND FREE ENERGY PREDICTED BY IDOCK:    0.06 KCAL/MOL
REMARK 927      BINDING AFFINITY PREDICTED BY RF-SCORE:    0.00 PKD
ROOT
HETATM    1 CL   UNL     1      -6.900   9.805  66.638  1.00  0.00    -0.083 Cl 
HETATM    2  C   UNL     1      -8.194   9.727  67.767  1.00  0.00    -0.114 A  
HETATM    3  C   UNL     1      -7.928   9.562  69.119  1.00  0.00    -0.094 A  
HETATM    4  C   UNL     1      -8.988   9.470  70.032  1.00  0.00    -0.249 A  
HETATM    5  C   UNL     1     -10.337   9.489  69.618  1.00  0.00    -0.236 A  
HETATM    6  C   UNL     1      -9.507   9.803  67.323  1.00  0.00    -0.183 A  
HETATM    7  C   UNL     1     -10.560   9.658  68.235  1.00  0.00    -0.268 A  
ENDROOT
BRANCH   5   8
HETATM    8  C   UNL     1     -11.450   9.230  70.589  1.00  0.00    -0.327 A  
HETATM    9  C   UNL     1     -12.338  10.219  71.090  1.00  0.00    -0.395 A  
HETATM   10  C   UNL     1     -13.429   9.858  71.901  1.00  0.00    -0.467 A  
HETATM   11  C   UNL     1     -11.724   7.893  70.965  1.00  0.00    -0.293 A  
HETATM   12  C   UNL     1     -13.638   8.536  72.276  1.00  0.00    -0.371 A  
HETATM   13  C   UNL     1     -12.781   7.550  71.813  1.00  0.00    -0.360 A  
BRANCH   9  14
HETATM   14  N   UNL     1     -12.079  11.597  70.890  1.00  0.00    -0.384 N  
HETATM   15  O   UNL     1     -13.571  12.482  72.426  1.00  0.00    -0.521 OA 
HETATM   16  H   UNL     1     -11.422  11.856  70.154  1.00  0.00     0.000 HD 
HETATM   17  C   UNL     1     -12.658  12.618  71.628  1.00  0.00    -0.081 C  
BRANCH  17  18
HETATM   18  C   UNL     1     -12.195  13.993  71.315  1.00  0.00    -0.392 A  
HETATM   19  C   UNL     1     -12.094  15.014  72.252  1.00  0.00    -0.362 A  
HETATM   20 CL   UNL     1     -12.506  14.844  73.915  1.00  0.00    -0.626 Cl 
HETATM   21  N   UNL     1     -11.691  16.273  71.958  1.00  0.00    -0.499 NA 
HETATM   22  C   UNL     1     -11.397  16.545  70.673  1.00  0.00    -0.041 A  
HETATM   23  C   UNL     1     -11.475  15.603  69.658  1.00  0.00    -0.345 A  
HETATM   24  C   UNL     1     -11.879  14.310  69.985  1.00  0.00    -0.378 A  
ENDBRANCH  17  18
ENDBRANCH   9  14
ENDBRANCH   5   8
TORSDOF 3
ENDMDL
MODEL       95
REMARK 921   NORMALIZED FREE ENERGY PREDICTED BY IDOCK:   -4.82 KCAL/MOL
REMARK 922        TOTAL FREE ENERGY PREDICTED BY IDOCK:   -7.00 KCAL/MOL
REMARK 923 INTER-LIGAND FREE ENERGY PREDICTED BY IDOCK:   -6.23 KCAL/MOL
REMARK 924 INTRA-LIGAND FREE ENERGY PREDICTED BY IDOCK:   -0.78 KCAL/MOL
REMARK 927      BINDING AFFINITY PREDICTED BY RF-SCORE:    0.00 PKD
ROOT
HETATM    1 CL   UNL     1      -8.485  10.808  64.571  1.00  0.00    -0.072 Cl 
HETATM    2  C   UNL     1      -9.341  11.151  66.021  1.00  0.00    -0.206 A  
HETATM    3  C   UNL     1     -10.431  10.373  66.385  1.00  0.00    -0.246 A  
HETATM    4  C   UNL     1     -11.143  10.674  67.555  1.00  0.00    -0.367 A  
HETATM    5  C   UNL     1     -10.821  11.785  68.363  1.00  0.00    -0.260 A  
HETATM    6  C   UNL     1      -8.957  12.222  66.816  1.00  0.00    -0.209 A  
HETATM    7  C   UNL     1      -9.707  12.548  67.955  1.00  0.00    -0.205 A  
ENDROOT
BRANCH   5   8
HETATM    8  C   UNL     1     -11.691  12.182  69.518  1.00  0.00    -0.402 A  
HETATM    9  C   UNL     1     -12.103  11.310  70.561  1.00  0.00    -0.387 A  
HETATM   10  C   UNL     1     -12.816  11.804  71.669  1.00  0.00    -0.433 A  
HETATM   11  C   UNL     1     -12.050  13.544  69.660  1.00  0.00    -0.365 A  
HETATM   12  C   UNL     1     -13.180  13.143  71.749  1.00  0.00    -0.494 A  
HETATM   13  C   UNL     1     -12.802  14.016  70.739  1.00  0.00    -0.355 A  
BRANCH   9  14
HETATM   14  N   UNL     1     -11.917   9.910  70.455  1.00  0.00    -0.367 N  
HETATM   15  O   UNL     1      -9.827   9.737  71.441  1.00  0.00     0.003 OA 
HETATM   16  H   UNL     1     -12.631   9.371  69.965  1.00  0.00     0.000 HD 
HETATM   17  C   UNL     1     -10.829   9.222  70.973  1.00  0.00    -0.314 C  
BRANCH  17  18
HETATM   18  C   UNL     1     -10.860   7.746  70.825  1.00  0.00    -0.245 A  
HETATM   19  C   UNL     1     -10.845   6.855  71.890  1.00  0.00    -0.229 A  
HETATM   20 CL   UNL     1     -10.772   7.328  73.545  1.00  0.00    -0.417 Cl 
HETATM   21  N   UNL     1     -10.851   5.508  71.751  1.00  0.00    -0.235 NA 
HETATM   22  C   UNL     1     -10.848   5.016  70.498  1.00  0.00     0.214 A  
HETATM   23  C   UNL     1     -10.851   5.816  69.365  1.00  0.00    -0.393 A  
HETATM   24  C   UNL     1     -10.858   7.200  69.532  1.00  0.00    -0.244 A  
ENDBRANCH  17  18
ENDBRANCH   9  14
ENDBRANCH   5   8
TORSDOF 3
ENDMDL
MODEL       96
REMARK 921   NORMALIZED FREE ENERGY PREDICTED BY IDOCK:   -4.81 KCAL/MOL
REMARK 922        TOTAL FREE ENERGY PREDICTED BY IDOCK:   -6.99 KCAL/MOL
REMARK 923 INTER-LIGAND FREE ENERGY PREDICTED BY IDOCK:   -6.79 KCAL/MOL
REMARK 924 INTRA-LIGAND FREE ENERGY PREDICTED BY IDOCK:   -0.20 KCAL/MOL
REMARK 927      BINDING AFFINITY PREDICTED BY RF-SCORE:    0.00 PKD
ROOT
HETATM    1 CL   UNL     1     -13.770  15.715  72.689  1.00  0.00    -0.648 Cl 
HETATM    2  C   UNL     1     -13.115  14.804  71.387  1.00  0.00    -0.354 A  
HETATM    3  C   UNL     1     -12.944  13.433  71.516  1.00  0.00    -0.429 A  
HETATM    4  C   UNL     1     -12.383  12.699  70.462  1.00  0.00    -0.350 A  
HETATM    5  C   UNL     1     -11.932  13.316  69.275  1.00  0.00    -0.354 A  
HETATM    6  C   UNL     1     -12.734  15.444  70.216  1.00  0.00    -0.338 A  
HETATM    7  C   UNL     1     -12.126  14.710  69.189  1.00  0.00    -0.283 A  
ENDROOT
BRANCH   5   8
HETATM    8  C   UNL     1     -11.191  12.537  68.229  1.00  0.00    -0.309 A  
HETATM    9  C   UNL     1     -11.360  11.149  67.979  1.00  0.00    -0.312 A  
HETATM   10  C   UNL     1     -10.712  10.533  66.893  1.00  0.00    -0.281 A  
HETATM   11  C   UNL     1     -10.338  13.236  67.342  1.00  0.00    -0.243 A  
HETATM   12  C   UNL     1      -9.852  11.250  66.069  1.00  0.00    -0.267 A  
HETATM   13  C   UNL     1      -9.658  12.604  66.296  1.00  0.00    -0.244 A  
BRANCH   9  14
HETATM   14  N   UNL     1     -12.080  10.330  68.882  1.00  0.00    -0.355 N  
HETATM   15  O   UNL     1     -10.323   9.605  70.208  1.00  0.00    -0.242 OA 
HETATM   16  H   UNL     1     -13.079  10.207  68.719  1.00  0.00     0.000 HD 
HETATM   17  C   UNL     1     -11.518   9.684  69.973  1.00  0.00    -0.145 C  
BRANCH  17  18
HETATM   18  C   UNL     1     -12.458   8.936  70.844  1.00  0.00    -0.083 A  
HETATM   19  C   UNL     1     -12.597   7.554  70.836  1.00  0.00    -0.103 A  
HETATM   20 CL   UNL     1     -11.711   6.499  69.803  1.00  0.00    -0.398 Cl 
HETATM   21  N   UNL     1     -13.473   6.877  71.616  1.00  0.00    -0.281 NA 
HETATM   22  C   UNL     1     -14.267   7.600  72.427  1.00  0.00     0.070 A  
HETATM   23  C   UNL     1     -14.218   8.984  72.505  1.00  0.00    -0.356 A  
HETATM   24  C   UNL     1     -13.301   9.660  71.702  1.00  0.00    -0.485 A  
ENDBRANCH  17  18
ENDBRANCH   9  14
ENDBRANCH   5   8
TORSDOF 3
ENDMDL
MODEL       97
REMARK 921   NORMALIZED FREE ENERGY PREDICTED BY IDOCK:   -4.80 KCAL/MOL
REMARK 922        TOTAL FREE ENERGY PREDICTED BY IDOCK:   -6.97 KCAL/MOL
REMARK 923 INTER-LIGAND FREE ENERGY PREDICTED BY IDOCK:   -6.61 KCAL/MOL
REMARK 924 INTRA-LIGAND FREE ENERGY PREDICTED BY IDOCK:   -0.37 KCAL/MOL
REMARK 927      BINDING AFFINITY PREDICTED BY RF-SCORE:    0.00 PKD
ROOT
HETATM    1 CL   UNL     1      -6.469   7.497  67.047  1.00  0.00    -0.058 Cl 
HETATM    2  C   UNL     1      -7.820   7.977  67.994  1.00  0.00    -0.126 A  
HETATM    3  C   UNL     1      -7.659   8.909  69.010  1.00  0.00    -0.085 A  
HETATM    4  C   UNL     1      -8.759   9.277  69.798  1.00  0.00    -0.168 A  
HETATM    5  C   UNL     1     -10.032   8.690  69.630  1.00  0.00    -0.191 A  
HETATM    6  C   UNL     1      -9.067   7.414  67.760  1.00  0.00    -0.129 A  
HETATM    7  C   UNL     1     -10.147   7.748  68.587  1.00  0.00    -0.211 A  
ENDROOT
BRANCH   5   8
HETATM    8  C   UNL     1     -11.151   8.980  70.585  1.00  0.00    -0.314 A  
HETATM    9  C   UNL     1     -12.201   9.907  70.348  1.00  0.00    -0.114 A  
HETATM   10  C   UNL     1     -13.275  10.018  71.250  1.00  0.00    -0.469 A  
HETATM   11  C   UNL     1     -11.251   8.206  71.766  1.00  0.00    -0.329 A  
HETATM   12  C   UNL     1     -13.313   9.265  72.418  1.00  0.00    -0.521 A  
HETATM   13  C   UNL     1     -12.296   8.360  72.682  1.00  0.00    -0.278 A  
BRANCH   9  14
HETATM   14  N   UNL     1     -12.132  10.824  69.272  1.00  0.00    -0.517 N  
HETATM   15  O   UNL     1     -11.972  12.797  70.475  1.00  0.00    -0.320 OA 
HETATM   16  H   UNL     1     -12.227  10.455  68.326  1.00  0.00     0.000 HD 
HETATM   17  C   UNL     1     -11.945  12.190  69.417  1.00  0.00    -0.270 C  
BRANCH  17  18
HETATM   18  C   UNL     1     -11.822  12.969  68.160  1.00  0.00    -0.381 A  
HETATM   19  C   UNL     1     -11.701  14.352  68.108  1.00  0.00    -0.342 A  
HETATM   20 CL   UNL     1     -11.691  15.375  69.493  1.00  0.00    -0.339 Cl 
HETATM   21  N   UNL     1     -11.611  15.061  66.958  1.00  0.00    -0.295 NA 
HETATM   22  C   UNL     1     -11.668  14.374  65.801  1.00  0.00    -0.362 A  
HETATM   23  C   UNL     1     -11.798  12.995  65.740  1.00  0.00    -0.453 A  
HETATM   24  C   UNL     1     -11.877  12.283  66.936  1.00  0.00    -0.334 A  
ENDBRANCH  17  18
ENDBRANCH   9  14
ENDBRANCH   5   8
TORSDOF 3
ENDMDL
MODEL       98
REMARK 921   NORMALIZED FREE ENERGY PREDICTED BY IDOCK:   -4.79 KCAL/MOL
REMARK 922        TOTAL FREE ENERGY PREDICTED BY IDOCK:   -6.97 KCAL/MOL
REMARK 923 INTER-LIGAND FREE ENERGY PREDICTED BY IDOCK:   -6.32 KCAL/MOL
REMARK 924 INTRA-LIGAND FREE ENERGY PREDICTED BY IDOCK:   -0.65 KCAL/MOL
REMARK 927      BINDING AFFINITY PREDICTED BY RF-SCORE:    0.00 PKD
ROOT
HETATM    1 CL   UNL     1      -6.290  11.275  70.023  1.00  0.00    -0.144 Cl 
HETATM    2  C   UNL     1      -7.397  11.841  68.836  1.00  0.00    -0.093 A  
HETATM    3  C   UNL     1      -7.074  12.941  68.053  1.00  0.00    -0.111 A  
HETATM    4  C   UNL     1      -7.992  13.415  67.106  1.00  0.00    -0.068 A  
HETATM    5  C   UNL     1      -9.272  12.841  66.948  1.00  0.00    -0.229 A  
HETATM    6  C   UNL     1      -8.624  11.213  68.677  1.00  0.00    -0.151 A  
HETATM    7  C   UNL     1      -9.556  11.726  67.765  1.00  0.00    -0.184 A  
ENDROOT
BRANCH   5   8
HETATM    8  C   UNL     1     -10.295  13.462  66.045  1.00  0.00    -0.297 A  
HETATM    9  C   UNL     1     -10.336  14.836  65.689  1.00  0.00    -0.349 A  
HETATM   10  C   UNL     1     -11.260  15.302  64.734  1.00  0.00    -0.405 A  
HETATM   11  C   UNL     1     -11.232  12.618  65.401  1.00  0.00    -0.334 A  
HETATM   12  C   UNL     1     -12.188  14.443  64.155  1.00  0.00    -0.393 A  
HETATM   13  C   UNL     1     -12.179  13.098  64.493  1.00  0.00    -0.466 A  
BRANCH   9  14
HETATM   14  N   UNL     1      -9.539  15.788  66.369  1.00  0.00    -0.262 N  
HETATM   15  O   UNL     1     -11.056  16.451  67.990  1.00  0.00    -0.348 OA 
HETATM   16  H   UNL     1      -8.613  15.989  65.992  1.00  0.00     0.000 HD 
HETATM   17  C   UNL     1      -9.932  16.465  67.514  1.00  0.00    -0.250 C  
BRANCH  17  18
HETATM   18  C   UNL     1      -8.920  17.363  68.121  1.00  0.00    -0.260 A  
HETATM   19  C   UNL     1      -9.021  18.748  68.147  1.00  0.00    -0.308 A  
HETATM   20 CL   UNL     1     -10.331  19.635  67.464  1.00  0.00    -0.546 Cl 
HETATM   21  N   UNL     1      -8.084  19.566  68.682  1.00  0.00    -0.357 NA 
HETATM   22  C   UNL     1      -6.981  18.991  69.196  1.00  0.00    -0.310 A  
HETATM   23  C   UNL     1      -6.774  17.620  69.212  1.00  0.00    -0.221 A  
HETATM   24  C   UNL     1      -7.758  16.795  68.666  1.00  0.00    -0.232 A  
ENDBRANCH  17  18
ENDBRANCH   9  14
ENDBRANCH   5   8
TORSDOF 3
ENDMDL
MODEL       99
REMARK 921   NORMALIZED FREE ENERGY PREDICTED BY IDOCK:   -4.79 KCAL/MOL
REMARK 922        TOTAL FREE ENERGY PREDICTED BY IDOCK:   -6.96 KCAL/MOL
REMARK 923 INTER-LIGAND FREE ENERGY PREDICTED BY IDOCK:   -5.62 KCAL/MOL
REMARK 924 INTRA-LIGAND FREE ENERGY PREDICTED BY IDOCK:   -1.34 KCAL/MOL
REMARK 927      BINDING AFFINITY PREDICTED BY RF-SCORE:    0.00 PKD
ROOT
HETATM    1 CL   UNL     1     -11.077   4.611  73.673  1.00  0.00    -0.385 Cl 
HETATM    2  C   UNL     1     -11.111   6.102  72.817  1.00  0.00    -0.259 A  
HETATM    3  C   UNL     1     -10.368   7.182  73.274  1.00  0.00    -0.369 A  
HETATM    4  C   UNL     1     -10.421   8.403  72.589  1.00  0.00    -0.317 A  
HETATM    5  C   UNL     1     -11.251   8.597  71.463  1.00  0.00    -0.360 A  
HETATM    6  C   UNL     1     -11.899   6.233  71.683  1.00  0.00    -0.315 A  
HETATM    7  C   UNL     1     -11.987   7.473  71.035  1.00  0.00    -0.317 A  
ENDROOT
BRANCH   5   8
HETATM    8  C   UNL     1     -11.413   9.952  70.844  1.00  0.00    -0.456 A  
HETATM    9  C   UNL     1     -10.747  10.393  69.669  1.00  0.00    -0.265 A  
HETATM   10  C   UNL     1     -11.059  11.638  69.093  1.00  0.00    -0.302 A  
HETATM   11  C   UNL     1     -12.377  10.835  71.388  1.00  0.00    -0.433 A  
HETATM   12  C   UNL     1     -11.986  12.490  69.683  1.00  0.00    -0.339 A  
HETATM   13  C   UNL     1     -12.643  12.092  70.837  1.00  0.00    -0.347 A  
BRANCH   9  14
HETATM   14  N   UNL     1      -9.672   9.653  69.121  1.00  0.00    -0.170 N  
HETATM   15  O   UNL     1     -10.830   8.449  67.516  1.00  0.00    -0.191 OA 
HETATM   16  H   UNL     1      -8.754   9.756  69.554  1.00  0.00     0.000 HD 
HETATM   17  C   UNL     1      -9.782   8.796  68.036  1.00  0.00    -0.157 C  
BRANCH  17  18
HETATM   18  C   UNL     1      -8.521   8.174  67.564  1.00  0.00    -0.126 A  
HETATM   19  C   UNL     1      -7.875   7.130  68.215  1.00  0.00    -0.122 A  
HETATM   20 CL   UNL     1      -8.432   6.410  69.676  1.00  0.00    -0.129 Cl 
HETATM   21  N   UNL     1      -6.712   6.580  67.793  1.00  0.00    -0.068 NA 
HETATM   22  C   UNL     1      -6.145   7.101  66.689  1.00  0.00    -0.038 A  
HETATM   23  C   UNL     1      -6.699   8.149  65.970  1.00  0.00    -0.053 A  
HETATM   24  C   UNL     1      -7.904   8.693  66.415  1.00  0.00    -0.099 A  
ENDBRANCH  17  18
ENDBRANCH   9  14
ENDBRANCH   5   8
TORSDOF 3
ENDMDL
MODEL      100
REMARK 921   NORMALIZED FREE ENERGY PREDICTED BY IDOCK:   -4.78 KCAL/MOL
REMARK 922        TOTAL FREE ENERGY PREDICTED BY IDOCK:   -6.96 KCAL/MOL
REMARK 923 INTER-LIGAND FREE ENERGY PREDICTED BY IDOCK:   -6.35 KCAL/MOL
REMARK 924 INTRA-LIGAND FREE ENERGY PREDICTED BY IDOCK:   -0.60 KCAL/MOL
REMARK 927      BINDING AFFINITY PREDICTED BY RF-SCORE:    0.00 PKD
ROOT
HETATM    1 CL   UNL     1     -12.078  14.885  64.534  1.00  0.00    -0.460 Cl 
HETATM    2  C   UNL     1     -11.274  13.367  64.571  1.00  0.00    -0.372 A  
HETATM    3  C   UNL     1     -10.400  13.069  65.607  1.00  0.00    -0.294 A  
HETATM    4  C   UNL     1      -9.725  11.840  65.617  1.00  0.00    -0.256 A  
HETATM    5  C   UNL     1      -9.863  10.900  64.573  1.00  0.00    -0.356 A  
HETATM    6  C   UNL     1     -11.480  12.448  63.551  1.00  0.00    -0.561 A  
HETATM    7  C   UNL     1     -10.761  11.245  63.542  1.00  0.00    -0.408 A  
ENDROOT
BRANCH   5   8
HETATM    8  C   UNL     1      -9.013   9.666  64.524  1.00  0.00    -0.278 A  
HETATM    9  C   UNL     1      -8.885   8.725  65.581  1.00  0.00    -0.199 A  
HETATM   10  C   UNL     1      -8.162   7.532  65.395  1.00  0.00    -0.136 A  
HETATM   11  C   UNL     1      -8.366   9.336  63.309  1.00  0.00    -0.193 A  
HETATM   12  C   UNL     1      -7.511   7.267  64.195  1.00  0.00    -0.099 A  
HETATM   13  C   UNL     1      -7.608   8.173  63.150  1.00  0.00    -0.128 A  
BRANCH   9  14
HETATM   14  N   UNL     1      -9.374   9.016  66.877  1.00  0.00    -0.150 N  
HETATM   15  O   UNL     1     -11.122   7.497  66.964  1.00  0.00    -0.224 OA 
HETATM   16  H   UNL     1      -8.939   9.784  67.388  1.00  0.00     0.000 HD 
HETATM   17  C   UNL     1     -10.405   8.327  67.499  1.00  0.00    -0.265 C  
BRANCH  17  18
HETATM   18  C   UNL     1     -10.716   8.735  68.891  1.00  0.00    -0.114 A  
HETATM   19  C   UNL     1     -10.828   7.852  69.957  1.00  0.00    -0.238 A  
HETATM   20 CL   UNL     1     -10.638   6.146  69.822  1.00  0.00    -0.308 Cl 
HETATM   21  N   UNL     1     -11.134   8.226  71.222  1.00  0.00    -0.244 NA 
HETATM   22  C   UNL     1     -11.364   9.534  71.441  1.00  0.00    -0.392 A  
HETATM   23  C   UNL     1     -11.289  10.499  70.447  1.00  0.00    -0.411 A  
HETATM   24  C   UNL     1     -10.961  10.092  69.155  1.00  0.00    -0.270 A  
ENDBRANCH  17  18
ENDBRANCH   9  14
ENDBRANCH   5   8
TORSDOF 3
ENDMDL
MODEL      101
REMARK 921   NORMALIZED FREE ENERGY PREDICTED BY IDOCK:   -4.77 KCAL/MOL
REMARK 922        TOTAL FREE ENERGY PREDICTED BY IDOCK:   -6.94 KCAL/MOL
REMARK 923 INTER-LIGAND FREE ENERGY PREDICTED BY IDOCK:   -5.57 KCAL/MOL
REMARK 924 INTRA-LIGAND FREE ENERGY PREDICTED BY IDOCK:   -1.37 KCAL/MOL
REMARK 927      BINDING AFFINITY PREDICTED BY RF-SCORE:    0.00 PKD
ROOT
HETATM    1 CL   UNL     1      -7.692   4.441  68.634  1.00  0.00    -0.070 Cl 
HETATM    2  C   UNL     1      -8.821   5.514  69.361  1.00  0.00    -0.106 A  
HETATM    3  C   UNL     1     -10.068   5.707  68.783  1.00  0.00    -0.245 A  
HETATM    4  C   UNL     1     -10.974   6.605  69.364  1.00  0.00    -0.361 A  
HETATM    5  C   UNL     1     -10.645   7.369  70.505  1.00  0.00    -0.234 A  
HETATM    6  C   UNL     1      -8.477   6.206  70.514  1.00  0.00    -0.137 A  
HETATM    7  C   UNL     1      -9.368   7.140  71.058  1.00  0.00    -0.158 A  
ENDROOT
BRANCH   5   8
HETATM    8  C   UNL     1     -11.567   8.436  71.015  1.00  0.00    -0.307 A  
HETATM    9  C   UNL     1     -11.489   9.811  70.665  1.00  0.00    -0.324 A  
HETATM   10  C   UNL     1     -12.476  10.717  71.096  1.00  0.00    -0.523 A  
HETATM   11  C   UNL     1     -12.668   8.054  71.818  1.00  0.00    -0.352 A  
HETATM   12  C   UNL     1     -13.520  10.304  71.916  1.00  0.00    -0.403 A  
HETATM   13  C   UNL     1     -13.615   8.971  72.284  1.00  0.00    -0.540 A  
BRANCH   9  14
HETATM   14  N   UNL     1     -10.360  10.325  69.983  1.00  0.00    -0.395 N  
HETATM   15  O   UNL     1     -11.155  10.206  67.809  1.00  0.00    -0.295 OA 
HETATM   16  H   UNL     1      -9.529  10.541  70.533  1.00  0.00     0.000 HD 
HETATM   17  C   UNL     1     -10.309  10.556  68.616  1.00  0.00    -0.185 C  
BRANCH  17  18
HETATM   18  C   UNL     1      -9.060  11.174  68.105  1.00  0.00    -0.159 A  
HETATM   19  C   UNL     1      -7.941  10.455  67.706  1.00  0.00    -0.102 A  
HETATM   20 CL   UNL     1      -7.826   8.738  67.757  1.00  0.00    -0.102 Cl 
HETATM   21  N   UNL     1      -6.795  11.024  67.261  1.00  0.00    -0.082 NA 
HETATM   22  C   UNL     1      -6.743  12.368  67.231  1.00  0.00    -0.133 A  
HETATM   23  C   UNL     1      -7.798  13.181  67.618  1.00  0.00    -0.169 A  
HETATM   24  C   UNL     1      -8.973  12.574  68.061  1.00  0.00    -0.192 A  
ENDBRANCH  17  18
ENDBRANCH   9  14
ENDBRANCH   5   8
TORSDOF 3
ENDMDL
MODEL      102
REMARK 921   NORMALIZED FREE ENERGY PREDICTED BY IDOCK:   -4.76 KCAL/MOL
REMARK 922        TOTAL FREE ENERGY PREDICTED BY IDOCK:   -6.93 KCAL/MOL
REMARK 923 INTER-LIGAND FREE ENERGY PREDICTED BY IDOCK:   -5.87 KCAL/MOL
REMARK 924 INTRA-LIGAND FREE ENERGY PREDICTED BY IDOCK:   -1.06 KCAL/MOL
REMARK 927      BINDING AFFINITY PREDICTED BY RF-SCORE:    0.00 PKD
ROOT
HETATM    1 CL   UNL     1      -6.773   4.958  66.594  1.00  0.00    -0.050 Cl 
HETATM    2  C   UNL     1      -7.857   6.018  67.404  1.00  0.00    -0.102 A  
HETATM    3  C   UNL     1      -7.469   7.318  67.698  1.00  0.00    -0.101 A  
HETATM    4  C   UNL     1      -8.347   8.169  68.383  1.00  0.00    -0.126 A  
HETATM    5  C   UNL     1      -9.611   7.734  68.837  1.00  0.00    -0.154 A  
HETATM    6  C   UNL     1      -9.113   5.566  67.786  1.00  0.00    -0.107 A  
HETATM    7  C   UNL     1      -9.963   6.407  68.517  1.00  0.00    -0.155 A  
ENDROOT
BRANCH   5   8
HETATM    8  C   UNL     1     -10.466   8.609  69.705  1.00  0.00    -0.220 A  
HETATM    9  C   UNL     1     -11.327   9.633  69.227  1.00  0.00     0.038 A  
HETATM   10  C   UNL     1     -12.185  10.317  70.109  1.00  0.00    -0.251 A  
HETATM   11  C   UNL     1     -10.518   8.342  71.094  1.00  0.00    -0.263 A  
HETATM   12  C   UNL     1     -12.175  10.048  71.473  1.00  0.00    -0.496 A  
HETATM   13  C   UNL     1     -11.335   9.062  71.970  1.00  0.00    -0.395 A  
BRANCH   9  14
HETATM   14  N   UNL     1     -11.258  10.073  67.884  1.00  0.00    -0.497 N  
HETATM   15  O   UNL     1      -9.911  11.936  68.173  1.00  0.00    -0.185 OA 
HETATM   16  H   UNL     1     -11.809   9.569  67.188  1.00  0.00     0.000 HD 
HETATM   17  C   UNL     1     -10.493  11.145  67.448  1.00  0.00    -0.220 C  
BRANCH  17  18
HETATM   18  C   UNL     1     -10.495  11.397  65.986  1.00  0.00    -0.305 A  
HETATM   19  C   UNL     1     -11.200  12.424  65.373  1.00  0.00    -0.318 A  
HETATM   20 CL   UNL     1     -12.193  13.552  66.214  1.00  0.00    -0.469 Cl 
HETATM   21  N   UNL     1     -11.217  12.637  64.035  1.00  0.00    -0.376 NA 
HETATM   22  C   UNL     1     -10.523  11.781  63.264  1.00  0.00    -0.388 A  
HETATM   23  C   UNL     1      -9.793  10.716  63.772  1.00  0.00    -0.394 A  
HETATM   24  C   UNL     1      -9.780  10.522  65.152  1.00  0.00    -0.341 A  
ENDBRANCH  17  18
ENDBRANCH   9  14
ENDBRANCH   5   8
TORSDOF 3
ENDMDL
MODEL      103
REMARK 921   NORMALIZED FREE ENERGY PREDICTED BY IDOCK:   -4.75 KCAL/MOL
REMARK 922        TOTAL FREE ENERGY PREDICTED BY IDOCK:   -6.91 KCAL/MOL
REMARK 923 INTER-LIGAND FREE ENERGY PREDICTED BY IDOCK:   -6.01 KCAL/MOL
REMARK 924 INTRA-LIGAND FREE ENERGY PREDICTED BY IDOCK:   -0.90 KCAL/MOL
REMARK 927      BINDING AFFINITY PREDICTED BY RF-SCORE:    0.00 PKD
ROOT
HETATM    1 CL   UNL     1      -5.490   7.675  67.659  1.00  0.00    -0.030 Cl 
HETATM    2  C   UNL     1      -6.979   8.137  68.383  1.00  0.00    -0.073 A  
HETATM    3  C   UNL     1      -7.005   9.151  69.331  1.00  0.00    -0.052 A  
HETATM    4  C   UNL     1      -8.217   9.505  69.939  1.00  0.00    -0.169 A  
HETATM    5  C   UNL     1      -9.423   8.827  69.657  1.00  0.00    -0.170 A  
HETATM    6  C   UNL     1      -8.151   7.480  68.037  1.00  0.00    -0.124 A  
HETATM    7  C   UNL     1      -9.349   7.805  68.688  1.00  0.00    -0.148 A  
ENDROOT
BRANCH   5   8
HETATM    8  C   UNL     1     -10.674   9.114  70.434  1.00  0.00    -0.282 A  
HETATM    9  C   UNL     1     -11.762   9.894  69.960  1.00  0.00    -0.124 A  
HETATM   10  C   UNL     1     -12.946  10.003  70.713  1.00  0.00    -0.330 A  
HETATM   11  C   UNL     1     -10.852   8.483  71.689  1.00  0.00    -0.356 A  
HETATM   12  C   UNL     1     -13.063   9.397  71.959  1.00  0.00    -0.516 A  
HETATM   13  C   UNL     1     -12.012   8.639  72.452  1.00  0.00    -0.410 A  
BRANCH   9  14
HETATM   14  N   UNL     1     -11.641  10.676  68.787  1.00  0.00    -0.438 N  
HETATM   15  O   UNL     1     -11.807  12.786  69.728  1.00  0.00    -0.315 OA 
HETATM   16  H   UNL     1     -11.583  10.187  67.893  1.00  0.00     0.000 HD 
HETATM   17  C   UNL     1     -11.594  12.062  68.769  1.00  0.00    -0.311 C  
BRANCH  17  18
HETATM   18  C   UNL     1     -11.383  12.691  67.442  1.00  0.00    -0.367 A  
HETATM   19  C   UNL     1     -10.418  12.285  66.531  1.00  0.00    -0.227 A  
HETATM   20 CL   UNL     1      -9.306  10.999  66.808  1.00  0.00    -0.193 Cl 
HETATM   21  N   UNL     1     -10.214  12.876  65.329  1.00  0.00    -0.290 NA 
HETATM   22  C   UNL     1     -10.985  13.936  65.023  1.00  0.00    -0.368 A  
HETATM   23  C   UNL     1     -11.971  14.430  65.864  1.00  0.00    -0.367 A  
HETATM   24  C   UNL     1     -12.172  13.798  67.091  1.00  0.00    -0.352 A  
ENDBRANCH  17  18
ENDBRANCH   9  14
ENDBRANCH   5   8
TORSDOF 3
ENDMDL
MODEL      104
REMARK 921   NORMALIZED FREE ENERGY PREDICTED BY IDOCK:   -4.74 KCAL/MOL
REMARK 922        TOTAL FREE ENERGY PREDICTED BY IDOCK:   -6.91 KCAL/MOL
REMARK 923 INTER-LIGAND FREE ENERGY PREDICTED BY IDOCK:   -6.24 KCAL/MOL
REMARK 924 INTRA-LIGAND FREE ENERGY PREDICTED BY IDOCK:   -0.67 KCAL/MOL
REMARK 927      BINDING AFFINITY PREDICTED BY RF-SCORE:    0.00 PKD
ROOT
HETATM    1 CL   UNL     1      -7.055   7.697  66.845  1.00  0.00    -0.082 Cl 
HETATM    2  C   UNL     1      -8.219   8.587  67.743  1.00  0.00    -0.122 A  
HETATM    3  C   UNL     1      -7.903   9.066  69.007  1.00  0.00    -0.090 A  
HETATM    4  C   UNL     1      -8.866   9.767  69.747  1.00  0.00    -0.241 A  
HETATM    5  C   UNL     1     -10.180   9.965  69.270  1.00  0.00    -0.222 A  
HETATM    6  C   UNL     1      -9.484   8.806  67.214  1.00  0.00    -0.200 A  
HETATM    7  C   UNL     1     -10.455   9.461  67.982  1.00  0.00    -0.278 A  
ENDROOT
BRANCH   5   8
HETATM    8  C   UNL     1     -11.237  10.576  70.142  1.00  0.00    -0.389 A  
HETATM    9  C   UNL     1     -11.701  11.914  70.038  1.00  0.00    -0.286 A  
HETATM   10  C   UNL     1     -12.785  12.359  70.818  1.00  0.00    -0.208 A  
HETATM   11  C   UNL     1     -11.912   9.747  71.069  1.00  0.00    -0.440 A  
HETATM   12  C   UNL     1     -13.394  11.521  71.744  1.00  0.00    -0.356 A  
HETATM   13  C   UNL     1     -12.955  10.213  71.876  1.00  0.00    -0.549 A  
BRANCH   9  14
HETATM   14  N   UNL     1     -11.013  12.863  69.245  1.00  0.00    -0.436 N  
HETATM   15  O   UNL     1     -12.524  13.055  67.499  1.00  0.00    -0.126 OA 
HETATM   16  H   UNL     1     -10.086  13.159  69.553  1.00  0.00     0.000 HD 
HETATM   17  C   UNL     1     -11.513  13.419  68.076  1.00  0.00    -0.304 C  
BRANCH  17  18
HETATM   18  C   UNL     1     -10.669  14.456  67.433  1.00  0.00    -0.280 A  
HETATM   19  C   UNL     1      -9.981  15.443  68.128  1.00  0.00    -0.221 A  
HETATM   20 CL   UNL     1     -10.016  15.623  69.840  1.00  0.00    -0.282 Cl 
HETATM   21  N   UNL     1      -9.230  16.402  67.536  1.00  0.00    -0.198 NA 
HETATM   22  C   UNL     1      -9.174  16.401  66.191  1.00  0.00    -0.330 A  
HETATM   23  C   UNL     1      -9.830  15.469  65.401  1.00  0.00    -0.291 A  
HETATM   24  C   UNL     1     -10.588  14.483  66.032  1.00  0.00    -0.311 A  
ENDBRANCH  17  18
ENDBRANCH   9  14
ENDBRANCH   5   8
TORSDOF 3
ENDMDL
MODEL      105
REMARK 921   NORMALIZED FREE ENERGY PREDICTED BY IDOCK:   -4.74 KCAL/MOL
REMARK 922        TOTAL FREE ENERGY PREDICTED BY IDOCK:   -6.90 KCAL/MOL
REMARK 923 INTER-LIGAND FREE ENERGY PREDICTED BY IDOCK:   -5.56 KCAL/MOL
REMARK 924 INTRA-LIGAND FREE ENERGY PREDICTED BY IDOCK:   -1.35 KCAL/MOL
REMARK 927      BINDING AFFINITY PREDICTED BY RF-SCORE:    0.00 PKD
ROOT
HETATM    1 CL   UNL     1      -9.498  14.084  66.028  1.00  0.00    -0.220 Cl 
HETATM    2  C   UNL     1      -9.551  12.377  66.220  1.00  0.00    -0.241 A  
HETATM    3  C   UNL     1      -8.663  11.747  67.081  1.00  0.00    -0.169 A  
HETATM    4  C   UNL     1      -8.692  10.352  67.213  1.00  0.00    -0.125 A  
HETATM    5  C   UNL     1      -9.569   9.545  66.455  1.00  0.00    -0.259 A  
HETATM    6  C   UNL     1     -10.466  11.626  65.495  1.00  0.00    -0.321 A  
HETATM    7  C   UNL     1     -10.452  10.228  65.594  1.00  0.00    -0.152 A  
ENDROOT
BRANCH   5   8
HETATM    8  C   UNL     1      -9.473   8.049  66.494  1.00  0.00    -0.278 A  
HETATM    9  C   UNL     1     -10.275   7.205  67.307  1.00  0.00    -0.245 A  
HETATM   10  C   UNL     1     -10.199   5.805  67.182  1.00  0.00    -0.250 A  
HETATM   11  C   UNL     1      -8.605   7.401  65.582  1.00  0.00    -0.128 A  
HETATM   12  C   UNL     1      -9.304   5.212  66.299  1.00  0.00    -0.155 A  
HETATM   13  C   UNL     1      -8.499   6.010  65.501  1.00  0.00    -0.151 A  
BRANCH   9  14
HETATM   14  N   UNL     1     -11.076   7.741  68.344  1.00  0.00    -0.377 N  
HETATM   15  O   UNL     1      -9.545   7.649  70.081  1.00  0.00    -0.168 OA 
HETATM   16  H   UNL     1     -12.050   7.957  68.130  1.00  0.00     0.000 HD 
HETATM   17  C   UNL     1     -10.626   7.995  69.631  1.00  0.00    -0.223 C  
BRANCH  17  18
HETATM   18  C   UNL     1     -11.600   8.633  70.550  1.00  0.00    -0.158 A  
HETATM   19  C   UNL     1     -12.019   9.953  70.447  1.00  0.00    -0.195 A  
HETATM   20 CL   UNL     1     -11.460  11.055  69.248  1.00  0.00    -0.335 Cl 
HETATM   21  N   UNL     1     -12.892  10.539  71.301  1.00  0.00    -0.397 NA 
HETATM   22  C   UNL     1     -13.356   9.793  72.321  1.00  0.00    -0.379 A  
HETATM   23  C   UNL     1     -12.994   8.469  72.522  1.00  0.00    -0.300 A  
HETATM   24  C   UNL     1     -12.104   7.882  71.624  1.00  0.00    -0.333 A  
ENDBRANCH  17  18
ENDBRANCH   9  14
ENDBRANCH   5   8
TORSDOF 3
ENDMDL
MODEL      106
REMARK 921   NORMALIZED FREE ENERGY PREDICTED BY IDOCK:   -4.72 KCAL/MOL
REMARK 922        TOTAL FREE ENERGY PREDICTED BY IDOCK:   -6.88 KCAL/MOL
REMARK 923 INTER-LIGAND FREE ENERGY PREDICTED BY IDOCK:   -5.92 KCAL/MOL
REMARK 924 INTRA-LIGAND FREE ENERGY PREDICTED BY IDOCK:   -0.96 KCAL/MOL
REMARK 927      BINDING AFFINITY PREDICTED BY RF-SCORE:    0.00 PKD
ROOT
HETATM    1 CL   UNL     1      -9.917  18.129  69.065  1.00  0.00    -0.339 Cl 
HETATM    2  C   UNL     1     -10.240  16.821  67.998  1.00  0.00    -0.300 A  
HETATM    3  C   UNL     1      -9.565  16.727  66.790  1.00  0.00    -0.261 A  
HETATM    4  C   UNL     1      -9.852  15.673  65.911  1.00  0.00    -0.382 A  
HETATM    5  C   UNL     1     -10.853  14.717  66.188  1.00  0.00    -0.321 A  
HETATM    6  C   UNL     1     -11.195  15.872  68.335  1.00  0.00    -0.368 A  
HETATM    7  C   UNL     1     -11.514  14.853  67.427  1.00  0.00    -0.354 A  
ENDROOT
BRANCH   5   8
HETATM    8  C   UNL     1     -11.255  13.696  65.167  1.00  0.00    -0.318 A  
HETATM    9  C   UNL     1     -11.000  12.302  65.269  1.00  0.00    -0.307 A  
HETATM   10  C   UNL     1     -11.526  11.406  64.319  1.00  0.00    -0.172 A  
HETATM   11  C   UNL     1     -12.040  14.112  64.065  1.00  0.00    -0.382 A  
HETATM   12  C   UNL     1     -12.261  11.863  63.231  1.00  0.00    -0.487 A  
HETATM   13  C   UNL     1     -12.515  13.220  63.099  1.00  0.00    -0.063 A  
BRANCH   9  14
HETATM   14  N   UNL     1     -10.115  11.794  66.250  1.00  0.00    -0.211 N  
HETATM   15  O   UNL     1     -11.668  10.988  67.769  1.00  0.00    -0.573 OA 
HETATM   16  H   UNL     1      -9.116  11.943  66.112  1.00  0.00     0.000 HD 
HETATM   17  C   UNL     1     -10.516  11.107  67.386  1.00  0.00    -0.220 C  
BRANCH  17  18
HETATM   18  C   UNL     1      -9.429  10.587  68.252  1.00  0.00    -0.158 A  
HETATM   19  C   UNL     1      -9.338   9.270  68.684  1.00  0.00    -0.139 A  
HETATM   20 CL   UNL     1     -10.483   8.044  68.294  1.00  0.00    -0.233 Cl 
HETATM   21  N   UNL     1      -8.356   8.804  69.492  1.00  0.00    -0.117 NA 
HETATM   22  C   UNL     1      -7.432   9.687  69.914  1.00  0.00    -0.127 A  
HETATM   23  C   UNL     1      -7.434  11.026  69.552  1.00  0.00    -0.031 A  
HETATM   24  C   UNL     1      -8.447  11.481  68.709  1.00  0.00    -0.057 A  
ENDBRANCH  17  18
ENDBRANCH   9  14
ENDBRANCH   5   8
TORSDOF 3
ENDMDL
MODEL      107
REMARK 921   NORMALIZED FREE ENERGY PREDICTED BY IDOCK:   -4.72 KCAL/MOL
REMARK 922        TOTAL FREE ENERGY PREDICTED BY IDOCK:   -6.88 KCAL/MOL
REMARK 923 INTER-LIGAND FREE ENERGY PREDICTED BY IDOCK:   -5.48 KCAL/MOL
REMARK 924 INTRA-LIGAND FREE ENERGY PREDICTED BY IDOCK:   -1.40 KCAL/MOL
REMARK 927      BINDING AFFINITY PREDICTED BY RF-SCORE:    0.00 PKD
ROOT
HETATM    1 CL   UNL     1     -10.256   9.103  71.687  1.00  0.00    -0.411 Cl 
HETATM    2  C   UNL     1      -9.819   9.161  70.026  1.00  0.00    -0.193 A  
HETATM    3  C   UNL     1     -10.755   8.849  69.050  1.00  0.00    -0.148 A  
HETATM    4  C   UNL     1     -10.386   8.871  67.698  1.00  0.00    -0.313 A  
HETATM    5  C   UNL     1      -9.066   9.152  67.285  1.00  0.00    -0.143 A  
HETATM    6  C   UNL     1      -8.522   9.495  69.661  1.00  0.00    -0.174 A  
HETATM    7  C   UNL     1      -8.148   9.462  68.311  1.00  0.00    -0.109 A  
ENDROOT
BRANCH   5   8
HETATM    8  C   UNL     1      -8.655   9.013  65.850  1.00  0.00    -0.172 A  
HETATM    9  C   UNL     1      -8.458  10.097  64.953  1.00  0.00    -0.172 A  
HETATM   10  C   UNL     1      -7.951   9.873  63.659  1.00  0.00    -0.147 A  
HETATM   11  C   UNL     1      -8.330   7.725  65.360  1.00  0.00    -0.141 A  
HETATM   12  C   UNL     1      -7.681   8.587  63.207  1.00  0.00    -0.138 A  
HETATM   13  C   UNL     1      -7.876   7.508  64.056  1.00  0.00    -0.127 A  
BRANCH   9  14
HETATM   14  N   UNL     1      -8.878  11.405  65.291  1.00  0.00    -0.393 N  
HETATM   15  O   UNL     1     -11.102  11.257  64.659  1.00  0.00    -0.264 OA 
HETATM   16  H   UNL     1      -8.172  12.059  65.631  1.00  0.00     0.000 HD 
HETATM   17  C   UNL     1     -10.184  11.860  65.191  1.00  0.00    -0.277 C  
BRANCH  17  18
HETATM   18  C   UNL     1     -10.433  13.242  65.670  1.00  0.00    -0.286 A  
HETATM   19  C   UNL     1     -10.700  13.573  66.992  1.00  0.00    -0.277 A  
HETATM   20 CL   UNL     1     -10.798  12.428  68.275  1.00  0.00    -0.246 Cl 
HETATM   21  N   UNL     1     -10.948  14.833  67.422  1.00  0.00    -0.304 NA 
HETATM   22  C   UNL     1     -10.958  15.811  66.498  1.00  0.00    -0.165 A  
HETATM   23  C   UNL     1     -10.716  15.589  65.150  1.00  0.00    -0.460 A  
HETATM   24  C   UNL     1     -10.450  14.286  64.732  1.00  0.00    -0.421 A  
ENDBRANCH  17  18
ENDBRANCH   9  14
ENDBRANCH   5   8
TORSDOF 3
ENDMDL
MODEL      108
REMARK 921   NORMALIZED FREE ENERGY PREDICTED BY IDOCK:   -4.71 KCAL/MOL
REMARK 922        TOTAL FREE ENERGY PREDICTED BY IDOCK:   -6.87 KCAL/MOL
REMARK 923 INTER-LIGAND FREE ENERGY PREDICTED BY IDOCK:   -5.57 KCAL/MOL
REMARK 924 INTRA-LIGAND FREE ENERGY PREDICTED BY IDOCK:   -1.30 KCAL/MOL
REMARK 927      BINDING AFFINITY PREDICTED BY RF-SCORE:    0.00 PKD
ROOT
HETATM    1 CL   UNL     1      -9.265   2.735  69.162  1.00  0.00    -0.203 Cl 
HETATM    2  C   UNL     1      -9.879   4.253  69.686  1.00  0.00    -0.174 A  
HETATM    3  C   UNL     1      -9.762   4.628  71.017  1.00  0.00    -0.258 A  
HETATM    4  C   UNL     1     -10.289   5.855  71.445  1.00  0.00    -0.271 A  
HETATM    5  C   UNL     1     -10.988   6.716  70.571  1.00  0.00    -0.337 A  
HETATM    6  C   UNL     1     -10.512   5.094  68.782  1.00  0.00    -0.113 A  
HETATM    7  C   UNL     1     -11.082   6.294  69.229  1.00  0.00    -0.461 A  
ENDROOT
BRANCH   5   8
HETATM    8  C   UNL     1     -11.680   7.944  71.083  1.00  0.00    -0.306 A  
HETATM    9  C   UNL     1     -11.278   9.277  70.804  1.00  0.00    -0.288 A  
HETATM   10  C   UNL     1     -12.064  10.366  71.225  1.00  0.00    -0.461 A  
HETATM   11  C   UNL     1     -12.886   7.790  71.807  1.00  0.00    -0.352 A  
HETATM   12  C   UNL     1     -13.223  10.169  71.968  1.00  0.00    -0.534 A  
HETATM   13  C   UNL     1     -13.634   8.878  72.266  1.00  0.00    -0.513 A  
BRANCH   9  14
HETATM   14  N   UNL     1     -10.024   9.549  70.207  1.00  0.00    -0.242 N  
HETATM   15  O   UNL     1      -8.642   9.031  71.993  1.00  0.00    -0.367 OA 
HETATM   16  H   UNL     1     -10.019   9.931  69.261  1.00  0.00     0.000 HD 
HETATM   17  C   UNL     1      -8.799   9.331  70.821  1.00  0.00    -0.225 C  
BRANCH  17  18
HETATM   18  C   UNL     1      -7.597   9.606  69.996  1.00  0.00    -0.151 A  
HETATM   19  C   UNL     1      -6.957   8.658  69.210  1.00  0.00    -0.058 A  
HETATM   20 CL   UNL     1      -7.451   7.013  69.084  1.00  0.00    -0.092 Cl 
HETATM   21  N   UNL     1      -5.846   8.907  68.476  1.00  0.00    -0.041 NA 
HETATM   22  C   UNL     1      -5.328  10.148  68.540  1.00  0.00    -0.038 A  
HETATM   23  C   UNL     1      -5.882  11.167  69.302  1.00  0.00    -0.044 A  
HETATM   24  C   UNL     1      -7.032  10.891  70.040  1.00  0.00    -0.036 A  
ENDBRANCH  17  18
ENDBRANCH   9  14
ENDBRANCH   5   8
TORSDOF 3
ENDMDL
MODEL      109
REMARK 921   NORMALIZED FREE ENERGY PREDICTED BY IDOCK:   -4.67 KCAL/MOL
REMARK 922        TOTAL FREE ENERGY PREDICTED BY IDOCK:   -6.83 KCAL/MOL
REMARK 923 INTER-LIGAND FREE ENERGY PREDICTED BY IDOCK:   -6.93 KCAL/MOL
REMARK 924 INTRA-LIGAND FREE ENERGY PREDICTED BY IDOCK:    0.10 KCAL/MOL
REMARK 927      BINDING AFFINITY PREDICTED BY RF-SCORE:    0.00 PKD
ROOT
HETATM    1 CL   UNL     1     -13.151  13.791  72.289  1.00  0.00    -0.490 Cl 
HETATM    2  C   UNL     1     -12.597  13.075  70.828  1.00  0.00    -0.241 A  
HETATM    3  C   UNL     1     -12.488  11.695  70.728  1.00  0.00    -0.425 A  
HETATM    4  C   UNL     1     -12.009  11.117  69.544  1.00  0.00    -0.425 A  
HETATM    5  C   UNL     1     -11.580  11.899  68.449  1.00  0.00    -0.376 A  
HETATM    6  C   UNL     1     -12.237  13.878  69.755  1.00  0.00    -0.388 A  
HETATM    7  C   UNL     1     -11.709  13.296  68.595  1.00  0.00    -0.376 A  
ENDROOT
BRANCH   5   8
HETATM    8  C   UNL     1     -10.924  11.269  67.257  1.00  0.00    -0.342 A  
HETATM    9  C   UNL     1     -10.548   9.902  67.165  1.00  0.00    -0.228 A  
HETATM   10  C   UNL     1     -10.052   9.375  65.958  1.00  0.00    -0.302 A  
HETATM   11  C   UNL     1     -10.756  12.046  66.086  1.00  0.00    -0.312 A  
HETATM   12  C   UNL     1      -9.868  10.185  64.843  1.00  0.00    -0.390 A  
HETATM   13  C   UNL     1     -10.214  11.526  64.907  1.00  0.00    -0.324 A  
BRANCH   9  14
HETATM   14  N   UNL     1     -10.546   9.070  68.310  1.00  0.00    -0.359 N  
HETATM   15  O   UNL     1     -11.108   7.058  67.307  1.00  0.00    -0.318 OA 
HETATM   16  H   UNL     1     -10.384   9.508  69.217  1.00  0.00     0.000 HD 
HETATM   17  C   UNL     1     -10.749   7.698  68.282  1.00  0.00    -0.051 C  
BRANCH  17  18
HETATM   18  C   UNL     1     -10.629   6.994  69.583  1.00  0.00    -0.253 A  
HETATM   19  C   UNL     1      -9.613   6.101  69.896  1.00  0.00    -0.159 A  
HETATM   20 CL   UNL     1      -8.345   5.662  68.815  1.00  0.00    -0.103 Cl 
HETATM   21  N   UNL     1      -9.519   5.443  71.076  1.00  0.00    -0.156 NA 
HETATM   22  C   UNL     1     -10.489   5.660  71.983  1.00  0.00    -0.219 A  
HETATM   23  C   UNL     1     -11.554   6.522  71.769  1.00  0.00    -0.359 A  
HETATM   24  C   UNL     1     -11.624   7.198  70.552  1.00  0.00    -0.331 A  
ENDBRANCH  17  18
ENDBRANCH   9  14
ENDBRANCH   5   8
TORSDOF 3
ENDMDL
MODEL      110
REMARK 921   NORMALIZED FREE ENERGY PREDICTED BY IDOCK:   -4.62 KCAL/MOL
REMARK 922        TOTAL FREE ENERGY PREDICTED BY IDOCK:   -6.76 KCAL/MOL
REMARK 923 INTER-LIGAND FREE ENERGY PREDICTED BY IDOCK:   -5.48 KCAL/MOL
REMARK 924 INTRA-LIGAND FREE ENERGY PREDICTED BY IDOCK:   -1.28 KCAL/MOL
REMARK 927      BINDING AFFINITY PREDICTED BY RF-SCORE:    0.00 PKD
ROOT
HETATM    1 CL   UNL     1      -7.222  10.855  66.045  1.00  0.00    -0.111 Cl 
HETATM    2  C   UNL     1      -8.342  10.383  67.260  1.00  0.00    -0.122 A  
HETATM    3  C   UNL     1      -9.633  10.013  66.909  1.00  0.00    -0.219 A  
HETATM    4  C   UNL     1     -10.551   9.656  67.906  1.00  0.00    -0.308 A  
HETATM    5  C   UNL     1     -10.225   9.706  69.279  1.00  0.00    -0.215 A  
HETATM    6  C   UNL     1      -7.963  10.395  68.596  1.00  0.00    -0.115 A  
HETATM    7  C   UNL     1      -8.902  10.087  69.589  1.00  0.00    -0.217 A  
ENDROOT
BRANCH   5   8
HETATM    8  C   UNL     1     -11.266   9.475  70.333  1.00  0.00    -0.323 A  
HETATM    9  C   UNL     1     -11.304   8.354  71.205  1.00  0.00    -0.268 A  
HETATM   10  C   UNL     1     -12.249   8.287  72.245  1.00  0.00    -0.428 A  
HETATM   11  C   UNL     1     -12.229  10.486  70.567  1.00  0.00    -0.435 A  
HETATM   12  C   UNL     1     -13.201   9.286  72.415  1.00  0.00    -0.501 A  
HETATM   13  C   UNL     1     -13.196  10.386  71.571  1.00  0.00    -0.485 A  
BRANCH   9  14
HETATM   14  N   UNL     1     -10.479   7.227  70.976  1.00  0.00    -0.214 N  
HETATM   15  O   UNL     1     -11.539   6.364  69.105  1.00  0.00    -0.318 OA 
HETATM   16  H   UNL     1      -9.736   7.036  71.649  1.00  0.00     0.000 HD 
HETATM   17  C   UNL     1     -10.613   6.363  69.899  1.00  0.00    -0.243 C  
BRANCH  17  18
HETATM   18  C   UNL     1      -9.597   5.286  69.797  1.00  0.00    -0.230 A  
HETATM   19  C   UNL     1      -8.510   5.318  68.933  1.00  0.00    -0.091 A  
HETATM   20 CL   UNL     1      -8.184   6.606  67.837  1.00  0.00    -0.119 Cl 
HETATM   21  N   UNL     1      -7.598   4.323  68.827  1.00  0.00    -0.059 NA 
HETATM   22  C   UNL     1      -7.781   3.231  69.593  1.00  0.00    -0.043 A  
HETATM   23  C   UNL     1      -8.837   3.091  70.481  1.00  0.00    -0.149 A  
HETATM   24  C   UNL     1      -9.758   4.134  70.583  1.00  0.00    -0.273 A  
ENDBRANCH  17  18
ENDBRANCH   9  14
ENDBRANCH   5   8
TORSDOF 3
ENDMDL
MODEL      111
REMARK 921   NORMALIZED FREE ENERGY PREDICTED BY IDOCK:   -4.61 KCAL/MOL
REMARK 922        TOTAL FREE ENERGY PREDICTED BY IDOCK:   -6.76 KCAL/MOL
REMARK 923 INTER-LIGAND FREE ENERGY PREDICTED BY IDOCK:   -5.72 KCAL/MOL
REMARK 924 INTRA-LIGAND FREE ENERGY PREDICTED BY IDOCK:   -1.04 KCAL/MOL
REMARK 927      BINDING AFFINITY PREDICTED BY RF-SCORE:    0.00 PKD
ROOT
HETATM    1 CL   UNL     1      -8.927   4.131  64.585  1.00  0.00    -0.134 Cl 
HETATM    2  C   UNL     1      -9.333   5.426  65.639  1.00  0.00    -0.083 A  
HETATM    3  C   UNL     1     -10.480   5.355  66.418  1.00  0.00    -0.324 A  
HETATM    4  C   UNL     1     -10.822   6.426  67.255  1.00  0.00    -0.463 A  
HETATM    5  C   UNL     1     -10.061   7.614  67.301  1.00  0.00    -0.306 A  
HETATM    6  C   UNL     1      -8.527   6.555  65.694  1.00  0.00    -0.146 A  
HETATM    7  C   UNL     1      -8.905   7.642  66.494  1.00  0.00    -0.167 A  
ENDROOT
BRANCH   5   8
HETATM    8  C   UNL     1     -10.531   8.806  68.080  1.00  0.00    -0.243 A  
HETATM    9  C   UNL     1     -10.441   8.940  69.492  1.00  0.00    -0.226 A  
HETATM   10  C   UNL     1     -10.794  10.149  70.120  1.00  0.00    -0.368 A  
HETATM   11  C   UNL     1     -11.002   9.937  67.371  1.00  0.00    -0.214 A  
HETATM   12  C   UNL     1     -11.288  11.222  69.387  1.00  0.00    -0.360 A  
HETATM   13  C   UNL     1     -11.399  11.115  68.009  1.00  0.00    -0.380 A  
BRANCH   9  14
HETATM   14  N   UNL     1     -10.113   7.831  70.308  1.00  0.00    -0.194 N  
HETATM   15  O   UNL     1     -12.230   6.928  70.574  1.00  0.00    -0.340 OA 
HETATM   16  H   UNL     1      -9.145   7.734  70.613  1.00  0.00     0.000 HD 
HETATM   17  C   UNL     1     -11.021   6.867  70.722  1.00  0.00    -0.259 C  
BRANCH  17  18
HETATM   18  C   UNL     1     -10.462   5.740  71.509  1.00  0.00    -0.291 A  
HETATM   19  C   UNL     1     -10.133   5.817  72.856  1.00  0.00    -0.184 A  
HETATM   20 CL   UNL     1     -10.307   7.237  73.814  1.00  0.00    -0.398 Cl 
HETATM   21  N   UNL     1      -9.602   4.793  73.565  1.00  0.00    -0.131 NA 
HETATM   22  C   UNL     1      -9.363   3.643  72.907  1.00  0.00    -0.103 A  
HETATM   23  C   UNL     1      -9.644   3.462  71.561  1.00  0.00    -0.233 A  
HETATM   24  C   UNL     1     -10.201   4.527  70.853  1.00  0.00    -0.170 A  
ENDBRANCH  17  18
ENDBRANCH   9  14
ENDBRANCH   5   8
TORSDOF 3
ENDMDL
MODEL      112
REMARK 921   NORMALIZED FREE ENERGY PREDICTED BY IDOCK:   -4.61 KCAL/MOL
REMARK 922        TOTAL FREE ENERGY PREDICTED BY IDOCK:   -6.76 KCAL/MOL
REMARK 923 INTER-LIGAND FREE ENERGY PREDICTED BY IDOCK:   -5.92 KCAL/MOL
REMARK 924 INTRA-LIGAND FREE ENERGY PREDICTED BY IDOCK:   -0.84 KCAL/MOL
REMARK 927      BINDING AFFINITY PREDICTED BY RF-SCORE:    0.00 PKD
ROOT
HETATM    1 CL   UNL     1      -8.744   6.596  65.350  1.00  0.00    -0.068 Cl 
HETATM    2  C   UNL     1      -9.030   6.486  67.041  1.00  0.00    -0.120 A  
HETATM    3  C   UNL     1     -10.327   6.537  67.532  1.00  0.00    -0.252 A  
HETATM    4  C   UNL     1     -10.552   6.475  68.914  1.00  0.00    -0.280 A  
HETATM    5  C   UNL     1      -9.492   6.412  69.844  1.00  0.00    -0.163 A  
HETATM    6  C   UNL     1      -7.960   6.370  67.919  1.00  0.00    -0.111 A  
HETATM    7  C   UNL     1      -8.192   6.362  69.301  1.00  0.00    -0.115 A  
ENDROOT
BRANCH   5   8
HETATM    8  C   UNL     1      -9.748   6.507  71.319  1.00  0.00    -0.186 A  
HETATM    9  C   UNL     1     -10.304   7.638  71.974  1.00  0.00    -0.207 A  
HETATM   10  C   UNL     1     -10.623   7.587  73.344  1.00  0.00    -0.409 A  
HETATM   11  C   UNL     1      -9.530   5.361  72.120  1.00  0.00    -0.164 A  
HETATM   12  C   UNL     1     -10.356   6.452  74.102  1.00  0.00    -0.335 A  
HETATM   13  C   UNL     1      -9.803   5.337  73.491  1.00  0.00    -0.173 A  
BRANCH   9  14
HETATM   14  N   UNL     1     -10.436   8.877  71.302  1.00  0.00    -0.260 N  
HETATM   15  O   UNL     1     -12.745   8.968  71.140  1.00  0.00    -0.287 OA 
HETATM   16  H   UNL     1      -9.582   9.356  71.016  1.00  0.00     0.000 HD 
HETATM   17  C   UNL     1     -11.647   9.484  71.006  1.00  0.00    -0.344 C  
BRANCH  17  18
HETATM   18  C   UNL     1     -11.569  10.820  70.367  1.00  0.00    -0.431 A  
HETATM   19  C   UNL     1     -12.255  11.941  70.816  1.00  0.00    -0.303 A  
HETATM   20 CL   UNL     1     -13.314  11.947  72.174  1.00  0.00    -0.525 Cl 
HETATM   21  N   UNL     1     -12.199  13.154  70.216  1.00  0.00    -0.333 NA 
HETATM   22  C   UNL     1     -11.447  13.260  69.105  1.00  0.00    -0.305 A  
HETATM   23  C   UNL     1     -10.730  12.202  68.565  1.00  0.00    -0.257 A  
HETATM   24  C   UNL     1     -10.793  10.966  69.206  1.00  0.00    -0.286 A  
ENDBRANCH  17  18
ENDBRANCH   9  14
ENDBRANCH   5   8
TORSDOF 3
ENDMDL
MODEL      113
REMARK 921   NORMALIZED FREE ENERGY PREDICTED BY IDOCK:   -4.60 KCAL/MOL
REMARK 922        TOTAL FREE ENERGY PREDICTED BY IDOCK:   -6.74 KCAL/MOL
REMARK 923 INTER-LIGAND FREE ENERGY PREDICTED BY IDOCK:   -5.50 KCAL/MOL
REMARK 924 INTRA-LIGAND FREE ENERGY PREDICTED BY IDOCK:   -1.24 KCAL/MOL
REMARK 927      BINDING AFFINITY PREDICTED BY RF-SCORE:    0.00 PKD
ROOT
HETATM    1 CL   UNL     1      -9.184   3.158  66.838  1.00  0.00    -0.192 Cl 
HETATM    2  C   UNL     1      -9.737   4.458  67.817  1.00  0.00    -0.137 A  
HETATM    3  C   UNL     1      -9.504   4.445  69.185  1.00  0.00    -0.240 A  
HETATM    4  C   UNL     1      -9.981   5.493  69.983  1.00  0.00    -0.285 A  
HETATM    5  C   UNL     1     -10.745   6.554  69.450  1.00  0.00    -0.328 A  
HETATM    6  C   UNL     1     -10.438   5.509  67.243  1.00  0.00    -0.300 A  
HETATM    7  C   UNL     1     -10.957   6.526  68.056  1.00  0.00    -0.368 A  
ENDROOT
BRANCH   5   8
HETATM    8  C   UNL     1     -11.379   7.578  70.343  1.00  0.00    -0.253 A  
HETATM    9  C   UNL     1     -11.086   8.968  70.321  1.00  0.00    -0.235 A  
HETATM   10  C   UNL     1     -11.825   9.869  71.110  1.00  0.00    -0.472 A  
HETATM   11  C   UNL     1     -12.428   7.171  71.202  1.00  0.00    -0.400 A  
HETATM   12  C   UNL     1     -12.821   9.420  71.969  1.00  0.00    -0.496 A  
HETATM   13  C   UNL     1     -13.122   8.067  72.021  1.00  0.00    -0.289 A  
BRANCH   9  14
HETATM   14  N   UNL     1      -9.972   9.465  69.603  1.00  0.00    -0.185 N  
HETATM   15  O   UNL     1     -11.055  10.189  67.688  1.00  0.00    -0.301 OA 
HETATM   16  H   UNL     1      -9.047   9.343  70.017  1.00  0.00     0.000 HD 
HETATM   17  C   UNL     1     -10.052  10.107  68.377  1.00  0.00    -0.164 C  
BRANCH  17  18
HETATM   18  C   UNL     1      -8.775  10.625  67.826  1.00  0.00    -0.129 A  
HETATM   19  C   UNL     1      -7.761   9.822  67.321  1.00  0.00    -0.095 A  
HETATM   20 CL   UNL     1      -7.824   8.101  67.270  1.00  0.00    -0.104 Cl 
HETATM   21  N   UNL     1      -6.587  10.296  66.840  1.00  0.00    -0.073 NA 
HETATM   22  C   UNL     1      -6.395  11.628  66.882  1.00  0.00    -0.142 A  
HETATM   23  C   UNL     1      -7.336  12.519  67.376  1.00  0.00    -0.147 A  
HETATM   24  C   UNL     1      -8.542  12.009  67.855  1.00  0.00    -0.165 A  
ENDBRANCH  17  18
ENDBRANCH   9  14
ENDBRANCH   5   8
TORSDOF 3
ENDMDL
MODEL      114
REMARK 921   NORMALIZED FREE ENERGY PREDICTED BY IDOCK:   -4.59 KCAL/MOL
REMARK 922        TOTAL FREE ENERGY PREDICTED BY IDOCK:   -6.73 KCAL/MOL
REMARK 923 INTER-LIGAND FREE ENERGY PREDICTED BY IDOCK:   -6.15 KCAL/MOL
REMARK 924 INTRA-LIGAND FREE ENERGY PREDICTED BY IDOCK:   -0.59 KCAL/MOL
REMARK 927      BINDING AFFINITY PREDICTED BY RF-SCORE:    0.00 PKD
ROOT
HETATM    1 CL   UNL     1     -13.486  13.305  72.479  1.00  0.00    -0.669 Cl 
HETATM    2  C   UNL     1     -12.537  14.107  71.291  1.00  0.00    -0.363 A  
HETATM    3  C   UNL     1     -11.888  15.293  71.604  1.00  0.00    -0.451 A  
HETATM    4  C   UNL     1     -11.138  15.957  70.624  1.00  0.00    -0.368 A  
HETATM    5  C   UNL     1     -11.057  15.486  69.295  1.00  0.00    -0.285 A  
HETATM    6  C   UNL     1     -12.439  13.580  70.010  1.00  0.00    -0.231 A  
HETATM    7  C   UNL     1     -11.732  14.278  69.023  1.00  0.00    -0.352 A  
ENDROOT
BRANCH   5   8
HETATM    8  C   UNL     1     -10.383  16.294  68.227  1.00  0.00    -0.272 A  
HETATM    9  C   UNL     1      -9.441  15.783  67.295  1.00  0.00    -0.212 A  
HETATM   10  C   UNL     1      -8.957  16.590  66.249  1.00  0.00    -0.359 A  
HETATM   11  C   UNL     1     -10.781  17.640  68.043  1.00  0.00    -0.333 A  
HETATM   12  C   UNL     1      -9.347  17.920  66.129  1.00  0.00    -0.151 A  
HETATM   13  C   UNL     1     -10.257  18.450  67.031  1.00  0.00    -0.402 A  
BRANCH   9  14
HETATM   14  N   UNL     1      -8.873  14.498  67.466  1.00  0.00    -0.178 N  
HETATM   15  O   UNL     1     -10.080  13.343  65.860  1.00  0.00    -0.286 OA 
HETATM   16  H   UNL     1      -8.192  14.374  68.215  1.00  0.00     0.000 HD 
HETATM   17  C   UNL     1      -9.180  13.395  66.683  1.00  0.00    -0.214 C  
BRANCH  17  18
HETATM   18  C   UNL     1      -8.417  12.156  66.972  1.00  0.00    -0.183 A  
HETATM   19  C   UNL     1      -8.965  10.880  66.956  1.00  0.00    -0.143 A  
HETATM   20 CL   UNL     1     -10.618  10.542  66.613  1.00  0.00    -0.287 Cl 
HETATM   21  N   UNL     1      -8.270   9.753  67.242  1.00  0.00    -0.117 NA 
HETATM   22  C   UNL     1      -6.976   9.895  67.585  1.00  0.00    -0.086 A  
HETATM   23  C   UNL     1      -6.333  11.123  67.643  1.00  0.00    -0.054 A  
HETATM   24  C   UNL     1      -7.064  12.268  67.332  1.00  0.00    -0.151 A  
ENDBRANCH  17  18
ENDBRANCH   9  14
ENDBRANCH   5   8
TORSDOF 3
ENDMDL
MODEL      115
REMARK 921   NORMALIZED FREE ENERGY PREDICTED BY IDOCK:   -4.58 KCAL/MOL
REMARK 922        TOTAL FREE ENERGY PREDICTED BY IDOCK:   -6.71 KCAL/MOL
REMARK 923 INTER-LIGAND FREE ENERGY PREDICTED BY IDOCK:   -6.09 KCAL/MOL
REMARK 924 INTRA-LIGAND FREE ENERGY PREDICTED BY IDOCK:   -0.62 KCAL/MOL
REMARK 927      BINDING AFFINITY PREDICTED BY RF-SCORE:    0.00 PKD
ROOT
HETATM    1 CL   UNL     1      -5.200  13.118  70.702  1.00  0.00    -0.121 Cl 
HETATM    2  C   UNL     1      -6.406  13.487  69.534  1.00  0.00    -0.108 A  
HETATM    3  C   UNL     1      -7.211  14.606  69.696  1.00  0.00    -0.098 A  
HETATM    4  C   UNL     1      -8.211  14.887  68.755  1.00  0.00    -0.161 A  
HETATM    5  C   UNL     1      -8.469  14.036  67.658  1.00  0.00    -0.193 A  
HETATM    6  C   UNL     1      -6.591  12.652  68.441  1.00  0.00    -0.081 A  
HETATM    7  C   UNL     1      -7.627  12.911  67.534  1.00  0.00    -0.164 A  
ENDROOT
BRANCH   5   8
HETATM    8  C   UNL     1      -9.644  14.268  66.756  1.00  0.00    -0.290 A  
HETATM    9  C   UNL     1      -9.916  15.485  66.075  1.00  0.00    -0.330 A  
HETATM   10  C   UNL     1     -10.974  15.567  65.151  1.00  0.00    -0.422 A  
HETATM   11  C   UNL     1     -10.498  13.179  66.461  1.00  0.00    -0.283 A  
HETATM   12  C   UNL     1     -11.812  14.482  64.920  1.00  0.00    -0.417 A  
HETATM   13  C   UNL     1     -11.578  13.285  65.580  1.00  0.00    -0.363 A  
BRANCH   9  14
HETATM   14  N   UNL     1      -9.213  16.671  66.395  1.00  0.00    -0.269 N  
HETATM   15  O   UNL     1     -10.518  17.410  68.161  1.00  0.00    -0.355 OA 
HETATM   16  H   UNL     1      -8.426  16.932  65.801  1.00  0.00     0.000 HD 
HETATM   17  C   UNL     1      -9.521  17.501  67.462  1.00  0.00    -0.255 C  
BRANCH  17  18
HETATM   18  C   UNL     1      -8.613  18.655  67.676  1.00  0.00    -0.288 A  
HETATM   19  C   UNL     1      -8.710  19.860  66.993  1.00  0.00    -0.334 A  
HETATM   20 CL   UNL     1      -9.889  20.195  65.784  1.00  0.00    -0.408 Cl 
HETATM   21  N   UNL     1      -7.865  20.903  67.175  1.00  0.00    -0.246 NA 
HETATM   22  C   UNL     1      -6.861  20.739  68.056  1.00  0.00    -0.234 A  
HETATM   23  C   UNL     1      -6.666  19.574  68.782  1.00  0.00    -0.342 A  
HETATM   24  C   UNL     1      -7.555  18.517  68.588  1.00  0.00    -0.330 A  
ENDBRANCH  17  18
ENDBRANCH   9  14
ENDBRANCH   5   8
TORSDOF 3
ENDMDL
MODEL      116
REMARK 921   NORMALIZED FREE ENERGY PREDICTED BY IDOCK:   -4.57 KCAL/MOL
REMARK 922        TOTAL FREE ENERGY PREDICTED BY IDOCK:   -6.71 KCAL/MOL
REMARK 923 INTER-LIGAND FREE ENERGY PREDICTED BY IDOCK:   -5.35 KCAL/MOL
REMARK 924 INTRA-LIGAND FREE ENERGY PREDICTED BY IDOCK:   -1.36 KCAL/MOL
REMARK 927      BINDING AFFINITY PREDICTED BY RF-SCORE:    0.00 PKD
ROOT
HETATM    1 CL   UNL     1     -11.018  19.879  65.331  1.00  0.00    -0.265 Cl 
HETATM    2  C   UNL     1      -9.911  19.229  66.475  1.00  0.00    -0.392 A  
HETATM    3  C   UNL     1      -8.609  18.939  66.094  1.00  0.00    -0.185 A  
HETATM    4  C   UNL     1      -7.718  18.383  67.023  1.00  0.00    -0.234 A  
HETATM    5  C   UNL     1      -8.114  18.055  68.337  1.00  0.00    -0.304 A  
HETATM    6  C   UNL     1     -10.328  18.971  67.774  1.00  0.00    -0.498 A  
HETATM    7  C   UNL     1      -9.447  18.367  68.680  1.00  0.00    -0.356 A  
ENDROOT
BRANCH   5   8
HETATM    8  C   UNL     1      -7.194  17.316  69.263  1.00  0.00    -0.118 A  
HETATM    9  C   UNL     1      -7.187  15.908  69.446  1.00  0.00    -0.214 A  
HETATM   10  C   UNL     1      -6.202  15.294  70.242  1.00  0.00    -0.090 A  
HETATM   11  C   UNL     1      -6.178  18.042  69.930  1.00  0.00    -0.105 A  
HETATM   12  C   UNL     1      -5.245  16.050  70.910  1.00  0.00    -0.142 A  
HETATM   13  C   UNL     1      -5.235  17.429  70.760  1.00  0.00    -0.254 A  
BRANCH   9  14
HETATM   14  N   UNL     1      -8.235  15.103  68.938  1.00  0.00    -0.168 N  
HETATM   15  O   UNL     1      -7.313  14.544  66.888  1.00  0.00     0.034 OA 
HETATM   16  H   UNL     1      -9.084  15.019  69.497  1.00  0.00     0.000 HD 
HETATM   17  C   UNL     1      -8.184  14.420  67.732  1.00  0.00    -0.168 C  
BRANCH  17  18
HETATM   18  C   UNL     1      -9.356  13.565  67.417  1.00  0.00    -0.228 A  
HETATM   19  C   UNL     1     -10.543  14.039  66.873  1.00  0.00    -0.280 A  
HETATM   20 CL   UNL     1     -10.842  15.693  66.497  1.00  0.00    -0.295 Cl 
HETATM   21  N   UNL     1     -11.617  13.260  66.607  1.00  0.00    -0.347 NA 
HETATM   22  C   UNL     1     -11.525  11.953  66.914  1.00  0.00    -0.322 A  
HETATM   23  C   UNL     1     -10.392  11.378  67.470  1.00  0.00    -0.224 A  
HETATM   24  C   UNL     1      -9.292  12.197  67.724  1.00  0.00    -0.193 A  
ENDBRANCH  17  18
ENDBRANCH   9  14
ENDBRANCH   5   8
TORSDOF 3
ENDMDL
MODEL      117
REMARK 921   NORMALIZED FREE ENERGY PREDICTED BY IDOCK:   -4.57 KCAL/MOL
REMARK 922        TOTAL FREE ENERGY PREDICTED BY IDOCK:   -6.71 KCAL/MOL
REMARK 923 INTER-LIGAND FREE ENERGY PREDICTED BY IDOCK:   -6.16 KCAL/MOL
REMARK 924 INTRA-LIGAND FREE ENERGY PREDICTED BY IDOCK:   -0.55 KCAL/MOL
REMARK 927      BINDING AFFINITY PREDICTED BY RF-SCORE:    0.00 PKD
ROOT
HETATM    1 CL   UNL     1     -12.449  14.152  72.283  1.00  0.00    -0.287 Cl 
HETATM    2  C   UNL     1     -12.272  13.755  70.620  1.00  0.00    -0.363 A  
HETATM    3  C   UNL     1     -12.325  12.429  70.213  1.00  0.00    -0.264 A  
HETATM    4  C   UNL     1     -12.152  12.108  68.859  1.00  0.00    -0.187 A  
HETATM    5  C   UNL     1     -11.872  13.091  67.885  1.00  0.00    -0.389 A  
HETATM    6  C   UNL     1     -12.051  14.758  69.687  1.00  0.00    -0.346 A  
HETATM    7  C   UNL     1     -11.827  14.424  68.345  1.00  0.00    -0.354 A  
ENDROOT
BRANCH   5   8
HETATM    8  C   UNL     1     -11.533  12.711  66.475  1.00  0.00    -0.409 A  
HETATM    9  C   UNL     1     -10.374  11.990  66.085  1.00  0.00    -0.224 A  
HETATM   10  C   UNL     1     -10.205  11.571  64.752  1.00  0.00    -0.331 A  
HETATM   11  C   UNL     1     -12.476  12.985  65.454  1.00  0.00    -0.531 A  
HETATM   12  C   UNL     1     -11.139  11.895  63.774  1.00  0.00    -0.510 A  
HETATM   13  C   UNL     1     -12.275  12.608  64.123  1.00  0.00    -0.532 A  
BRANCH   9  14
HETATM   14  N   UNL     1      -9.307  11.782  66.992  1.00  0.00    -0.180 N  
HETATM   15  O   UNL     1      -8.406  13.917  67.001  1.00  0.00    -0.178 OA 
HETATM   16  H   UNL     1      -9.156  10.835  67.340  1.00  0.00     0.000 HD 
HETATM   17  C   UNL     1      -8.453  12.779  67.440  1.00  0.00    -0.191 C  
BRANCH  17  18
HETATM   18  C   UNL     1      -7.448  12.372  68.452  1.00  0.00    -0.123 A  
HETATM   19  C   UNL     1      -7.574  11.259  69.274  1.00  0.00    -0.019 A  
HETATM   20 CL   UNL     1      -8.926  10.192  69.255  1.00  0.00    -0.179 Cl 
HETATM   21  N   UNL     1      -6.665  10.903  70.211  1.00  0.00    -0.258 NA 
HETATM   22  C   UNL     1      -5.588  11.697  70.362  1.00  0.00    -0.149 A  
HETATM   23  C   UNL     1      -5.369  12.836  69.602  1.00  0.00    -0.079 A  
HETATM   24  C   UNL     1      -6.312  13.177  68.634  1.00  0.00    -0.083 A  
ENDBRANCH  17  18
ENDBRANCH   9  14
ENDBRANCH   5   8
TORSDOF 3
ENDMDL
MODEL      118
REMARK 921   NORMALIZED FREE ENERGY PREDICTED BY IDOCK:   -4.56 KCAL/MOL
REMARK 922        TOTAL FREE ENERGY PREDICTED BY IDOCK:   -6.69 KCAL/MOL
REMARK 923 INTER-LIGAND FREE ENERGY PREDICTED BY IDOCK:   -5.89 KCAL/MOL
REMARK 924 INTRA-LIGAND FREE ENERGY PREDICTED BY IDOCK:   -0.81 KCAL/MOL
REMARK 927      BINDING AFFINITY PREDICTED BY RF-SCORE:    0.00 PKD
ROOT
HETATM    1 CL   UNL     1     -10.487   6.742  74.160  1.00  0.00    -0.338 Cl 
HETATM    2  C   UNL     1     -10.598   7.841  72.843  1.00  0.00    -0.366 A  
HETATM    3  C   UNL     1     -11.842   8.219  72.357  1.00  0.00    -0.461 A  
HETATM    4  C   UNL     1     -11.927   9.094  71.265  1.00  0.00    -0.394 A  
HETATM    5  C   UNL     1     -10.779   9.576  70.599  1.00  0.00    -0.375 A  
HETATM    6  C   UNL     1      -9.443   8.334  72.251  1.00  0.00    -0.341 A  
HETATM    7  C   UNL     1      -9.537   9.166  71.128  1.00  0.00    -0.347 A  
ENDROOT
BRANCH   5   8
HETATM    8  C   UNL     1     -10.894  10.380  69.339  1.00  0.00    -0.287 A  
HETATM    9  C   UNL     1     -10.421   9.966  68.066  1.00  0.00    -0.222 A  
HETATM   10  C   UNL     1     -10.687  10.736  66.918  1.00  0.00    -0.309 A  
HETATM   11  C   UNL     1     -11.619  11.596  69.375  1.00  0.00    -0.392 A  
HETATM   12  C   UNL     1     -11.371  11.943  67.005  1.00  0.00    -0.392 A  
HETATM   13  C   UNL     1     -11.834  12.379  68.237  1.00  0.00    -0.364 A  
BRANCH   9  14
HETATM   14  N   UNL     1      -9.571   8.842  67.936  1.00  0.00    -0.142 N  
HETATM   15  O   UNL     1     -11.096   7.321  67.081  1.00  0.00    -0.295 OA 
HETATM   16  H   UNL     1      -8.612   8.929  68.272  1.00  0.00     0.000 HD 
HETATM   17  C   UNL     1      -9.954   7.629  67.381  1.00  0.00    -0.192 C  
BRANCH  17  18
HETATM   18  C   UNL     1      -8.891   6.601  67.263  1.00  0.00    -0.116 A  
HETATM   19  C   UNL     1      -8.031   6.488  66.179  1.00  0.00    -0.110 A  
HETATM   20 CL   UNL     1      -8.077   7.516  64.798  1.00  0.00    -0.132 Cl 
HETATM   21  N   UNL     1      -7.077   5.535  66.065  1.00  0.00    -0.066 NA 
HETATM   22  C   UNL     1      -6.982   4.632  67.059  1.00  0.00    -0.057 A  
HETATM   23  C   UNL     1      -7.798   4.646  68.181  1.00  0.00    -0.081 A  
HETATM   24  C   UNL     1      -8.765   5.645  68.284  1.00  0.00    -0.106 A  
ENDBRANCH  17  18
ENDBRANCH   9  14
ENDBRANCH   5   8
TORSDOF 3
ENDMDL
MODEL      119
REMARK 921   NORMALIZED FREE ENERGY PREDICTED BY IDOCK:   -4.50 KCAL/MOL
REMARK 922        TOTAL FREE ENERGY PREDICTED BY IDOCK:   -6.63 KCAL/MOL
REMARK 923 INTER-LIGAND FREE ENERGY PREDICTED BY IDOCK:   -5.78 KCAL/MOL
REMARK 924 INTRA-LIGAND FREE ENERGY PREDICTED BY IDOCK:   -0.84 KCAL/MOL
REMARK 927      BINDING AFFINITY PREDICTED BY RF-SCORE:    0.00 PKD
ROOT
HETATM    1 CL   UNL     1     -11.834  15.425  71.205  1.00  0.00    -0.372 Cl 
HETATM    2  C   UNL     1     -12.177  13.741  71.239  1.00  0.00    -0.227 A  
HETATM    3  C   UNL     1     -12.927  13.206  72.277  1.00  0.00    -0.354 A  
HETATM    4  C   UNL     1     -13.180  11.828  72.314  1.00  0.00    -0.146 A  
HETATM    5  C   UNL     1     -12.652  10.941  71.351  1.00  0.00    -0.508 A  
HETATM    6  C   UNL     1     -11.683  12.912  70.241  1.00  0.00    -0.187 A  
HETATM    7  C   UNL     1     -11.896  11.529  70.316  1.00  0.00    -0.431 A  
ENDROOT
BRANCH   5   8
HETATM    8  C   UNL     1     -12.801   9.457  71.499  1.00  0.00    -0.442 A  
HETATM    9  C   UNL     1     -11.741   8.561  71.803  1.00  0.00    -0.327 A  
HETATM   10  C   UNL     1     -12.002   7.199  72.046  1.00  0.00    -0.332 A  
HETATM   11  C   UNL     1     -14.100   8.897  71.444  1.00  0.00    -0.278 A  
HETATM   12  C   UNL     1     -13.289   6.685  71.943  1.00  0.00    -0.052 A  
HETATM   13  C   UNL     1     -14.342   7.534  71.636  1.00  0.00    -0.621 A  
BRANCH   9  14
HETATM   14  N   UNL     1     -10.392   8.985  71.750  1.00  0.00    -0.352 N  
HETATM   15  O   UNL     1      -9.729   7.873  69.828  1.00  0.00    -0.174 OA 
HETATM   16  H   UNL     1     -10.043   9.561  72.516  1.00  0.00     0.000 HD 
HETATM   17  C   UNL     1      -9.512   8.672  70.724  1.00  0.00    -0.190 C  
BRANCH  17  18
HETATM   18  C   UNL     1      -8.162   9.281  70.815  1.00  0.00    -0.210 A  
HETATM   19  C   UNL     1      -7.193   8.899  71.734  1.00  0.00     0.010 A  
HETATM   20 CL   UNL     1      -7.418   7.671  72.920  1.00  0.00    -0.104 Cl 
HETATM   21  N   UNL     1      -5.970   9.472  71.828  1.00  0.00    -0.243 NA 
HETATM   22  C   UNL     1      -5.697  10.489  70.989  1.00  0.00    -0.041 A  
HETATM   23  C   UNL     1      -6.595  10.957  70.041  1.00  0.00    -0.151 A  
HETATM   24  C   UNL     1      -7.845  10.343  69.954  1.00  0.00    -0.050 A  
ENDBRANCH  17  18
ENDBRANCH   9  14
ENDBRANCH   5   8
TORSDOF 3
ENDMDL
MODEL      120
REMARK 921   NORMALIZED FREE ENERGY PREDICTED BY IDOCK:   -4.49 KCAL/MOL
REMARK 922        TOTAL FREE ENERGY PREDICTED BY IDOCK:   -6.61 KCAL/MOL
REMARK 923 INTER-LIGAND FREE ENERGY PREDICTED BY IDOCK:   -5.51 KCAL/MOL
REMARK 924 INTRA-LIGAND FREE ENERGY PREDICTED BY IDOCK:   -1.09 KCAL/MOL
REMARK 927      BINDING AFFINITY PREDICTED BY RF-SCORE:    0.00 PKD
ROOT
HETATM    1 CL   UNL     1      -7.996  20.291  65.784  1.00  0.00    -0.156 Cl 
HETATM    2  C   UNL     1      -7.547  18.872  66.643  1.00  0.00    -0.240 A  
HETATM    3  C   UNL     1      -6.761  17.907  66.029  1.00  0.00    -0.330 A  
HETATM    4  C   UNL     1      -6.421  16.739  66.724  1.00  0.00    -0.226 A  
HETATM    5  C   UNL     1      -6.895  16.477  68.028  1.00  0.00    -0.149 A  
HETATM    6  C   UNL     1      -7.992  18.679  67.944  1.00  0.00    -0.278 A  
HETATM    7  C   UNL     1      -7.691  17.485  68.612  1.00  0.00    -0.275 A  
ENDROOT
BRANCH   5   8
HETATM    8  C   UNL     1      -6.652  15.154  68.691  1.00  0.00    -0.090 A  
HETATM    9  C   UNL     1      -7.264  13.931  68.309  1.00  0.00    -0.112 A  
HETATM   10  C   UNL     1      -6.877  12.718  68.910  1.00  0.00    -0.096 A  
HETATM   11  C   UNL     1      -5.664  15.074  69.701  1.00  0.00    -0.105 A  
HETATM   12  C   UNL     1      -5.928  12.691  69.926  1.00  0.00    -0.141 A  
HETATM   13  C   UNL     1      -5.323  13.872  70.328  1.00  0.00    -0.108 A  
BRANCH   9  14
HETATM   14  N   UNL     1      -8.356  13.913  67.409  1.00  0.00    -0.189 N  
HETATM   15  O   UNL     1     -10.031  14.621  68.845  1.00  0.00    -0.232 OA 
HETATM   16  H   UNL     1      -8.189  13.568  66.464  1.00  0.00     0.000 HD 
HETATM   17  C   UNL     1      -9.639  14.334  67.726  1.00  0.00    -0.221 C  
BRANCH  17  18
HETATM   18  C   UNL     1     -10.626  14.311  66.617  1.00  0.00    -0.278 A  
HETATM   19  C   UNL     1     -11.617  13.348  66.475  1.00  0.00    -0.357 A  
HETATM   20 CL   UNL     1     -11.843  12.026  67.555  1.00  0.00    -0.348 Cl 
HETATM   21  N   UNL     1     -12.502  13.318  65.451  1.00  0.00    -0.479 NA 
HETATM   22  C   UNL     1     -12.387  14.270  64.506  1.00  0.00    -0.410 A  
HETATM   23  C   UNL     1     -11.427  15.271  64.545  1.00  0.00    -0.318 A  
HETATM   24  C   UNL     1     -10.535  15.290  65.616  1.00  0.00    -0.377 A  
ENDBRANCH  17  18
ENDBRANCH   9  14
ENDBRANCH   5   8
TORSDOF 3
ENDMDL
MODEL      121
REMARK 921   NORMALIZED FREE ENERGY PREDICTED BY IDOCK:   -4.47 KCAL/MOL
REMARK 922        TOTAL FREE ENERGY PREDICTED BY IDOCK:   -6.58 KCAL/MOL
REMARK 923 INTER-LIGAND FREE ENERGY PREDICTED BY IDOCK:   -6.29 KCAL/MOL
REMARK 924 INTRA-LIGAND FREE ENERGY PREDICTED BY IDOCK:   -0.29 KCAL/MOL
REMARK 927      BINDING AFFINITY PREDICTED BY RF-SCORE:    0.00 PKD
ROOT
HETATM    1 CL   UNL     1     -11.681   6.476  70.581  1.00  0.00    -0.449 Cl 
HETATM    2  C   UNL     1     -10.885   6.969  69.140  1.00  0.00    -0.195 A  
HETATM    3  C   UNL     1     -11.286   6.455  67.914  1.00  0.00    -0.262 A  
HETATM    4  C   UNL     1     -10.615   6.839  66.745  1.00  0.00    -0.311 A  
HETATM    5  C   UNL     1      -9.499   7.703  66.770  1.00  0.00    -0.244 A  
HETATM    6  C   UNL     1      -9.826   7.863  69.204  1.00  0.00    -0.174 A  
HETATM    7  C   UNL     1      -9.127   8.200  68.037  1.00  0.00    -0.134 A  
ENDROOT
BRANCH   5   8
HETATM    8  C   UNL     1      -8.700   7.973  65.531  1.00  0.00    -0.134 A  
HETATM    9  C   UNL     1      -8.543   9.249  64.928  1.00  0.00    -0.181 A  
HETATM   10  C   UNL     1      -7.671   9.425  63.837  1.00  0.00    -0.121 A  
HETATM   11  C   UNL     1      -7.948   6.915  64.965  1.00  0.00    -0.125 A  
HETATM   12  C   UNL     1      -6.982   8.349  63.289  1.00  0.00    -0.089 A  
HETATM   13  C   UNL     1      -7.124   7.089  63.849  1.00  0.00    -0.061 A  
BRANCH   9  14
HETATM   14  N   UNL     1      -9.347  10.345  65.325  1.00  0.00    -0.196 N  
HETATM   15  O   UNL     1      -9.965  11.129  63.234  1.00  0.00    -0.320 OA 
HETATM   16  H   UNL     1      -9.408  10.554  66.321  1.00  0.00     0.000 HD 
HETATM   17  C   UNL     1     -10.059  11.153  64.450  1.00  0.00    -0.320 C  
BRANCH  17  18
HETATM   18  C   UNL     1     -10.906  12.200  65.072  1.00  0.00    -0.344 A  
HETATM   19  C   UNL     1     -12.159  12.571  64.602  1.00  0.00    -0.428 A  
HETATM   20 CL   UNL     1     -12.914  11.883  63.215  1.00  0.00    -0.436 Cl 
HETATM   21  N   UNL     1     -12.920  13.543  65.159  1.00  0.00    -0.734 NA 
HETATM   22  C   UNL     1     -12.409  14.198  66.219  1.00  0.00    -0.422 A  
HETATM   23  C   UNL     1     -11.164  13.915  66.762  1.00  0.00    -0.328 A  
HETATM   24  C   UNL     1     -10.403  12.902  66.180  1.00  0.00    -0.286 A  
ENDBRANCH  17  18
ENDBRANCH   9  14
ENDBRANCH   5   8
TORSDOF 3
ENDMDL
MODEL      122
REMARK 921   NORMALIZED FREE ENERGY PREDICTED BY IDOCK:   -4.43 KCAL/MOL
REMARK 922        TOTAL FREE ENERGY PREDICTED BY IDOCK:   -6.54 KCAL/MOL
REMARK 923 INTER-LIGAND FREE ENERGY PREDICTED BY IDOCK:   -5.75 KCAL/MOL
REMARK 924 INTRA-LIGAND FREE ENERGY PREDICTED BY IDOCK:   -0.79 KCAL/MOL
REMARK 927      BINDING AFFINITY PREDICTED BY RF-SCORE:    0.00 PKD
ROOT
HETATM    1 CL   UNL     1     -11.546   6.465  69.661  1.00  0.00    -0.448 Cl 
HETATM    2  C   UNL     1     -10.491   7.804  69.440  1.00  0.00    -0.220 A  
HETATM    3  C   UNL     1      -9.406   7.699  68.581  1.00  0.00    -0.147 A  
HETATM    4  C   UNL     1      -8.532   8.784  68.426  1.00  0.00    -0.130 A  
HETATM    5  C   UNL     1      -8.686   9.981  69.157  1.00  0.00    -0.168 A  
HETATM    6  C   UNL     1     -10.710   8.983  70.139  1.00  0.00    -0.258 A  
HETATM    7  C   UNL     1      -9.802  10.043  70.018  1.00  0.00    -0.247 A  
ENDROOT
BRANCH   5   8
HETATM    8  C   UNL     1      -7.653  11.066  69.096  1.00  0.00    -0.113 A  
HETATM    9  C   UNL     1      -7.805  12.292  68.395  1.00  0.00    -0.151 A  
HETATM   10  C   UNL     1      -6.830  13.302  68.498  1.00  0.00    -0.099 A  
HETATM   11  C   UNL     1      -6.479  10.929  69.873  1.00  0.00    -0.144 A  
HETATM   12  C   UNL     1      -5.673  13.109  69.244  1.00  0.00    -0.084 A  
HETATM   13  C   UNL     1      -5.492  11.917  69.930  1.00  0.00    -0.096 A  
BRANCH   9  14
HETATM   14  N   UNL     1      -8.870  12.482  67.482  1.00  0.00    -0.174 N  
HETATM   15  O   UNL     1      -8.181  11.043  65.802  1.00  0.00    -0.147 OA 
HETATM   16  H   UNL     1      -9.579  13.178  67.716  1.00  0.00     0.000 HD 
HETATM   17  C   UNL     1      -9.017  11.785  66.292  1.00  0.00    -0.176 C  
BRANCH  17  18
HETATM   18  C   UNL     1     -10.246  12.074  65.513  1.00  0.00    -0.290 A  
HETATM   19  C   UNL     1     -11.507  12.229  66.075  1.00  0.00    -0.381 A  
HETATM   20 CL   UNL     1     -11.838  12.093  67.760  1.00  0.00    -0.385 Cl 
HETATM   21  N   UNL     1     -12.630  12.471  65.359  1.00  0.00    -0.615 NA 
HETATM   22  C   UNL     1     -12.508  12.540  64.020  1.00  0.00    -0.435 A  
HETATM   23  C   UNL     1     -11.299  12.389  63.357  1.00  0.00    -0.507 A  
HETATM   24  C   UNL     1     -10.153  12.153  64.115  1.00  0.00    -0.335 A  
ENDBRANCH  17  18
ENDBRANCH   9  14
ENDBRANCH   5   8
TORSDOF 3
ENDMDL
MODEL      123
REMARK 921   NORMALIZED FREE ENERGY PREDICTED BY IDOCK:   -4.43 KCAL/MOL
REMARK 922        TOTAL FREE ENERGY PREDICTED BY IDOCK:   -6.54 KCAL/MOL
REMARK 923 INTER-LIGAND FREE ENERGY PREDICTED BY IDOCK:   -5.23 KCAL/MOL
REMARK 924 INTRA-LIGAND FREE ENERGY PREDICTED BY IDOCK:   -1.31 KCAL/MOL
REMARK 927      BINDING AFFINITY PREDICTED BY RF-SCORE:    0.00 PKD
ROOT
HETATM    1 CL   UNL     1      -9.479  12.376  67.975  1.00  0.00    -0.202 Cl 
HETATM    2  C   UNL     1      -9.421  10.663  67.845  1.00  0.00    -0.159 A  
HETATM    3  C   UNL     1      -8.221   9.992  68.034  1.00  0.00    -0.116 A  
HETATM    4  C   UNL     1      -8.173   8.598  67.899  1.00  0.00    -0.115 A  
HETATM    5  C   UNL     1      -9.304   7.842  67.523  1.00  0.00    -0.161 A  
HETATM    6  C   UNL     1     -10.570   9.953  67.526  1.00  0.00    -0.333 A  
HETATM    7  C   UNL     1     -10.501   8.565  67.341  1.00  0.00    -0.351 A  
ENDROOT
BRANCH   5   8
HETATM    8  C   UNL     1      -9.194   6.376  67.229  1.00  0.00    -0.122 A  
HETATM    9  C   UNL     1      -9.363   5.341  68.187  1.00  0.00    -0.118 A  
HETATM   10  C   UNL     1      -9.365   3.990  67.790  1.00  0.00    -0.221 A  
HETATM   11  C   UNL     1      -9.017   5.965  65.886  1.00  0.00    -0.149 A  
HETATM   12  C   UNL     1      -9.149   3.632  66.464  1.00  0.00    -0.168 A  
HETATM   13  C   UNL     1      -8.969   4.620  65.509  1.00  0.00    -0.142 A  
BRANCH   9  14
HETATM   14  N   UNL     1      -9.411   5.631  69.571  1.00  0.00    -0.132 N  
HETATM   15  O   UNL     1     -11.630   6.277  69.738  1.00  0.00    -0.436 OA 
HETATM   16  H   UNL     1      -8.543   5.564  70.102  1.00  0.00     0.000 HD 
HETATM   17  C   UNL     1     -10.559   6.002  70.255  1.00  0.00    -0.273 C  
BRANCH  17  18
HETATM   18  C   UNL     1     -10.416   6.186  71.720  1.00  0.00    -0.259 A  
HETATM   19  C   UNL     1     -10.053   7.383  72.324  1.00  0.00    -0.196 A  
HETATM   20 CL   UNL     1      -9.701   8.833  71.463  1.00  0.00    -0.334 Cl 
HETATM   21  N   UNL     1      -9.902   7.542  73.661  1.00  0.00    -0.307 NA 
HETATM   22  C   UNL     1     -10.093   6.459  74.437  1.00  0.00    -0.348 A  
HETATM   23  C   UNL     1     -10.446   5.215  73.937  1.00  0.00    -0.316 A  
HETATM   24  C   UNL     1     -10.609   5.078  72.559  1.00  0.00    -0.277 A  
ENDBRANCH  17  18
ENDBRANCH   9  14
ENDBRANCH   5   8
TORSDOF 3
ENDMDL
MODEL      124
REMARK 921   NORMALIZED FREE ENERGY PREDICTED BY IDOCK:   -4.43 KCAL/MOL
REMARK 922        TOTAL FREE ENERGY PREDICTED BY IDOCK:   -6.54 KCAL/MOL
REMARK 923 INTER-LIGAND FREE ENERGY PREDICTED BY IDOCK:   -5.31 KCAL/MOL
REMARK 924 INTRA-LIGAND FREE ENERGY PREDICTED BY IDOCK:   -1.23 KCAL/MOL
REMARK 927      BINDING AFFINITY PREDICTED BY RF-SCORE:    0.00 PKD
ROOT
HETATM    1 CL   UNL     1     -10.078   4.221  67.279  1.00  0.00    -0.130 Cl 
HETATM    2  C   UNL     1      -9.429   5.813  67.250  1.00  0.00    -0.114 A  
HETATM    3  C   UNL     1      -8.176   6.062  67.791  1.00  0.00    -0.112 A  
HETATM    4  C   UNL     1      -7.664   7.367  67.790  1.00  0.00    -0.112 A  
HETATM    5  C   UNL     1      -8.404   8.463  67.297  1.00  0.00    -0.123 A  
HETATM    6  C   UNL     1     -10.170   6.854  66.706  1.00  0.00    -0.276 A  
HETATM    7  C   UNL     1      -9.672   8.162  66.757  1.00  0.00    -0.303 A  
ENDROOT
BRANCH   5   8
HETATM    8  C   UNL     1      -7.905   9.869  67.451  1.00  0.00    -0.098 A  
HETATM    9  C   UNL     1      -8.196  10.718  68.552  1.00  0.00    -0.136 A  
HETATM   10  C   UNL     1      -7.579  11.977  68.668  1.00  0.00    -0.112 A  
HETATM   11  C   UNL     1      -6.986  10.369  66.497  1.00  0.00    -0.112 A  
HETATM   12  C   UNL     1      -6.712  12.445  67.687  1.00  0.00    -0.132 A  
HETATM   13  C   UNL     1      -6.418  11.642  66.595  1.00  0.00    -0.054 A  
BRANCH   9  14
HETATM   14  N   UNL     1      -9.200  10.375  69.489  1.00  0.00    -0.373 N  
HETATM   15  O   UNL     1     -11.061  11.131  68.333  1.00  0.00    -0.207 OA 
HETATM   16  H   UNL     1      -8.903   9.983  70.383  1.00  0.00     0.000 HD 
HETATM   17  C   UNL     1     -10.561  10.537  69.274  1.00  0.00    -0.236 C  
BRANCH  17  18
HETATM   18  C   UNL     1     -11.454  10.042  70.351  1.00  0.00    -0.389 A  
HETATM   19  C   UNL     1     -11.455   8.737  70.826  1.00  0.00    -0.270 A  
HETATM   20 CL   UNL     1     -10.429   7.490  70.227  1.00  0.00    -0.219 Cl 
HETATM   21  N   UNL     1     -12.287   8.283  71.793  1.00  0.00    -0.312 NA 
HETATM   22  C   UNL     1     -13.180   9.154  72.299  1.00  0.00    -0.461 A  
HETATM   23  C   UNL     1     -13.272  10.476  71.889  1.00  0.00    -0.526 A  
HETATM   24  C   UNL     1     -12.397  10.925  70.901  1.00  0.00    -0.501 A  
ENDBRANCH  17  18
ENDBRANCH   9  14
ENDBRANCH   5   8
TORSDOF 3
ENDMDL
MODEL      125
REMARK 921   NORMALIZED FREE ENERGY PREDICTED BY IDOCK:   -4.42 KCAL/MOL
REMARK 922        TOTAL FREE ENERGY PREDICTED BY IDOCK:   -6.53 KCAL/MOL
REMARK 923 INTER-LIGAND FREE ENERGY PREDICTED BY IDOCK:   -5.37 KCAL/MOL
REMARK 924 INTRA-LIGAND FREE ENERGY PREDICTED BY IDOCK:   -1.16 KCAL/MOL
REMARK 927      BINDING AFFINITY PREDICTED BY RF-SCORE:    0.00 PKD
ROOT
HETATM    1 CL   UNL     1      -7.390   8.411  66.006  1.00  0.00    -0.072 Cl 
HETATM    2  C   UNL     1      -8.526   9.233  67.001  1.00  0.00    -0.124 A  
HETATM    3  C   UNL     1      -8.084  10.013  68.060  1.00  0.00    -0.112 A  
HETATM    4  C   UNL     1      -9.016  10.659  68.885  1.00  0.00    -0.172 A  
HETATM    5  C   UNL     1     -10.408  10.504  68.709  1.00  0.00    -0.208 A  
HETATM    6  C   UNL     1      -9.886   9.096  66.760  1.00  0.00    -0.291 A  
HETATM    7  C   UNL     1     -10.810   9.702  67.621  1.00  0.00    -0.276 A  
ENDROOT
BRANCH   5   8
HETATM    8  C   UNL     1     -11.382  11.072  69.697  1.00  0.00    -0.363 A  
HETATM    9  C   UNL     1     -11.880  10.383  70.835  1.00  0.00    -0.377 A  
HETATM   10  C   UNL     1     -12.695  11.043  71.773  1.00  0.00    -0.408 A  
HETATM   11  C   UNL     1     -11.763  12.430  69.569  1.00  0.00    -0.388 A  
HETATM   12  C   UNL     1     -13.075  12.367  71.587  1.00  0.00    -0.408 A  
HETATM   13  C   UNL     1     -12.614  13.063  70.480  1.00  0.00    -0.220 A  
BRANCH   9  14
HETATM   14  N   UNL     1     -11.675   8.991  70.989  1.00  0.00    -0.288 N  
HETATM   15  O   UNL     1      -9.456   9.015  71.656  1.00  0.00    -0.282 OA 
HETATM   16  H   UNL     1     -12.440   8.366  70.735  1.00  0.00     0.000 HD 
HETATM   17  C   UNL     1     -10.503   8.419  71.463  1.00  0.00    -0.239 C  
BRANCH  17  18
HETATM   18  C   UNL     1     -10.516   6.944  71.626  1.00  0.00    -0.224 A  
HETATM   19  C   UNL     1      -9.849   6.061  70.787  1.00  0.00    -0.181 A  
HETATM   20 CL   UNL     1      -8.918   6.541  69.420  1.00  0.00    -0.132 Cl 
HETATM   21  N   UNL     1      -9.881   4.714  70.926  1.00  0.00    -0.190 NA 
HETATM   22  C   UNL     1     -10.628   4.213  71.928  1.00  0.00     0.142 A  
HETATM   23  C   UNL     1     -11.342   5.005  72.816  1.00  0.00    -0.271 A  
HETATM   24  C   UNL     1     -11.285   6.389  72.661  1.00  0.00    -0.290 A  
ENDBRANCH  17  18
ENDBRANCH   9  14
ENDBRANCH   5   8
TORSDOF 3
ENDMDL
MODEL      126
REMARK 921   NORMALIZED FREE ENERGY PREDICTED BY IDOCK:   -4.42 KCAL/MOL
REMARK 922        TOTAL FREE ENERGY PREDICTED BY IDOCK:   -6.53 KCAL/MOL
REMARK 923 INTER-LIGAND FREE ENERGY PREDICTED BY IDOCK:   -5.56 KCAL/MOL
REMARK 924 INTRA-LIGAND FREE ENERGY PREDICTED BY IDOCK:   -0.97 KCAL/MOL
REMARK 927      BINDING AFFINITY PREDICTED BY RF-SCORE:    0.00 PKD
ROOT
HETATM    1 CL   UNL     1     -12.851  11.201  71.941  1.00  0.00    -0.478 Cl 
HETATM    2  C   UNL     1     -12.061  10.770  70.476  1.00  0.00    -0.366 A  
HETATM    3  C   UNL     1     -10.936   9.957  70.507  1.00  0.00    -0.391 A  
HETATM    4  C   UNL     1     -10.280   9.631  69.313  1.00  0.00    -0.215 A  
HETATM    5  C   UNL     1     -10.694  10.145  68.065  1.00  0.00    -0.305 A  
HETATM    6  C   UNL     1     -12.534  11.254  69.265  1.00  0.00    -0.002 A  
HETATM    7  C   UNL     1     -11.840  10.966  68.082  1.00  0.00    -0.125 A  
ENDROOT
BRANCH   5   8
HETATM    8  C   UNL     1      -9.884   9.913  66.824  1.00  0.00    -0.256 A  
HETATM    9  C   UNL     1      -9.296  10.938  66.036  1.00  0.00    -0.190 A  
HETATM   10  C   UNL     1      -8.448  10.616  64.959  1.00  0.00    -0.135 A  
HETATM   11  C   UNL     1      -9.579   8.582  66.452  1.00  0.00    -0.314 A  
HETATM   12  C   UNL     1      -8.207   9.293  64.606  1.00  0.00    -0.148 A  
HETATM   13  C   UNL     1      -8.777   8.272  65.350  1.00  0.00    -0.147 A  
BRANCH   9  14
HETATM   14  N   UNL     1      -9.641  12.296  66.233  1.00  0.00    -0.240 N  
HETATM   15  O   UNL     1      -8.195  12.798  67.972  1.00  0.00    -0.147 OA 
HETATM   16  H   UNL     1     -10.405  12.679  65.676  1.00  0.00     0.000 HD 
HETATM   17  C   UNL     1      -9.010  13.143  67.133  1.00  0.00    -0.228 C  
BRANCH  17  18
HETATM   18  C   UNL     1      -9.468  14.554  67.132  1.00  0.00    -0.236 A  
HETATM   19  C   UNL     1     -10.281  15.111  68.111  1.00  0.00    -0.227 A  
HETATM   20 CL   UNL     1     -10.893  14.244  69.468  1.00  0.00    -0.197 Cl 
HETATM   21  N   UNL     1     -10.715  16.394  68.096  1.00  0.00    -0.323 NA 
HETATM   22  C   UNL     1     -10.349  17.158  67.050  1.00  0.00    -0.308 A  
HETATM   23  C   UNL     1      -9.551  16.699  66.013  1.00  0.00    -0.298 A  
HETATM   24  C   UNL     1      -9.104  15.379  66.056  1.00  0.00    -0.284 A  
ENDBRANCH  17  18
ENDBRANCH   9  14
ENDBRANCH   5   8
TORSDOF 3
ENDMDL
MODEL      127
REMARK 921   NORMALIZED FREE ENERGY PREDICTED BY IDOCK:   -4.42 KCAL/MOL
REMARK 922        TOTAL FREE ENERGY PREDICTED BY IDOCK:   -6.53 KCAL/MOL
REMARK 923 INTER-LIGAND FREE ENERGY PREDICTED BY IDOCK:   -5.49 KCAL/MOL
REMARK 924 INTRA-LIGAND FREE ENERGY PREDICTED BY IDOCK:   -1.03 KCAL/MOL
REMARK 927      BINDING AFFINITY PREDICTED BY RF-SCORE:    0.00 PKD
ROOT
HETATM    1 CL   UNL     1      -7.002   8.885  65.305  1.00  0.00    -0.075 Cl 
HETATM    2  C   UNL     1      -8.139   9.101  66.576  1.00  0.00    -0.107 A  
HETATM    3  C   UNL     1      -9.496   8.945  66.328  1.00  0.00    -0.304 A  
HETATM    4  C   UNL     1     -10.421   9.149  67.361  1.00  0.00    -0.339 A  
HETATM    5  C   UNL     1     -10.025   9.563  68.651  1.00  0.00    -0.181 A  
HETATM    6  C   UNL     1      -7.703   9.456  67.845  1.00  0.00    -0.088 A  
HETATM    7  C   UNL     1      -8.638   9.709  68.857  1.00  0.00    -0.127 A  
ENDROOT
BRANCH   5   8
HETATM    8  C   UNL     1     -11.039   9.930  69.693  1.00  0.00    -0.279 A  
HETATM    9  C   UNL     1     -11.287   9.190  70.880  1.00  0.00    -0.295 A  
HETATM   10  C   UNL     1     -12.171   9.682  71.859  1.00  0.00    -0.413 A  
HETATM   11  C   UNL     1     -11.736  11.155  69.559  1.00  0.00    -0.405 A  
HETATM   12  C   UNL     1     -12.863  10.873  71.668  1.00  0.00    -0.554 A  
HETATM   13  C   UNL     1     -12.650  11.610  70.513  1.00  0.00    -0.264 A  
BRANCH   9  14
HETATM   14  N   UNL     1     -10.751   7.892  71.054  1.00  0.00    -0.218 N  
HETATM   15  O   UNL     1     -12.264   6.692  69.772  1.00  0.00    -0.038 OA 
HETATM   16  H   UNL     1      -9.956   7.785  71.684  1.00  0.00     0.000 HD 
HETATM   17  C   UNL     1     -11.234   6.754  70.424  1.00  0.00    -0.328 C  
BRANCH  17  18
HETATM   18  C   UNL     1     -10.483   5.500  70.677  1.00  0.00    -0.342 A  
HETATM   19  C   UNL     1     -10.480   4.823  71.890  1.00  0.00    -0.130 A  
HETATM   20 CL   UNL     1     -11.337   5.345  73.290  1.00  0.00    -0.320 Cl 
HETATM   21  N   UNL     1      -9.776   3.690  72.124  1.00  0.00    -0.153 NA 
HETATM   22  C   UNL     1      -9.017   3.215  71.118  1.00  0.00    -0.099 A  
HETATM   23  C   UNL     1      -8.939   3.818  69.872  1.00  0.00    -0.166 A  
HETATM   24  C   UNL     1      -9.682   4.977  69.649  1.00  0.00    -0.266 A  
ENDBRANCH  17  18
ENDBRANCH   9  14
ENDBRANCH   5   8
TORSDOF 3
ENDMDL
MODEL      128
REMARK 921   NORMALIZED FREE ENERGY PREDICTED BY IDOCK:   -4.32 KCAL/MOL
REMARK 922        TOTAL FREE ENERGY PREDICTED BY IDOCK:   -6.41 KCAL/MOL
REMARK 923 INTER-LIGAND FREE ENERGY PREDICTED BY IDOCK:   -5.10 KCAL/MOL
REMARK 924 INTRA-LIGAND FREE ENERGY PREDICTED BY IDOCK:   -1.31 KCAL/MOL
REMARK 927      BINDING AFFINITY PREDICTED BY RF-SCORE:    0.00 PKD
ROOT
HETATM    1 CL   UNL     1     -10.011  14.747  66.484  1.00  0.00    -0.269 Cl 
HETATM    2  C   UNL     1      -9.475  13.151  66.832  1.00  0.00    -0.244 A  
HETATM    3  C   UNL     1      -8.461  12.945  67.757  1.00  0.00    -0.185 A  
HETATM    4  C   UNL     1      -8.008  11.644  68.017  1.00  0.00    -0.132 A  
HETATM    5  C   UNL     1      -8.516  10.522  67.327  1.00  0.00    -0.122 A  
HETATM    6  C   UNL     1     -10.039  12.070  66.170  1.00  0.00    -0.252 A  
HETATM    7  C   UNL     1      -9.544  10.779  66.397  1.00  0.00    -0.226 A  
ENDROOT
BRANCH   5   8
HETATM    8  C   UNL     1      -7.908   9.163  67.504  1.00  0.00    -0.100 A  
HETATM    9  C   UNL     1      -8.520   8.083  68.196  1.00  0.00    -0.123 A  
HETATM   10  C   UNL     1      -7.927   6.807  68.201  1.00  0.00    -0.114 A  
HETATM   11  C   UNL     1      -6.685   8.877  66.851  1.00  0.00    -0.069 A  
HETATM   12  C   UNL     1      -6.705   6.581  67.577  1.00  0.00    -0.067 A  
HETATM   13  C   UNL     1      -6.078   7.619  66.904  1.00  0.00    -0.048 A  
BRANCH   9  14
HETATM   14  N   UNL     1      -9.670   8.290  68.995  1.00  0.00    -0.164 N  
HETATM   15  O   UNL     1      -8.683   9.363  70.795  1.00  0.00    -0.217 OA 
HETATM   16  H   UNL     1     -10.555   7.904  68.664  1.00  0.00     0.000 HD 
HETATM   17  C   UNL     1      -9.676   8.983  70.196  1.00  0.00    -0.188 C  
BRANCH  17  18
HETATM   18  C   UNL     1     -11.000   9.158  70.842  1.00  0.00    -0.349 A  
HETATM   19  C   UNL     1     -11.917  10.140  70.489  1.00  0.00    -0.311 A  
HETATM   20 CL   UNL     1     -11.649  11.313  69.257  1.00  0.00    -0.352 Cl 
HETATM   21  N   UNL     1     -13.115  10.310  71.096  1.00  0.00    -0.391 NA 
HETATM   22  C   UNL     1     -13.414   9.487  72.118  1.00  0.00    -0.456 A  
HETATM   23  C   UNL     1     -12.567   8.481  72.559  1.00  0.00    -0.346 A  
HETATM   24  C   UNL     1     -11.343   8.315  71.911  1.00  0.00    -0.372 A  
ENDBRANCH  17  18
ENDBRANCH   9  14
ENDBRANCH   5   8
TORSDOF 3
ENDMDL
MODEL      129
REMARK 921   NORMALIZED FREE ENERGY PREDICTED BY IDOCK:   -4.31 KCAL/MOL
REMARK 922        TOTAL FREE ENERGY PREDICTED BY IDOCK:   -6.40 KCAL/MOL
REMARK 923 INTER-LIGAND FREE ENERGY PREDICTED BY IDOCK:   -6.66 KCAL/MOL
REMARK 924 INTRA-LIGAND FREE ENERGY PREDICTED BY IDOCK:    0.26 KCAL/MOL
REMARK 927      BINDING AFFINITY PREDICTED BY RF-SCORE:    0.00 PKD
ROOT
HETATM    1 CL   UNL     1     -12.306  14.368  71.990  1.00  0.00    -0.365 Cl 
HETATM    2  C   UNL     1     -12.187  14.012  70.313  1.00  0.00    -0.361 A  
HETATM    3  C   UNL     1     -11.970  12.707  69.893  1.00  0.00    -0.365 A  
HETATM    4  C   UNL     1     -11.846  12.426  68.526  1.00  0.00    -0.352 A  
HETATM    5  C   UNL     1     -11.884  13.441  67.545  1.00  0.00    -0.408 A  
HETATM    6  C   UNL     1     -12.284  15.034  69.378  1.00  0.00    -0.234 A  
HETATM    7  C   UNL     1     -12.106  14.752  68.018  1.00  0.00    -0.163 A  
ENDROOT
BRANCH   5   8
HETATM    8  C   UNL     1     -11.591  13.140  66.106  1.00  0.00    -0.396 A  
HETATM    9  C   UNL     1     -10.314  13.261  65.496  1.00  0.00    -0.291 A  
HETATM   10  C   UNL     1     -10.110  12.835  64.170  1.00  0.00    -0.260 A  
HETATM   11  C   UNL     1     -12.620  12.591  65.305  1.00  0.00    -0.259 A  
HETATM   12  C   UNL     1     -11.160  12.337  63.407  1.00  0.00    -0.487 A  
HETATM   13  C   UNL     1     -12.421  12.219  63.972  1.00  0.00    -0.556 A  
BRANCH   9  14
HETATM   14  N   UNL     1      -9.250  13.920  66.158  1.00  0.00    -0.498 N  
HETATM   15  O   UNL     1     -10.147  16.053  66.269  1.00  0.00    -0.277 OA 
HETATM   16  H   UNL     1      -8.404  13.383  66.350  1.00  0.00     0.000 HD 
HETATM   17  C   UNL     1      -9.281  15.246  66.563  1.00  0.00    -0.290 C  
BRANCH  17  18
HETATM   18  C   UNL     1      -8.094  15.727  67.313  1.00  0.00    -0.217 A  
HETATM   19  C   UNL     1      -8.040  15.843  68.696  1.00  0.00    -0.162 A  
HETATM   20 CL   UNL     1      -9.347  15.460  69.750  1.00  0.00    -0.211 Cl 
HETATM   21  N   UNL     1      -6.963  16.303  69.376  1.00  0.00    -0.217 NA 
HETATM   22  C   UNL     1      -5.895  16.691  68.653  1.00  0.00    -0.130 A  
HETATM   23  C   UNL     1      -5.848  16.628  67.268  1.00  0.00    -0.198 A  
HETATM   24  C   UNL     1      -6.964  16.139  66.590  1.00  0.00     0.035 A  
ENDBRANCH  17  18
ENDBRANCH   9  14
ENDBRANCH   5   8
TORSDOF 3
ENDMDL
MODEL      130
REMARK 921   NORMALIZED FREE ENERGY PREDICTED BY IDOCK:   -4.30 KCAL/MOL
REMARK 922        TOTAL FREE ENERGY PREDICTED BY IDOCK:   -6.39 KCAL/MOL
REMARK 923 INTER-LIGAND FREE ENERGY PREDICTED BY IDOCK:   -5.46 KCAL/MOL
REMARK 924 INTRA-LIGAND FREE ENERGY PREDICTED BY IDOCK:   -0.93 KCAL/MOL
REMARK 927      BINDING AFFINITY PREDICTED BY RF-SCORE:    0.00 PKD
ROOT
HETATM    1 CL   UNL     1     -11.161   6.625  66.982  1.00  0.00    -0.473 Cl 
HETATM    2  C   UNL     1     -10.254   8.012  67.439  1.00  0.00    -0.261 A  
HETATM    3  C   UNL     1      -9.450   8.654  66.508  1.00  0.00    -0.278 A  
HETATM    4  C   UNL     1      -8.692   9.768  66.893  1.00  0.00    -0.143 A  
HETATM    5  C   UNL     1      -8.674  10.240  68.224  1.00  0.00    -0.126 A  
HETATM    6  C   UNL     1     -10.307   8.475  68.747  1.00  0.00    -0.233 A  
HETATM    7  C   UNL     1      -9.505   9.556  69.135  1.00  0.00    -0.163 A  
ENDROOT
BRANCH   5   8
HETATM    8  C   UNL     1      -7.736  11.330  68.647  1.00  0.00    -0.136 A  
HETATM    9  C   UNL     1      -7.897  12.707  68.335  1.00  0.00    -0.136 A  
HETATM   10  C   UNL     1      -7.032  13.672  68.884  1.00  0.00    -0.110 A  
HETATM   11  C   UNL     1      -6.664  11.004  69.513  1.00  0.00    -0.126 A  
HETATM   12  C   UNL     1      -5.969  13.301  69.700  1.00  0.00    -0.117 A  
HETATM   13  C   UNL     1      -5.779  11.964  70.012  1.00  0.00    -0.138 A  
BRANCH   9  14
HETATM   14  N   UNL     1      -8.847  13.128  67.375  1.00  0.00    -0.194 N  
HETATM   15  O   UNL     1     -10.156  14.487  68.720  1.00  0.00    -0.233 OA 
HETATM   16  H   UNL     1      -8.786  12.730  66.438  1.00  0.00     0.000 HD 
HETATM   17  C   UNL     1      -9.857  14.047  67.622  1.00  0.00    -0.233 C  
BRANCH  17  18
HETATM   18  C   UNL     1     -10.702  14.416  66.459  1.00  0.00    -0.306 A  
HETATM   19  C   UNL     1     -11.642  13.574  65.879  1.00  0.00    -0.335 A  
HETATM   20 CL   UNL     1     -11.959  11.967  66.411  1.00  0.00    -0.247 Cl 
HETATM   21  N   UNL     1     -12.396  13.907  64.805  1.00  0.00    -0.531 NA 
HETATM   22  C   UNL     1     -12.195  15.121  64.260  1.00  0.00    -0.240 A  
HETATM   23  C   UNL     1     -11.274  16.035  64.753  1.00  0.00    -0.348 A  
HETATM   24  C   UNL     1     -10.518  15.676  65.868  1.00  0.00    -0.358 A  
ENDBRANCH  17  18
ENDBRANCH   9  14
ENDBRANCH   5   8
TORSDOF 3
ENDMDL
MODEL      131
REMARK 921   NORMALIZED FREE ENERGY PREDICTED BY IDOCK:   -4.30 KCAL/MOL
REMARK 922        TOTAL FREE ENERGY PREDICTED BY IDOCK:   -6.38 KCAL/MOL
REMARK 923 INTER-LIGAND FREE ENERGY PREDICTED BY IDOCK:   -5.59 KCAL/MOL
REMARK 924 INTRA-LIGAND FREE ENERGY PREDICTED BY IDOCK:   -0.80 KCAL/MOL
REMARK 927      BINDING AFFINITY PREDICTED BY RF-SCORE:    0.00 PKD
ROOT
HETATM    1 CL   UNL     1     -10.064  15.599  66.104  1.00  0.00    -0.307 Cl 
HETATM    2  C   UNL     1     -10.481  14.231  67.057  1.00  0.00    -0.271 A  
HETATM    3  C   UNL     1     -11.813  13.870  67.208  1.00  0.00    -0.442 A  
HETATM    4  C   UNL     1     -12.150  12.770  68.009  1.00  0.00    -0.174 A  
HETATM    5  C   UNL     1     -11.177  12.035  68.721  1.00  0.00    -0.316 A  
HETATM    6  C   UNL     1      -9.488  13.503  67.697  1.00  0.00    -0.222 A  
HETATM    7  C   UNL     1      -9.838  12.438  68.538  1.00  0.00    -0.156 A  
ENDROOT
BRANCH   5   8
HETATM    8  C   UNL     1     -11.573  10.966  69.695  1.00  0.00    -0.394 A  
HETATM    9  C   UNL     1     -10.891   9.732  69.868  1.00  0.00    -0.272 A  
HETATM   10  C   UNL     1     -11.263   8.845  70.895  1.00  0.00    -0.334 A  
HETATM   11  C   UNL     1     -12.633  11.228  70.595  1.00  0.00    -0.377 A  
HETATM   12  C   UNL     1     -12.336   9.127  71.733  1.00  0.00    -0.444 A  
HETATM   13  C   UNL     1     -13.028  10.318  71.580  1.00  0.00    -0.570 A  
BRANCH   9  14
HETATM   14  N   UNL     1      -9.908   9.308  68.941  1.00  0.00    -0.161 N  
HETATM   15  O   UNL     1     -11.011   7.482  68.038  1.00  0.00    -0.075 OA 
HETATM   16  H   UNL     1      -9.016   9.805  68.933  1.00  0.00     0.000 HD 
HETATM   17  C   UNL     1     -10.074   8.264  68.044  1.00  0.00    -0.198 C  
BRANCH  17  18
HETATM   18  C   UNL     1      -8.953   8.029  67.101  1.00  0.00    -0.150 A  
HETATM   19  C   UNL     1      -8.646   8.858  66.030  1.00  0.00    -0.145 A  
HETATM   20 CL   UNL     1      -9.531  10.279  65.624  1.00  0.00    -0.254 Cl 
HETATM   21  N   UNL     1      -7.635   8.628  65.159  1.00  0.00    -0.090 NA 
HETATM   22  C   UNL     1      -6.906   7.511  65.339  1.00  0.00    -0.048 A  
HETATM   23  C   UNL     1      -7.134   6.609  66.368  1.00  0.00    -0.067 A  
HETATM   24  C   UNL     1      -8.172   6.873  67.261  1.00  0.00    -0.118 A  
ENDBRANCH  17  18
ENDBRANCH   9  14
ENDBRANCH   5   8
TORSDOF 3
ENDMDL
MODEL      132
REMARK 921   NORMALIZED FREE ENERGY PREDICTED BY IDOCK:   -4.29 KCAL/MOL
REMARK 922        TOTAL FREE ENERGY PREDICTED BY IDOCK:   -6.37 KCAL/MOL
REMARK 923 INTER-LIGAND FREE ENERGY PREDICTED BY IDOCK:   -5.03 KCAL/MOL
REMARK 924 INTRA-LIGAND FREE ENERGY PREDICTED BY IDOCK:   -1.34 KCAL/MOL
REMARK 927      BINDING AFFINITY PREDICTED BY RF-SCORE:    0.00 PKD
ROOT
HETATM    1 CL   UNL     1     -10.212  13.682  66.970  1.00  0.00    -0.248 Cl 
HETATM    2  C   UNL     1      -9.662  12.157  66.397  1.00  0.00    -0.231 A  
HETATM    3  C   UNL     1     -10.476  11.387  65.578  1.00  0.00    -0.322 A  
HETATM    4  C   UNL     1     -10.034  10.133  65.137  1.00  0.00    -0.379 A  
HETATM    5  C   UNL     1      -8.794   9.590  65.540  1.00  0.00    -0.201 A  
HETATM    6  C   UNL     1      -8.413  11.684  66.775  1.00  0.00    -0.177 A  
HETATM    7  C   UNL     1      -8.001  10.407  66.372  1.00  0.00    -0.130 A  
ENDROOT
BRANCH   5   8
HETATM    8  C   UNL     1      -8.412   8.184  65.187  1.00  0.00    -0.134 A  
HETATM    9  C   UNL     1      -8.698   7.041  65.980  1.00  0.00    -0.144 A  
HETATM   10  C   UNL     1      -8.410   5.748  65.506  1.00  0.00    -0.140 A  
HETATM   11  C   UNL     1      -7.818   7.939  63.925  1.00  0.00    -0.141 A  
HETATM   12  C   UNL     1      -7.791   5.557  64.275  1.00  0.00    -0.110 A  
HETATM   13  C   UNL     1      -7.489   6.655  63.484  1.00  0.00    -0.080 A  
BRANCH   9  14
HETATM   14  N   UNL     1      -9.164   7.178  67.310  1.00  0.00    -0.127 N  
HETATM   15  O   UNL     1     -11.406   6.704  66.969  1.00  0.00    -0.348 OA 
HETATM   16  H   UNL     1      -8.497   7.484  68.019  1.00  0.00     0.000 HD 
HETATM   17  C   UNL     1     -10.466   6.922  67.715  1.00  0.00    -0.223 C  
BRANCH  17  18
HETATM   18  C   UNL     1     -10.734   7.048  69.169  1.00  0.00    -0.240 A  
HETATM   19  C   UNL     1     -10.905   8.258  69.829  1.00  0.00    -0.185 A  
HETATM   20 CL   UNL     1     -10.816   9.798  69.063  1.00  0.00    -0.237 Cl 
HETATM   21  N   UNL     1     -11.127   8.369  71.160  1.00  0.00    -0.247 NA 
HETATM   22  C   UNL     1     -11.159   7.232  71.879  1.00  0.00    -0.238 A  
HETATM   23  C   UNL     1     -10.989   5.973  71.323  1.00  0.00    -0.340 A  
HETATM   24  C   UNL     1     -10.774   5.881  69.948  1.00  0.00    -0.406 A  
ENDBRANCH  17  18
ENDBRANCH   9  14
ENDBRANCH   5   8
TORSDOF 3
ENDMDL
MODEL      133
REMARK 921   NORMALIZED FREE ENERGY PREDICTED BY IDOCK:   -4.27 KCAL/MOL
REMARK 922        TOTAL FREE ENERGY PREDICTED BY IDOCK:   -6.36 KCAL/MOL
REMARK 923 INTER-LIGAND FREE ENERGY PREDICTED BY IDOCK:   -5.23 KCAL/MOL
REMARK 924 INTRA-LIGAND FREE ENERGY PREDICTED BY IDOCK:   -1.13 KCAL/MOL
REMARK 927      BINDING AFFINITY PREDICTED BY RF-SCORE:    0.00 PKD
ROOT
HETATM    1 CL   UNL     1      -7.454  10.132  69.963  1.00  0.00    -0.173 Cl 
HETATM    2  C   UNL     1      -8.451  10.681  68.676  1.00  0.00    -0.142 A  
HETATM    3  C   UNL     1      -7.977  10.660  67.372  1.00  0.00    -0.111 A  
HETATM    4  C   UNL     1      -8.784  11.135  66.329  1.00  0.00    -0.183 A  
HETATM    5  C   UNL     1     -10.062  11.689  66.562  1.00  0.00    -0.239 A  
HETATM    6  C   UNL     1      -9.723  11.168  68.943  1.00  0.00    -0.163 A  
HETATM    7  C   UNL     1     -10.502  11.689  67.902  1.00  0.00    -0.217 A  
ENDROOT
BRANCH   5   8
HETATM    8  C   UNL     1     -10.840  12.335  65.456  1.00  0.00    -0.319 A  
HETATM    9  C   UNL     1     -10.645  13.665  64.995  1.00  0.00    -0.383 A  
HETATM   10  C   UNL     1     -11.338  14.142  63.867  1.00  0.00     0.199 A  
HETATM   11  C   UNL     1     -11.767  11.549  64.730  1.00  0.00    -0.013 A  
HETATM   12  C   UNL     1     -12.269  13.346  63.208  1.00  0.00    -0.314 A  
HETATM   13  C   UNL     1     -12.489  12.048  63.642  1.00  0.00    -0.637 A  
BRANCH   9  14
HETATM   14  N   UNL     1      -9.847  14.578  65.726  1.00  0.00    -0.400 N  
HETATM   15  O   UNL     1     -11.424  15.305  67.260  1.00  0.00    -0.319 OA 
HETATM   16  H   UNL     1      -8.892  14.738  65.404  1.00  0.00     0.000 HD 
HETATM   17  C   UNL     1     -10.275  15.269  66.849  1.00  0.00    -0.268 C  
BRANCH  17  18
HETATM   18  C   UNL     1      -9.260  16.119  67.519  1.00  0.00    -0.210 A  
HETATM   19  C   UNL     1      -7.974  15.699  67.832  1.00  0.00    -0.142 A  
HETATM   20 CL   UNL     1      -7.366  14.121  67.505  1.00  0.00    -0.195 Cl 
HETATM   21  N   UNL     1      -7.058  16.471  68.463  1.00  0.00    -0.156 NA 
HETATM   22  C   UNL     1      -7.437  17.711  68.825  1.00  0.00    -0.255 A  
HETATM   23  C   UNL     1      -8.699  18.226  68.571  1.00  0.00    -0.325 A  
HETATM   24  C   UNL     1      -9.623  17.418  67.909  1.00  0.00    -0.267 A  
ENDBRANCH  17  18
ENDBRANCH   9  14
ENDBRANCH   5   8
TORSDOF 3
ENDMDL
MODEL      134
REMARK 921   NORMALIZED FREE ENERGY PREDICTED BY IDOCK:   -4.27 KCAL/MOL
REMARK 922        TOTAL FREE ENERGY PREDICTED BY IDOCK:   -6.36 KCAL/MOL
REMARK 923 INTER-LIGAND FREE ENERGY PREDICTED BY IDOCK:   -5.86 KCAL/MOL
REMARK 924 INTRA-LIGAND FREE ENERGY PREDICTED BY IDOCK:   -0.49 KCAL/MOL
REMARK 927      BINDING AFFINITY PREDICTED BY RF-SCORE:    0.00 PKD
ROOT
HETATM    1 CL   UNL     1     -13.297  13.260  72.182  1.00  0.00    -0.595 Cl 
HETATM    2  C   UNL     1     -12.389  14.236  71.095  1.00  0.00    -0.368 A  
HETATM    3  C   UNL     1     -11.801  15.410  71.543  1.00  0.00    -0.450 A  
HETATM    4  C   UNL     1     -11.086  16.217  70.646  1.00  0.00    -0.318 A  
HETATM    5  C   UNL     1     -10.981  15.902  69.274  1.00  0.00    -0.293 A  
HETATM    6  C   UNL     1     -12.266  13.861  69.765  1.00  0.00    -0.388 A  
HETATM    7  C   UNL     1     -11.594  14.699  68.865  1.00  0.00    -0.340 A  
ENDROOT
BRANCH   5   8
HETATM    8  C   UNL     1     -10.350  16.856  68.305  1.00  0.00    -0.335 A  
HETATM    9  C   UNL     1      -9.284  16.533  67.424  1.00  0.00    -0.216 A  
HETATM   10  C   UNL     1      -8.842  17.461  66.463  1.00  0.00    -0.290 A  
HETATM   11  C   UNL     1     -10.911  18.148  68.164  1.00  0.00    -0.124 A  
HETATM   12  C   UNL     1      -9.397  18.733  66.385  1.00  0.00    -0.321 A  
HETATM   13  C   UNL     1     -10.431  19.081  67.241  1.00  0.00    -0.533 A  
BRANCH   9  14
HETATM   14  N   UNL     1      -8.562  15.324  67.569  1.00  0.00    -0.168 N  
HETATM   15  O   UNL     1      -7.225  15.903  69.370  1.00  0.00    -0.205 OA 
HETATM   16  H   UNL     1      -8.728  14.585  66.884  1.00  0.00     0.000 HD 
HETATM   17  C   UNL     1      -7.645  15.074  68.579  1.00  0.00    -0.118 C  
BRANCH  17  18
HETATM   18  C   UNL     1      -7.053  13.714  68.602  1.00  0.00    -0.105 A  
HETATM   19  C   UNL     1      -6.281  13.217  69.644  1.00  0.00    -0.112 A  
HETATM   20 CL   UNL     1      -5.880  14.109  71.062  1.00  0.00    -0.213 Cl 
HETATM   21  N   UNL     1      -5.724  11.983  69.652  1.00  0.00    -0.084 NA 
HETATM   22  C   UNL     1      -5.918  11.210  68.567  1.00  0.00    -0.042 A  
HETATM   23  C   UNL     1      -6.662  11.612  67.468  1.00  0.00    -0.096 A  
HETATM   24  C   UNL     1      -7.237  12.882  67.487  1.00  0.00    -0.149 A  
ENDBRANCH  17  18
ENDBRANCH   9  14
ENDBRANCH   5   8
TORSDOF 3
ENDMDL
MODEL      135
REMARK 921   NORMALIZED FREE ENERGY PREDICTED BY IDOCK:   -4.27 KCAL/MOL
REMARK 922        TOTAL FREE ENERGY PREDICTED BY IDOCK:   -6.35 KCAL/MOL
REMARK 923 INTER-LIGAND FREE ENERGY PREDICTED BY IDOCK:   -5.01 KCAL/MOL
REMARK 924 INTRA-LIGAND FREE ENERGY PREDICTED BY IDOCK:   -1.34 KCAL/MOL
REMARK 927      BINDING AFFINITY PREDICTED BY RF-SCORE:    0.00 PKD
ROOT
HETATM    1 CL   UNL     1     -10.918   7.006  73.499  1.00  0.00    -0.276 Cl 
HETATM    2  C   UNL     1     -10.510   7.224  71.843  1.00  0.00    -0.200 A  
HETATM    3  C   UNL     1     -11.318   6.685  70.852  1.00  0.00    -0.377 A  
HETATM    4  C   UNL     1     -10.966   6.842  69.504  1.00  0.00    -0.289 A  
HETATM    5  C   UNL     1      -9.777   7.495  69.111  1.00  0.00    -0.166 A  
HETATM    6  C   UNL     1      -9.359   7.920  71.498  1.00  0.00    -0.179 A  
HETATM    7  C   UNL     1      -8.987   8.026  70.152  1.00  0.00    -0.150 A  
ENDROOT
BRANCH   5   8
HETATM    8  C   UNL     1      -9.340   7.512  67.676  1.00  0.00    -0.151 A  
HETATM    9  C   UNL     1      -9.385   8.650  66.828  1.00  0.00    -0.179 A  
HETATM   10  C   UNL     1      -8.836   8.600  65.533  1.00  0.00    -0.220 A  
HETATM   11  C   UNL     1      -8.734   6.351  67.139  1.00  0.00    -0.110 A  
HETATM   12  C   UNL     1      -8.284   7.426  65.032  1.00  0.00    -0.101 A  
HETATM   13  C   UNL     1      -8.238   6.295  65.833  1.00  0.00    -0.129 A  
BRANCH   9  14
HETATM   14  N   UNL     1     -10.087   9.817  67.213  1.00  0.00    -0.194 N  
HETATM   15  O   UNL     1      -8.377  10.934  68.307  1.00  0.00    -0.117 OA 
HETATM   16  H   UNL     1     -11.084   9.863  67.004  1.00  0.00     0.000 HD 
HETATM   17  C   UNL     1      -9.510  10.903  67.854  1.00  0.00    -0.159 C  
BRANCH  17  18
HETATM   18  C   UNL     1     -10.400  12.064  68.101  1.00  0.00    -0.207 A  
HETATM   19  C   UNL     1     -11.305  12.143  69.152  1.00  0.00    -0.276 A  
HETATM   20 CL   UNL     1     -11.542  10.900  70.319  1.00  0.00    -0.406 Cl 
HETATM   21  N   UNL     1     -12.132  13.195  69.361  1.00  0.00    -0.271 NA 
HETATM   22  C   UNL     1     -12.081  14.208  68.476  1.00  0.00    -0.277 A  
HETATM   23  C   UNL     1     -11.223  14.225  67.386  1.00  0.00    -0.330 A  
HETATM   24  C   UNL     1     -10.372  13.138  67.197  1.00  0.00    -0.247 A  
ENDBRANCH  17  18
ENDBRANCH   9  14
ENDBRANCH   5   8
TORSDOF 3
ENDMDL
MODEL      136
REMARK 921   NORMALIZED FREE ENERGY PREDICTED BY IDOCK:   -4.24 KCAL/MOL
REMARK 922        TOTAL FREE ENERGY PREDICTED BY IDOCK:   -6.32 KCAL/MOL
REMARK 923 INTER-LIGAND FREE ENERGY PREDICTED BY IDOCK:   -5.20 KCAL/MOL
REMARK 924 INTRA-LIGAND FREE ENERGY PREDICTED BY IDOCK:   -1.12 KCAL/MOL
REMARK 927      BINDING AFFINITY PREDICTED BY RF-SCORE:    0.00 PKD
ROOT
HETATM    1 CL   UNL     1     -10.968  18.216  67.610  1.00  0.00    -0.248 Cl 
HETATM    2  C   UNL     1     -10.596  16.563  67.317  1.00  0.00    -0.285 A  
HETATM    3  C   UNL     1      -9.419  16.221  66.667  1.00  0.00    -0.269 A  
HETATM    4  C   UNL     1      -9.133  14.874  66.406  1.00  0.00    -0.293 A  
HETATM    5  C   UNL     1     -10.034  13.838  66.738  1.00  0.00    -0.270 A  
HETATM    6  C   UNL     1     -11.486  15.572  67.709  1.00  0.00    -0.247 A  
HETATM    7  C   UNL     1     -11.217  14.233  67.397  1.00  0.00    -0.330 A  
ENDROOT
BRANCH   5   8
HETATM    8  C   UNL     1      -9.783  12.424  66.308  1.00  0.00    -0.253 A  
HETATM    9  C   UNL     1      -9.045  11.467  67.054  1.00  0.00    -0.175 A  
HETATM   10  C   UNL     1      -8.969  10.128  66.627  1.00  0.00    -0.156 A  
HETATM   11  C   UNL     1     -10.407  11.954  65.128  1.00  0.00    -0.318 A  
HETATM   12  C   UNL     1      -9.567   9.719  65.441  1.00  0.00    -0.359 A  
HETATM   13  C   UNL     1     -10.284  10.634  64.684  1.00  0.00    -0.404 A  
BRANCH   9  14
HETATM   14  N   UNL     1      -8.270  11.857  68.173  1.00  0.00    -0.151 N  
HETATM   15  O   UNL     1      -6.281  12.351  67.093  1.00  0.00    -0.154 OA 
HETATM   16  H   UNL     1      -8.694  11.776  69.097  1.00  0.00     0.000 HD 
HETATM   17  C   UNL     1      -6.973  12.343  68.097  1.00  0.00    -0.087 C  
BRANCH  17  18
HETATM   18  C   UNL     1      -6.361  12.773  69.379  1.00  0.00    -0.110 A  
HETATM   19  C   UNL     1      -5.874  11.899  70.342  1.00  0.00    -0.155 A  
HETATM   20 CL   UNL     1      -5.921  10.183  70.203  1.00  0.00    -0.056 Cl 
HETATM   21  N   UNL     1      -5.337  12.294  71.521  1.00  0.00    -0.377 NA 
HETATM   22  C   UNL     1      -5.300  13.616  71.771  1.00  0.00    -0.196 A  
HETATM   23  C   UNL     1      -5.769  14.574  70.884  1.00  0.00    -0.176 A  
HETATM   24  C   UNL     1      -6.307  14.145  69.671  1.00  0.00    -0.131 A  
ENDBRANCH  17  18
ENDBRANCH   9  14
ENDBRANCH   5   8
TORSDOF 3
ENDMDL
MODEL      137
REMARK 921   NORMALIZED FREE ENERGY PREDICTED BY IDOCK:   -4.23 KCAL/MOL
REMARK 922        TOTAL FREE ENERGY PREDICTED BY IDOCK:   -6.30 KCAL/MOL
REMARK 923 INTER-LIGAND FREE ENERGY PREDICTED BY IDOCK:   -5.42 KCAL/MOL
REMARK 924 INTRA-LIGAND FREE ENERGY PREDICTED BY IDOCK:   -0.88 KCAL/MOL
REMARK 927      BINDING AFFINITY PREDICTED BY RF-SCORE:    0.00 PKD
ROOT
HETATM    1 CL   UNL     1      -9.557  13.859  66.509  1.00  0.00    -0.291 Cl 
HETATM    2  C   UNL     1     -10.053  12.669  67.646  1.00  0.00    -0.218 A  
HETATM    3  C   UNL     1      -9.127  11.772  68.160  1.00  0.00    -0.185 A  
HETATM    4  C   UNL     1      -9.542  10.785  69.066  1.00  0.00    -0.193 A  
HETATM    5  C   UNL     1     -10.894  10.635  69.443  1.00  0.00    -0.289 A  
HETATM    6  C   UNL     1     -11.384  12.590  68.031  1.00  0.00    -0.339 A  
HETATM    7  C   UNL     1     -11.799  11.568  68.895  1.00  0.00    -0.406 A  
ENDROOT
BRANCH   5   8
HETATM    8  C   UNL     1     -11.339   9.477  70.285  1.00  0.00    -0.284 A  
HETATM    9  C   UNL     1     -11.073   8.112  69.995  1.00  0.00    -0.146 A  
HETATM   10  C   UNL     1     -11.424   7.103  70.911  1.00  0.00    -0.333 A  
HETATM   11  C   UNL     1     -11.978   9.743  71.520  1.00  0.00    -0.488 A  
HETATM   12  C   UNL     1     -12.085   7.408  72.096  1.00  0.00    -0.289 A  
HETATM   13  C   UNL     1     -12.369   8.730  72.400  1.00  0.00    -0.414 A  
BRANCH   9  14
HETATM   14  N   UNL     1     -10.564   7.723  68.733  1.00  0.00    -0.340 N  
HETATM   15  O   UNL     1      -8.324   7.509  69.286  1.00  0.00    -0.129 OA 
HETATM   16  H   UNL     1     -11.213   7.695  67.946  1.00  0.00     0.000 HD 
HETATM   17  C   UNL     1      -9.243   7.375  68.494  1.00  0.00    -0.142 C  
BRANCH  17  18
HETATM   18  C   UNL     1      -8.927   6.919  67.118  1.00  0.00    -0.121 A  
HETATM   19  C   UNL     1      -9.145   5.628  66.655  1.00  0.00    -0.129 A  
HETATM   20 CL   UNL     1      -9.801   4.355  67.612  1.00  0.00    -0.200 Cl 
HETATM   21  N   UNL     1      -8.834   5.210  65.405  1.00  0.00    -0.152 NA 
HETATM   22  C   UNL     1      -8.258   6.103  64.579  1.00  0.00    -0.079 A  
HETATM   23  C   UNL     1      -7.986   7.413  64.943  1.00  0.00    -0.128 A  
HETATM   24  C   UNL     1      -8.325   7.826  66.231  1.00  0.00    -0.131 A  
ENDBRANCH  17  18
ENDBRANCH   9  14
ENDBRANCH   5   8
TORSDOF 3
ENDMDL
MODEL      138
REMARK 921   NORMALIZED FREE ENERGY PREDICTED BY IDOCK:   -4.21 KCAL/MOL
REMARK 922        TOTAL FREE ENERGY PREDICTED BY IDOCK:   -6.28 KCAL/MOL
REMARK 923 INTER-LIGAND FREE ENERGY PREDICTED BY IDOCK:   -6.31 KCAL/MOL
REMARK 924 INTRA-LIGAND FREE ENERGY PREDICTED BY IDOCK:    0.03 KCAL/MOL
REMARK 927      BINDING AFFINITY PREDICTED BY RF-SCORE:    0.00 PKD
ROOT
HETATM    1 CL   UNL     1     -11.307   9.490  71.406  1.00  0.00    -0.447 Cl 
HETATM    2  C   UNL     1     -11.419  10.573  70.076  1.00  0.00    -0.316 A  
HETATM    3  C   UNL     1     -10.900  10.212  68.840  1.00  0.00    -0.256 A  
HETATM    4  C   UNL     1     -10.970  11.109  67.766  1.00  0.00    -0.315 A  
HETATM    5  C   UNL     1     -11.511  12.406  67.906  1.00  0.00    -0.385 A  
HETATM    6  C   UNL     1     -12.008  11.819  70.244  1.00  0.00    -0.429 A  
HETATM    7  C   UNL     1     -12.025  12.729  69.179  1.00  0.00    -0.296 A  
ENDROOT
BRANCH   5   8
HETATM    8  C   UNL     1     -11.430  13.404  66.790  1.00  0.00    -0.376 A  
HETATM    9  C   UNL     1     -10.303  14.223  66.513  1.00  0.00    -0.278 A  
HETATM   10  C   UNL     1     -10.275  15.040  65.367  1.00  0.00    -0.411 A  
HETATM   11  C   UNL     1     -12.501  13.477  65.867  1.00  0.00    -0.484 A  
HETATM   12  C   UNL     1     -11.366  15.108  64.507  1.00  0.00    -0.297 A  
HETATM   13  C   UNL     1     -12.485  14.329  64.760  1.00  0.00    -0.390 A  
BRANCH   9  14
HETATM   14  N   UNL     1      -9.237  14.331  67.438  1.00  0.00    -0.192 N  
HETATM   15  O   UNL     1      -7.994  15.977  66.383  1.00  0.00    -0.265 OA 
HETATM   16  H   UNL     1      -9.227  13.687  68.230  1.00  0.00     0.000 HD 
HETATM   17  C   UNL     1      -8.206  15.254  67.342  1.00  0.00    -0.184 C  
BRANCH  17  18
HETATM   18  C   UNL     1      -7.228  15.258  68.458  1.00  0.00    -0.114 A  
HETATM   19  C   UNL     1      -6.741  14.112  69.073  1.00  0.00    -0.107 A  
HETATM   20 CL   UNL     1      -7.210  12.511  68.644  1.00  0.00    -0.102 Cl 
HETATM   21  N   UNL     1      -5.865  14.120  70.105  1.00  0.00    -0.129 NA 
HETATM   22  C   UNL     1      -5.469  15.320  70.570  1.00  0.00    -0.136 A  
HETATM   23  C   UNL     1      -5.901  16.525  70.037  1.00  0.00    -0.200 A  
HETATM   24  C   UNL     1      -6.794  16.492  68.966  1.00  0.00    -0.203 A  
ENDBRANCH  17  18
ENDBRANCH   9  14
ENDBRANCH   5   8
TORSDOF 3
ENDMDL
MODEL      139
REMARK 921   NORMALIZED FREE ENERGY PREDICTED BY IDOCK:   -4.18 KCAL/MOL
REMARK 922        TOTAL FREE ENERGY PREDICTED BY IDOCK:   -6.25 KCAL/MOL
REMARK 923 INTER-LIGAND FREE ENERGY PREDICTED BY IDOCK:   -6.06 KCAL/MOL
REMARK 924 INTRA-LIGAND FREE ENERGY PREDICTED BY IDOCK:   -0.19 KCAL/MOL
REMARK 927      BINDING AFFINITY PREDICTED BY RF-SCORE:    0.00 PKD
ROOT
HETATM    1 CL   UNL     1     -12.514   8.423  72.406  1.00  0.00    -0.410 Cl 
HETATM    2  C   UNL     1     -12.089   9.639  71.267  1.00  0.00    -0.371 A  
HETATM    3  C   UNL     1     -12.697  10.885  71.322  1.00  0.00    -0.542 A  
HETATM    4  C   UNL     1     -12.367  11.863  70.373  1.00  0.00    -0.334 A  
HETATM    5  C   UNL     1     -11.464  11.610  69.319  1.00  0.00    -0.364 A  
HETATM    6  C   UNL     1     -11.155   9.365  70.278  1.00  0.00    -0.299 A  
HETATM    7  C   UNL     1     -10.870  10.331  69.303  1.00  0.00    -0.275 A  
ENDROOT
BRANCH   5   8
HETATM    8  C   UNL     1     -11.247  12.614  68.226  1.00  0.00    -0.312 A  
HETATM    9  C   UNL     1     -10.446  12.399  67.073  1.00  0.00    -0.220 A  
HETATM   10  C   UNL     1     -10.404  13.355  66.041  1.00  0.00    -0.297 A  
HETATM   11  C   UNL     1     -11.969  13.831  68.270  1.00  0.00    -0.392 A  
HETATM   12  C   UNL     1     -11.100  14.553  66.144  1.00  0.00    -0.334 A  
HETATM   13  C   UNL     1     -11.881  14.796  67.264  1.00  0.00    -0.316 A  
BRANCH   9  14
HETATM   14  N   UNL     1      -9.579  11.283  66.988  1.00  0.00    -0.177 N  
HETATM   15  O   UNL     1     -10.098  10.572  64.845  1.00  0.00    -0.309 OA 
HETATM   16  H   UNL     1      -9.037  11.037  67.817  1.00  0.00     0.000 HD 
HETATM   17  C   UNL     1      -9.415  10.502  65.853  1.00  0.00    -0.190 C  
BRANCH  17  18
HETATM   18  C   UNL     1      -8.398   9.426  65.943  1.00  0.00    -0.125 A  
HETATM   19  C   UNL     1      -8.676   8.119  66.323  1.00  0.00    -0.150 A  
HETATM   20 CL   UNL     1     -10.242   7.553  66.763  1.00  0.00    -0.339 Cl 
HETATM   21  N   UNL     1      -7.742   7.145  66.425  1.00  0.00    -0.098 NA 
HETATM   22  C   UNL     1      -6.465   7.482  66.163  1.00  0.00    -0.045 A  
HETATM   23  C   UNL     1      -6.076   8.759  65.786  1.00  0.00    -0.052 A  
HETATM   24  C   UNL     1      -7.057   9.744  65.675  1.00  0.00    -0.105 A  
ENDBRANCH  17  18
ENDBRANCH   9  14
ENDBRANCH   5   8
TORSDOF 3
ENDMDL
MODEL      140
REMARK 921   NORMALIZED FREE ENERGY PREDICTED BY IDOCK:   -4.17 KCAL/MOL
REMARK 922        TOTAL FREE ENERGY PREDICTED BY IDOCK:   -6.24 KCAL/MOL
REMARK 923 INTER-LIGAND FREE ENERGY PREDICTED BY IDOCK:   -4.85 KCAL/MOL
REMARK 924 INTRA-LIGAND FREE ENERGY PREDICTED BY IDOCK:   -1.39 KCAL/MOL
REMARK 927      BINDING AFFINITY PREDICTED BY RF-SCORE:    0.00 PKD
ROOT
HETATM    1 CL   UNL     1      -6.728  12.387  67.450  1.00  0.00    -0.147 Cl 
HETATM    2  C   UNL     1      -7.857  11.470  68.367  1.00  0.00    -0.136 A  
HETATM    3  C   UNL     1      -7.408  10.523  69.276  1.00  0.00    -0.113 A  
HETATM    4  C   UNL     1      -8.333   9.760  70.001  1.00  0.00    -0.211 A  
HETATM    5  C   UNL     1      -9.725   9.882  69.804  1.00  0.00    -0.266 A  
HETATM    6  C   UNL     1      -9.219  11.661  68.180  1.00  0.00    -0.184 A  
HETATM    7  C   UNL     1     -10.136  10.856  68.870  1.00  0.00    -0.211 A  
ENDROOT
BRANCH   5   8
HETATM    8  C   UNL     1     -10.688   8.946  70.471  1.00  0.00    -0.271 A  
HETATM    9  C   UNL     1     -10.962   7.620  70.040  1.00  0.00    -0.228 A  
HETATM   10  C   UNL     1     -11.787   6.775  70.805  1.00  0.00    -0.446 A  
HETATM   11  C   UNL     1     -11.299   9.352  71.682  1.00  0.00    -0.452 A  
HETATM   12  C   UNL     1     -12.397   7.228  71.969  1.00  0.00    -0.298 A  
HETATM   13  C   UNL     1     -12.158   8.522  72.407  1.00  0.00    -0.436 A  
BRANCH   9  14
HETATM   14  N   UNL     1     -10.515   7.158  68.779  1.00  0.00    -0.199 N  
HETATM   15  O   UNL     1      -8.576   6.080  69.444  1.00  0.00    -0.120 OA 
HETATM   16  H   UNL     1     -11.051   7.432  67.955  1.00  0.00     0.000 HD 
HETATM   17  C   UNL     1      -9.399   6.358  68.588  1.00  0.00    -0.124 C  
BRANCH  17  18
HETATM   18  C   UNL     1      -9.145   5.914  67.195  1.00  0.00    -0.113 A  
HETATM   19  C   UNL     1      -8.434   6.654  66.258  1.00  0.00    -0.130 A  
HETATM   20 CL   UNL     1      -7.754   8.206  66.566  1.00  0.00    -0.092 Cl 
HETATM   21  N   UNL     1      -8.223   6.256  64.981  1.00  0.00    -0.142 NA 
HETATM   22  C   UNL     1      -8.760   5.081  64.603  1.00  0.00    -0.141 A  
HETATM   23  C   UNL     1      -9.496   4.270  65.454  1.00  0.00    -0.177 A  
HETATM   24  C   UNL     1      -9.690   4.693  66.768  1.00  0.00    -0.214 A  
ENDBRANCH  17  18
ENDBRANCH   9  14
ENDBRANCH   5   8
TORSDOF 3
ENDMDL
MODEL      141
REMARK 921   NORMALIZED FREE ENERGY PREDICTED BY IDOCK:   -4.17 KCAL/MOL
REMARK 922        TOTAL FREE ENERGY PREDICTED BY IDOCK:   -6.24 KCAL/MOL
REMARK 923 INTER-LIGAND FREE ENERGY PREDICTED BY IDOCK:   -5.83 KCAL/MOL
REMARK 924 INTRA-LIGAND FREE ENERGY PREDICTED BY IDOCK:   -0.41 KCAL/MOL
REMARK 927      BINDING AFFINITY PREDICTED BY RF-SCORE:    0.00 PKD
ROOT
HETATM    1 CL   UNL     1      -5.526  10.616  69.509  1.00  0.00    -0.038 Cl 
HETATM    2  C   UNL     1      -5.959  12.278  69.427  1.00  0.00    -0.100 A  
HETATM    3  C   UNL     1      -6.352  12.835  68.218  1.00  0.00    -0.078 A  
HETATM    4  C   UNL     1      -6.677  14.197  68.151  1.00  0.00    -0.125 A  
HETATM    5  C   UNL     1      -6.570  15.049  69.271  1.00  0.00    -0.131 A  
HETATM    6  C   UNL     1      -5.891  13.069  70.565  1.00  0.00    -0.144 A  
HETATM    7  C   UNL     1      -6.166  14.440  70.477  1.00  0.00    -0.164 A  
ENDROOT
BRANCH   5   8
HETATM    8  C   UNL     1      -6.767  16.530  69.140  1.00  0.00    -0.213 A  
HETATM    9  C   UNL     1      -7.881  17.148  68.513  1.00  0.00    -0.257 A  
HETATM   10  C   UNL     1      -8.040  18.546  68.550  1.00  0.00    -0.354 A  
HETATM   11  C   UNL     1      -5.844  17.395  69.775  1.00  0.00    -0.244 A  
HETATM   12  C   UNL     1      -7.089  19.360  69.153  1.00  0.00    -0.384 A  
HETATM   13  C   UNL     1      -5.984  18.786  69.763  1.00  0.00    -0.272 A  
BRANCH   9  14
HETATM   14  N   UNL     1      -8.790  16.391  67.734  1.00  0.00    -0.188 N  
HETATM   15  O   UNL     1     -10.725  16.767  68.951  1.00  0.00    -0.315 OA 
HETATM   16  H   UNL     1      -8.415  15.861  66.947  1.00  0.00     0.000 HD 
HETATM   17  C   UNL     1     -10.155  16.322  67.968  1.00  0.00    -0.245 C  
BRANCH  17  18
HETATM   18  C   UNL     1     -10.946  15.537  66.989  1.00  0.00    -0.283 A  
HETATM   19  C   UNL     1     -11.749  14.454  67.324  1.00  0.00    -0.404 A  
HETATM   20 CL   UNL     1     -11.935  13.847  68.924  1.00  0.00    -0.387 Cl 
HETATM   21  N   UNL     1     -12.452  13.726  66.424  1.00  0.00    -0.401 NA 
HETATM   22  C   UNL     1     -12.340  14.069  65.127  1.00  0.00    -0.453 A  
HETATM   23  C   UNL     1     -11.558  15.126  64.683  1.00  0.00    -0.357 A  
HETATM   24  C   UNL     1     -10.852  15.869  65.628  1.00  0.00    -0.292 A  
ENDBRANCH  17  18
ENDBRANCH   9  14
ENDBRANCH   5   8
TORSDOF 3
ENDMDL
MODEL      142
REMARK 921   NORMALIZED FREE ENERGY PREDICTED BY IDOCK:   -4.14 KCAL/MOL
REMARK 922        TOTAL FREE ENERGY PREDICTED BY IDOCK:   -6.20 KCAL/MOL
REMARK 923 INTER-LIGAND FREE ENERGY PREDICTED BY IDOCK:   -5.24 KCAL/MOL
REMARK 924 INTRA-LIGAND FREE ENERGY PREDICTED BY IDOCK:   -0.96 KCAL/MOL
REMARK 927      BINDING AFFINITY PREDICTED BY RF-SCORE:    0.00 PKD
ROOT
HETATM    1 CL   UNL     1      -9.995  14.063  66.410  1.00  0.00    -0.289 Cl 
HETATM    2  C   UNL     1      -9.773  12.364  66.274  1.00  0.00    -0.246 A  
HETATM    3  C   UNL     1      -8.849  11.717  67.083  1.00  0.00    -0.173 A  
HETATM    4  C   UNL     1      -8.651  10.336  66.949  1.00  0.00    -0.127 A  
HETATM    5  C   UNL     1      -9.330   9.573  65.974  1.00  0.00    -0.273 A  
HETATM    6  C   UNL     1     -10.500  11.642  65.338  1.00  0.00    -0.324 A  
HETATM    7  C   UNL     1     -10.258  10.271  65.175  1.00  0.00    -0.295 A  
ENDROOT
BRANCH   5   8
HETATM    8  C   UNL     1      -8.987   8.132  65.741  1.00  0.00    -0.165 A  
HETATM    9  C   UNL     1      -9.509   7.042  66.489  1.00  0.00    -0.150 A  
HETATM   10  C   UNL     1      -9.226   5.715  66.114  1.00  0.00    -0.169 A  
HETATM   11  C   UNL     1      -8.172   7.799  64.633  1.00  0.00    -0.080 A  
HETATM   12  C   UNL     1      -8.388   5.436  65.040  1.00  0.00    -0.145 A  
HETATM   13  C   UNL     1      -7.855   6.479  64.300  1.00  0.00    -0.113 A  
BRANCH   9  14
HETATM   14  N   UNL     1     -10.221   7.261  67.692  1.00  0.00    -0.183 N  
HETATM   15  O   UNL     1      -8.673   6.421  69.197  1.00  0.00    -0.127 OA 
HETATM   16  H   UNL     1     -11.169   7.631  67.624  1.00  0.00     0.000 HD 
HETATM   17  C   UNL     1      -9.717   7.005  68.959  1.00  0.00    -0.145 C  
BRANCH  17  18
HETATM   18  C   UNL     1     -10.593   7.377  70.097  1.00  0.00    -0.240 A  
HETATM   19  C   UNL     1     -10.387   8.484  70.911  1.00  0.00    -0.199 A  
HETATM   20 CL   UNL     1      -9.074   9.585  70.732  1.00  0.00    -0.256 Cl 
HETATM   21  N   UNL     1     -11.176   8.808  71.963  1.00  0.00    -0.364 NA 
HETATM   22  C   UNL     1     -12.205   7.986  72.240  1.00  0.00    -0.318 A  
HETATM   23  C   UNL     1     -12.494   6.849  71.500  1.00  0.00    -0.420 A  
HETATM   24  C   UNL     1     -11.675   6.542  70.414  1.00  0.00    -0.439 A  
ENDBRANCH  17  18
ENDBRANCH   9  14
ENDBRANCH   5   8
TORSDOF 3
ENDMDL
MODEL      143
REMARK 921   NORMALIZED FREE ENERGY PREDICTED BY IDOCK:   -4.11 KCAL/MOL
REMARK 922        TOTAL FREE ENERGY PREDICTED BY IDOCK:   -6.17 KCAL/MOL
REMARK 923 INTER-LIGAND FREE ENERGY PREDICTED BY IDOCK:   -5.54 KCAL/MOL
REMARK 924 INTRA-LIGAND FREE ENERGY PREDICTED BY IDOCK:   -0.63 KCAL/MOL
REMARK 927      BINDING AFFINITY PREDICTED BY RF-SCORE:    0.00 PKD
ROOT
HETATM    1 CL   UNL     1      -7.036   7.740  74.259  1.00  0.00    -0.139 Cl 
HETATM    2  C   UNL     1      -7.322   8.372  72.686  1.00  0.00    -0.073 A  
HETATM    3  C   UNL     1      -8.597   8.326  72.140  1.00  0.00    -0.249 A  
HETATM    4  C   UNL     1      -8.818   8.818  70.846  1.00  0.00    -0.243 A  
HETATM    5  C   UNL     1      -7.770   9.321  70.045  1.00  0.00    -0.104 A  
HETATM    6  C   UNL     1      -6.272   8.908  71.953  1.00  0.00    -0.069 A  
HETATM    7  C   UNL     1      -6.492   9.349  70.642  1.00  0.00    -0.081 A  
ENDROOT
BRANCH   5   8
HETATM    8  C   UNL     1      -8.000   9.693  68.611  1.00  0.00    -0.089 A  
HETATM    9  C   UNL     1      -8.857  10.736  68.170  1.00  0.00    -0.133 A  
HETATM   10  C   UNL     1      -8.912  11.092  66.809  1.00  0.00    -0.163 A  
HETATM   11  C   UNL     1      -7.236   9.043  67.612  1.00  0.00    -0.083 A  
HETATM   12  C   UNL     1      -8.171  10.401  65.857  1.00  0.00    -0.150 A  
HETATM   13  C   UNL     1      -7.335   9.370  66.256  1.00  0.00    -0.096 A  
BRANCH   9  14
HETATM   14  N   UNL     1      -9.764  11.358  69.061  1.00  0.00    -0.408 N  
HETATM   15  O   UNL     1     -11.755  10.571  68.176  1.00  0.00    -0.431 OA 
HETATM   16  H   UNL     1      -9.382  11.991  69.765  1.00  0.00     0.000 HD 
HETATM   17  C   UNL     1     -11.137  11.165  69.044  1.00  0.00    -0.242 C  
BRANCH  17  18
HETATM   18  C   UNL     1     -11.906  11.848  70.114  1.00  0.00    -0.390 A  
HETATM   19  C   UNL     1     -11.923  13.223  70.306  1.00  0.00    -0.300 A  
HETATM   20 CL   UNL     1     -11.042  14.345  69.342  1.00  0.00    -0.290 Cl 
HETATM   21  N   UNL     1     -12.608  13.841  71.298  1.00  0.00    -0.358 NA 
HETATM   22  C   UNL     1     -13.291  13.061  72.157  1.00  0.00    -0.524 A  
HETATM   23  C   UNL     1     -13.332  11.677  72.062  1.00  0.00    -0.405 A  
HETATM   24  C   UNL     1     -12.630  11.064  71.026  1.00  0.00    -0.512 A  
ENDBRANCH  17  18
ENDBRANCH   9  14
ENDBRANCH   5   8
TORSDOF 3
ENDMDL
MODEL      144
REMARK 921   NORMALIZED FREE ENERGY PREDICTED BY IDOCK:   -4.11 KCAL/MOL
REMARK 922        TOTAL FREE ENERGY PREDICTED BY IDOCK:   -6.17 KCAL/MOL
REMARK 923 INTER-LIGAND FREE ENERGY PREDICTED BY IDOCK:   -6.39 KCAL/MOL
REMARK 924 INTRA-LIGAND FREE ENERGY PREDICTED BY IDOCK:    0.22 KCAL/MOL
REMARK 927      BINDING AFFINITY PREDICTED BY RF-SCORE:    0.00 PKD
ROOT
HETATM    1 CL   UNL     1     -11.350   9.391  71.578  1.00  0.00    -0.449 Cl 
HETATM    2  C   UNL     1     -11.271  10.166  70.046  1.00  0.00    -0.299 A  
HETATM    3  C   UNL     1     -11.723  11.470  69.903  1.00  0.00    -0.420 A  
HETATM    4  C   UNL     1     -11.682  12.088  68.645  1.00  0.00    -0.380 A  
HETATM    5  C   UNL     1     -11.237  11.408  67.490  1.00  0.00    -0.356 A  
HETATM    6  C   UNL     1     -10.775   9.479  68.946  1.00  0.00    -0.220 A  
HETATM    7  C   UNL     1     -10.787  10.086  67.683  1.00  0.00    -0.336 A  
ENDROOT
BRANCH   5   8
HETATM    8  C   UNL     1     -11.351  12.032  66.131  1.00  0.00    -0.407 A  
HETATM    9  C   UNL     1     -10.652  11.594  64.975  1.00  0.00    -0.289 A  
HETATM   10  C   UNL     1     -10.919  12.164  63.717  1.00  0.00    -0.494 A  
HETATM   11  C   UNL     1     -12.299  13.065  65.937  1.00  0.00    -0.432 A  
HETATM   12  C   UNL     1     -11.832  13.203  63.579  1.00  0.00    -0.539 A  
HETATM   13  C   UNL     1     -12.521  13.660  64.692  1.00  0.00    -0.359 A  
BRANCH   9  14
HETATM   14  N   UNL     1      -9.588  10.665  65.078  1.00  0.00    -0.241 N  
HETATM   15  O   UNL     1      -9.435  10.030  62.855  1.00  0.00    -0.294 OA 
HETATM   16  H   UNL     1      -9.221  10.462  66.008  1.00  0.00     0.000 HD 
HETATM   17  C   UNL     1      -9.010  10.013  63.998  1.00  0.00    -0.240 C  
BRANCH  17  18
HETATM   18  C   UNL     1      -7.853   9.138  64.308  1.00  0.00    -0.127 A  
HETATM   19  C   UNL     1      -6.606   9.251  63.707  1.00  0.00    -0.092 A  
HETATM   20 CL   UNL     1      -6.217  10.415  62.498  1.00  0.00    -0.133 Cl 
HETATM   21  N   UNL     1      -5.559   8.435  63.976  1.00  0.00    -0.060 NA 
HETATM   22  C   UNL     1      -5.759   7.444  64.865  1.00  0.00    -0.037 A  
HETATM   23  C   UNL     1      -6.966   7.235  65.514  1.00  0.00    -0.060 A  
HETATM   24  C   UNL     1      -8.027   8.094  65.231  1.00  0.00    -0.126 A  
ENDBRANCH  17  18
ENDBRANCH   9  14
ENDBRANCH   5   8
TORSDOF 3
ENDMDL
MODEL      145
REMARK 921   NORMALIZED FREE ENERGY PREDICTED BY IDOCK:   -4.11 KCAL/MOL
REMARK 922        TOTAL FREE ENERGY PREDICTED BY IDOCK:   -6.16 KCAL/MOL
REMARK 923 INTER-LIGAND FREE ENERGY PREDICTED BY IDOCK:   -5.49 KCAL/MOL
REMARK 924 INTRA-LIGAND FREE ENERGY PREDICTED BY IDOCK:   -0.67 KCAL/MOL
REMARK 927      BINDING AFFINITY PREDICTED BY RF-SCORE:    0.00 PKD
ROOT
HETATM    1 CL   UNL     1     -13.400   7.266  71.515  1.00  0.00    -0.445 Cl 
HETATM    2  C   UNL     1     -11.969   7.732  70.683  1.00  0.00    -0.070 A  
HETATM    3  C   UNL     1     -11.305   6.818  69.878  1.00  0.00    -0.374 A  
HETATM    4  C   UNL     1     -10.123   7.195  69.224  1.00  0.00    -0.178 A  
HETATM    5  C   UNL     1      -9.547   8.472  69.395  1.00  0.00    -0.170 A  
HETATM    6  C   UNL     1     -11.465   9.016  70.836  1.00  0.00    -0.347 A  
HETATM    7  C   UNL     1     -10.256   9.367  70.222  1.00  0.00    -0.295 A  
ENDROOT
BRANCH   5   8
HETATM    8  C   UNL     1      -8.203   8.800  68.815  1.00  0.00    -0.116 A  
HETATM    9  C   UNL     1      -7.983   9.685  67.726  1.00  0.00    -0.105 A  
HETATM   10  C   UNL     1      -6.675  10.027  67.334  1.00  0.00    -0.073 A  
HETATM   11  C   UNL     1      -7.047   8.288  69.452  1.00  0.00    -0.055 A  
HETATM   12  C   UNL     1      -5.568   9.470  67.965  1.00  0.00    -0.040 A  
HETATM   13  C   UNL     1      -5.753   8.593  69.023  1.00  0.00    -0.039 A  
BRANCH   9  14
HETATM   14  N   UNL     1      -9.061  10.146  66.934  1.00  0.00    -0.142 N  
HETATM   15  O   UNL     1      -8.602  12.417  66.966  1.00  0.00    -0.188 OA 
HETATM   16  H   UNL     1      -9.751   9.461  66.624  1.00  0.00     0.000 HD 
HETATM   17  C   UNL     1      -9.244  11.466  66.550  1.00  0.00    -0.189 C  
BRANCH  17  18
HETATM   18  C   UNL     1     -10.395  11.732  65.652  1.00  0.00    -0.293 A  
HETATM   19  C   UNL     1     -10.453  11.340  64.321  1.00  0.00    -0.357 A  
HETATM   20 CL   UNL     1      -9.190  10.498  63.506  1.00  0.00    -0.265 Cl 
HETATM   21  N   UNL     1     -11.496  11.603  63.499  1.00  0.00    -0.399 NA 
HETATM   22  C   UNL     1     -12.522  12.310  64.008  1.00  0.00    -0.458 A  
HETATM   23  C   UNL     1     -12.561  12.760  65.320  1.00  0.00    -0.460 A  
HETATM   24  C   UNL     1     -11.482  12.466  66.152  1.00  0.00    -0.430 A  
ENDBRANCH  17  18
ENDBRANCH   9  14
ENDBRANCH   5   8
TORSDOF 3
ENDMDL
MODEL      146
REMARK 921   NORMALIZED FREE ENERGY PREDICTED BY IDOCK:   -4.10 KCAL/MOL
REMARK 922        TOTAL FREE ENERGY PREDICTED BY IDOCK:   -6.16 KCAL/MOL
REMARK 923 INTER-LIGAND FREE ENERGY PREDICTED BY IDOCK:   -5.71 KCAL/MOL
REMARK 924 INTRA-LIGAND FREE ENERGY PREDICTED BY IDOCK:   -0.44 KCAL/MOL
REMARK 927      BINDING AFFINITY PREDICTED BY RF-SCORE:    0.00 PKD
ROOT
HETATM    1 CL   UNL     1      -9.105   3.768  65.873  1.00  0.00    -0.143 Cl 
HETATM    2  C   UNL     1      -9.371   5.448  66.121  1.00  0.00    -0.157 A  
HETATM    3  C   UNL     1     -10.569   5.889  66.665  1.00  0.00    -0.330 A  
HETATM    4  C   UNL     1     -10.792   7.262  66.839  1.00  0.00    -0.265 A  
HETATM    5  C   UNL     1      -9.850   8.232  66.431  1.00  0.00    -0.283 A  
HETATM    6  C   UNL     1      -8.396   6.366  65.755  1.00  0.00    -0.146 A  
HETATM    7  C   UNL     1      -8.648   7.738  65.884  1.00  0.00    -0.170 A  
ENDROOT
BRANCH   5   8
HETATM    8  C   UNL     1     -10.174   9.695  66.479  1.00  0.00    -0.294 A  
HETATM    9  C   UNL     1     -10.402  10.438  67.669  1.00  0.00    -0.219 A  
HETATM   10  C   UNL     1     -10.576  11.833  67.621  1.00  0.00    -0.237 A  
HETATM   11  C   UNL     1     -10.150  10.435  65.273  1.00  0.00    -0.370 A  
HETATM   12  C   UNL     1     -10.582  12.514  66.409  1.00  0.00    -0.271 A  
HETATM   13  C   UNL     1     -10.374  11.814  65.230  1.00  0.00    -0.317 A  
BRANCH   9  14
HETATM   14  N   UNL     1     -10.582   9.783  68.911  1.00  0.00    -0.213 N  
HETATM   15  O   UNL     1      -8.366   9.606  69.563  1.00  0.00    -0.124 OA 
HETATM   16  H   UNL     1     -11.530   9.510  69.172  1.00  0.00     0.000 HD 
HETATM   17  C   UNL     1      -9.557   9.488  69.798  1.00  0.00    -0.216 C  
BRANCH  17  18
HETATM   18  C   UNL     1      -9.965   8.870  71.084  1.00  0.00    -0.342 A  
HETATM   19  C   UNL     1      -9.084   8.548  72.108  1.00  0.00    -0.249 A  
HETATM   20 CL   UNL     1      -7.382   8.803  72.036  1.00  0.00    -0.073 Cl 
HETATM   21  N   UNL     1      -9.456   7.963  73.271  1.00  0.00    -0.279 NA 
HETATM   22  C   UNL     1     -10.759   7.659  73.421  1.00  0.00    -0.271 A  
HETATM   23  C   UNL     1     -11.720   7.926  72.458  1.00  0.00    -0.423 A  
HETATM   24  C   UNL     1     -11.316   8.540  71.273  1.00  0.00    -0.325 A  
ENDBRANCH  17  18
ENDBRANCH   9  14
ENDBRANCH   5   8
TORSDOF 3
ENDMDL
MODEL      147
REMARK 921   NORMALIZED FREE ENERGY PREDICTED BY IDOCK:   -4.09 KCAL/MOL
REMARK 922        TOTAL FREE ENERGY PREDICTED BY IDOCK:   -6.14 KCAL/MOL
REMARK 923 INTER-LIGAND FREE ENERGY PREDICTED BY IDOCK:   -5.53 KCAL/MOL
REMARK 924 INTRA-LIGAND FREE ENERGY PREDICTED BY IDOCK:   -0.62 KCAL/MOL
REMARK 927      BINDING AFFINITY PREDICTED BY RF-SCORE:    0.00 PKD
ROOT
HETATM    1 CL   UNL     1      -6.761  19.670  67.547  1.00  0.00    -0.236 Cl 
HETATM    2  C   UNL     1      -7.786  18.395  67.020  1.00  0.00    -0.227 A  
HETATM    3  C   UNL     1      -7.265  17.124  66.815  1.00  0.00    -0.260 A  
HETATM    4  C   UNL     1      -8.100  16.095  66.358  1.00  0.00    -0.305 A  
HETATM    5  C   UNL     1      -9.459  16.314  66.045  1.00  0.00    -0.369 A  
HETATM    6  C   UNL     1      -9.130  18.641  66.775  1.00  0.00    -0.301 A  
HETATM    7  C   UNL     1      -9.944  17.619  66.268  1.00  0.00    -0.324 A  
ENDROOT
BRANCH   5   8
HETATM    8  C   UNL     1     -10.290  15.241  65.408  1.00  0.00    -0.421 A  
HETATM    9  C   UNL     1     -10.206  13.857  65.718  1.00  0.00    -0.318 A  
HETATM   10  C   UNL     1     -11.115  12.941  65.158  1.00  0.00    -0.321 A  
HETATM   11  C   UNL     1     -11.316  15.622  64.510  1.00  0.00    -0.327 A  
HETATM   12  C   UNL     1     -12.084  13.355  64.250  1.00  0.00    -0.479 A  
HETATM   13  C   UNL     1     -12.183  14.698  63.920  1.00  0.00    -0.073 A  
BRANCH   9  14
HETATM   14  N   UNL     1      -9.137  13.350  66.494  1.00  0.00    -0.433 N  
HETATM   15  O   UNL     1     -10.205  13.201  68.545  1.00  0.00    -0.239 OA 
HETATM   16  H   UNL     1      -8.229  13.243  66.042  1.00  0.00     0.000 HD 
HETATM   17  C   UNL     1      -9.240  12.987  67.829  1.00  0.00    -0.200 C  
BRANCH  17  18
HETATM   18  C   UNL     1      -8.023  12.401  68.442  1.00  0.00    -0.149 A  
HETATM   19  C   UNL     1      -7.784  11.037  68.553  1.00  0.00    -0.122 A  
HETATM   20 CL   UNL     1      -8.873   9.818  68.010  1.00  0.00    -0.119 Cl 
HETATM   21  N   UNL     1      -6.682  10.506  69.133  1.00  0.00    -0.062 NA 
HETATM   22  C   UNL     1      -5.782  11.362  69.652  1.00  0.00    -0.074 A  
HETATM   23  C   UNL     1      -5.927  12.741  69.605  1.00  0.00    -0.121 A  
HETATM   24  C   UNL     1      -7.064  13.266  68.992  1.00  0.00    -0.044 A  
ENDBRANCH  17  18
ENDBRANCH   9  14
ENDBRANCH   5   8
TORSDOF 3
ENDMDL
MODEL      148
REMARK 921   NORMALIZED FREE ENERGY PREDICTED BY IDOCK:   -4.07 KCAL/MOL
REMARK 922        TOTAL FREE ENERGY PREDICTED BY IDOCK:   -6.12 KCAL/MOL
REMARK 923 INTER-LIGAND FREE ENERGY PREDICTED BY IDOCK:   -6.07 KCAL/MOL
REMARK 924 INTRA-LIGAND FREE ENERGY PREDICTED BY IDOCK:   -0.06 KCAL/MOL
REMARK 927      BINDING AFFINITY PREDICTED BY RF-SCORE:    0.00 PKD
ROOT
HETATM    1 CL   UNL     1     -13.168  11.421  72.034  1.00  0.00    -0.560 Cl 
HETATM    2  C   UNL     1     -12.196  10.715  70.804  1.00  0.00    -0.375 A  
HETATM    3  C   UNL     1     -11.223   9.783  71.138  1.00  0.00    -0.444 A  
HETATM    4  C   UNL     1     -10.414   9.231  70.135  1.00  0.00    -0.265 A  
HETATM    5  C   UNL     1     -10.518   9.629  68.784  1.00  0.00    -0.238 A  
HETATM    6  C   UNL     1     -12.368  11.095  69.481  1.00  0.00    -0.262 A  
HETATM    7  C   UNL     1     -11.520  10.578  68.492  1.00  0.00    -0.284 A  
ENDROOT
BRANCH   5   8
HETATM    8  C   UNL     1      -9.539   9.146  67.756  1.00  0.00    -0.173 A  
HETATM    9  C   UNL     1      -9.048   9.924  66.674  1.00  0.00    -0.147 A  
HETATM   10  C   UNL     1      -8.036   9.425  65.834  1.00  0.00    -0.106 A  
HETATM   11  C   UNL     1      -8.965   7.862  67.917  1.00  0.00    -0.129 A  
HETATM   12  C   UNL     1      -7.528   8.142  66.006  1.00  0.00    -0.080 A  
HETATM   13  C   UNL     1      -7.997   7.355  67.047  1.00  0.00    -0.116 A  
BRANCH   9  14
HETATM   14  N   UNL     1      -9.645  11.163  66.339  1.00  0.00    -0.194 N  
HETATM   15  O   UNL     1      -8.080  12.594  67.272  1.00  0.00    -0.176 OA 
HETATM   16  H   UNL     1     -10.555  11.144  65.878  1.00  0.00     0.000 HD 
HETATM   17  C   UNL     1      -9.077  12.402  66.595  1.00  0.00    -0.204 C  
BRANCH  17  18
HETATM   18  C   UNL     1      -9.826  13.580  66.094  1.00  0.00    -0.292 A  
HETATM   19  C   UNL     1     -10.640  13.566  64.968  1.00  0.00    -0.372 A  
HETATM   20 CL   UNL     1     -10.891  12.183  63.974  1.00  0.00    -0.391 Cl 
HETATM   21  N   UNL     1     -11.305  14.649  64.501  1.00  0.00    -0.345 NA 
HETATM   22  C   UNL     1     -11.140  15.810  65.163  1.00  0.00    -0.324 A  
HETATM   23  C   UNL     1     -10.343  15.937  66.291  1.00  0.00    -0.324 A  
HETATM   24  C   UNL     1      -9.677  14.806  66.762  1.00  0.00    -0.264 A  
ENDBRANCH  17  18
ENDBRANCH   9  14
ENDBRANCH   5   8
TORSDOF 3
ENDMDL
MODEL      149
REMARK 921   NORMALIZED FREE ENERGY PREDICTED BY IDOCK:   -4.05 KCAL/MOL
REMARK 922        TOTAL FREE ENERGY PREDICTED BY IDOCK:   -6.10 KCAL/MOL
REMARK 923 INTER-LIGAND FREE ENERGY PREDICTED BY IDOCK:   -5.25 KCAL/MOL
REMARK 924 INTRA-LIGAND FREE ENERGY PREDICTED BY IDOCK:   -0.85 KCAL/MOL
REMARK 927      BINDING AFFINITY PREDICTED BY RF-SCORE:    0.00 PKD
ROOT
HETATM    1 CL   UNL     1      -6.983   7.568  74.562  1.00  0.00    -0.116 Cl 
HETATM    2  C   UNL     1      -7.754   7.360  73.040  1.00  0.00    -0.088 A  
HETATM    3  C   UNL     1      -9.049   6.864  72.979  1.00  0.00    -0.148 A  
HETATM    4  C   UNL     1      -9.663   6.670  71.734  1.00  0.00    -0.168 A  
HETATM    5  C   UNL     1      -8.988   6.915  70.519  1.00  0.00    -0.155 A  
HETATM    6  C   UNL     1      -7.072   7.664  71.870  1.00  0.00    -0.064 A  
HETATM    7  C   UNL     1      -7.675   7.417  70.629  1.00  0.00    -0.091 A  
ENDROOT
BRANCH   5   8
HETATM    8  C   UNL     1      -9.605   6.550  69.202  1.00  0.00    -0.137 A  
HETATM    9  C   UNL     1     -10.513   7.367  68.476  1.00  0.00    -0.186 A  
HETATM   10  C   UNL     1     -10.941   6.994  67.189  1.00  0.00    -0.393 A  
HETATM   11  C   UNL     1      -9.185   5.358  68.564  1.00  0.00    -0.130 A  
HETATM   12  C   UNL     1     -10.532   5.795  66.616  1.00  0.00    -0.330 A  
HETATM   13  C   UNL     1      -9.656   4.971  67.306  1.00  0.00    -0.164 A  
BRANCH   9  14
HETATM   14  N   UNL     1     -11.101   8.508  69.073  1.00  0.00    -0.417 N  
HETATM   15  O   UNL     1      -9.339   9.996  68.849  1.00  0.00    -0.156 OA 
HETATM   16  H   UNL     1     -12.032   8.406  69.479  1.00  0.00     0.000 HD 
HETATM   17  C   UNL     1     -10.499   9.755  69.143  1.00  0.00    -0.215 C  
BRANCH  17  18
HETATM   18  C   UNL     1     -11.315  10.842  69.739  1.00  0.00    -0.372 A  
HETATM   19  C   UNL     1     -12.073  10.704  70.895  1.00  0.00    -0.385 A  
HETATM   20 CL   UNL     1     -12.193   9.247  71.804  1.00  0.00    -0.434 Cl 
HETATM   21  N   UNL     1     -12.834  11.692  71.423  1.00  0.00    -0.399 NA 
HETATM   22  C   UNL     1     -12.868  12.866  70.765  1.00  0.00    -0.050 A  
HETATM   23  C   UNL     1     -12.159  13.106  69.598  1.00  0.00    -0.317 A  
HETATM   24  C   UNL     1     -11.372  12.079  69.078  1.00  0.00    -0.331 A  
ENDBRANCH  17  18
ENDBRANCH   9  14
ENDBRANCH   5   8
TORSDOF 3
ENDMDL
MODEL      150
REMARK 921   NORMALIZED FREE ENERGY PREDICTED BY IDOCK:   -4.00 KCAL/MOL
REMARK 922        TOTAL FREE ENERGY PREDICTED BY IDOCK:   -6.04 KCAL/MOL
REMARK 923 INTER-LIGAND FREE ENERGY PREDICTED BY IDOCK:   -4.97 KCAL/MOL
REMARK 924 INTRA-LIGAND FREE ENERGY PREDICTED BY IDOCK:   -1.06 KCAL/MOL
REMARK 927      BINDING AFFINITY PREDICTED BY RF-SCORE:    0.00 PKD
ROOT
HETATM    1 CL   UNL     1     -13.117  12.592  64.617  1.00  0.00    -0.251 Cl 
HETATM    2  C   UNL     1     -11.672  12.651  65.546  1.00  0.00    -0.402 A  
HETATM    3  C   UNL     1     -11.691  12.287  66.885  1.00  0.00    -0.404 A  
HETATM    4  C   UNL     1     -10.516  12.363  67.645  1.00  0.00    -0.229 A  
HETATM    5  C   UNL     1      -9.305  12.852  67.108  1.00  0.00    -0.229 A  
HETATM    6  C   UNL     1     -10.490  13.087  64.963  1.00  0.00    -0.345 A  
HETATM    7  C   UNL     1      -9.333  13.211  65.744  1.00  0.00     0.143 A  
ENDROOT
BRANCH   5   8
HETATM    8  C   UNL     1      -8.105  13.075  67.978  1.00  0.00    -0.157 A  
HETATM    9  C   UNL     1      -7.577  14.349  68.321  1.00  0.00    -0.124 A  
HETATM   10  C   UNL     1      -6.522  14.461  69.246  1.00  0.00    -0.117 A  
HETATM   11  C   UNL     1      -7.503  11.957  68.602  1.00  0.00    -0.118 A  
HETATM   12  C   UNL     1      -5.935  13.332  69.806  1.00  0.00    -0.128 A  
HETATM   13  C   UNL     1      -6.422  12.075  69.480  1.00  0.00    -0.109 A  
BRANCH   9  14
HETATM   14  N   UNL     1      -8.011  15.520  67.655  1.00  0.00    -0.140 N  
HETATM   15  O   UNL     1      -9.347  16.420  69.319  1.00  0.00    -0.249 OA 
HETATM   16  H   UNL     1      -7.725  15.649  66.684  1.00  0.00     0.000 HD 
HETATM   17  C   UNL     1      -8.800  16.504  68.232  1.00  0.00    -0.210 C  
BRANCH  17  18
HETATM   18  C   UNL     1      -9.080  17.693  67.391  1.00  0.00    -0.239 A  
HETATM   19  C   UNL     1     -10.029  17.725  66.377  1.00  0.00    -0.344 A  
HETATM   20 CL   UNL     1     -11.014  16.384  65.932  1.00  0.00    -0.084 Cl 
HETATM   21  N   UNL     1     -10.267  18.805  65.596  1.00  0.00    -0.488 NA 
HETATM   22  C   UNL     1      -9.515  19.901  65.810  1.00  0.00    -0.075 A  
HETATM   23  C   UNL     1      -8.534  19.973  66.788  1.00  0.00    -0.380 A  
HETATM   24  C   UNL     1      -8.314  18.852  67.588  1.00  0.00    -0.296 A  
ENDBRANCH  17  18
ENDBRANCH   9  14
ENDBRANCH   5   8
TORSDOF 3
ENDMDL
MODEL      151
REMARK 921   NORMALIZED FREE ENERGY PREDICTED BY IDOCK:   -3.95 KCAL/MOL
REMARK 922        TOTAL FREE ENERGY PREDICTED BY IDOCK:   -5.98 KCAL/MOL
REMARK 923 INTER-LIGAND FREE ENERGY PREDICTED BY IDOCK:   -5.67 KCAL/MOL
REMARK 924 INTRA-LIGAND FREE ENERGY PREDICTED BY IDOCK:   -0.31 KCAL/MOL
REMARK 927      BINDING AFFINITY PREDICTED BY RF-SCORE:    0.00 PKD
ROOT
HETATM    1 CL   UNL     1      -6.950  17.741  68.843  1.00  0.00    -0.246 Cl 
HETATM    2  C   UNL     1      -7.258  16.080  68.527  1.00  0.00    -0.138 A  
HETATM    3  C   UNL     1      -6.258  15.276  67.998  1.00  0.00    -0.156 A  
HETATM    4  C   UNL     1      -6.522  13.929  67.717  1.00  0.00    -0.178 A  
HETATM    5  C   UNL     1      -7.801  13.360  67.907  1.00  0.00    -0.152 A  
HETATM    6  C   UNL     1      -8.514  15.547  68.780  1.00  0.00    -0.190 A  
HETATM    7  C   UNL     1      -8.785  14.214  68.446  1.00  0.00    -0.178 A  
ENDROOT
BRANCH   5   8
HETATM    8  C   UNL     1      -8.104  11.964  67.451  1.00  0.00    -0.165 A  
HETATM    9  C   UNL     1      -9.265  11.228  67.808  1.00  0.00    -0.156 A  
HETATM   10  C   UNL     1      -9.522   9.971  67.229  1.00  0.00    -0.179 A  
HETATM   11  C   UNL     1      -7.240  11.356  66.508  1.00  0.00    -0.057 A  
HETATM   12  C   UNL     1      -8.626   9.395  66.336  1.00  0.00    -0.144 A  
HETATM   13  C   UNL     1      -7.478  10.085  65.978  1.00  0.00    -0.112 A  
BRANCH   9  14
HETATM   14  N   UNL     1     -10.123  11.678  68.839  1.00  0.00    -0.373 N  
HETATM   15  O   UNL     1     -12.158  11.453  67.754  1.00  0.00    -0.637 OA 
HETATM   16  H   UNL     1      -9.695  12.023  69.699  1.00  0.00     0.000 HD 
HETATM   17  C   UNL     1     -11.508  11.683  68.761  1.00  0.00    -0.285 C  
BRANCH  17  18
HETATM   18  C   UNL     1     -12.230  12.120  69.981  1.00  0.00    -0.270 A  
HETATM   19  C   UNL     1     -12.568  13.439  70.257  1.00  0.00    -0.117 A  
HETATM   20 CL   UNL     1     -12.186  14.769  69.232  1.00  0.00    -0.279 Cl 
HETATM   21  N   UNL     1     -13.207  13.837  71.382  1.00  0.00    -0.327 NA 
HETATM   22  C   UNL     1     -13.506  12.891  72.291  1.00  0.00    -0.531 A  
HETATM   23  C   UNL     1     -13.205  11.548  72.121  1.00  0.00    -0.315 A  
HETATM   24  C   UNL     1     -12.557  11.158  70.949  1.00  0.00    -0.483 A  
ENDBRANCH  17  18
ENDBRANCH   9  14
ENDBRANCH   5   8
TORSDOF 3
ENDMDL
MODEL      152
REMARK 921   NORMALIZED FREE ENERGY PREDICTED BY IDOCK:   -3.92 KCAL/MOL
REMARK 922        TOTAL FREE ENERGY PREDICTED BY IDOCK:   -5.94 KCAL/MOL
REMARK 923 INTER-LIGAND FREE ENERGY PREDICTED BY IDOCK:   -5.74 KCAL/MOL
REMARK 924 INTRA-LIGAND FREE ENERGY PREDICTED BY IDOCK:   -0.20 KCAL/MOL
REMARK 927      BINDING AFFINITY PREDICTED BY RF-SCORE:    0.00 PKD
ROOT
HETATM    1 CL   UNL     1      -9.622   8.687  69.883  1.00  0.00    -0.170 Cl 
HETATM    2  C   UNL     1     -10.203   9.924  68.841  1.00  0.00    -0.196 A  
HETATM    3  C   UNL     1      -9.879   9.904  67.492  1.00  0.00    -0.209 A  
HETATM    4  C   UNL     1     -10.333  10.930  66.651  1.00  0.00    -0.289 A  
HETATM    5  C   UNL     1     -11.076  12.027  67.141  1.00  0.00    -0.344 A  
HETATM    6  C   UNL     1     -10.977  10.956  69.354  1.00  0.00    -0.304 A  
HETATM    7  C   UNL     1     -11.381  12.005  68.517  1.00  0.00    -0.323 A  
ENDROOT
BRANCH   5   8
HETATM    8  C   UNL     1     -11.413  13.191  66.257  1.00  0.00    -0.372 A  
HETATM    9  C   UNL     1     -10.643  14.380  66.153  1.00  0.00    -0.298 A  
HETATM   10  C   UNL     1     -10.972  15.365  65.203  1.00  0.00    -0.430 A  
HETATM   11  C   UNL     1     -12.513  13.075  65.374  1.00  0.00    -0.531 A  
HETATM   12  C   UNL     1     -12.085  15.226  64.381  1.00  0.00    -0.263 A  
HETATM   13  C   UNL     1     -12.862  14.081  64.469  1.00  0.00     0.075 A  
BRANCH   9  14
HETATM   14  N   UNL     1      -9.608  14.660  67.076  1.00  0.00    -0.232 N  
HETATM   15  O   UNL     1      -8.444  16.251  65.859  1.00  0.00    -0.330 OA 
HETATM   16  H   UNL     1      -9.576  14.112  67.937  1.00  0.00     0.000 HD 
HETATM   17  C   UNL     1      -8.633  15.629  66.892  1.00  0.00    -0.248 C  
BRANCH  17  18
HETATM   18  C   UNL     1      -7.683  15.822  68.015  1.00  0.00    -0.136 A  
HETATM   19  C   UNL     1      -7.460  17.038  68.648  1.00  0.00    -0.229 A  
HETATM   20 CL   UNL     1      -8.241  18.511  68.215  1.00  0.00    -0.323 Cl 
HETATM   21  N   UNL     1      -6.576  17.214  69.658  1.00  0.00    -0.188 NA 
HETATM   22  C   UNL     1      -5.858  16.144  70.047  1.00  0.00    -0.179 A  
HETATM   23  C   UNL     1      -5.994  14.887  69.475  1.00  0.00    -0.107 A  
HETATM   24  C   UNL     1      -6.920  14.725  68.445  1.00  0.00    -0.114 A  
ENDBRANCH  17  18
ENDBRANCH   9  14
ENDBRANCH   5   8
TORSDOF 3
ENDMDL
MODEL      153
REMARK 921   NORMALIZED FREE ENERGY PREDICTED BY IDOCK:   -3.90 KCAL/MOL
REMARK 922        TOTAL FREE ENERGY PREDICTED BY IDOCK:   -5.92 KCAL/MOL
REMARK 923 INTER-LIGAND FREE ENERGY PREDICTED BY IDOCK:   -5.60 KCAL/MOL
REMARK 924 INTRA-LIGAND FREE ENERGY PREDICTED BY IDOCK:   -0.32 KCAL/MOL
REMARK 927      BINDING AFFINITY PREDICTED BY RF-SCORE:    0.00 PKD
ROOT
HETATM    1 CL   UNL     1     -12.279   8.366  72.388  1.00  0.00    -0.444 Cl 
HETATM    2  C   UNL     1     -11.776   9.153  70.945  1.00  0.00    -0.284 A  
HETATM    3  C   UNL     1     -12.345  10.365  70.581  1.00  0.00    -0.438 A  
HETATM    4  C   UNL     1     -11.952  10.989  69.389  1.00  0.00    -0.408 A  
HETATM    5  C   UNL     1     -11.022  10.399  68.505  1.00  0.00    -0.302 A  
HETATM    6  C   UNL     1     -10.819   8.563  70.131  1.00  0.00    -0.238 A  
HETATM    7  C   UNL     1     -10.471   9.168  68.916  1.00  0.00    -0.239 A  
ENDROOT
BRANCH   5   8
HETATM    8  C   UNL     1     -10.737  11.004  67.163  1.00  0.00    -0.313 A  
HETATM    9  C   UNL     1     -10.381  10.270  66.001  1.00  0.00    -0.178 A  
HETATM   10  C   UNL     1     -10.255  10.915  64.756  1.00  0.00    -0.398 A  
HETATM   11  C   UNL     1     -10.936  12.395  66.991  1.00  0.00    -0.303 A  
HETATM   12  C   UNL     1     -10.422  12.290  64.640  1.00  0.00    -0.334 A  
HETATM   13  C   UNL     1     -10.758  13.035  65.761  1.00  0.00    -0.291 A  
BRANCH   9  14
HETATM   14  N   UNL     1     -10.026   8.902  66.085  1.00  0.00    -0.404 N  
HETATM   15  O   UNL     1      -7.719   9.117  66.095  1.00  0.00    -0.094 OA 
HETATM   16  H   UNL     1     -10.777   8.213  66.056  1.00  0.00     0.000 HD 
HETATM   17  C   UNL     1      -8.725   8.436  66.204  1.00  0.00    -0.151 C  
BRANCH  17  18
HETATM   18  C   UNL     1      -8.569   6.968  66.358  1.00  0.00    -0.136 A  
HETATM   19  C   UNL     1      -8.094   6.125  65.362  1.00  0.00    -0.133 A  
HETATM   20 CL   UNL     1      -7.627   6.652  63.790  1.00  0.00    -0.098 Cl 
HETATM   21  N   UNL     1      -7.974   4.783  65.499  1.00  0.00    -0.094 NA 
HETATM   22  C   UNL     1      -8.366   4.244  66.669  1.00  0.00    -0.101 A  
HETATM   23  C   UNL     1      -8.865   4.992  67.725  1.00  0.00    -0.106 A  
HETATM   24  C   UNL     1      -8.967   6.373  67.566  1.00  0.00    -0.116 A  
ENDBRANCH  17  18
ENDBRANCH   9  14
ENDBRANCH   5   8
TORSDOF 3
ENDMDL
MODEL      154
REMARK 921   NORMALIZED FREE ENERGY PREDICTED BY IDOCK:   -3.85 KCAL/MOL
REMARK 922        TOTAL FREE ENERGY PREDICTED BY IDOCK:   -5.86 KCAL/MOL
REMARK 923 INTER-LIGAND FREE ENERGY PREDICTED BY IDOCK:   -4.99 KCAL/MOL
REMARK 924 INTRA-LIGAND FREE ENERGY PREDICTED BY IDOCK:   -0.87 KCAL/MOL
REMARK 927      BINDING AFFINITY PREDICTED BY RF-SCORE:    0.00 PKD
ROOT
HETATM    1 CL   UNL     1      -6.429  19.147  67.275  1.00  0.00    -0.192 Cl 
HETATM    2  C   UNL     1      -6.419  17.528  67.852  1.00  0.00    -0.162 A  
HETATM    3  C   UNL     1      -5.578  16.589  67.273  1.00  0.00    -0.172 A  
HETATM    4  C   UNL     1      -5.594  15.263  67.729  1.00  0.00    -0.114 A  
HETATM    5  C   UNL     1      -6.482  14.827  68.736  1.00  0.00    -0.087 A  
HETATM    6  C   UNL     1      -7.271  17.153  68.883  1.00  0.00    -0.242 A  
HETATM    7  C   UNL     1      -7.318  15.815  69.295  1.00  0.00    -0.216 A  
ENDROOT
BRANCH   5   8
HETATM    8  C   UNL     1      -6.594  13.376  69.096  1.00  0.00    -0.106 A  
HETATM    9  C   UNL     1      -7.537  12.472  68.538  1.00  0.00    -0.119 A  
HETATM   10  C   UNL     1      -7.483  11.100  68.846  1.00  0.00    -0.125 A  
HETATM   11  C   UNL     1      -5.631  12.818  69.970  1.00  0.00    -0.125 A  
HETATM   12  C   UNL     1      -6.543  10.601  69.741  1.00  0.00    -0.121 A  
HETATM   13  C   UNL     1      -5.617  11.462  70.310  1.00  0.00    -0.130 A  
BRANCH   9  14
HETATM   14  N   UNL     1      -8.624  12.942  67.762  1.00  0.00    -0.172 N  
HETATM   15  O   UNL     1      -8.384  11.563  65.915  1.00  0.00    -0.044 OA 
HETATM   16  H   UNL     1      -9.158  13.733  68.121  1.00  0.00     0.000 HD 
HETATM   17  C   UNL     1      -9.011  12.399  66.546  1.00  0.00    -0.145 C  
BRANCH  17  18
HETATM   18  C   UNL     1     -10.226  12.984  65.927  1.00  0.00    -0.298 A  
HETATM   19  C   UNL     1     -10.392  14.337  65.663  1.00  0.00    -0.336 A  
HETATM   20 CL   UNL     1      -9.220  15.545  66.027  1.00  0.00    -0.376 Cl 
HETATM   21  N   UNL     1     -11.512  14.870  65.118  1.00  0.00    -0.361 NA 
HETATM   22  C   UNL     1     -12.526  14.030  64.843  1.00  0.00    -0.396 A  
HETATM   23  C   UNL     1     -12.470  12.664  65.077  1.00  0.00    -0.556 A  
HETATM   24  C   UNL     1     -11.303  12.135  65.627  1.00  0.00    -0.395 A  
ENDBRANCH  17  18
ENDBRANCH   9  14
ENDBRANCH   5   8
TORSDOF 3
ENDMDL
MODEL      155
REMARK 921   NORMALIZED FREE ENERGY PREDICTED BY IDOCK:   -3.83 KCAL/MOL
REMARK 922        TOTAL FREE ENERGY PREDICTED BY IDOCK:   -5.84 KCAL/MOL
REMARK 923 INTER-LIGAND FREE ENERGY PREDICTED BY IDOCK:   -4.50 KCAL/MOL
REMARK 924 INTRA-LIGAND FREE ENERGY PREDICTED BY IDOCK:   -1.34 KCAL/MOL
REMARK 927      BINDING AFFINITY PREDICTED BY RF-SCORE:    0.00 PKD
ROOT
HETATM    1 CL   UNL     1     -12.305   9.558  72.052  1.00  0.00    -0.427 Cl 
HETATM    2  C   UNL     1     -11.429   8.242  71.377  1.00  0.00    -0.269 A  
HETATM    3  C   UNL     1     -12.109   7.178  70.802  1.00  0.00    -0.331 A  
HETATM    4  C   UNL     1     -11.390   6.094  70.278  1.00  0.00    -0.414 A  
HETATM    5  C   UNL     1      -9.983   6.018  70.358  1.00  0.00    -0.233 A  
HETATM    6  C   UNL     1     -10.042   8.233  71.429  1.00  0.00    -0.257 A  
HETATM    7  C   UNL     1      -9.335   7.122  70.951  1.00  0.00    -0.160 A  
ENDROOT
BRANCH   5   8
HETATM    8  C   UNL     1      -9.248   4.781  69.936  1.00  0.00    -0.183 A  
HETATM    9  C   UNL     1      -8.358   4.702  68.832  1.00  0.00    -0.081 A  
HETATM   10  C   UNL     1      -7.618   3.530  68.591  1.00  0.00    -0.053 A  
HETATM   11  C   UNL     1      -9.348   3.624  70.746  1.00  0.00    -0.225 A  
HETATM   12  C   UNL     1      -7.776   2.403  69.391  1.00  0.00    -0.046 A  
HETATM   13  C   UNL     1      -8.647   2.447  70.468  1.00  0.00    -0.101 A  
BRANCH   9  14
HETATM   14  N   UNL     1      -8.283   5.748  67.882  1.00  0.00    -0.101 N  
HETATM   15  O   UNL     1     -10.152   5.232  66.614  1.00  0.00    -0.179 OA 
HETATM   16  H   UNL     1      -7.480   6.376  67.926  1.00  0.00     0.000 HD 
HETATM   17  C   UNL     1      -9.229   5.979  66.894  1.00  0.00    -0.126 C  
BRANCH  17  18
HETATM   18  C   UNL     1      -9.009   7.176  66.045  1.00  0.00    -0.141 A  
HETATM   19  C   UNL     1      -9.582   8.418  66.285  1.00  0.00    -0.216 A  
HETATM   20 CL   UNL     1     -10.650   8.754  67.594  1.00  0.00    -0.307 Cl 
HETATM   21  N   UNL     1      -9.396   9.503  65.496  1.00  0.00    -0.237 NA 
HETATM   22  C   UNL     1      -8.626   9.348  64.403  1.00  0.00    -0.194 A  
HETATM   23  C   UNL     1      -8.014   8.150  64.065  1.00  0.00    -0.139 A  
HETATM   24  C   UNL     1      -8.209   7.049  64.898  1.00  0.00    -0.076 A  
ENDBRANCH  17  18
ENDBRANCH   9  14
ENDBRANCH   5   8
TORSDOF 3
ENDMDL
MODEL      156
REMARK 921   NORMALIZED FREE ENERGY PREDICTED BY IDOCK:   -3.82 KCAL/MOL
REMARK 922        TOTAL FREE ENERGY PREDICTED BY IDOCK:   -5.82 KCAL/MOL
REMARK 923 INTER-LIGAND FREE ENERGY PREDICTED BY IDOCK:   -5.80 KCAL/MOL
REMARK 924 INTRA-LIGAND FREE ENERGY PREDICTED BY IDOCK:   -0.03 KCAL/MOL
REMARK 927      BINDING AFFINITY PREDICTED BY RF-SCORE:    0.00 PKD
ROOT
HETATM    1 CL   UNL     1     -13.407   9.334  72.682  1.00  0.00    -0.441 Cl 
HETATM    2  C   UNL     1     -12.948  10.634  71.655  1.00  0.00    -0.477 A  
HETATM    3  C   UNL     1     -12.097  10.406  70.583  1.00  0.00    -0.443 A  
HETATM    4  C   UNL     1     -11.705  11.475  69.766  1.00  0.00    -0.426 A  
HETATM    5  C   UNL     1     -12.106  12.804  70.024  1.00  0.00    -0.355 A  
HETATM    6  C   UNL     1     -13.410  11.917  71.914  1.00  0.00    -0.405 A  
HETATM    7  C   UNL     1     -12.970  12.988  71.124  1.00  0.00    -0.265 A  
ENDROOT
BRANCH   5   8
HETATM    8  C   UNL     1     -11.547  13.950  69.235  1.00  0.00    -0.358 A  
HETATM    9  C   UNL     1     -10.626  13.824  68.162  1.00  0.00    -0.253 A  
HETATM   10  C   UNL     1     -10.255  14.947  67.400  1.00  0.00    -0.234 A  
HETATM   11  C   UNL     1     -12.042  15.252  69.488  1.00  0.00    -0.320 A  
HETATM   12  C   UNL     1     -10.737  16.215  67.709  1.00  0.00    -0.325 A  
HETATM   13  C   UNL     1     -11.629  16.370  68.759  1.00  0.00    -0.144 A  
BRANCH   9  14
HETATM   14  N   UNL     1      -9.967  12.597  67.910  1.00  0.00    -0.221 N  
HETATM   15  O   UNL     1      -7.807  13.210  68.484  1.00  0.00    -0.134 OA 
HETATM   16  H   UNL     1     -10.516  11.834  67.514  1.00  0.00     0.000 HD 
HETATM   17  C   UNL     1      -8.623  12.361  68.164  1.00  0.00    -0.185 C  
BRANCH  17  18
HETATM   18  C   UNL     1      -8.142  10.982  67.904  1.00  0.00    -0.114 A  
HETATM   19  C   UNL     1      -8.291  10.319  66.693  1.00  0.00    -0.125 A  
HETATM   20 CL   UNL     1      -9.073  10.990  65.313  1.00  0.00    -0.217 Cl 
HETATM   21  N   UNL     1      -7.870   9.052  66.466  1.00  0.00    -0.099 NA 
HETATM   22  C   UNL     1      -7.294   8.399  67.493  1.00  0.00    -0.093 A  
HETATM   23  C   UNL     1      -7.105   8.963  68.746  1.00  0.00    -0.067 A  
HETATM   24  C   UNL     1      -7.535  10.273  68.953  1.00  0.00    -0.094 A  
ENDBRANCH  17  18
ENDBRANCH   9  14
ENDBRANCH   5   8
TORSDOF 3
ENDMDL
MODEL      157
REMARK 921   NORMALIZED FREE ENERGY PREDICTED BY IDOCK:   -3.80 KCAL/MOL
REMARK 922        TOTAL FREE ENERGY PREDICTED BY IDOCK:   -5.80 KCAL/MOL
REMARK 923 INTER-LIGAND FREE ENERGY PREDICTED BY IDOCK:   -5.04 KCAL/MOL
REMARK 924 INTRA-LIGAND FREE ENERGY PREDICTED BY IDOCK:   -0.76 KCAL/MOL
REMARK 927      BINDING AFFINITY PREDICTED BY RF-SCORE:    0.00 PKD
ROOT
HETATM    1 CL   UNL     1     -13.538   8.852  72.874  1.00  0.00    -0.275 Cl 
HETATM    2  C   UNL     1     -12.630   9.598  71.620  1.00  0.00    -0.402 A  
HETATM    3  C   UNL     1     -13.142  10.703  70.955  1.00  0.00    -0.342 A  
HETATM    4  C   UNL     1     -12.409  11.291  69.914  1.00  0.00    -0.301 A  
HETATM    5  C   UNL     1     -11.175  10.764  69.475  1.00  0.00    -0.342 A  
HETATM    6  C   UNL     1     -11.395   9.080  71.256  1.00  0.00    -0.389 A  
HETATM    7  C   UNL     1     -10.695   9.640  70.180  1.00  0.00    -0.321 A  
ENDROOT
BRANCH   5   8
HETATM    8  C   UNL     1     -10.487  11.309  68.259  1.00  0.00    -0.220 A  
HETATM    9  C   UNL     1     -10.134  10.545  67.115  1.00  0.00    -0.209 A  
HETATM   10  C   UNL     1      -9.604  11.171  65.971  1.00  0.00    -0.248 A  
HETATM   11  C   UNL     1     -10.262  12.704  68.177  1.00  0.00    -0.240 A  
HETATM   12  C   UNL     1      -9.364  12.540  65.948  1.00  0.00    -0.039 A  
HETATM   13  C   UNL     1      -9.688  13.310  67.055  1.00  0.00    -0.238 A  
BRANCH   9  14
HETATM   14  N   UNL     1     -10.189   9.131  67.140  1.00  0.00    -0.240 N  
HETATM   15  O   UNL     1      -7.937   8.677  67.441  1.00  0.00    -0.101 OA 
HETATM   16  H   UNL     1     -11.092   8.687  66.970  1.00  0.00     0.000 HD 
HETATM   17  C   UNL     1      -9.098   8.308  67.379  1.00  0.00    -0.140 C  
BRANCH  17  18
HETATM   18  C   UNL     1      -9.380   6.852  67.442  1.00  0.00    -0.144 A  
HETATM   19  C   UNL     1      -9.268   6.085  68.594  1.00  0.00    -0.115 A  
HETATM   20 CL   UNL     1      -8.768   6.702  70.122  1.00  0.00    -0.140 Cl 
HETATM   21  N   UNL     1      -9.505   4.752  68.642  1.00  0.00    -0.140 NA 
HETATM   22  C   UNL     1      -9.846   4.143  67.492  1.00  0.00    -0.084 A  
HETATM   23  C   UNL     1      -9.977   4.812  66.284  1.00  0.00    -0.264 A  
HETATM   24  C   UNL     1      -9.740   6.186  66.260  1.00  0.00    -0.106 A  
ENDBRANCH  17  18
ENDBRANCH   9  14
ENDBRANCH   5   8
TORSDOF 3
ENDMDL
MODEL      158
REMARK 921   NORMALIZED FREE ENERGY PREDICTED BY IDOCK:   -3.76 KCAL/MOL
REMARK 922        TOTAL FREE ENERGY PREDICTED BY IDOCK:   -5.75 KCAL/MOL
REMARK 923 INTER-LIGAND FREE ENERGY PREDICTED BY IDOCK:   -4.93 KCAL/MOL
REMARK 924 INTRA-LIGAND FREE ENERGY PREDICTED BY IDOCK:   -0.82 KCAL/MOL
REMARK 927      BINDING AFFINITY PREDICTED BY RF-SCORE:    0.00 PKD
ROOT
HETATM    1 CL   UNL     1     -11.541   7.718  71.360  1.00  0.00    -0.288 Cl 
HETATM    2  C   UNL     1     -10.815   7.382  69.839  1.00  0.00    -0.246 A  
HETATM    3  C   UNL     1     -11.377   6.435  68.995  1.00  0.00    -0.332 A  
HETATM    4  C   UNL     1     -10.765   6.145  67.767  1.00  0.00    -0.382 A  
HETATM    5  C   UNL     1      -9.553   6.750  67.372  1.00  0.00    -0.158 A  
HETATM    6  C   UNL     1      -9.651   8.040  69.466  1.00  0.00    -0.164 A  
HETATM    7  C   UNL     1      -9.018   7.705  68.262  1.00  0.00    -0.127 A  
ENDROOT
BRANCH   5   8
HETATM    8  C   UNL     1      -8.834   6.309  66.133  1.00  0.00    -0.160 A  
HETATM    9  C   UNL     1      -8.534   7.147  65.026  1.00  0.00     0.028 A  
HETATM   10  C   UNL     1      -7.745   6.674  63.961  1.00  0.00    -0.112 A  
HETATM   11  C   UNL     1      -8.310   4.994  66.084  1.00  0.00    -0.113 A  
HETATM   12  C   UNL     1      -7.283   5.363  63.938  1.00  0.00    -0.050 A  
HETATM   13  C   UNL     1      -7.570   4.517  64.999  1.00  0.00    -0.077 A  
BRANCH   9  14
HETATM   14  N   UNL     1      -9.118   8.431  64.907  1.00  0.00    -0.377 N  
HETATM   15  O   UNL     1      -7.520   9.673  66.035  1.00  0.00    -0.096 OA 
HETATM   16  H   UNL     1     -10.035   8.498  64.464  1.00  0.00     0.000 HD 
HETATM   17  C   UNL     1      -8.529   9.605  65.352  1.00  0.00    -0.145 C  
BRANCH  17  18
HETATM   18  C   UNL     1      -9.269  10.858  65.061  1.00  0.00    -0.233 A  
HETATM   19  C   UNL     1      -9.565  11.310  63.781  1.00  0.00    -0.259 A  
HETATM   20 CL   UNL     1      -9.104  10.494  62.337  1.00  0.00    -0.288 Cl 
HETATM   21  N   UNL     1     -10.221  12.465  63.519  1.00  0.00    -0.386 NA 
HETATM   22  C   UNL     1     -10.582  13.224  64.571  1.00  0.00    -0.419 A  
HETATM   23  C   UNL     1     -10.327  12.872  65.888  1.00  0.00    -0.297 A  
HETATM   24  C   UNL     1      -9.661  11.672  66.135  1.00  0.00    -0.252 A  
ENDBRANCH  17  18
ENDBRANCH   9  14
ENDBRANCH   5   8
TORSDOF 3
ENDMDL
MODEL      159
REMARK 921   NORMALIZED FREE ENERGY PREDICTED BY IDOCK:   -3.76 KCAL/MOL
REMARK 922        TOTAL FREE ENERGY PREDICTED BY IDOCK:   -5.75 KCAL/MOL
REMARK 923 INTER-LIGAND FREE ENERGY PREDICTED BY IDOCK:   -4.74 KCAL/MOL
REMARK 924 INTRA-LIGAND FREE ENERGY PREDICTED BY IDOCK:   -1.01 KCAL/MOL
REMARK 927      BINDING AFFINITY PREDICTED BY RF-SCORE:    0.00 PKD
ROOT
HETATM    1 CL   UNL     1     -13.126  12.601  64.542  1.00  0.00    -0.250 Cl 
HETATM    2  C   UNL     1     -11.924  13.416  65.462  1.00  0.00    -0.398 A  
HETATM    3  C   UNL     1     -12.184  13.783  66.775  1.00  0.00    -0.440 A  
HETATM    4  C   UNL     1     -11.211  14.473  67.511  1.00  0.00    -0.333 A  
HETATM    5  C   UNL     1      -9.976  14.859  66.946  1.00  0.00    -0.245 A  
HETATM    6  C   UNL     1     -10.702  13.729  64.883  1.00  0.00    -0.410 A  
HETATM    7  C   UNL     1      -9.756  14.465  65.610  1.00  0.00    -0.258 A  
ENDROOT
BRANCH   5   8
HETATM    8  C   UNL     1      -9.018  15.732  67.699  1.00  0.00    -0.190 A  
HETATM    9  C   UNL     1      -7.931  15.258  68.481  1.00  0.00    -0.141 A  
HETATM   10  C   UNL     1      -7.011  16.159  69.049  1.00  0.00    -0.178 A  
HETATM   11  C   UNL     1      -9.117  17.136  67.546  1.00  0.00    -0.225 A  
HETATM   12  C   UNL     1      -7.169  17.533  68.904  1.00  0.00    -0.249 A  
HETATM   13  C   UNL     1      -8.227  18.025  68.156  1.00  0.00    -0.275 A  
BRANCH   9  14
HETATM   14  N   UNL     1      -7.815  13.887  68.811  1.00  0.00    -0.245 N  
HETATM   15  O   UNL     1      -6.393  13.214  67.110  1.00  0.00    -0.257 OA 
HETATM   16  H   UNL     1      -8.373  13.536  69.589  1.00  0.00     0.000 HD 
HETATM   17  C   UNL     1      -6.994  12.987  68.147  1.00  0.00    -0.105 C  
BRANCH  17  18
HETATM   18  C   UNL     1      -6.955  11.610  68.698  1.00  0.00    -0.088 A  
HETATM   19  C   UNL     1      -7.307  10.473  67.981  1.00  0.00    -0.089 A  
HETATM   20 CL   UNL     1      -7.857  10.491  66.350  1.00  0.00    -0.132 Cl 
HETATM   21  N   UNL     1      -7.291   9.220  68.494  1.00  0.00    -0.076 NA 
HETATM   22  C   UNL     1      -6.934   9.084  69.785  1.00  0.00    -0.054 A  
HETATM   23  C   UNL     1      -6.575  10.153  70.593  1.00  0.00    -0.068 A  
HETATM   24  C   UNL     1      -6.586  11.433  70.040  1.00  0.00    -0.033 A  
ENDBRANCH  17  18
ENDBRANCH   9  14
ENDBRANCH   5   8
TORSDOF 3
ENDMDL
MODEL      160
REMARK 921   NORMALIZED FREE ENERGY PREDICTED BY IDOCK:   -3.75 KCAL/MOL
REMARK 922        TOTAL FREE ENERGY PREDICTED BY IDOCK:   -5.75 KCAL/MOL
REMARK 923 INTER-LIGAND FREE ENERGY PREDICTED BY IDOCK:   -4.58 KCAL/MOL
REMARK 924 INTRA-LIGAND FREE ENERGY PREDICTED BY IDOCK:   -1.16 KCAL/MOL
REMARK 927      BINDING AFFINITY PREDICTED BY RF-SCORE:    0.00 PKD
ROOT
HETATM    1 CL   UNL     1     -11.032   5.331  71.903  1.00  0.00    -0.222 Cl 
HETATM    2  C   UNL     1     -11.253   6.990  71.510  1.00  0.00    -0.249 A  
HETATM    3  C   UNL     1     -12.396   7.398  70.836  1.00  0.00    -0.236 A  
HETATM    4  C   UNL     1     -12.559   8.747  70.493  1.00  0.00     0.429 A  
HETATM    5  C   UNL     1     -11.567   9.715  70.766  1.00  0.00    -0.395 A  
HETATM    6  C   UNL     1     -10.277   7.918  71.844  1.00  0.00    -0.258 A  
HETATM    7  C   UNL     1     -10.423   9.255  71.450  1.00  0.00    -0.408 A  
ENDROOT
BRANCH   5   8
HETATM    8  C   UNL     1     -11.690  11.117  70.249  1.00  0.00    -0.431 A  
HETATM    9  C   UNL     1     -11.557  11.495  68.887  1.00  0.00    -0.320 A  
HETATM   10  C   UNL     1     -11.813  12.819  68.482  1.00  0.00    -0.345 A  
HETATM   11  C   UNL     1     -12.074  12.140  71.150  1.00  0.00     0.085 A  
HETATM   12  C   UNL     1     -12.151  13.800  69.407  1.00  0.00    -0.377 A  
HETATM   13  C   UNL     1     -12.277  13.462  70.746  1.00  0.00    -0.409 A  
BRANCH   9  14
HETATM   14  N   UNL     1     -11.047  10.589  67.927  1.00  0.00    -0.292 N  
HETATM   15  O   UNL     1      -8.914  11.461  67.688  1.00  0.00    -0.136 OA 
HETATM   16  H   UNL     1     -11.683   9.883  67.554  1.00  0.00     0.000 HD 
HETATM   17  C   UNL     1      -9.741  10.593  67.460  1.00  0.00    -0.166 C  
BRANCH  17  18
HETATM   18  C   UNL     1      -9.382   9.509  66.513  1.00  0.00    -0.220 A  
HETATM   19  C   UNL     1      -9.287   8.168  66.862  1.00  0.00    -0.173 A  
HETATM   20 CL   UNL     1      -9.554   7.562  68.452  1.00  0.00    -0.148 Cl 
HETATM   21  N   UNL     1      -8.938   7.184  66.000  1.00  0.00    -0.145 NA 
HETATM   22  C   UNL     1      -8.645   7.543  64.737  1.00  0.00     0.186 A  
HETATM   23  C   UNL     1      -8.698   8.854  64.285  1.00  0.00    -0.095 A  
HETATM   24  C   UNL     1      -9.072   9.849  65.187  1.00  0.00    -0.257 A  
ENDBRANCH  17  18
ENDBRANCH   9  14
ENDBRANCH   5   8
TORSDOF 3
ENDMDL
MODEL      161
REMARK 921   NORMALIZED FREE ENERGY PREDICTED BY IDOCK:   -3.64 KCAL/MOL
REMARK 922        TOTAL FREE ENERGY PREDICTED BY IDOCK:   -5.62 KCAL/MOL
REMARK 923 INTER-LIGAND FREE ENERGY PREDICTED BY IDOCK:   -4.68 KCAL/MOL
REMARK 924 INTRA-LIGAND FREE ENERGY PREDICTED BY IDOCK:   -0.93 KCAL/MOL
REMARK 927      BINDING AFFINITY PREDICTED BY RF-SCORE:    0.00 PKD
ROOT
HETATM    1 CL   UNL     1      -6.280   8.240  73.213  1.00  0.00    -0.097 Cl 
HETATM    2  C   UNL     1      -7.212   7.731  71.861  1.00  0.00    -0.069 A  
HETATM    3  C   UNL     1      -8.376   7.002  72.055  1.00  0.00    -0.106 A  
HETATM    4  C   UNL     1      -9.118   6.566  70.948  1.00  0.00    -0.154 A  
HETATM    5  C   UNL     1      -8.694   6.800  69.622  1.00  0.00    -0.137 A  
HETATM    6  C   UNL     1      -6.786   8.030  70.574  1.00  0.00    -0.037 A  
HETATM    7  C   UNL     1      -7.505   7.545  69.473  1.00  0.00    -0.093 A  
ENDROOT
BRANCH   5   8
HETATM    8  C   UNL     1      -9.415   6.190  68.458  1.00  0.00    -0.121 A  
HETATM    9  C   UNL     1     -10.336   6.876  67.622  1.00  0.00    -0.205 A  
HETATM   10  C   UNL     1     -10.867   6.253  66.478  1.00  0.00    -0.137 A  
HETATM   11  C   UNL     1      -9.089   4.865  68.078  1.00  0.00    -0.131 A  
HETATM   12  C   UNL     1     -10.548   4.937  66.164  1.00  0.00    -0.322 A  
HETATM   13  C   UNL     1      -9.661   4.238  66.968  1.00  0.00    -0.227 A  
BRANCH   9  14
HETATM   14  N   UNL     1     -10.835   8.151  67.983  1.00  0.00    -0.464 N  
HETATM   15  O   UNL     1      -9.172   9.475  67.062  1.00  0.00    -0.135 OA 
HETATM   16  H   UNL     1     -11.677   8.187  68.558  1.00  0.00     0.000 HD 
HETATM   17  C   UNL     1     -10.256   9.354  67.608  1.00  0.00    -0.227 C  
BRANCH  17  18
HETATM   18  C   UNL     1     -10.978  10.583  68.022  1.00  0.00    -0.345 A  
HETATM   19  C   UNL     1     -11.193  11.677  67.195  1.00  0.00    -0.309 A  
HETATM   20 CL   UNL     1     -10.640  11.783  65.568  1.00  0.00    -0.311 Cl 
HETATM   21  N   UNL     1     -11.833  12.806  67.584  1.00  0.00    -0.359 NA 
HETATM   22  C   UNL     1     -12.261  12.866  68.858  1.00  0.00    -0.006 A  
HETATM   23  C   UNL     1     -12.090  11.836  69.770  1.00  0.00    -0.338 A  
HETATM   24  C   UNL     1     -11.439  10.678  69.345  1.00  0.00    -0.356 A  
ENDBRANCH  17  18
ENDBRANCH   9  14
ENDBRANCH   5   8
TORSDOF 3
ENDMDL
MODEL      162
REMARK 921   NORMALIZED FREE ENERGY PREDICTED BY IDOCK:   -3.63 KCAL/MOL
REMARK 922        TOTAL FREE ENERGY PREDICTED BY IDOCK:   -5.61 KCAL/MOL
REMARK 923 INTER-LIGAND FREE ENERGY PREDICTED BY IDOCK:   -5.77 KCAL/MOL
REMARK 924 INTRA-LIGAND FREE ENERGY PREDICTED BY IDOCK:    0.16 KCAL/MOL
REMARK 927      BINDING AFFINITY PREDICTED BY RF-SCORE:    0.00 PKD
ROOT
HETATM    1 CL   UNL     1     -10.010  12.881  64.842  1.00  0.00    -0.199 Cl 
HETATM    2  C   UNL     1     -10.460  12.234  66.369  1.00  0.00    -0.236 A  
HETATM    3  C   UNL     1      -9.582  11.412  67.062  1.00  0.00    -0.192 A  
HETATM    4  C   UNL     1      -9.965  10.864  68.294  1.00  0.00    -0.187 A  
HETATM    5  C   UNL     1     -11.247  11.079  68.844  1.00  0.00    -0.326 A  
HETATM    6  C   UNL     1     -11.712  12.514  66.899  1.00  0.00    -0.447 A  
HETATM    7  C   UNL     1     -12.106  11.921  68.106  1.00  0.00    -0.035 A  
ENDROOT
BRANCH   5   8
HETATM    8  C   UNL     1     -11.692  10.357  70.081  1.00  0.00    -0.394 A  
HETATM    9  C   UNL     1     -11.235   9.072  70.478  1.00  0.00    -0.260 A  
HETATM   10  C   UNL     1     -11.615   8.530  71.720  1.00  0.00    -0.380 A  
HETATM   11  C   UNL     1     -12.543  11.030  70.989  1.00  0.00    -0.512 A  
HETATM   12  C   UNL     1     -12.484   9.210  72.565  1.00  0.00    -0.260 A  
HETATM   13  C   UNL     1     -12.956  10.462  72.198  1.00  0.00    -0.393 A  
BRANCH   9  14
HETATM   14  N   UNL     1     -10.493   8.257  69.591  1.00  0.00    -0.220 N  
HETATM   15  O   UNL     1     -11.711   6.295  69.782  1.00  0.00    -0.403 OA 
HETATM   16  H   UNL     1      -9.651   8.653  69.172  1.00  0.00     0.000 HD 
HETATM   17  C   UNL     1     -10.833   6.956  69.251  1.00  0.00    -0.237 C  
BRANCH  17  18
HETATM   18  C   UNL     1      -9.968   6.298  68.241  1.00  0.00    -0.152 A  
HETATM   19  C   UNL     1      -8.592   6.469  68.161  1.00  0.00    -0.118 A  
HETATM   20 CL   UNL     1      -7.682   7.485  69.213  1.00  0.00    -0.110 Cl 
HETATM   21  N   UNL     1      -7.809   5.884  67.224  1.00  0.00    -0.101 NA 
HETATM   22  C   UNL     1      -8.417   5.111  66.305  1.00  0.00    -0.114 A  
HETATM   23  C   UNL     1      -9.785   4.881  66.286  1.00  0.00    -0.200 A  
HETATM   24  C   UNL     1     -10.570   5.483  67.268  1.00  0.00    -0.294 A  
ENDBRANCH  17  18
ENDBRANCH   9  14
ENDBRANCH   5   8
TORSDOF 3
ENDMDL
MODEL      163
REMARK 921   NORMALIZED FREE ENERGY PREDICTED BY IDOCK:   -3.63 KCAL/MOL
REMARK 922        TOTAL FREE ENERGY PREDICTED BY IDOCK:   -5.60 KCAL/MOL
REMARK 923 INTER-LIGAND FREE ENERGY PREDICTED BY IDOCK:   -5.08 KCAL/MOL
REMARK 924 INTRA-LIGAND FREE ENERGY PREDICTED BY IDOCK:   -0.52 KCAL/MOL
REMARK 927      BINDING AFFINITY PREDICTED BY RF-SCORE:    0.00 PKD
ROOT
HETATM    1 CL   UNL     1     -13.087  11.745  63.256  1.00  0.00    -0.255 Cl 
HETATM    2  C   UNL     1     -11.853  12.131  64.388  1.00  0.00    -0.358 A  
HETATM    3  C   UNL     1     -10.549  11.712  64.164  1.00  0.00    -0.411 A  
HETATM    4  C   UNL     1      -9.551  12.005  65.105  1.00  0.00    -0.091 A  
HETATM    5  C   UNL     1      -9.835  12.677  66.314  1.00  0.00    -0.266 A  
HETATM    6  C   UNL     1     -12.165  12.840  65.540  1.00  0.00    -0.519 A  
HETATM    7  C   UNL     1     -11.173  13.083  66.499  1.00  0.00    -0.335 A  
ENDROOT
BRANCH   5   8
HETATM    8  C   UNL     1      -8.788  12.838  67.375  1.00  0.00    -0.190 A  
HETATM    9  C   UNL     1      -8.076  11.770  67.982  1.00  0.00    -0.145 A  
HETATM   10  C   UNL     1      -7.023  12.029  68.879  1.00  0.00    -0.104 A  
HETATM   11  C   UNL     1      -8.385  14.147  67.735  1.00  0.00    -0.175 A  
HETATM   12  C   UNL     1      -6.686  13.330  69.234  1.00  0.00    -0.066 A  
HETATM   13  C   UNL     1      -7.371  14.393  68.666  1.00  0.00    -0.123 A  
BRANCH   9  14
HETATM   14  N   UNL     1      -8.484  10.427  67.799  1.00  0.00    -0.114 N  
HETATM   15  O   UNL     1     -10.297  10.389  69.241  1.00  0.00    -0.204 OA 
HETATM   16  H   UNL     1      -7.913   9.834  67.197  1.00  0.00     0.000 HD 
HETATM   17  C   UNL     1      -9.609   9.863  68.382  1.00  0.00    -0.148 C  
BRANCH  17  18
HETATM   18  C   UNL     1      -9.909   8.460  68.001  1.00  0.00    -0.202 A  
HETATM   19  C   UNL     1      -9.548   7.888  66.787  1.00  0.00    -0.215 A  
HETATM   20 CL   UNL     1      -8.713   8.724  65.535  1.00  0.00    -0.201 Cl 
HETATM   21  N   UNL     1      -9.843   6.615  66.434  1.00  0.00    -0.096 NA 
HETATM   22  C   UNL     1     -10.549   5.877  67.311  1.00  0.00    -0.291 A  
HETATM   23  C   UNL     1     -10.968   6.353  68.544  1.00  0.00    -0.396 A  
HETATM   24  C   UNL     1     -10.643   7.663  68.893  1.00  0.00    -0.176 A  
ENDBRANCH  17  18
ENDBRANCH   9  14
ENDBRANCH   5   8
TORSDOF 3
ENDMDL
MODEL      164
REMARK 921   NORMALIZED FREE ENERGY PREDICTED BY IDOCK:   -3.56 KCAL/MOL
REMARK 922        TOTAL FREE ENERGY PREDICTED BY IDOCK:   -5.52 KCAL/MOL
REMARK 923 INTER-LIGAND FREE ENERGY PREDICTED BY IDOCK:   -5.34 KCAL/MOL
REMARK 924 INTRA-LIGAND FREE ENERGY PREDICTED BY IDOCK:   -0.19 KCAL/MOL
REMARK 927      BINDING AFFINITY PREDICTED BY RF-SCORE:    0.00 PKD
ROOT
HETATM    1 CL   UNL     1     -10.803   6.917  73.644  1.00  0.00    -0.293 Cl 
HETATM    2  C   UNL     1     -10.500   6.601  71.981  1.00  0.00    -0.204 A  
HETATM    3  C   UNL     1     -11.530   6.173  71.156  1.00  0.00    -0.314 A  
HETATM    4  C   UNL     1     -11.271   5.890  69.808  1.00  0.00    -0.331 A  
HETATM    5  C   UNL     1      -9.973   5.976  69.260  1.00  0.00    -0.207 A  
HETATM    6  C   UNL     1      -9.218   6.750  71.470  1.00  0.00    -0.149 A  
HETATM    7  C   UNL     1      -8.957   6.414  70.135  1.00  0.00    -0.154 A  
ENDROOT
BRANCH   5   8
HETATM    8  C   UNL     1      -9.690   5.516  67.861  1.00  0.00    -0.155 A  
HETATM    9  C   UNL     1      -9.661   6.360  66.719  1.00  0.00    -0.158 A  
HETATM   10  C   UNL     1      -9.263   5.858  65.466  1.00  0.00     0.056 A  
HETATM   11  C   UNL     1      -9.314   4.167  67.654  1.00  0.00    -0.208 A  
HETATM   12  C   UNL     1      -8.938   4.516  65.301  1.00  0.00    -0.144 A  
HETATM   13  C   UNL     1      -8.969   3.666  66.395  1.00  0.00    -0.148 A  
BRANCH   9  14
HETATM   14  N   UNL     1     -10.147   7.689  66.784  1.00  0.00    -0.333 N  
HETATM   15  O   UNL     1      -8.770   8.665  65.197  1.00  0.00    -0.184 OA 
HETATM   16  H   UNL     1     -10.860   7.901  67.481  1.00  0.00     0.000 HD 
HETATM   17  C   UNL     1      -9.718   8.721  65.963  1.00  0.00    -0.206 C  
BRANCH  17  18
HETATM   18  C   UNL     1     -10.409  10.023  66.137  1.00  0.00    -0.225 A  
HETATM   19  C   UNL     1     -10.627  10.933  65.111  1.00  0.00    -0.198 A  
HETATM   20 CL   UNL     1     -10.114  10.697  63.484  1.00  0.00    -0.353 Cl 
HETATM   21  N   UNL     1     -11.238  12.130  65.278  1.00  0.00    -0.324 NA 
HETATM   22  C   UNL     1     -11.633  12.455  66.523  1.00  0.00    -0.387 A  
HETATM   23  C   UNL     1     -11.454  11.625  67.620  1.00  0.00    -0.373 A  
HETATM   24  C   UNL     1     -10.834  10.392  67.423  1.00  0.00    -0.344 A  
ENDBRANCH  17  18
ENDBRANCH   9  14
ENDBRANCH   5   8
TORSDOF 3
ENDMDL
MODEL      165
REMARK 921   NORMALIZED FREE ENERGY PREDICTED BY IDOCK:   -3.55 KCAL/MOL
REMARK 922        TOTAL FREE ENERGY PREDICTED BY IDOCK:   -5.50 KCAL/MOL
REMARK 923 INTER-LIGAND FREE ENERGY PREDICTED BY IDOCK:   -4.77 KCAL/MOL
REMARK 924 INTRA-LIGAND FREE ENERGY PREDICTED BY IDOCK:   -0.73 KCAL/MOL
REMARK 927      BINDING AFFINITY PREDICTED BY RF-SCORE:    0.00 PKD
ROOT
HETATM    1 CL   UNL     1      -6.102  17.263  69.717  1.00  0.00    -0.246 Cl 
HETATM    2  C   UNL     1      -6.345  15.639  69.210  1.00  0.00    -0.136 A  
HETATM    3  C   UNL     1      -6.234  14.601  70.126  1.00  0.00    -0.165 A  
HETATM    4  C   UNL     1      -6.405  13.276  69.702  1.00  0.00    -0.089 A  
HETATM    5  C   UNL     1      -6.642  12.946  68.349  1.00  0.00    -0.085 A  
HETATM    6  C   UNL     1      -6.629  15.362  67.880  1.00  0.00    -0.169 A  
HETATM    7  C   UNL     1      -6.747  14.032  67.455  1.00  0.00    -0.128 A  
ENDROOT
BRANCH   5   8
HETATM    8  C   UNL     1      -6.663  11.519  67.892  1.00  0.00    -0.065 A  
HETATM    9  C   UNL     1      -7.377  11.039  66.762  1.00  0.00    -0.139 A  
HETATM   10  C   UNL     1      -7.235   9.704  66.338  1.00  0.00    -0.094 A  
HETATM   11  C   UNL     1      -5.832  10.583  68.554  1.00  0.00    -0.040 A  
HETATM   12  C   UNL     1      -6.437   8.809  67.041  1.00  0.00    -0.061 A  
HETATM   13  C   UNL     1      -5.737   9.246  68.156  1.00  0.00    -0.038 A  
BRANCH   9  14
HETATM   14  N   UNL     1      -8.338  11.849  66.111  1.00  0.00    -0.389 N  
HETATM   15  O   UNL     1     -10.269  10.824  66.876  1.00  0.00    -0.210 OA 
HETATM   16  H   UNL     1      -7.999  12.571  65.474  1.00  0.00     0.000 HD 
HETATM   17  C   UNL     1      -9.709  11.729  66.279  1.00  0.00    -0.222 C  
BRANCH  17  18
HETATM   18  C   UNL     1     -10.545  12.727  65.568  1.00  0.00    -0.303 A  
HETATM   19  C   UNL     1     -10.824  13.999  66.052  1.00  0.00    -0.295 A  
HETATM   20 CL   UNL     1     -10.256  14.604  67.561  1.00  0.00    -0.226 Cl 
HETATM   21  N   UNL     1     -11.605  14.899  65.410  1.00  0.00    -0.317 NA 
HETATM   22  C   UNL     1     -12.157  14.518  64.243  1.00  0.00    -0.425 A  
HETATM   23  C   UNL     1     -11.953  13.269  63.675  1.00  0.00    -0.547 A  
HETATM   24  C   UNL     1     -11.135  12.362  64.348  1.00  0.00    -0.381 A  
ENDBRANCH  17  18
ENDBRANCH   9  14
ENDBRANCH   5   8
TORSDOF 3
ENDMDL
MODEL      166
REMARK 921   NORMALIZED FREE ENERGY PREDICTED BY IDOCK:   -3.53 KCAL/MOL
REMARK 922        TOTAL FREE ENERGY PREDICTED BY IDOCK:   -5.48 KCAL/MOL
REMARK 923 INTER-LIGAND FREE ENERGY PREDICTED BY IDOCK:   -4.56 KCAL/MOL
REMARK 924 INTRA-LIGAND FREE ENERGY PREDICTED BY IDOCK:   -0.92 KCAL/MOL
REMARK 927      BINDING AFFINITY PREDICTED BY RF-SCORE:    0.00 PKD
ROOT
HETATM    1 CL   UNL     1      -5.931   3.611  66.766  1.00  0.00    -0.023 Cl 
HETATM    2  C   UNL     1      -6.910   5.020  66.668  1.00  0.00    -0.062 A  
HETATM    3  C   UNL     1      -6.434   6.232  67.146  1.00  0.00    -0.053 A  
HETATM    4  C   UNL     1      -7.247   7.373  67.089  1.00  0.00    -0.089 A  
HETATM    5  C   UNL     1      -8.571   7.325  66.601  1.00  0.00    -0.128 A  
HETATM    6  C   UNL     1      -8.188   4.940  66.131  1.00  0.00    -0.108 A  
HETATM    7  C   UNL     1      -9.013   6.073  66.126  1.00  0.00    -0.160 A  
ENDROOT
BRANCH   5   8
HETATM    8  C   UNL     1      -9.476   8.517  66.697  1.00  0.00    -0.268 A  
HETATM    9  C   UNL     1     -10.185   8.907  67.864  1.00  0.00    -0.222 A  
HETATM   10  C   UNL     1     -10.911  10.112  67.893  1.00  0.00    -0.336 A  
HETATM   11  C   UNL     1      -9.559   9.395  65.589  1.00  0.00    -0.345 A  
HETATM   12  C   UNL     1     -10.997  10.925  66.768  1.00  0.00    -0.248 A  
HETATM   13  C   UNL     1     -10.324  10.564  65.611  1.00  0.00    -0.274 A  
BRANCH   9  14
HETATM   14  N   UNL     1     -10.282   8.040  68.979  1.00  0.00    -0.207 N  
HETATM   15  O   UNL     1     -11.694   6.437  68.083  1.00  0.00     0.237 OA 
HETATM   16  H   UNL     1      -9.817   8.322  69.843  1.00  0.00     0.000 HD 
HETATM   17  C   UNL     1     -10.965   6.833  68.978  1.00  0.00    -0.233 C  
BRANCH  17  18
HETATM   18  C   UNL     1     -10.881   6.034  70.225  1.00  0.00    -0.398 A  
HETATM   19  C   UNL     1     -11.489   6.388  71.422  1.00  0.00    -0.308 A  
HETATM   20 CL   UNL     1     -12.423   7.818  71.645  1.00  0.00    -0.335 Cl 
HETATM   21  N   UNL     1     -11.391   5.667  72.563  1.00  0.00    -0.296 NA 
HETATM   22  C   UNL     1     -10.636   4.553  72.529  1.00  0.00    -0.158 A  
HETATM   23  C   UNL     1      -9.976   4.115  71.390  1.00  0.00    -0.223 A  
HETATM   24  C   UNL     1     -10.101   4.866  70.223  1.00  0.00    -0.322 A  
ENDBRANCH  17  18
ENDBRANCH   9  14
ENDBRANCH   5   8
TORSDOF 3
ENDMDL
MODEL      167
REMARK 921   NORMALIZED FREE ENERGY PREDICTED BY IDOCK:   -3.51 KCAL/MOL
REMARK 922        TOTAL FREE ENERGY PREDICTED BY IDOCK:   -5.46 KCAL/MOL
REMARK 923 INTER-LIGAND FREE ENERGY PREDICTED BY IDOCK:   -4.56 KCAL/MOL
REMARK 924 INTRA-LIGAND FREE ENERGY PREDICTED BY IDOCK:   -0.91 KCAL/MOL
REMARK 927      BINDING AFFINITY PREDICTED BY RF-SCORE:    0.00 PKD
ROOT
HETATM    1 CL   UNL     1      -9.977  14.159  66.374  1.00  0.00    -0.289 Cl 
HETATM    2  C   UNL     1      -9.610  12.500  66.112  1.00  0.00    -0.228 A  
HETATM    3  C   UNL     1      -8.499  11.930  66.717  1.00  0.00    -0.167 A  
HETATM    4  C   UNL     1      -8.188  10.585  66.478  1.00  0.00    -0.133 A  
HETATM    5  C   UNL     1      -8.945   9.786  65.593  1.00  0.00    -0.199 A  
HETATM    6  C   UNL     1     -10.412  11.736  65.275  1.00  0.00    -0.320 A  
HETATM    7  C   UNL     1     -10.064  10.407  65.000  1.00  0.00    -0.379 A  
ENDROOT
BRANCH   5   8
HETATM    8  C   UNL     1      -8.503   8.400  65.229  1.00  0.00    -0.189 A  
HETATM    9  C   UNL     1      -8.507   7.289  66.113  1.00  0.00    -0.142 A  
HETATM   10  C   UNL     1      -8.193   5.999  65.644  1.00  0.00    -0.139 A  
HETATM   11  C   UNL     1      -8.157   8.131  63.883  1.00  0.00    -0.114 A  
HETATM   12  C   UNL     1      -7.821   5.787  64.322  1.00  0.00    -0.114 A  
HETATM   13  C   UNL     1      -7.797   6.856  63.438  1.00  0.00    -0.101 A  
BRANCH   9  14
HETATM   14  N   UNL     1      -8.704   7.466  67.503  1.00  0.00    -0.124 N  
HETATM   15  O   UNL     1     -10.946   6.894  67.636  1.00  0.00    -0.256 OA 
HETATM   16  H   UNL     1      -7.925   7.829  68.052  1.00  0.00     0.000 HD 
HETATM   17  C   UNL     1      -9.887   7.180  68.170  1.00  0.00    -0.143 C  
BRANCH  17  18
HETATM   18  C   UNL     1      -9.865   7.360  69.643  1.00  0.00    -0.175 A  
HETATM   19  C   UNL     1      -9.713   6.322  70.553  1.00  0.00    -0.173 A  
HETATM   20 CL   UNL     1      -9.541   4.666  70.112  1.00  0.00    -0.247 Cl 
HETATM   21  N   UNL     1      -9.716   6.487  71.897  1.00  0.00    -0.152 NA 
HETATM   22  C   UNL     1      -9.903   7.735  72.367  1.00  0.00    -0.206 A  
HETATM   23  C   UNL     1     -10.076   8.840  71.547  1.00  0.00    -0.371 A  
HETATM   24  C   UNL     1     -10.057   8.649  70.166  1.00  0.00    -0.196 A  
ENDBRANCH  17  18
ENDBRANCH   9  14
ENDBRANCH   5   8
TORSDOF 3
ENDMDL
MODEL      168
REMARK 921   NORMALIZED FREE ENERGY PREDICTED BY IDOCK:   -3.49 KCAL/MOL
REMARK 922        TOTAL FREE ENERGY PREDICTED BY IDOCK:   -5.44 KCAL/MOL
REMARK 923 INTER-LIGAND FREE ENERGY PREDICTED BY IDOCK:   -4.47 KCAL/MOL
REMARK 924 INTRA-LIGAND FREE ENERGY PREDICTED BY IDOCK:   -0.97 KCAL/MOL
REMARK 927      BINDING AFFINITY PREDICTED BY RF-SCORE:    0.00 PKD
ROOT
HETATM    1 CL   UNL     1     -11.410   7.897  73.034  1.00  0.00    -0.410 Cl 
HETATM    2  C   UNL     1     -10.761   6.948  71.757  1.00  0.00    -0.221 A  
HETATM    3  C   UNL     1     -11.553   6.617  70.666  1.00  0.00    -0.439 A  
HETATM    4  C   UNL     1     -11.027   5.820  69.639  1.00  0.00    -0.385 A  
HETATM    5  C   UNL     1      -9.720   5.290  69.697  1.00  0.00    -0.250 A  
HETATM    6  C   UNL     1      -9.452   6.491  71.827  1.00  0.00    -0.155 A  
HETATM    7  C   UNL     1      -8.953   5.651  70.823  1.00  0.00    -0.154 A  
ENDROOT
BRANCH   5   8
HETATM    8  C   UNL     1      -9.235   4.311  68.669  1.00  0.00    -0.197 A  
HETATM    9  C   UNL     1      -8.564   4.662  67.467  1.00  0.00    -0.103 A  
HETATM   10  C   UNL     1      -8.035   3.666  66.625  1.00  0.00    -0.088 A  
HETATM   11  C   UNL     1      -9.344   2.927  68.946  1.00  0.00    -0.226 A  
HETATM   12  C   UNL     1      -8.199   2.317  66.918  1.00  0.00    -0.084 A  
HETATM   13  C   UNL     1      -8.860   1.944  68.078  1.00  0.00    -0.148 A  
BRANCH   9  14
HETATM   14  N   UNL     1      -8.518   6.006  67.026  1.00  0.00    -0.108 N  
HETATM   15  O   UNL     1     -10.655   6.183  66.149  1.00  0.00     0.038 OA 
HETATM   16  H   UNL     1      -7.635   6.509  67.122  1.00  0.00     0.000 HD 
HETATM   17  C   UNL     1      -9.592   6.687  66.471  1.00  0.00    -0.140 C  
BRANCH  17  18
HETATM   18  C   UNL     1      -9.361   8.116  66.146  1.00  0.00    -0.232 A  
HETATM   19  C   UNL     1      -8.429   8.564  65.219  1.00  0.00    -0.174 A  
HETATM   20 CL   UNL     1      -7.387   7.530  64.318  1.00  0.00    -0.083 Cl 
HETATM   21  N   UNL     1      -8.206   9.870  64.940  1.00  0.00    -0.138 NA 
HETATM   22  C   UNL     1      -8.921  10.780  65.628  1.00  0.00    -0.189 A  
HETATM   23  C   UNL     1      -9.869  10.442  66.582  1.00  0.00    -0.251 A  
HETATM   24  C   UNL     1     -10.091   9.091  66.844  1.00  0.00    -0.338 A  
ENDBRANCH  17  18
ENDBRANCH   9  14
ENDBRANCH   5   8
TORSDOF 3
ENDMDL
MODEL      169
REMARK 921   NORMALIZED FREE ENERGY PREDICTED BY IDOCK:   -3.44 KCAL/MOL
REMARK 922        TOTAL FREE ENERGY PREDICTED BY IDOCK:   -5.38 KCAL/MOL
REMARK 923 INTER-LIGAND FREE ENERGY PREDICTED BY IDOCK:   -4.27 KCAL/MOL
REMARK 924 INTRA-LIGAND FREE ENERGY PREDICTED BY IDOCK:   -1.12 KCAL/MOL
REMARK 927      BINDING AFFINITY PREDICTED BY RF-SCORE:    0.00 PKD
ROOT
HETATM    1 CL   UNL     1      -5.675   3.529  65.042  1.00  0.00    -0.017 Cl 
HETATM    2  C   UNL     1      -6.381   5.038  64.620  1.00  0.00    -0.034 A  
HETATM    3  C   UNL     1      -5.865   6.217  65.140  1.00  0.00    -0.025 A  
HETATM    4  C   UNL     1      -6.461   7.442  64.814  1.00  0.00    -0.037 A  
HETATM    5  C   UNL     1      -7.616   7.523  64.005  1.00  0.00    -0.114 A  
HETATM    6  C   UNL     1      -7.484   5.076  63.777  1.00  0.00    -0.060 A  
HETATM    7  C   UNL     1      -8.106   6.301  63.500  1.00  0.00    -0.049 A  
ENDROOT
BRANCH   5   8
HETATM    8  C   UNL     1      -8.330   8.826  63.801  1.00  0.00    -0.140 A  
HETATM    9  C   UNL     1      -9.247   9.401  64.720  1.00  0.00    -0.156 A  
HETATM   10  C   UNL     1      -9.771  10.688  64.498  1.00  0.00    -0.367 A  
HETATM   11  C   UNL     1      -7.999   9.609  62.669  1.00  0.00    -0.128 A  
HETATM   12  C   UNL     1      -9.449  11.407  63.352  1.00  0.00    -0.292 A  
HETATM   13  C   UNL     1      -8.565  10.865  62.431  1.00  0.00    -0.344 A  
BRANCH   9  14
HETATM   14  N   UNL     1      -9.750   8.653  65.811  1.00  0.00    -0.461 N  
HETATM   15  O   UNL     1      -8.210   9.272  67.427  1.00  0.00    -0.116 OA 
HETATM   16  H   UNL     1     -10.541   8.033  65.638  1.00  0.00     0.000 HD 
HETATM   17  C   UNL     1      -9.240   8.706  67.100  1.00  0.00    -0.144 C  
BRANCH  17  18
HETATM   18  C   UNL     1      -9.959   7.904  68.120  1.00  0.00    -0.210 A  
HETATM   19  C   UNL     1     -10.321   6.574  67.954  1.00  0.00    -0.189 A  
HETATM   20 CL   UNL     1     -10.004   5.656  66.531  1.00  0.00    -0.195 Cl 
HETATM   21  N   UNL     1     -10.996   5.851  68.878  1.00  0.00    -0.310 NA 
HETATM   22  C   UNL     1     -11.354   6.480  70.014  1.00  0.00    -0.410 A  
HETATM   23  C   UNL     1     -11.053   7.808  70.277  1.00  0.00    -0.242 A  
HETATM   24  C   UNL     1     -10.346   8.529  69.316  1.00  0.00    -0.227 A  
ENDBRANCH  17  18
ENDBRANCH   9  14
ENDBRANCH   5   8
TORSDOF 3
ENDMDL
MODEL      170
REMARK 921   NORMALIZED FREE ENERGY PREDICTED BY IDOCK:   -3.43 KCAL/MOL
REMARK 922        TOTAL FREE ENERGY PREDICTED BY IDOCK:   -5.36 KCAL/MOL
REMARK 923 INTER-LIGAND FREE ENERGY PREDICTED BY IDOCK:   -4.33 KCAL/MOL
REMARK 924 INTRA-LIGAND FREE ENERGY PREDICTED BY IDOCK:   -1.03 KCAL/MOL
REMARK 927      BINDING AFFINITY PREDICTED BY RF-SCORE:    0.00 PKD
ROOT
HETATM    1 CL   UNL     1      -9.580  10.375  66.775  1.00  0.00    -0.198 Cl 
HETATM    2  C   UNL     1      -9.423   8.665  66.835  1.00  0.00    -0.180 A  
HETATM    3  C   UNL     1     -10.550   7.868  66.983  1.00  0.00    -0.381 A  
HETATM    4  C   UNL     1     -10.413   6.475  67.060  1.00  0.00    -0.364 A  
HETATM    5  C   UNL     1      -9.151   5.843  67.041  1.00  0.00    -0.116 A  
HETATM    6  C   UNL     1      -8.166   8.081  66.759  1.00  0.00    -0.111 A  
HETATM    7  C   UNL     1      -8.035   6.692  66.889  1.00  0.00    -0.109 A  
ENDROOT
BRANCH   5   8
HETATM    8  C   UNL     1      -9.018   4.370  67.284  1.00  0.00    -0.130 A  
HETATM    9  C   UNL     1      -9.443   3.700  68.462  1.00  0.00    -0.146 A  
HETATM   10  C   UNL     1      -9.391   2.296  68.547  1.00  0.00    -0.250 A  
HETATM   11  C   UNL     1      -8.538   3.550  66.234  1.00  0.00    -0.117 A  
HETATM   12  C   UNL     1      -8.875   1.533  67.505  1.00  0.00    -0.138 A  
HETATM   13  C   UNL     1      -8.442   2.160  66.347  1.00  0.00    -0.102 A  
BRANCH   9  14
HETATM   14  N   UNL     1      -9.811   4.426  69.620  1.00  0.00    -0.219 N  
HETATM   15  O   UNL     1      -7.704   4.816  70.500  1.00  0.00    -0.057 OA 
HETATM   16  H   UNL     1     -10.807   4.540  69.814  1.00  0.00     0.000 HD 
HETATM   17  C   UNL     1      -8.911   4.996  70.508  1.00  0.00    -0.121 C  
BRANCH  17  18
HETATM   18  C   UNL     1      -9.499   5.786  71.617  1.00  0.00    -0.172 A  
HETATM   19  C   UNL     1      -9.992   5.234  72.792  1.00  0.00    -0.160 A  
HETATM   20 CL   UNL     1     -10.010   3.546  73.135  1.00  0.00    -0.183 Cl 
HETATM   21  N   UNL     1     -10.549   5.957  73.793  1.00  0.00    -0.270 NA 
HETATM   22  C   UNL     1     -10.645   7.287  73.616  1.00  0.00    -0.307 A  
HETATM   23  C   UNL     1     -10.195   7.939  72.477  1.00  0.00    -0.342 A  
HETATM   24  C   UNL     1      -9.614   7.177  71.464  1.00  0.00    -0.161 A  
ENDBRANCH  17  18
ENDBRANCH   9  14
ENDBRANCH   5   8
TORSDOF 3
ENDMDL
MODEL      171
REMARK 921   NORMALIZED FREE ENERGY PREDICTED BY IDOCK:   -3.41 KCAL/MOL
REMARK 922        TOTAL FREE ENERGY PREDICTED BY IDOCK:   -5.34 KCAL/MOL
REMARK 923 INTER-LIGAND FREE ENERGY PREDICTED BY IDOCK:   -4.31 KCAL/MOL
REMARK 924 INTRA-LIGAND FREE ENERGY PREDICTED BY IDOCK:   -1.04 KCAL/MOL
REMARK 927      BINDING AFFINITY PREDICTED BY RF-SCORE:    0.00 PKD
ROOT
HETATM    1 CL   UNL     1      -9.600   4.873  67.414  1.00  0.00    -0.159 Cl 
HETATM    2  C   UNL     1      -9.397   6.579  67.407  1.00  0.00    -0.121 A  
HETATM    3  C   UNL     1      -8.618   7.191  68.379  1.00  0.00    -0.123 A  
HETATM    4  C   UNL     1      -8.479   8.585  68.385  1.00  0.00    -0.138 A  
HETATM    5  C   UNL     1      -9.150   9.410  67.457  1.00  0.00    -0.136 A  
HETATM    6  C   UNL     1     -10.033   7.349  66.442  1.00  0.00    -0.107 A  
HETATM    7  C   UNL     1      -9.931   8.746  66.488  1.00  0.00    -0.360 A  
ENDROOT
BRANCH   5   8
HETATM    8  C   UNL     1      -9.115  10.904  67.580  1.00  0.00    -0.148 A  
HETATM    9  C   UNL     1      -9.568  11.637  68.710  1.00  0.00    -0.072 A  
HETATM   10  C   UNL     1      -9.378  13.029  68.784  1.00  0.00     0.127 A  
HETATM   11  C   UNL     1      -8.490  11.654  66.555  1.00  0.00    -0.141 A  
HETATM   12  C   UNL     1      -8.793  13.731  67.736  1.00  0.00    -0.188 A  
HETATM   13  C   UNL     1      -8.352  13.044  66.615  1.00  0.00     0.159 A  
BRANCH   9  14
HETATM   14  N   UNL     1     -10.326  11.009  69.727  1.00  0.00    -0.433 N  
HETATM   15  O   UNL     1     -12.418  11.091  68.736  1.00  0.00    -0.468 OA 
HETATM   16  H   UNL     1      -9.845  10.756  70.591  1.00  0.00     0.000 HD 
HETATM   17  C   UNL     1     -11.678  10.715  69.629  1.00  0.00    -0.296 C  
BRANCH  17  18
HETATM   18  C   UNL     1     -12.271   9.982  70.775  1.00  0.00    -0.408 A  
HETATM   19  C   UNL     1     -13.039  10.577  71.768  1.00  0.00    -0.464 A  
HETATM   20 CL   UNL     1     -13.408  12.258  71.828  1.00  0.00    -0.452 Cl 
HETATM   21  N   UNL     1     -13.561   9.909  72.824  1.00  0.00     0.113 NA 
HETATM   22  C   UNL     1     -13.290   8.594  72.919  1.00  0.00     0.068 A  
HETATM   23  C   UNL     1     -12.525   7.904  71.990  1.00  0.00    -0.338 A  
HETATM   24  C   UNL     1     -12.009   8.609  70.904  1.00  0.00    -0.220 A  
ENDBRANCH  17  18
ENDBRANCH   9  14
ENDBRANCH   5   8
TORSDOF 3
ENDMDL
MODEL      172
REMARK 921   NORMALIZED FREE ENERGY PREDICTED BY IDOCK:   -3.40 KCAL/MOL
REMARK 922        TOTAL FREE ENERGY PREDICTED BY IDOCK:   -5.33 KCAL/MOL
REMARK 923 INTER-LIGAND FREE ENERGY PREDICTED BY IDOCK:   -4.28 KCAL/MOL
REMARK 924 INTRA-LIGAND FREE ENERGY PREDICTED BY IDOCK:   -1.05 KCAL/MOL
REMARK 927      BINDING AFFINITY PREDICTED BY RF-SCORE:    0.00 PKD
ROOT
HETATM    1 CL   UNL     1      -8.019  12.226  67.083  1.00  0.00    -0.173 Cl 
HETATM    2  C   UNL     1      -8.567  10.946  68.091  1.00  0.00    -0.133 A  
HETATM    3  C   UNL     1      -9.919  10.638  68.150  1.00  0.00    -0.176 A  
HETATM    4  C   UNL     1     -10.364   9.612  68.995  1.00  0.00    -0.218 A  
HETATM    5  C   UNL     1      -9.483   8.902  69.840  1.00  0.00    -0.177 A  
HETATM    6  C   UNL     1      -7.659  10.236  68.866  1.00  0.00    -0.094 A  
HETATM    7  C   UNL     1      -8.119   9.248  69.747  1.00  0.00    -0.120 A  
ENDROOT
BRANCH   5   8
HETATM    8  C   UNL     1     -10.000   7.921  70.849  1.00  0.00    -0.196 A  
HETATM    9  C   UNL     1      -9.848   6.511  70.764  1.00  0.00    -0.184 A  
HETATM   10  C   UNL     1     -10.258   5.681  71.823  1.00  0.00    -0.253 A  
HETATM   11  C   UNL     1     -10.589   8.418  72.037  1.00  0.00    -0.387 A  
HETATM   12  C   UNL     1     -10.867   6.209  72.955  1.00  0.00    -0.284 A  
HETATM   13  C   UNL     1     -11.039   7.581  73.062  1.00  0.00    -0.413 A  
BRANCH   9  14
HETATM   14  N   UNL     1      -9.399   5.900  69.569  1.00  0.00    -0.133 N  
HETATM   15  O   UNL     1     -11.319   6.121  68.292  1.00  0.00    -0.253 OA 
HETATM   16  H   UNL     1      -8.465   5.489  69.567  1.00  0.00     0.000 HD 
HETATM   17  C   UNL     1     -10.141   5.822  68.400  1.00  0.00    -0.170 C  
BRANCH  17  18
HETATM   18  C   UNL     1      -9.459   5.210  67.233  1.00  0.00    -0.141 A  
HETATM   19  C   UNL     1      -9.239   3.847  67.084  1.00  0.00    -0.176 A  
HETATM   20 CL   UNL     1      -9.710   2.660  68.239  1.00  0.00    -0.085 Cl 
HETATM   21  N   UNL     1      -8.596   3.295  66.028  1.00  0.00    -0.115 NA 
HETATM   22  C   UNL     1      -8.127   4.131  65.083  1.00  0.00    -0.101 A  
HETATM   23  C   UNL     1      -8.283   5.508  65.138  1.00  0.00    -0.141 A  
HETATM   24  C   UNL     1      -8.958   6.054  66.229  1.00  0.00    -0.156 A  
ENDBRANCH  17  18
ENDBRANCH   9  14
ENDBRANCH   5   8
TORSDOF 3
ENDMDL
MODEL      173
REMARK 921   NORMALIZED FREE ENERGY PREDICTED BY IDOCK:   -3.36 KCAL/MOL
REMARK 922        TOTAL FREE ENERGY PREDICTED BY IDOCK:   -5.28 KCAL/MOL
REMARK 923 INTER-LIGAND FREE ENERGY PREDICTED BY IDOCK:   -4.35 KCAL/MOL
REMARK 924 INTRA-LIGAND FREE ENERGY PREDICTED BY IDOCK:   -0.93 KCAL/MOL
REMARK 927      BINDING AFFINITY PREDICTED BY RF-SCORE:    0.00 PKD
ROOT
HETATM    1 CL   UNL     1      -9.308   3.057  66.691  1.00  0.00    -0.146 Cl 
HETATM    2  C   UNL     1      -9.630   4.585  67.410  1.00  0.00    -0.176 A  
HETATM    3  C   UNL     1      -9.027   4.928  68.612  1.00  0.00    -0.130 A  
HETATM    4  C   UNL     1      -9.315   6.163  69.208  1.00  0.00    -0.142 A  
HETATM    5  C   UNL     1     -10.247   7.066  68.651  1.00  0.00    -0.182 A  
HETATM    6  C   UNL     1     -10.512   5.466  66.800  1.00  0.00    -0.347 A  
HETATM    7  C   UNL     1     -10.834   6.676  67.429  1.00  0.00    -0.434 A  
ENDROOT
BRANCH   5   8
HETATM    8  C   UNL     1     -10.658   8.307  69.384  1.00  0.00    -0.203 A  
HETATM    9  C   UNL     1     -10.368   9.633  68.965  1.00  0.00    -0.205 A  
HETATM   10  C   UNL     1     -10.904  10.736  69.653  1.00  0.00    -0.294 A  
HETATM   11  C   UNL     1     -11.491   8.177  70.522  1.00  0.00    -0.179 A  
HETATM   12  C   UNL     1     -11.687  10.562  70.789  1.00  0.00    -0.454 A  
HETATM   13  C   UNL     1     -11.978   9.280  71.229  1.00  0.00    -0.414 A  
BRANCH   9  14
HETATM   14  N   UNL     1      -9.438   9.879  67.926  1.00  0.00    -0.134 N  
HETATM   15  O   UNL     1      -7.493   9.231  69.006  1.00  0.00    -0.071 OA 
HETATM   16  H   UNL     1      -9.787  10.300  67.065  1.00  0.00     0.000 HD 
HETATM   17  C   UNL     1      -8.084   9.586  67.999  1.00  0.00    -0.102 C  
BRANCH  17  18
HETATM   18  C   UNL     1      -7.292   9.848  66.772  1.00  0.00    -0.095 A  
HETATM   19  C   UNL     1      -6.363  10.873  66.647  1.00  0.00    -0.113 A  
HETATM   20 CL   UNL     1      -6.001  12.006  67.892  1.00  0.00    -0.055 Cl 
HETATM   21  N   UNL     1      -5.659  11.122  65.518  1.00  0.00    -0.161 NA 
HETATM   22  C   UNL     1      -5.900  10.336  64.452  1.00  0.00    -0.139 A  
HETATM   23  C   UNL     1      -6.813   9.292  64.465  1.00  0.00    -0.089 A  
HETATM   24  C   UNL     1      -7.519   9.046  65.642  1.00  0.00    -0.086 A  
ENDBRANCH  17  18
ENDBRANCH   9  14
ENDBRANCH   5   8
TORSDOF 3
ENDMDL
MODEL      174
REMARK 921   NORMALIZED FREE ENERGY PREDICTED BY IDOCK:   -3.32 KCAL/MOL
REMARK 922        TOTAL FREE ENERGY PREDICTED BY IDOCK:   -5.23 KCAL/MOL
REMARK 923 INTER-LIGAND FREE ENERGY PREDICTED BY IDOCK:   -4.66 KCAL/MOL
REMARK 924 INTRA-LIGAND FREE ENERGY PREDICTED BY IDOCK:   -0.57 KCAL/MOL
REMARK 927      BINDING AFFINITY PREDICTED BY RF-SCORE:    0.00 PKD
ROOT
HETATM    1 CL   UNL     1      -6.291  20.817  62.434  1.00  0.00    -0.128 Cl 
HETATM    2  C   UNL     1      -6.279  20.718  64.150  1.00  0.00    -0.315 A  
HETATM    3  C   UNL     1      -5.152  21.107  64.860  1.00  0.00    -0.225 A  
HETATM    4  C   UNL     1      -5.137  20.998  66.257  1.00  0.00    -0.227 A  
HETATM    5  C   UNL     1      -6.221  20.452  66.978  1.00  0.00    -0.239 A  
HETATM    6  C   UNL     1      -7.388  20.225  64.824  1.00  0.00     0.400 A  
HETATM    7  C   UNL     1      -7.344  20.069  66.215  1.00  0.00    -0.312 A  
ENDROOT
BRANCH   5   8
HETATM    8  C   UNL     1      -6.122  20.197  68.453  1.00  0.00    -0.314 A  
HETATM    9  C   UNL     1      -6.645  19.055  69.116  1.00  0.00    -0.291 A  
HETATM   10  C   UNL     1      -6.393  18.842  70.484  1.00  0.00     0.249 A  
HETATM   11  C   UNL     1      -5.361  21.089  69.245  1.00  0.00    -0.381 A  
HETATM   12  C   UNL     1      -5.672  19.766  71.233  1.00  0.00    -0.306 A  
HETATM   13  C   UNL     1      -5.158  20.896  70.615  1.00  0.00    -0.268 A  
BRANCH   9  14
HETATM   14  N   UNL     1      -7.531  18.172  68.454  1.00  0.00    -0.271 N  
HETATM   15  O   UNL     1      -5.983  16.718  67.527  1.00  0.00    -0.127 OA 
HETATM   16  H   UNL     1      -8.527  18.391  68.477  1.00  0.00     0.000 HD 
HETATM   17  C   UNL     1      -7.137  17.028  67.776  1.00  0.00    -0.148 C  
BRANCH  17  18
HETATM   18  C   UNL     1      -8.227  16.192  67.216  1.00  0.00    -0.203 A  
HETATM   19  C   UNL     1      -8.458  14.869  67.572  1.00  0.00    -0.185 A  
HETATM   20 CL   UNL     1      -7.503  13.993  68.707  1.00  0.00    -0.127 Cl 
HETATM   21  N   UNL     1      -9.441  14.103  67.043  1.00  0.00    -0.242 NA 
HETATM   22  C   UNL     1     -10.220  14.661  66.098  1.00  0.00    -0.301 A  
HETATM   23  C   UNL     1     -10.069  15.969  65.661  1.00  0.00    -0.384 A  
HETATM   24  C   UNL     1      -9.058  16.744  66.229  1.00  0.00    -0.320 A  
ENDBRANCH  17  18
ENDBRANCH   9  14
ENDBRANCH   5   8
TORSDOF 3
ENDMDL
MODEL      175
REMARK 921   NORMALIZED FREE ENERGY PREDICTED BY IDOCK:   -3.31 KCAL/MOL
REMARK 922        TOTAL FREE ENERGY PREDICTED BY IDOCK:   -5.23 KCAL/MOL
REMARK 923 INTER-LIGAND FREE ENERGY PREDICTED BY IDOCK:   -4.17 KCAL/MOL
REMARK 924 INTRA-LIGAND FREE ENERGY PREDICTED BY IDOCK:   -1.05 KCAL/MOL
REMARK 927      BINDING AFFINITY PREDICTED BY RF-SCORE:    0.00 PKD
ROOT
HETATM    1 CL   UNL     1      -7.412   8.364  73.526  1.00  0.00    -0.160 Cl 
HETATM    2  C   UNL     1      -7.478   8.079  71.832  1.00  0.00    -0.084 A  
HETATM    3  C   UNL     1      -8.294   7.077  71.327  1.00  0.00    -0.114 A  
HETATM    4  C   UNL     1      -8.323   6.830  69.947  1.00  0.00    -0.135 A  
HETATM    5  C   UNL     1      -7.503   7.538  69.042  1.00  0.00    -0.096 A  
HETATM    6  C   UNL     1      -6.694   8.835  70.971  1.00  0.00    -0.070 A  
HETATM    7  C   UNL     1      -6.689   8.546  69.600  1.00  0.00    -0.040 A  
ENDROOT
BRANCH   5   8
HETATM    8  C   UNL     1      -7.431   7.151  67.595  1.00  0.00    -0.101 A  
HETATM    9  C   UNL     1      -7.900   7.948  66.517  1.00  0.00    -0.098 A  
HETATM   10  C   UNL     1      -7.675   7.555  65.184  1.00  0.00    -0.111 A  
HETATM   11  C   UNL     1      -6.753   5.959  67.246  1.00  0.00    -0.061 A  
HETATM   12  C   UNL     1      -7.037   6.356  64.888  1.00  0.00    -0.060 A  
HETATM   13  C   UNL     1      -6.579   5.551  65.920  1.00  0.00    -0.044 A  
BRANCH   9  14
HETATM   14  N   UNL     1      -8.708   9.087  66.752  1.00  0.00    -0.122 N  
HETATM   15  O   UNL     1     -10.766   8.045  66.967  1.00  0.00    -0.328 OA 
HETATM   16  H   UNL     1      -8.262  10.003  66.710  1.00  0.00     0.000 HD 
HETATM   17  C   UNL     1     -10.065   9.041  67.036  1.00  0.00    -0.250 C  
BRANCH  17  18
HETATM   18  C   UNL     1     -10.714  10.342  67.330  1.00  0.00    -0.323 A  
HETATM   19  C   UNL     1     -11.017  11.298  66.369  1.00  0.00    -0.227 A  
HETATM   20 CL   UNL     1     -10.669  11.125  64.691  1.00  0.00    -0.379 Cl 
HETATM   21  N   UNL     1     -11.590  12.493  66.644  1.00  0.00    -0.362 NA 
HETATM   22  C   UNL     1     -11.856  12.770  67.934  1.00  0.00    -0.339 A  
HETATM   23  C   UNL     1     -11.585  11.892  68.973  1.00  0.00    -0.376 A  
HETATM   24  C   UNL     1     -11.006  10.661  68.666  1.00  0.00    -0.291 A  
ENDBRANCH  17  18
ENDBRANCH   9  14
ENDBRANCH   5   8
TORSDOF 3
ENDMDL
MODEL      176
REMARK 921   NORMALIZED FREE ENERGY PREDICTED BY IDOCK:   -3.26 KCAL/MOL
REMARK 922        TOTAL FREE ENERGY PREDICTED BY IDOCK:   -5.17 KCAL/MOL
REMARK 923 INTER-LIGAND FREE ENERGY PREDICTED BY IDOCK:   -4.23 KCAL/MOL
REMARK 924 INTRA-LIGAND FREE ENERGY PREDICTED BY IDOCK:   -0.94 KCAL/MOL
REMARK 927      BINDING AFFINITY PREDICTED BY RF-SCORE:    0.00 PKD
ROOT
HETATM    1 CL   UNL     1     -12.930   9.027  72.278  1.00  0.00    -0.472 Cl 
HETATM    2  C   UNL     1     -11.600   9.492  71.294  1.00  0.00    -0.374 A  
HETATM    3  C   UNL     1     -11.808  10.291  70.178  1.00  0.00    -0.343 A  
HETATM    4  C   UNL     1     -10.724  10.645  69.363  1.00  0.00    -0.281 A  
HETATM    5  C   UNL     1      -9.416  10.172  69.607  1.00  0.00    -0.226 A  
HETATM    6  C   UNL     1     -10.322   9.049  71.601  1.00  0.00    -0.420 A  
HETATM    7  C   UNL     1      -9.253   9.363  70.751  1.00  0.00    -0.278 A  
ENDROOT
BRANCH   5   8
HETATM    8  C   UNL     1      -8.304  10.431  68.635  1.00  0.00    -0.127 A  
HETATM    9  C   UNL     1      -7.870   9.518  67.637  1.00  0.00    -0.102 A  
HETATM   10  C   UNL     1      -6.902   9.900  66.690  1.00  0.00    -0.084 A  
HETATM   11  C   UNL     1      -7.701  11.711  68.621  1.00  0.00    -0.134 A  
HETATM   12  C   UNL     1      -6.308  11.156  66.737  1.00  0.00    -0.125 A  
HETATM   13  C   UNL     1      -6.703  12.064  67.708  1.00  0.00    -0.096 A  
BRANCH   9  14
HETATM   14  N   UNL     1      -8.305   8.171  67.644  1.00  0.00    -0.126 N  
HETATM   15  O   UNL     1      -6.326   7.145  68.275  1.00  0.00    -0.037 OA 
HETATM   16  H   UNL     1      -9.259   7.978  67.339  1.00  0.00     0.000 HD 
HETATM   17  C   UNL     1      -7.522   7.096  68.038  1.00  0.00    -0.099 C  
BRANCH  17  18
HETATM   18  C   UNL     1      -8.190   5.771  68.048  1.00  0.00    -0.104 A  
HETATM   19  C   UNL     1      -8.122   4.855  67.006  1.00  0.00    -0.107 A  
HETATM   20 CL   UNL     1      -7.266   5.124  65.536  1.00  0.00    -0.067 Cl 
HETATM   21  N   UNL     1      -8.752   3.656  67.010  1.00  0.00    -0.110 NA 
HETATM   22  C   UNL     1      -9.504   3.356  68.085  1.00  0.00    -0.151 A  
HETATM   23  C   UNL     1      -9.649   4.202  69.175  1.00  0.00    -0.243 A  
HETATM   24  C   UNL     1      -8.982   5.427  69.155  1.00  0.00    -0.120 A  
ENDBRANCH  17  18
ENDBRANCH   9  14
ENDBRANCH   5   8
TORSDOF 3
ENDMDL
MODEL      177
REMARK 921   NORMALIZED FREE ENERGY PREDICTED BY IDOCK:   -3.25 KCAL/MOL
REMARK 922        TOTAL FREE ENERGY PREDICTED BY IDOCK:   -5.15 KCAL/MOL
REMARK 923 INTER-LIGAND FREE ENERGY PREDICTED BY IDOCK:   -4.85 KCAL/MOL
REMARK 924 INTRA-LIGAND FREE ENERGY PREDICTED BY IDOCK:   -0.30 KCAL/MOL
REMARK 927      BINDING AFFINITY PREDICTED BY RF-SCORE:    0.00 PKD
ROOT
HETATM    1 CL   UNL     1     -10.816   6.867  73.648  1.00  0.00    -0.293 Cl 
HETATM    2  C   UNL     1     -10.470   6.566  71.991  1.00  0.00    -0.202 A  
HETATM    3  C   UNL     1     -11.496   6.244  71.114  1.00  0.00    -0.362 A  
HETATM    4  C   UNL     1     -11.205   5.972  69.770  1.00  0.00    -0.440 A  
HETATM    5  C   UNL     1      -9.883   5.963  69.277  1.00  0.00    -0.205 A  
HETATM    6  C   UNL     1      -9.160   6.621  71.535  1.00  0.00    -0.142 A  
HETATM    7  C   UNL     1      -8.872   6.296  70.203  1.00  0.00    -0.149 A  
ENDROOT
BRANCH   5   8
HETATM    8  C   UNL     1      -9.580   5.514  67.878  1.00  0.00    -0.143 A  
HETATM    9  C   UNL     1      -9.341   6.383  66.781  1.00  0.00    -0.147 A  
HETATM   10  C   UNL     1      -8.941   5.869  65.533  1.00  0.00    -0.062 A  
HETATM   11  C   UNL     1      -9.407   4.131  67.633  1.00  0.00    -0.208 A  
HETATM   12  C   UNL     1      -8.821   4.499  65.327  1.00  0.00    -0.140 A  
HETATM   13  C   UNL     1      -9.060   3.626  66.377  1.00  0.00    -0.162 A  
BRANCH   9  14
HETATM   14  N   UNL     1      -9.615   7.769  66.876  1.00  0.00    -0.183 N  
HETATM   15  O   UNL     1      -8.215   8.542  65.200  1.00  0.00    -0.135 OA 
HETATM   16  H   UNL     1     -10.242   8.080  67.619  1.00  0.00     0.000 HD 
HETATM   17  C   UNL     1      -9.091   8.732  66.028  1.00  0.00    -0.213 C  
BRANCH  17  18
HETATM   18  C   UNL     1      -9.565  10.121  66.246  1.00  0.00    -0.245 A  
HETATM   19  C   UNL     1      -9.584  10.754  67.482  1.00  0.00    -0.158 A  
HETATM   20 CL   UNL     1      -9.076  10.018  68.953  1.00  0.00    -0.150 Cl 
HETATM   21  N   UNL     1     -10.038  12.015  67.680  1.00  0.00    -0.194 NA 
HETATM   22  C   UNL     1     -10.519  12.674  66.610  1.00  0.00    -0.245 A  
HETATM   23  C   UNL     1     -10.557  12.133  65.334  1.00  0.00    -0.309 A  
HETATM   24  C   UNL     1     -10.073  10.838  65.150  1.00  0.00    -0.363 A  
ENDBRANCH  17  18
ENDBRANCH   9  14
ENDBRANCH   5   8
TORSDOF 3
ENDMDL
MODEL      178
REMARK 921   NORMALIZED FREE ENERGY PREDICTED BY IDOCK:   -3.23 KCAL/MOL
REMARK 922        TOTAL FREE ENERGY PREDICTED BY IDOCK:   -5.13 KCAL/MOL
REMARK 923 INTER-LIGAND FREE ENERGY PREDICTED BY IDOCK:   -3.68 KCAL/MOL
REMARK 924 INTRA-LIGAND FREE ENERGY PREDICTED BY IDOCK:   -1.45 KCAL/MOL
REMARK 927      BINDING AFFINITY PREDICTED BY RF-SCORE:    0.00 PKD
ROOT
HETATM    1 CL   UNL     1     -10.675   7.275  73.601  1.00  0.00    -0.380 Cl 
HETATM    2  C   UNL     1     -10.337   7.738  71.980  1.00  0.00    -0.214 A  
HETATM    3  C   UNL     1     -11.254   7.467  70.975  1.00  0.00    -0.285 A  
HETATM    4  C   UNL     1     -10.961   7.821  69.650  1.00  0.00    -0.128 A  
HETATM    5  C   UNL     1      -9.730   8.407  69.286  1.00  0.00    -0.177 A  
HETATM    6  C   UNL     1      -9.136   8.362  71.674  1.00  0.00    -0.268 A  
HETATM    7  C   UNL     1      -8.829   8.664  70.340  1.00  0.00    -0.170 A  
ENDROOT
BRANCH   5   8
HETATM    8  C   UNL     1      -9.373   8.631  67.847  1.00  0.00    -0.155 A  
HETATM    9  C   UNL     1      -8.881   7.630  66.967  1.00  0.00    -0.128 A  
HETATM   10  C   UNL     1      -8.693   7.906  65.600  1.00  0.00    -0.145 A  
HETATM   11  C   UNL     1      -9.642   9.896  67.271  1.00  0.00    -0.195 A  
HETATM   12  C   UNL     1      -8.934   9.175  65.085  1.00  0.00    -0.238 A  
HETATM   13  C   UNL     1      -9.404  10.176  65.922  1.00  0.00    -0.224 A  
BRANCH   9  14
HETATM   14  N   UNL     1      -8.451   6.375  67.462  1.00  0.00    -0.116 N  
HETATM   15  O   UNL     1     -10.421   5.181  67.205  1.00  0.00    -0.212 OA 
HETATM   16  H   UNL     1      -7.505   6.309  67.837  1.00  0.00     0.000 HD 
HETATM   17  C   UNL     1      -9.230   5.227  67.470  1.00  0.00    -0.114 C  
BRANCH  17  18
HETATM   18  C   UNL     1      -8.568   3.992  67.958  1.00  0.00    -0.110 A  
HETATM   19  C   UNL     1      -8.348   3.703  69.298  1.00  0.00    -0.063 A  
HETATM   20 CL   UNL     1      -8.795   4.740  70.598  1.00  0.00    -0.136 Cl 
HETATM   21  N   UNL     1      -7.723   2.585  69.738  1.00  0.00    -0.043 NA 
HETATM   22  C   UNL     1      -7.273   1.721  68.809  1.00  0.00    -0.043 A  
HETATM   23  C   UNL     1      -7.430   1.918  67.445  1.00  0.00    -0.059 A  
HETATM   24  C   UNL     1      -8.087   3.070  67.014  1.00  0.00    -0.079 A  
ENDBRANCH  17  18
ENDBRANCH   9  14
ENDBRANCH   5   8
TORSDOF 3
ENDMDL
MODEL      179
REMARK 921   NORMALIZED FREE ENERGY PREDICTED BY IDOCK:   -3.20 KCAL/MOL
REMARK 922        TOTAL FREE ENERGY PREDICTED BY IDOCK:   -5.10 KCAL/MOL
REMARK 923 INTER-LIGAND FREE ENERGY PREDICTED BY IDOCK:   -4.34 KCAL/MOL
REMARK 924 INTRA-LIGAND FREE ENERGY PREDICTED BY IDOCK:   -0.75 KCAL/MOL
REMARK 927      BINDING AFFINITY PREDICTED BY RF-SCORE:    0.00 PKD
ROOT
HETATM    1 CL   UNL     1      -7.732  10.320  63.706  1.00  0.00    -0.133 Cl 
HETATM    2  C   UNL     1      -7.996   9.098  64.886  1.00  0.00    -0.123 A  
HETATM    3  C   UNL     1      -6.939   8.308  65.317  1.00  0.00    -0.066 A  
HETATM    4  C   UNL     1      -7.165   7.295  66.258  1.00  0.00    -0.078 A  
HETATM    5  C   UNL     1      -8.455   7.007  66.755  1.00  0.00    -0.118 A  
HETATM    6  C   UNL     1      -9.271   8.884  65.389  1.00  0.00    -0.202 A  
HETATM    7  C   UNL     1      -9.498   7.834  66.289  1.00  0.00    -0.201 A  
ENDROOT
BRANCH   5   8
HETATM    8  C   UNL     1      -8.699   5.819  67.637  1.00  0.00    -0.107 A  
HETATM    9  C   UNL     1      -9.727   5.729  68.612  1.00  0.00    -0.131 A  
HETATM   10  C   UNL     1      -9.956   4.525  69.304  1.00  0.00    -0.192 A  
HETATM   11  C   UNL     1      -7.931   4.649  67.425  1.00  0.00    -0.101 A  
HETATM   12  C   UNL     1      -9.152   3.411  69.090  1.00  0.00    -0.205 A  
HETATM   13  C   UNL     1      -8.132   3.473  68.153  1.00  0.00    -0.083 A  
BRANCH   9  14
HETATM   14  N   UNL     1     -10.463   6.874  69.001  1.00  0.00    -0.199 N  
HETATM   15  O   UNL     1      -9.093   7.635  70.708  1.00  0.00    -0.151 OA 
HETATM   16  H   UNL     1     -11.357   7.044  68.540  1.00  0.00     0.000 HD 
HETATM   17  C   UNL     1     -10.050   7.782  69.965  1.00  0.00    -0.201 C  
BRANCH  17  18
HETATM   18  C   UNL     1     -10.928   8.961  70.170  1.00  0.00    -0.245 A  
HETATM   19  C   UNL     1     -12.120   8.931  70.882  1.00  0.00    -0.177 A  
HETATM   20 CL   UNL     1     -12.769   7.518  71.622  1.00  0.00    -0.370 Cl 
HETATM   21  N   UNL     1     -12.929  10.004  71.049  1.00  0.00    -0.368 NA 
HETATM   22  C   UNL     1     -12.556  11.157  70.464  1.00  0.00    -0.274 A  
HETATM   23  C   UNL     1     -11.391  11.294  69.722  1.00  0.00    -0.348 A  
HETATM   24  C   UNL     1     -10.567  10.179  69.574  1.00  0.00    -0.269 A  
ENDBRANCH  17  18
ENDBRANCH   9  14
ENDBRANCH   5   8
TORSDOF 3
ENDMDL
MODEL      180
REMARK 921   NORMALIZED FREE ENERGY PREDICTED BY IDOCK:   -3.19 KCAL/MOL
REMARK 922        TOTAL FREE ENERGY PREDICTED BY IDOCK:   -5.09 KCAL/MOL
REMARK 923 INTER-LIGAND FREE ENERGY PREDICTED BY IDOCK:   -4.08 KCAL/MOL
REMARK 924 INTRA-LIGAND FREE ENERGY PREDICTED BY IDOCK:   -1.01 KCAL/MOL
REMARK 927      BINDING AFFINITY PREDICTED BY RF-SCORE:    0.00 PKD
ROOT
HETATM    1 CL   UNL     1      -6.501  13.598  68.070  1.00  0.00    -0.120 Cl 
HETATM    2  C   UNL     1      -7.557  12.382  68.673  1.00  0.00    -0.082 A  
HETATM    3  C   UNL     1      -7.049  11.330  69.422  1.00  0.00    -0.090 A  
HETATM    4  C   UNL     1      -7.910  10.327  69.887  1.00  0.00    -0.119 A  
HETATM    5  C   UNL     1      -9.287  10.317  69.576  1.00  0.00    -0.200 A  
HETATM    6  C   UNL     1      -8.914  12.440  68.389  1.00  0.00    -0.133 A  
HETATM    7  C   UNL     1      -9.759  11.405  68.813  1.00  0.00    -0.155 A  
ENDROOT
BRANCH   5   8
HETATM    8  C   UNL     1     -10.158   9.154  69.948  1.00  0.00    -0.219 A  
HETATM    9  C   UNL     1     -10.071   7.858  69.371  1.00  0.00    -0.196 A  
HETATM   10  C   UNL     1     -10.847   6.797  69.874  1.00  0.00    -0.310 A  
HETATM   11  C   UNL     1     -11.065   9.303  71.024  1.00  0.00    -0.396 A  
HETATM   12  C   UNL     1     -11.753   6.998  70.909  1.00  0.00    -0.387 A  
HETATM   13  C   UNL     1     -11.868   8.255  71.483  1.00  0.00    -0.335 A  
BRANCH   9  14
HETATM   14  N   UNL     1      -9.300   7.631  68.206  1.00  0.00    -0.145 N  
HETATM   15  O   UNL     1     -10.775   8.452  66.619  1.00  0.00    -0.195 OA 
HETATM   16  H   UNL     1      -8.406   7.152  68.313  1.00  0.00     0.000 HD 
HETATM   17  C   UNL     1      -9.678   8.016  66.928  1.00  0.00    -0.225 C  
BRANCH  17  18
HETATM   18  C   UNL     1      -8.693   7.756  65.850  1.00  0.00    -0.175 A  
HETATM   19  C   UNL     1      -8.288   6.489  65.452  1.00  0.00    -0.140 A  
HETATM   20 CL   UNL     1      -8.857   5.026  66.159  1.00  0.00    -0.122 Cl 
HETATM   21  N   UNL     1      -7.372   6.257  64.482  1.00  0.00    -0.065 NA 
HETATM   22  C   UNL     1      -6.809   7.328  63.893  1.00  0.00    -0.052 A  
HETATM   23  C   UNL     1      -7.132   8.636  64.222  1.00  0.00    -0.089 A  
HETATM   24  C   UNL     1      -8.088   8.852  65.214  1.00  0.00    -0.126 A  
ENDBRANCH  17  18
ENDBRANCH   9  14
ENDBRANCH   5   8
TORSDOF 3
ENDMDL
MODEL      181
REMARK 921   NORMALIZED FREE ENERGY PREDICTED BY IDOCK:   -3.17 KCAL/MOL
REMARK 922        TOTAL FREE ENERGY PREDICTED BY IDOCK:   -5.07 KCAL/MOL
REMARK 923 INTER-LIGAND FREE ENERGY PREDICTED BY IDOCK:   -3.66 KCAL/MOL
REMARK 924 INTRA-LIGAND FREE ENERGY PREDICTED BY IDOCK:   -1.40 KCAL/MOL
REMARK 927      BINDING AFFINITY PREDICTED BY RF-SCORE:    0.00 PKD
ROOT
HETATM    1 CL   UNL     1      -9.337  10.527  68.955  1.00  0.00    -0.181 Cl 
HETATM    2  C   UNL     1      -9.200   8.908  68.392  1.00  0.00    -0.140 A  
HETATM    3  C   UNL     1      -8.028   8.196  68.605  1.00  0.00    -0.115 A  
HETATM    4  C   UNL     1      -7.911   6.886  68.119  1.00  0.00    -0.114 A  
HETATM    5  C   UNL     1      -8.935   6.271  67.367  1.00  0.00    -0.109 A  
HETATM    6  C   UNL     1     -10.252   8.322  67.702  1.00  0.00    -0.294 A  
HETATM    7  C   UNL     1     -10.107   7.032  67.175  1.00  0.00    -0.283 A  
ENDROOT
BRANCH   5   8
HETATM    8  C   UNL     1      -8.727   4.933  66.722  1.00  0.00    -0.107 A  
HETATM    9  C   UNL     1      -9.168   3.695  67.260  1.00  0.00    -0.189 A  
HETATM   10  C   UNL     1      -9.037   2.505  66.521  1.00  0.00    -0.111 A  
HETATM   11  C   UNL     1      -8.147   4.886  65.431  1.00  0.00    -0.114 A  
HETATM   12  C   UNL     1      -8.427   2.499  65.272  1.00  0.00    -0.100 A  
HETATM   13  C   UNL     1      -7.975   3.691  64.726  1.00  0.00    -0.090 A  
BRANCH   9  14
HETATM   14  N   UNL     1      -9.636   3.607  68.594  1.00  0.00    -0.137 N  
HETATM   15  O   UNL     1      -7.600   3.477  69.693  1.00  0.00    -0.051 OA 
HETATM   16  H   UNL     1     -10.644   3.558  68.742  1.00  0.00     0.000 HD 
HETATM   17  C   UNL     1      -8.816   3.584  69.712  1.00  0.00    -0.090 C  
BRANCH  17  18
HETATM   18  C   UNL     1      -9.504   3.569  71.026  1.00  0.00    -0.226 A  
HETATM   19  C   UNL     1     -10.170   4.659  71.570  1.00  0.00    -0.154 A  
HETATM   20 CL   UNL     1     -10.285   6.200  70.810  1.00  0.00    -0.236 Cl 
HETATM   21  N   UNL     1     -10.779   4.648  72.780  1.00  0.00    -0.211 NA 
HETATM   22  C   UNL     1     -10.706   3.513  73.499  1.00  0.00    -0.216 A  
HETATM   23  C   UNL     1     -10.057   2.370  73.055  1.00  0.00    -0.201 A  
HETATM   24  C   UNL     1      -9.448   2.399  71.801  1.00  0.00    -0.196 A  
ENDBRANCH  17  18
ENDBRANCH   9  14
ENDBRANCH   5   8
TORSDOF 3
ENDMDL
MODEL      182
REMARK 921   NORMALIZED FREE ENERGY PREDICTED BY IDOCK:   -3.16 KCAL/MOL
REMARK 922        TOTAL FREE ENERGY PREDICTED BY IDOCK:   -5.05 KCAL/MOL
REMARK 923 INTER-LIGAND FREE ENERGY PREDICTED BY IDOCK:   -4.08 KCAL/MOL
REMARK 924 INTRA-LIGAND FREE ENERGY PREDICTED BY IDOCK:   -0.97 KCAL/MOL
REMARK 927      BINDING AFFINITY PREDICTED BY RF-SCORE:    0.00 PKD
ROOT
HETATM    1 CL   UNL     1     -10.956   7.256  73.282  1.00  0.00    -0.390 Cl 
HETATM    2  C   UNL     1     -10.478   6.868  71.677  1.00  0.00    -0.204 A  
HETATM    3  C   UNL     1     -11.436   6.715  70.685  1.00  0.00    -0.420 A  
HETATM    4  C   UNL     1     -11.044   6.372  69.384  1.00  0.00    -0.450 A  
HETATM    5  C   UNL     1      -9.695   6.123  69.049  1.00  0.00    -0.157 A  
HETATM    6  C   UNL     1      -9.135   6.685  71.379  1.00  0.00    -0.143 A  
HETATM    7  C   UNL     1      -8.756   6.290  70.089  1.00  0.00    -0.138 A  
ENDROOT
BRANCH   5   8
HETATM    8  C   UNL     1      -9.316   5.603  67.695  1.00  0.00    -0.111 A  
HETATM    9  C   UNL     1      -8.445   6.262  66.786  1.00  0.00    -0.111 A  
HETATM   10  C   UNL     1      -8.050   5.635  65.590  1.00  0.00    -0.120 A  
HETATM   11  C   UNL     1      -9.757   4.312  67.317  1.00  0.00    -0.216 A  
HETATM   12  C   UNL     1      -8.539   4.381  65.241  1.00  0.00    -0.124 A  
HETATM   13  C   UNL     1      -9.399   3.719  66.103  1.00  0.00    -0.183 A  
BRANCH   9  14
HETATM   14  N   UNL     1      -8.054   7.606  66.999  1.00  0.00    -0.115 N  
HETATM   15  O   UNL     1      -9.781   8.676  65.886  1.00  0.00    -0.209 OA 
HETATM   16  H   UNL     1      -7.169   7.774  67.479  1.00  0.00     0.000 HD 
HETATM   17  C   UNL     1      -8.793   8.710  66.600  1.00  0.00    -0.133 C  
BRANCH  17  18
HETATM   18  C   UNL     1      -8.248  10.034  66.988  1.00  0.00    -0.117 A  
HETATM   19  C   UNL     1      -7.120  10.611  66.420  1.00  0.00    -0.134 A  
HETATM   20 CL   UNL     1      -6.172   9.869  65.188  1.00  0.00    -0.092 Cl 
HETATM   21  N   UNL     1      -6.613  11.810  66.792  1.00  0.00    -0.106 NA 
HETATM   22  C   UNL     1      -7.236  12.462  67.791  1.00  0.00    -0.119 A  
HETATM   23  C   UNL     1      -8.363  11.972  68.435  1.00  0.00    -0.151 A  
HETATM   24  C   UNL     1      -8.875  10.741  68.027  1.00  0.00    -0.132 A  
ENDBRANCH  17  18
ENDBRANCH   9  14
ENDBRANCH   5   8
TORSDOF 3
ENDMDL
MODEL      183
REMARK 921   NORMALIZED FREE ENERGY PREDICTED BY IDOCK:   -3.02 KCAL/MOL
REMARK 922        TOTAL FREE ENERGY PREDICTED BY IDOCK:   -4.88 KCAL/MOL
REMARK 923 INTER-LIGAND FREE ENERGY PREDICTED BY IDOCK:   -4.28 KCAL/MOL
REMARK 924 INTRA-LIGAND FREE ENERGY PREDICTED BY IDOCK:   -0.60 KCAL/MOL
REMARK 927      BINDING AFFINITY PREDICTED BY RF-SCORE:    0.00 PKD
ROOT
HETATM    1 CL   UNL     1      -5.357  18.243  69.898  1.00  0.00    -0.208 Cl 
HETATM    2  C   UNL     1      -5.669  16.553  69.943  1.00  0.00    -0.201 A  
HETATM    3  C   UNL     1      -5.408  15.829  71.099  1.00  0.00    -0.016 A  
HETATM    4  C   UNL     1      -5.638  14.447  71.122  1.00  0.00    -0.183 A  
HETATM    5  C   UNL     1      -6.083  13.742  69.982  1.00  0.00    -0.142 A  
HETATM    6  C   UNL     1      -6.158  15.907  68.816  1.00  0.00    -0.105 A  
HETATM    7  C   UNL     1      -6.334  14.517  68.831  1.00  0.00    -0.089 A  
ENDROOT
BRANCH   5   8
HETATM    8  C   UNL     1      -6.169  12.245  69.982  1.00  0.00    -0.085 A  
HETATM    9  C   UNL     1      -7.125  11.487  69.254  1.00  0.00    -0.077 A  
HETATM   10  C   UNL     1      -7.047  10.082  69.217  1.00  0.00    -0.074 A  
HETATM   11  C   UNL     1      -5.169  11.508  70.661  1.00  0.00    -0.121 A  
HETATM   12  C   UNL     1      -6.070   9.398  69.930  1.00  0.00    -0.039 A  
HETATM   13  C   UNL     1      -5.130  10.111  70.659  1.00  0.00    -0.046 A  
BRANCH   9  14
HETATM   14  N   UNL     1      -8.244  12.111  68.653  1.00  0.00    -0.315 N  
HETATM   15  O   UNL     1      -7.640  11.895  66.427  1.00  0.00     0.044 OA 
HETATM   16  H   UNL     1      -8.945  12.526  69.268  1.00  0.00     0.000 HD 
HETATM   17  C   UNL     1      -8.453  12.198  67.285  1.00  0.00    -0.178 C  
BRANCH  17  18
HETATM   18  C   UNL     1      -9.729  12.823  66.857  1.00  0.00    -0.234 A  
HETATM   19  C   UNL     1     -10.982  12.267  67.078  1.00  0.00    -0.268 A  
HETATM   20 CL   UNL     1     -11.246  10.759  67.866  1.00  0.00    -0.369 Cl 
HETATM   21  N   UNL     1     -12.143  12.830  66.666  1.00  0.00    -0.501 NA 
HETATM   22  C   UNL     1     -12.062  13.987  65.983  1.00  0.00    -0.439 A  
HETATM   23  C   UNL     1     -10.862  14.622  65.699  1.00  0.00    -0.335 A  
HETATM   24  C   UNL     1      -9.679  14.031  66.143  1.00  0.00    -0.300 A  
ENDBRANCH  17  18
ENDBRANCH   9  14
ENDBRANCH   5   8
TORSDOF 3
ENDMDL
MODEL      184
REMARK 921   NORMALIZED FREE ENERGY PREDICTED BY IDOCK:   -2.97 KCAL/MOL
REMARK 922        TOTAL FREE ENERGY PREDICTED BY IDOCK:   -4.82 KCAL/MOL
REMARK 923 INTER-LIGAND FREE ENERGY PREDICTED BY IDOCK:   -3.94 KCAL/MOL
REMARK 924 INTRA-LIGAND FREE ENERGY PREDICTED BY IDOCK:   -0.88 KCAL/MOL
REMARK 927      BINDING AFFINITY PREDICTED BY RF-SCORE:    0.00 PKD
ROOT
HETATM    1 CL   UNL     1     -11.272   5.783  66.419  1.00  0.00     0.018 Cl 
HETATM    2  C   UNL     1     -10.203   6.984  67.026  1.00  0.00    -0.260 A  
HETATM    3  C   UNL     1      -8.967   7.182  66.427  1.00  0.00    -0.178 A  
HETATM    4  C   UNL     1      -8.088   8.144  66.944  1.00  0.00    -0.104 A  
HETATM    5  C   UNL     1      -8.395   8.897  68.098  1.00  0.00    -0.125 A  
HETATM    6  C   UNL     1     -10.567   7.741  68.132  1.00  0.00    -0.182 A  
HETATM    7  C   UNL     1      -9.661   8.662  68.673  1.00  0.00    -0.171 A  
ENDROOT
BRANCH   5   8
HETATM    8  C   UNL     1      -7.378   9.803  68.726  1.00  0.00    -0.074 A  
HETATM    9  C   UNL     1      -7.601  11.166  69.059  1.00  0.00    -0.119 A  
HETATM   10  C   UNL     1      -6.627  11.901  69.760  1.00  0.00    -0.022 A  
HETATM   11  C   UNL     1      -6.136   9.254  69.124  1.00  0.00    -0.042 A  
HETATM   12  C   UNL     1      -5.404  11.332  70.098  1.00  0.00    -0.083 A  
HETATM   13  C   UNL     1      -5.154  10.007  69.775  1.00  0.00    -0.038 A  
BRANCH   9  14
HETATM   14  N   UNL     1      -8.748  11.851  68.591  1.00  0.00    -0.337 N  
HETATM   15  O   UNL     1      -7.887  12.714  66.621  1.00  0.00     0.081 OA 
HETATM   16  H   UNL     1      -9.573  11.863  69.191  1.00  0.00     0.000 HD 
HETATM   17  C   UNL     1      -8.826  12.506  67.371  1.00  0.00    -0.187 C  
BRANCH  17  18
HETATM   18  C   UNL     1     -10.144  13.096  67.030  1.00  0.00    -0.241 A  
HETATM   19  C   UNL     1     -10.693  14.201  67.668  1.00  0.00    -0.257 A  
HETATM   20 CL   UNL     1      -9.934  15.046  68.962  1.00  0.00    -0.239 Cl 
HETATM   21  N   UNL     1     -11.906  14.723  67.369  1.00  0.00    -0.354 NA 
HETATM   22  C   UNL     1     -12.624  14.110  66.410  1.00  0.00    -0.198 A  
HETATM   23  C   UNL     1     -12.176  12.994  65.718  1.00  0.00    -0.511 A  
HETATM   24  C   UNL     1     -10.919  12.481  66.033  1.00  0.00    -0.318 A  
ENDBRANCH  17  18
ENDBRANCH   9  14
ENDBRANCH   5   8
TORSDOF 3
ENDMDL
MODEL      185
REMARK 921   NORMALIZED FREE ENERGY PREDICTED BY IDOCK:   -2.95 KCAL/MOL
REMARK 922        TOTAL FREE ENERGY PREDICTED BY IDOCK:   -4.81 KCAL/MOL
REMARK 923 INTER-LIGAND FREE ENERGY PREDICTED BY IDOCK:   -3.66 KCAL/MOL
REMARK 924 INTRA-LIGAND FREE ENERGY PREDICTED BY IDOCK:   -1.15 KCAL/MOL
REMARK 927      BINDING AFFINITY PREDICTED BY RF-SCORE:    0.00 PKD
ROOT
HETATM    1 CL   UNL     1      -8.131   3.581  66.340  1.00  0.00    -0.095 Cl 
HETATM    2  C   UNL     1      -7.910   5.265  66.607  1.00  0.00    -0.100 A  
HETATM    3  C   UNL     1      -7.002   5.704  67.561  1.00  0.00    -0.066 A  
HETATM    4  C   UNL     1      -6.847   7.077  67.794  1.00  0.00    -0.074 A  
HETATM    5  C   UNL     1      -7.625   8.045  67.123  1.00  0.00    -0.097 A  
HETATM    6  C   UNL     1      -8.658   6.185  65.886  1.00  0.00    -0.147 A  
HETATM    7  C   UNL     1      -8.534   7.553  66.163  1.00  0.00    -0.147 A  
ENDROOT
BRANCH   5   8
HETATM    8  C   UNL     1      -7.556   9.494  67.501  1.00  0.00    -0.095 A  
HETATM    9  C   UNL     1      -8.129  10.055  68.674  1.00  0.00    -0.102 A  
HETATM   10  C   UNL     1      -7.904  11.404  69.007  1.00  0.00    -0.043 A  
HETATM   11  C   UNL     1      -6.775  10.366  66.705  1.00  0.00    -0.090 A  
HETATM   12  C   UNL     1      -7.162  12.234  68.174  1.00  0.00    -0.101 A  
HETATM   13  C   UNL     1      -6.600  11.717  67.017  1.00  0.00    -0.140 A  
BRANCH   9  14
HETATM   14  N   UNL     1      -9.036   9.312  69.467  1.00  0.00    -0.144 N  
HETATM   15  O   UNL     1     -10.959   9.608  68.209  1.00  0.00    -0.206 OA 
HETATM   16  H   UNL     1      -8.691   8.920  70.343  1.00  0.00     0.000 HD 
HETATM   17  C   UNL     1     -10.362   9.081  69.133  1.00  0.00    -0.219 C  
BRANCH  17  18
HETATM   18  C   UNL     1     -11.126   8.210  70.060  1.00  0.00    -0.146 A  
HETATM   19  C   UNL     1     -11.879   8.678  71.129  1.00  0.00    -0.287 A  
HETATM   20 CL   UNL     1     -12.028  10.342  71.551  1.00  0.00    -0.414 Cl 
HETATM   21  N   UNL     1     -12.557   7.879  71.987  1.00  0.00    -0.311 NA 
HETATM   22  C   UNL     1     -12.468   6.550  71.794  1.00  0.00    -0.240 A  
HETATM   23  C   UNL     1     -11.736   5.975  70.766  1.00  0.00    -0.023 A  
HETATM   24  C   UNL     1     -11.056   6.818  69.887  1.00  0.00    -0.374 A  
ENDBRANCH  17  18
ENDBRANCH   9  14
ENDBRANCH   5   8
TORSDOF 3
ENDMDL
MODEL      186
REMARK 921   NORMALIZED FREE ENERGY PREDICTED BY IDOCK:   -2.94 KCAL/MOL
REMARK 922        TOTAL FREE ENERGY PREDICTED BY IDOCK:   -4.79 KCAL/MOL
REMARK 923 INTER-LIGAND FREE ENERGY PREDICTED BY IDOCK:   -4.60 KCAL/MOL
REMARK 924 INTRA-LIGAND FREE ENERGY PREDICTED BY IDOCK:   -0.19 KCAL/MOL
REMARK 927      BINDING AFFINITY PREDICTED BY RF-SCORE:    0.00 PKD
ROOT
HETATM    1 CL   UNL     1     -14.371   6.598  72.417  1.00  0.00    -0.037 Cl 
HETATM    2  C   UNL     1     -13.460   7.885  71.732  1.00  0.00    -0.335 A  
HETATM    3  C   UNL     1     -13.879   9.198  71.897  1.00  0.00    -0.455 A  
HETATM    4  C   UNL     1     -13.148  10.241  71.313  1.00  0.00    -0.492 A  
HETATM    5  C   UNL     1     -12.012  10.003  70.509  1.00  0.00    -0.357 A  
HETATM    6  C   UNL     1     -12.318   7.610  70.993  1.00  0.00    -0.234 A  
HETATM    7  C   UNL     1     -11.623   8.655  70.369  1.00  0.00    -0.090 A  
ENDROOT
BRANCH   5   8
HETATM    8  C   UNL     1     -11.341  11.119  69.765  1.00  0.00    -0.354 A  
HETATM    9  C   UNL     1     -10.438  10.945  68.682  1.00  0.00    -0.194 A  
HETATM   10  C   UNL     1      -9.956  12.056  67.966  1.00  0.00    -0.197 A  
HETATM   11  C   UNL     1     -11.701  12.452  70.075  1.00  0.00    -0.307 A  
HETATM   12  C   UNL     1     -10.307  13.351  68.329  1.00  0.00    -0.251 A  
HETATM   13  C   UNL     1     -11.177  13.552  69.390  1.00  0.00    -0.244 A  
BRANCH   9  14
HETATM   14  N   UNL     1      -9.907   9.669  68.376  1.00  0.00    -0.150 N  
HETATM   15  O   UNL     1      -7.885   9.830  69.495  1.00  0.00    -0.100 OA 
HETATM   16  H   UNL     1     -10.444   9.068  67.750  1.00  0.00     0.000 HD 
HETATM   17  C   UNL     1      -8.707   9.180  68.870  1.00  0.00    -0.132 C  
BRANCH  17  18
HETATM   18  C   UNL     1      -8.365   7.786  68.493  1.00  0.00    -0.129 A  
HETATM   19  C   UNL     1      -7.311   7.441  67.657  1.00  0.00    -0.092 A  
HETATM   20 CL   UNL     1      -6.249   8.578  66.919  1.00  0.00    -0.054 Cl 
HETATM   21  N   UNL     1      -7.015   6.169  67.298  1.00  0.00    -0.067 NA 
HETATM   22  C   UNL     1      -7.814   5.192  67.766  1.00  0.00    -0.091 A  
HETATM   23  C   UNL     1      -8.900   5.428  68.597  1.00  0.00    -0.107 A  
HETATM   24  C   UNL     1      -9.178   6.744  68.964  1.00  0.00    -0.136 A  
ENDBRANCH  17  18
ENDBRANCH   9  14
ENDBRANCH   5   8
TORSDOF 3
ENDMDL
MODEL      187
REMARK 921   NORMALIZED FREE ENERGY PREDICTED BY IDOCK:   -2.85 KCAL/MOL
REMARK 922        TOTAL FREE ENERGY PREDICTED BY IDOCK:   -4.68 KCAL/MOL
REMARK 923 INTER-LIGAND FREE ENERGY PREDICTED BY IDOCK:   -4.33 KCAL/MOL
REMARK 924 INTRA-LIGAND FREE ENERGY PREDICTED BY IDOCK:   -0.35 KCAL/MOL
REMARK 927      BINDING AFFINITY PREDICTED BY RF-SCORE:    0.00 PKD
ROOT
HETATM    1 CL   UNL     1     -12.978  11.820  71.223  1.00  0.00    -0.422 Cl 
HETATM    2  C   UNL     1     -12.133  11.064  69.931  1.00  0.00    -0.361 A  
HETATM    3  C   UNL     1     -11.475   9.860  70.141  1.00  0.00    -0.309 A  
HETATM    4  C   UNL     1     -10.764   9.262  69.091  1.00  0.00    -0.202 A  
HETATM    5  C   UNL     1     -10.647   9.870  67.823  1.00  0.00    -0.313 A  
HETATM    6  C   UNL     1     -12.087  11.670  68.683  1.00  0.00    -0.184 A  
HETATM    7  C   UNL     1     -11.330  11.092  67.655  1.00  0.00    -0.356 A  
ENDROOT
BRANCH   5   8
HETATM    8  C   UNL     1      -9.752   9.294  66.766  1.00  0.00    -0.260 A  
HETATM    9  C   UNL     1      -8.968   8.119  66.919  1.00  0.00    -0.140 A  
HETATM   10  C   UNL     1      -8.256   7.586  65.828  1.00  0.00    -0.137 A  
HETATM   11  C   UNL     1      -9.756   9.884  65.479  1.00  0.00    -0.370 A  
HETATM   12  C   UNL     1      -8.258   8.221  64.591  1.00  0.00    -0.145 A  
HETATM   13  C   UNL     1      -9.005   9.376  64.416  1.00  0.00    -0.215 A  
BRANCH   9  14
HETATM   14  N   UNL     1      -8.784   7.528  68.192  1.00  0.00    -0.123 N  
HETATM   15  O   UNL     1      -6.638   8.277  68.643  1.00  0.00    -0.052 OA 
HETATM   16  H   UNL     1      -9.524   6.922  68.547  1.00  0.00     0.000 HD 
HETATM   17  C   UNL     1      -7.665   7.716  68.989  1.00  0.00    -0.117 C  
BRANCH  17  18
HETATM   18  C   UNL     1      -7.700   7.071  70.325  1.00  0.00    -0.099 A  
HETATM   19  C   UNL     1      -7.142   5.831  70.607  1.00  0.00    -0.073 A  
HETATM   20 CL   UNL     1      -6.340   4.845  69.446  1.00  0.00    -0.030 Cl 
HETATM   21  N   UNL     1      -7.195   5.236  71.822  1.00  0.00    -0.078 NA 
HETATM   22  C   UNL     1      -7.852   5.885  72.801  1.00  0.00    -0.104 A  
HETATM   23  C   UNL     1      -8.453   7.123  72.625  1.00  0.00    -0.124 A  
HETATM   24  C   UNL     1      -8.376   7.723  71.369  1.00  0.00    -0.118 A  
ENDBRANCH  17  18
ENDBRANCH   9  14
ENDBRANCH   5   8
TORSDOF 3
ENDMDL
MODEL      188
REMARK 921   NORMALIZED FREE ENERGY PREDICTED BY IDOCK:   -2.68 KCAL/MOL
REMARK 922        TOTAL FREE ENERGY PREDICTED BY IDOCK:   -4.48 KCAL/MOL
REMARK 923 INTER-LIGAND FREE ENERGY PREDICTED BY IDOCK:   -4.14 KCAL/MOL
REMARK 924 INTRA-LIGAND FREE ENERGY PREDICTED BY IDOCK:   -0.35 KCAL/MOL
REMARK 927      BINDING AFFINITY PREDICTED BY RF-SCORE:    0.00 PKD
ROOT
HETATM    1 CL   UNL     1      -6.507  10.759  69.872  1.00  0.00    -0.119 Cl 
HETATM    2  C   UNL     1      -7.208  12.254  69.393  1.00  0.00     0.213 A  
HETATM    3  C   UNL     1      -6.502  13.437  69.560  1.00  0.00    -0.083 A  
HETATM    4  C   UNL     1      -7.089  14.656  69.194  1.00  0.00    -0.135 A  
HETATM    5  C   UNL     1      -8.409  14.734  68.701  1.00  0.00    -0.165 A  
HETATM    6  C   UNL     1      -8.490  12.280  68.862  1.00  0.00     0.234 A  
HETATM    7  C   UNL     1      -9.088  13.508  68.548  1.00  0.00    -0.092 A  
ENDROOT
BRANCH   5   8
HETATM    8  C   UNL     1      -9.072  16.059  68.467  1.00  0.00    -0.203 A  
HETATM    9  C   UNL     1     -10.227  16.258  67.664  1.00  0.00    -0.272 A  
HETATM   10  C   UNL     1     -10.851  17.518  67.606  1.00  0.00    -0.229 A  
HETATM   11  C   UNL     1      -8.596  17.190  69.173  1.00  0.00     0.013 A  
HETATM   12  C   UNL     1     -10.326  18.611  68.287  1.00  0.00    -0.388 A  
HETATM   13  C   UNL     1      -9.192  18.450  69.068  1.00  0.00    -0.100 A  
BRANCH   9  14
HETATM   14  N   UNL     1     -10.706  15.234  66.813  1.00  0.00    -0.309 N  
HETATM   15  O   UNL     1      -9.470  15.721  64.915  1.00  0.00     0.085 OA 
HETATM   16  H   UNL     1     -11.449  14.630  67.166  1.00  0.00     0.000 HD 
HETATM   17  C   UNL     1     -10.235  14.996  65.530  1.00  0.00    -0.378 C  
BRANCH  17  18
HETATM   18  C   UNL     1     -10.813  13.823  64.829  1.00  0.00    -0.410 A  
HETATM   19  C   UNL     1     -12.174  13.568  64.728  1.00  0.00    -0.409 A  
HETATM   20 CL   UNL     1     -13.399  14.565  65.415  1.00  0.00     0.211 Cl 
HETATM   21  N   UNL     1     -12.697  12.485  64.106  1.00  0.00    -0.717 NA 
HETATM   22  C   UNL     1     -11.834  11.597  63.579  1.00  0.00    -0.260 A  
HETATM   23  C   UNL     1     -10.456  11.749  63.632  1.00  0.00    -0.490 A  
HETATM   24  C   UNL     1      -9.940  12.879  64.267  1.00  0.00    -0.135 A  
ENDBRANCH  17  18
ENDBRANCH   9  14
ENDBRANCH   5   8
TORSDOF 3
ENDMDL
MODEL      189
REMARK 921   NORMALIZED FREE ENERGY PREDICTED BY IDOCK:   -2.59 KCAL/MOL
REMARK 922        TOTAL FREE ENERGY PREDICTED BY IDOCK:   -4.38 KCAL/MOL
REMARK 923 INTER-LIGAND FREE ENERGY PREDICTED BY IDOCK:   -4.10 KCAL/MOL
REMARK 924 INTRA-LIGAND FREE ENERGY PREDICTED BY IDOCK:   -0.29 KCAL/MOL
REMARK 927      BINDING AFFINITY PREDICTED BY RF-SCORE:    0.00 PKD
ROOT
HETATM    1 CL   UNL     1      -5.139  16.997  71.308  1.00  0.00    -0.148 Cl 
HETATM    2  C   UNL     1      -5.673  15.561  70.528  1.00  0.00    -0.096 A  
HETATM    3  C   UNL     1      -5.399  14.322  71.090  1.00  0.00    -0.164 A  
HETATM    4  C   UNL     1      -5.812  13.153  70.436  1.00  0.00    -0.156 A  
HETATM    5  C   UNL     1      -6.462  13.185  69.183  1.00  0.00    -0.107 A  
HETATM    6  C   UNL     1      -6.357  15.640  69.323  1.00  0.00    -0.136 A  
HETATM    7  C   UNL     1      -6.719  14.465  68.650  1.00  0.00    -0.090 A  
ENDROOT
BRANCH   5   8
HETATM    8  C   UNL     1      -6.752  11.923  68.428  1.00  0.00    -0.067 A  
HETATM    9  C   UNL     1      -7.385  11.864  67.158  1.00  0.00    -0.142 A  
HETATM   10  C   UNL     1      -7.501  10.641  66.471  1.00  0.00    -0.134 A  
HETATM   11  C   UNL     1      -6.271  10.697  68.947  1.00  0.00    -0.044 A  
HETATM   12  C   UNL     1      -7.047   9.454  67.036  1.00  0.00    -0.086 A  
HETATM   13  C   UNL     1      -6.435   9.479  68.280  1.00  0.00    -0.053 A  
BRANCH   9  14
HETATM   14  N   UNL     1      -8.022  13.002  66.609  1.00  0.00    -0.320 N  
HETATM   15  O   UNL     1     -10.066  12.842  67.689  1.00  0.00    -0.213 OA 
HETATM   16  H   UNL     1      -7.519  13.532  65.896  1.00  0.00     0.000 HD 
HETATM   17  C   UNL     1      -9.283  13.448  66.975  1.00  0.00    -0.242 C  
BRANCH  17  18
HETATM   18  C   UNL     1      -9.740  14.708  66.339  1.00  0.00    -0.315 A  
HETATM   19  C   UNL     1     -10.328  14.780  65.083  1.00  0.00    -0.410 A  
HETATM   20 CL   UNL     1     -10.602  13.419  64.065  1.00  0.00    -0.257 Cl 
HETATM   21  N   UNL     1     -10.724  15.935  64.497  1.00  0.00    -0.434 NA 
HETATM   22  C   UNL     1     -10.506  17.078  65.174  1.00  0.00     0.066 A  
HETATM   23  C   UNL     1      -9.917  17.121  66.429  1.00  0.00    -0.315 A  
HETATM   24  C   UNL     1      -9.529  15.919  67.019  1.00  0.00    -0.234 A  
ENDBRANCH  17  18
ENDBRANCH   9  14
ENDBRANCH   5   8
TORSDOF 3
ENDMDL
MODEL      190
REMARK 921   NORMALIZED FREE ENERGY PREDICTED BY IDOCK:   -2.58 KCAL/MOL
REMARK 922        TOTAL FREE ENERGY PREDICTED BY IDOCK:   -4.37 KCAL/MOL
REMARK 923 INTER-LIGAND FREE ENERGY PREDICTED BY IDOCK:   -4.44 KCAL/MOL
REMARK 924 INTRA-LIGAND FREE ENERGY PREDICTED BY IDOCK:    0.07 KCAL/MOL
REMARK 927      BINDING AFFINITY PREDICTED BY RF-SCORE:    0.00 PKD
ROOT
HETATM    1 CL   UNL     1      -6.432  11.790  70.118  1.00  0.00    -0.044 Cl 
HETATM    2  C   UNL     1      -7.124  13.265  69.570  1.00  0.00     0.242 A  
HETATM    3  C   UNL     1      -6.368  14.428  69.568  1.00  0.00    -0.128 A  
HETATM    4  C   UNL     1      -6.945  15.634  69.147  1.00  0.00    -0.166 A  
HETATM    5  C   UNL     1      -8.301  15.723  68.765  1.00  0.00    -0.195 A  
HETATM    6  C   UNL     1      -8.447  13.297  69.152  1.00  0.00     0.577 A  
HETATM    7  C   UNL     1      -9.031  14.516  68.782  1.00  0.00    -0.157 A  
ENDROOT
BRANCH   5   8
HETATM    8  C   UNL     1      -8.939  17.047  68.471  1.00  0.00    -0.263 A  
HETATM    9  C   UNL     1     -10.056  17.582  69.167  1.00  0.00    -0.231 A  
HETATM   10  C   UNL     1     -10.506  18.889  68.903  1.00  0.00     0.051 A  
HETATM   11  C   UNL     1      -8.335  17.892  67.509  1.00  0.00    -0.228 A  
HETATM   12  C   UNL     1      -9.906  19.670  67.921  1.00  0.00    -0.511 A  
HETATM   13  C   UNL     1      -8.821  19.170  67.218  1.00  0.00    -0.317 A  
BRANCH   9  14
HETATM   14  N   UNL     1     -10.817  16.778  70.049  1.00  0.00    -0.344 N  
HETATM   15  O   UNL     1     -12.151  15.688  68.500  1.00  0.00    -0.242 OA 
HETATM   16  H   UNL     1     -10.669  16.899  71.051  1.00  0.00     0.000 HD 
HETATM   17  C   UNL     1     -11.751  15.836  69.643  1.00  0.00    -0.355 C  
BRANCH  17  18
HETATM   18  C   UNL     1     -12.386  15.039  70.721  1.00  0.00    -0.400 A  
HETATM   19  C   UNL     1     -12.470  15.447  72.046  1.00  0.00    -0.373 A  
HETATM   20 CL   UNL     1     -11.836  16.933  72.643  1.00  0.00    -0.176 Cl 
HETATM   21  N   UNL     1     -13.030  14.706  73.032  1.00  0.00    -0.495 NA 
HETATM   22  C   UNL     1     -13.510  13.494  72.698  1.00  0.00    -0.462 A  
HETATM   23  C   UNL     1     -13.467  12.985  71.409  1.00  0.00    -0.062 A  
HETATM   24  C   UNL     1     -12.897  13.770  70.407  1.00  0.00    -0.160 A  
ENDBRANCH  17  18
ENDBRANCH   9  14
ENDBRANCH   5   8
TORSDOF 3
ENDMDL
MODEL      191
REMARK 921   NORMALIZED FREE ENERGY PREDICTED BY IDOCK:   -2.49 KCAL/MOL
REMARK 922        TOTAL FREE ENERGY PREDICTED BY IDOCK:   -4.26 KCAL/MOL
REMARK 923 INTER-LIGAND FREE ENERGY PREDICTED BY IDOCK:   -3.07 KCAL/MOL
REMARK 924 INTRA-LIGAND FREE ENERGY PREDICTED BY IDOCK:   -1.19 KCAL/MOL
REMARK 927      BINDING AFFINITY PREDICTED BY RF-SCORE:    0.00 PKD
ROOT
HETATM    1 CL   UNL     1      -7.934  12.102  68.234  1.00  0.00    -0.157 Cl 
HETATM    2  C   UNL     1      -8.113  10.709  69.225  1.00  0.00    -0.127 A  
HETATM    3  C   UNL     1      -9.380  10.232  69.530  1.00  0.00    -0.200 A  
HETATM    4  C   UNL     1      -9.522   9.112  70.361  1.00  0.00    -0.269 A  
HETATM    5  C   UNL     1      -8.411   8.471  70.950  1.00  0.00    -0.166 A  
HETATM    6  C   UNL     1      -6.991  10.076  69.740  1.00  0.00    -0.107 A  
HETATM    7  C   UNL     1      -7.144   8.990  70.613  1.00  0.00    -0.084 A  
ENDROOT
BRANCH   5   8
HETATM    8  C   UNL     1      -8.592   7.378  71.961  1.00  0.00    -0.120 A  
HETATM    9  C   UNL     1      -8.594   5.989  71.663  1.00  0.00    -0.131 A  
HETATM   10  C   UNL     1      -8.646   5.034  72.696  1.00  0.00    -0.119 A  
HETATM   11  C   UNL     1      -8.660   7.726  73.331  1.00  0.00    -0.267 A  
HETATM   12  C   UNL     1      -8.750   5.422  74.027  1.00  0.00    -0.117 A  
HETATM   13  C   UNL     1      -8.763   6.772  74.347  1.00  0.00    -0.195 A  
BRANCH   9  14
HETATM   14  N   UNL     1      -8.667   5.532  70.325  1.00  0.00    -0.127 N  
HETATM   15  O   UNL     1     -10.947   5.144  70.189  1.00  0.00    -0.066 OA 
HETATM   16  H   UNL     1      -7.792   5.426  69.810  1.00  0.00     0.000 HD 
HETATM   17  C   UNL     1      -9.847   5.219  69.667  1.00  0.00    -0.204 C  
BRANCH  17  18
HETATM   18  C   UNL     1      -9.716   4.834  68.240  1.00  0.00    -0.200 A  
HETATM   19  C   UNL     1      -9.520   5.737  67.203  1.00  0.00    -0.117 A  
HETATM   20 CL   UNL     1      -9.417   7.443  67.412  1.00  0.00    -0.159 Cl 
HETATM   21  N   UNL     1      -9.423   5.383  65.899  1.00  0.00    -0.150 NA 
HETATM   22  C   UNL     1      -9.549   4.076  65.602  1.00  0.00    -0.190 A  
HETATM   23  C   UNL     1      -9.757   3.093  66.558  1.00  0.00     0.142 A  
HETATM   24  C   UNL     1      -9.841   3.479  67.895  1.00  0.00     0.064 A  
ENDBRANCH  17  18
ENDBRANCH   9  14
ENDBRANCH   5   8
TORSDOF 3
ENDMDL
MODEL      192
REMARK 921   NORMALIZED FREE ENERGY PREDICTED BY IDOCK:   -2.48 KCAL/MOL
REMARK 922        TOTAL FREE ENERGY PREDICTED BY IDOCK:   -4.25 KCAL/MOL
REMARK 923 INTER-LIGAND FREE ENERGY PREDICTED BY IDOCK:   -3.32 KCAL/MOL
REMARK 924 INTRA-LIGAND FREE ENERGY PREDICTED BY IDOCK:   -0.93 KCAL/MOL
REMARK 927      BINDING AFFINITY PREDICTED BY RF-SCORE:    0.00 PKD
ROOT
HETATM    1 CL   UNL     1      -7.560  11.179  68.609  1.00  0.00    -0.119 Cl 
HETATM    2  C   UNL     1      -7.859   9.519  68.281  1.00  0.00    -0.086 A  
HETATM    3  C   UNL     1      -6.815   8.605  68.317  1.00  0.00    -0.066 A  
HETATM    4  C   UNL     1      -7.059   7.256  68.021  1.00  0.00    -0.081 A  
HETATM    5  C   UNL     1      -8.335   6.793  67.633  1.00  0.00    -0.123 A  
HETATM    6  C   UNL     1      -9.140   9.096  67.955  1.00  0.00    -0.136 A  
HETATM    7  C   UNL     1      -9.364   7.756  67.609  1.00  0.00    -0.160 A  
ENDROOT
BRANCH   5   8
HETATM    8  C   UNL     1      -8.538   5.382  67.167  1.00  0.00    -0.108 A  
HETATM    9  C   UNL     1      -8.980   4.312  67.989  1.00  0.00    -0.122 A  
HETATM   10  C   UNL     1      -9.262   3.050  67.433  1.00  0.00    -0.225 A  
HETATM   11  C   UNL     1      -8.391   5.095  65.789  1.00  0.00    -0.120 A  
HETATM   12  C   UNL     1      -9.066   2.802  66.079  1.00  0.00    -0.122 A  
HETATM   13  C   UNL     1      -8.624   3.825  65.254  1.00  0.00    -0.114 A  
BRANCH   9  14
HETATM   14  N   UNL     1      -9.031   4.449  69.397  1.00  0.00    -0.091 N  
HETATM   15  O   UNL     1     -11.014   5.632  69.584  1.00  0.00    -0.348 OA 
HETATM   16  H   UNL     1      -8.241   4.096  69.938  1.00  0.00     0.000 HD 
HETATM   17  C   UNL     1     -10.082   5.030  70.091  1.00  0.00    -0.268 C  
BRANCH  17  18
HETATM   18  C   UNL     1      -9.979   5.005  71.571  1.00  0.00    -0.254 A  
HETATM   19  C   UNL     1     -10.089   3.855  72.342  1.00  0.00    -0.167 A  
HETATM   20 CL   UNL     1     -10.376   2.284  71.698  1.00  0.00     0.042 Cl 
HETATM   21  N   UNL     1     -10.017   3.840  73.694  1.00  0.00    -0.112 NA 
HETATM   22  C   UNL     1      -9.853   5.021  74.318  1.00  0.00    -0.180 A  
HETATM   23  C   UNL     1      -9.743   6.230  73.646  1.00  0.00    -0.182 A  
HETATM   24  C   UNL     1      -9.807   6.220  72.253  1.00  0.00    -0.175 A  
ENDBRANCH  17  18
ENDBRANCH   9  14
ENDBRANCH   5   8
TORSDOF 3
ENDMDL
MODEL      193
REMARK 921   NORMALIZED FREE ENERGY PREDICTED BY IDOCK:   -2.39 KCAL/MOL
REMARK 922        TOTAL FREE ENERGY PREDICTED BY IDOCK:   -4.14 KCAL/MOL
REMARK 923 INTER-LIGAND FREE ENERGY PREDICTED BY IDOCK:   -3.70 KCAL/MOL
REMARK 924 INTRA-LIGAND FREE ENERGY PREDICTED BY IDOCK:   -0.44 KCAL/MOL
REMARK 927      BINDING AFFINITY PREDICTED BY RF-SCORE:    0.00 PKD
ROOT
HETATM    1 CL   UNL     1      -5.881  12.372  69.962  1.00  0.00    -0.138 Cl 
HETATM    2  C   UNL     1      -6.398  10.890  69.262  1.00  0.00    -0.064 A  
HETATM    3  C   UNL     1      -5.721  10.364  68.170  1.00  0.00    -0.040 A  
HETATM    4  C   UNL     1      -6.164   9.169  67.586  1.00  0.00    -0.058 A  
HETATM    5  C   UNL     1      -7.319   8.496  68.039  1.00  0.00    -0.092 A  
HETATM    6  C   UNL     1      -7.508  10.231  69.773  1.00  0.00    -0.169 A  
HETATM    7  C   UNL     1      -7.974   9.067  69.150  1.00  0.00    -0.101 A  
ENDROOT
BRANCH   5   8
HETATM    8  C   UNL     1      -7.865   7.310  67.301  1.00  0.00    -0.111 A  
HETATM    9  C   UNL     1      -8.803   6.385  67.832  1.00  0.00    -0.113 A  
HETATM   10  C   UNL     1      -9.352   5.376  67.019  1.00  0.00    -0.121 A  
HETATM   11  C   UNL     1      -7.518   7.142  65.939  1.00  0.00    -0.080 A  
HETATM   12  C   UNL     1      -8.954   5.224  65.696  1.00  0.00    -0.160 A  
HETATM   13  C   UNL     1      -8.030   6.105  65.154  1.00  0.00    -0.117 A  
BRANCH   9  14
HETATM   14  N   UNL     1      -9.115   6.377  69.212  1.00  0.00    -0.136 N  
HETATM   15  O   UNL     1     -11.223   7.334  69.122  1.00  0.00    -0.054 OA 
HETATM   16  H   UNL     1      -8.397   6.053  69.861  1.00  0.00     0.000 HD 
HETATM   17  C   UNL     1     -10.332   6.779  69.743  1.00  0.00    -0.201 C  
BRANCH  17  18
HETATM   18  C   UNL     1     -10.489   6.619  71.210  1.00  0.00    -0.244 A  
HETATM   19  C   UNL     1     -10.642   7.676  72.098  1.00  0.00    -0.232 A  
HETATM   20 CL   UNL     1     -10.657   9.334  71.634  1.00  0.00    -0.418 Cl 
HETATM   21  N   UNL     1     -10.763   7.527  73.439  1.00  0.00    -0.382 NA 
HETATM   22  C   UNL     1     -10.705   6.275  73.930  1.00  0.00    -0.107 A  
HETATM   23  C   UNL     1     -10.544   5.151  73.134  1.00  0.00    -0.282 A  
HETATM   24  C   UNL     1     -10.434   5.327  71.755  1.00  0.00    -0.278 A  
ENDBRANCH  17  18
ENDBRANCH   9  14
ENDBRANCH   5   8
TORSDOF 3
ENDMDL
MODEL      194
REMARK 921   NORMALIZED FREE ENERGY PREDICTED BY IDOCK:   -2.38 KCAL/MOL
REMARK 922        TOTAL FREE ENERGY PREDICTED BY IDOCK:   -4.14 KCAL/MOL
REMARK 923 INTER-LIGAND FREE ENERGY PREDICTED BY IDOCK:   -4.12 KCAL/MOL
REMARK 924 INTRA-LIGAND FREE ENERGY PREDICTED BY IDOCK:   -0.02 KCAL/MOL
REMARK 927      BINDING AFFINITY PREDICTED BY RF-SCORE:    0.00 PKD
ROOT
HETATM    1 CL   UNL     1      -5.458  13.412  70.863  1.00  0.00    -0.170 Cl 
HETATM    2  C   UNL     1      -6.549  13.516  69.540  1.00  0.00    -0.054 A  
HETATM    3  C   UNL     1      -7.597  14.426  69.572  1.00  0.00     0.083 A  
HETATM    4  C   UNL     1      -8.500  14.488  68.503  1.00  0.00    -0.166 A  
HETATM    5  C   UNL     1      -8.415  13.613  67.398  1.00  0.00    -0.206 A  
HETATM    6  C   UNL     1      -6.398  12.673  68.448  1.00  0.00    -0.069 A  
HETATM    7  C   UNL     1      -7.336  12.705  67.408  1.00  0.00    -0.140 A  
ENDROOT
BRANCH   5   8
HETATM    8  C   UNL     1      -9.482  13.588  66.345  1.00  0.00    -0.236 A  
HETATM    9  C   UNL     1     -10.101  12.412  65.843  1.00  0.00    -0.253 A  
HETATM   10  C   UNL     1     -11.181  12.497  64.945  1.00  0.00    -0.344 A  
HETATM   11  C   UNL     1     -10.004  14.819  65.880  1.00  0.00    -0.351 A  
HETATM   12  C   UNL     1     -11.637  13.728  64.486  1.00  0.00    -0.413 A  
HETATM   13  C   UNL     1     -11.044  14.893  64.949  1.00  0.00    -0.424 A  
BRANCH   9  14
HETATM   14  N   UNL     1      -9.572  11.131  66.134  1.00  0.00    -0.202 N  
HETATM   15  O   UNL     1      -8.466  10.724  64.139  1.00  0.00    -0.111 OA 
HETATM   16  H   UNL     1      -9.826  10.703  67.024  1.00  0.00     0.000 HD 
HETATM   17  C   UNL     1      -8.731  10.420  65.291  1.00  0.00    -0.179 C  
BRANCH  17  18
HETATM   18  C   UNL     1      -8.222   9.129  65.814  1.00  0.00    -0.115 A  
HETATM   19  C   UNL     1      -8.868   8.369  66.781  1.00  0.00    -0.138 A  
HETATM   20 CL   UNL     1     -10.352   8.818  67.531  1.00  0.00    -0.314 Cl 
HETATM   21  N   UNL     1      -8.388   7.202  67.273  1.00  0.00    -0.118 NA 
HETATM   22  C   UNL     1      -7.200   6.775  66.805  1.00  0.00    -0.076 A  
HETATM   23  C   UNL     1      -6.467   7.461  65.848  1.00  0.00    -0.045 A  
HETATM   24  C   UNL     1      -6.986   8.655  65.347  1.00  0.00    -0.075 A  
ENDBRANCH  17  18
ENDBRANCH   9  14
ENDBRANCH   5   8
TORSDOF 3
ENDMDL
MODEL      195
REMARK 921   NORMALIZED FREE ENERGY PREDICTED BY IDOCK:   -2.35 KCAL/MOL
REMARK 922        TOTAL FREE ENERGY PREDICTED BY IDOCK:   -4.10 KCAL/MOL
REMARK 923 INTER-LIGAND FREE ENERGY PREDICTED BY IDOCK:   -3.14 KCAL/MOL
REMARK 924 INTRA-LIGAND FREE ENERGY PREDICTED BY IDOCK:   -0.95 KCAL/MOL
REMARK 927      BINDING AFFINITY PREDICTED BY RF-SCORE:    0.00 PKD
ROOT
HETATM    1 CL   UNL     1      -8.780   4.336  72.416  1.00  0.00    -0.112 Cl 
HETATM    2  C   UNL     1      -8.709   4.501  70.707  1.00  0.00    -0.093 A  
HETATM    3  C   UNL     1      -9.815   4.962  70.007  1.00  0.00    -0.304 A  
HETATM    4  C   UNL     1      -9.761   5.069  68.610  1.00  0.00    -0.221 A  
HETATM    5  C   UNL     1      -8.625   4.672  67.871  1.00  0.00    -0.106 A  
HETATM    6  C   UNL     1      -7.553   4.150  70.024  1.00  0.00    -0.052 A  
HETATM    7  C   UNL     1      -7.526   4.209  68.624  1.00  0.00    -0.055 A  
ENDROOT
BRANCH   5   8
HETATM    8  C   UNL     1      -8.647   4.643  66.372  1.00  0.00    -0.112 A  
HETATM    9  C   UNL     1      -8.317   5.742  65.535  1.00  0.00    -0.140 A  
HETATM   10  C   UNL     1      -8.245   5.582  64.138  1.00  0.00    -0.120 A  
HETATM   11  C   UNL     1      -8.906   3.413  65.721  1.00  0.00    -0.133 A  
HETATM   12  C   UNL     1      -8.544   4.364  63.539  1.00  0.00    -0.115 A  
HETATM   13  C   UNL     1      -8.881   3.277  64.330  1.00  0.00    -0.103 A  
BRANCH   9  14
HETATM   14  N   UNL     1      -8.174   7.046  66.068  1.00  0.00    -0.122 N  
HETATM   15  O   UNL     1     -10.408   7.555  66.410  1.00  0.00    -0.121 OA 
HETATM   16  H   UNL     1      -7.234   7.442  66.110  1.00  0.00     0.000 HD 
HETATM   17  C   UNL     1      -9.224   7.821  66.537  1.00  0.00    -0.184 C  
BRANCH  17  18
HETATM   18  C   UNL     1      -8.855   9.130  67.130  1.00  0.00    -0.130 A  
HETATM   19  C   UNL     1      -8.625  10.284  66.393  1.00  0.00    -0.133 A  
HETATM   20 CL   UNL     1      -8.717  10.368  64.675  1.00  0.00    -0.189 Cl 
HETATM   21  N   UNL     1      -8.267  11.471  66.936  1.00  0.00    -0.162 NA 
HETATM   22  C   UNL     1      -8.104  11.516  68.272  1.00  0.00    -0.148 A  
HETATM   23  C   UNL     1      -8.298  10.421  69.101  1.00  0.00    -0.160 A  
HETATM   24  C   UNL     1      -8.678   9.211  68.520  1.00  0.00    -0.129 A  
ENDBRANCH  17  18
ENDBRANCH   9  14
ENDBRANCH   5   8
TORSDOF 3
ENDMDL
MODEL      196
REMARK 921   NORMALIZED FREE ENERGY PREDICTED BY IDOCK:   -2.12 KCAL/MOL
REMARK 922        TOTAL FREE ENERGY PREDICTED BY IDOCK:   -3.83 KCAL/MOL
REMARK 923 INTER-LIGAND FREE ENERGY PREDICTED BY IDOCK:   -3.96 KCAL/MOL
REMARK 924 INTRA-LIGAND FREE ENERGY PREDICTED BY IDOCK:    0.13 KCAL/MOL
REMARK 927      BINDING AFFINITY PREDICTED BY RF-SCORE:    0.00 PKD
ROOT
HETATM    1 CL   UNL     1      -9.068   4.372  71.825  1.00  0.00    -0.157 Cl 
HETATM    2  C   UNL     1      -8.837   4.557  70.132  1.00  0.00    -0.086 A  
HETATM    3  C   UNL     1      -9.933   4.587  69.280  1.00  0.00    -0.192 A  
HETATM    4  C   UNL     1      -9.738   4.711  67.898  1.00  0.00    -0.198 A  
HETATM    5  C   UNL     1      -8.449   4.757  67.324  1.00  0.00    -0.105 A  
HETATM    6  C   UNL     1      -7.553   4.653  69.613  1.00  0.00    -0.058 A  
HETATM    7  C   UNL     1      -7.366   4.723  68.227  1.00  0.00    -0.066 A  
ENDROOT
BRANCH   5   8
HETATM    8  C   UNL     1      -8.261   4.728  65.836  1.00  0.00    -0.112 A  
HETATM    9  C   UNL     1      -8.382   5.855  64.981  1.00  0.00    -0.131 A  
HETATM   10  C   UNL     1      -8.064   5.755  63.613  1.00  0.00    -0.107 A  
HETATM   11  C   UNL     1      -7.824   3.525  65.232  1.00  0.00    -0.086 A  
HETATM   12  C   UNL     1      -7.675   4.543  63.054  1.00  0.00    -0.066 A  
HETATM   13  C   UNL     1      -7.560   3.422  63.863  1.00  0.00    -0.071 A  
BRANCH   9  14
HETATM   14  N   UNL     1      -8.939   7.069  65.451  1.00  0.00    -0.369 N  
HETATM   15  O   UNL     1      -7.719   8.561  64.165  1.00  0.00    -0.119 OA 
HETATM   16  H   UNL     1      -9.621   7.017  66.208  1.00  0.00     0.000 HD 
HETATM   17  C   UNL     1      -8.621   8.323  64.952  1.00  0.00    -0.048 C  
BRANCH  17  18
HETATM   18  C   UNL     1      -9.374   9.465  65.526  1.00  0.00    -0.315 A  
HETATM   19  C   UNL     1     -10.196   9.375  66.642  1.00  0.00    -0.249 A  
HETATM   20 CL   UNL     1     -10.479   7.920  67.520  1.00  0.00    -0.328 Cl 
HETATM   21  N   UNL     1     -10.900  10.414  67.150  1.00  0.00    -0.264 NA 
HETATM   22  C   UNL     1     -10.807  11.595  66.511  1.00  0.00    -0.284 A  
HETATM   23  C   UNL     1     -10.025  11.792  65.383  1.00  0.00    -0.284 A  
HETATM   24  C   UNL     1      -9.299  10.711  64.884  1.00  0.00    -0.271 A  
ENDBRANCH  17  18
ENDBRANCH   9  14
ENDBRANCH   5   8
TORSDOF 3
ENDMDL
MODEL      197
REMARK 921   NORMALIZED FREE ENERGY PREDICTED BY IDOCK:   -2.03 KCAL/MOL
REMARK 922        TOTAL FREE ENERGY PREDICTED BY IDOCK:   -3.73 KCAL/MOL
REMARK 923 INTER-LIGAND FREE ENERGY PREDICTED BY IDOCK:   -2.70 KCAL/MOL
REMARK 924 INTRA-LIGAND FREE ENERGY PREDICTED BY IDOCK:   -1.03 KCAL/MOL
REMARK 927      BINDING AFFINITY PREDICTED BY RF-SCORE:    0.00 PKD
ROOT
HETATM    1 CL   UNL     1      -7.816  15.845  67.878  1.00  0.00    -0.141 Cl 
HETATM    2  C   UNL     1      -8.517  14.354  68.368  1.00  0.00    -0.165 A  
HETATM    3  C   UNL     1      -7.723  13.362  68.925  1.00  0.00     0.049 A  
HETATM    4  C   UNL     1      -8.295  12.138  69.298  1.00  0.00     0.688 A  
HETATM    5  C   UNL     1      -9.660  11.851  69.079  1.00  0.00     0.192 A  
HETATM    6  C   UNL     1      -9.875  14.134  68.184  1.00  0.00    -0.229 A  
HETATM    7  C   UNL     1     -10.428  12.888  68.510  1.00  0.00    -0.260 A  
ENDROOT
BRANCH   5   8
HETATM    8  C   UNL     1     -10.215  10.482  69.336  1.00  0.00    -0.245 A  
HETATM    9  C   UNL     1     -10.169   9.401  68.417  1.00  0.00    -0.197 A  
HETATM   10  C   UNL     1     -10.604   8.118  68.796  1.00  0.00    -0.149 A  
HETATM   11  C   UNL     1     -10.731  10.191  70.622  1.00  0.00    -0.243 A  
HETATM   12  C   UNL     1     -11.139   7.886  70.058  1.00  0.00    -0.165 A  
HETATM   13  C   UNL     1     -11.209   8.926  70.973  1.00  0.00    -0.342 A  
BRANCH   9  14
HETATM   14  N   UNL     1      -9.801   9.611  67.066  1.00  0.00    -0.183 N  
HETATM   15  O   UNL     1      -7.496   9.543  67.294  1.00  0.00    -0.090 OA 
HETATM   16  H   UNL     1     -10.545   9.790  66.392  1.00  0.00     0.000 HD 
HETATM   17  C   UNL     1      -8.496   9.587  66.596  1.00  0.00    -0.133 C  
BRANCH  17  18
HETATM   18  C   UNL     1      -8.326   9.751  65.131  1.00  0.00    -0.146 A  
HETATM   19  C   UNL     1      -8.903  10.772  64.388  1.00  0.00    -0.121 A  
HETATM   20 CL   UNL     1      -9.916  11.997  65.052  1.00  0.00    -0.275 Cl 
HETATM   21  N   UNL     1      -8.765  10.906  63.048  1.00  0.00    -0.192 NA 
HETATM   22  C   UNL     1      -8.040   9.970  62.405  1.00  0.00    -0.133 A  
HETATM   23  C   UNL     1      -7.430   8.903  63.048  1.00  0.00    -0.100 A  
HETATM   24  C   UNL     1      -7.576   8.793  64.430  1.00  0.00    -0.116 A  
ENDBRANCH  17  18
ENDBRANCH   9  14
ENDBRANCH   5   8
TORSDOF 3
ENDMDL
MODEL      198
REMARK 921   NORMALIZED FREE ENERGY PREDICTED BY IDOCK:   -1.98 KCAL/MOL
REMARK 922        TOTAL FREE ENERGY PREDICTED BY IDOCK:   -3.66 KCAL/MOL
REMARK 923 INTER-LIGAND FREE ENERGY PREDICTED BY IDOCK:   -3.10 KCAL/MOL
REMARK 924 INTRA-LIGAND FREE ENERGY PREDICTED BY IDOCK:   -0.56 KCAL/MOL
REMARK 927      BINDING AFFINITY PREDICTED BY RF-SCORE:    0.00 PKD
ROOT
HETATM    1 CL   UNL     1     -11.105  20.656  69.811  1.00  0.00     1.176 Cl 
HETATM    2  C   UNL     1      -9.961  20.214  68.607  1.00  0.00    -0.223 A  
HETATM    3  C   UNL     1      -8.657  19.906  68.968  1.00  0.00     0.041 A  
HETATM    4  C   UNL     1      -7.720  19.573  67.979  1.00  0.00    -0.334 A  
HETATM    5  C   UNL     1      -8.044  19.587  66.605  1.00  0.00    -0.324 A  
HETATM    6  C   UNL     1     -10.335  20.188  67.271  1.00  0.00    -0.494 A  
HETATM    7  C   UNL     1      -9.380  19.906  66.285  1.00  0.00    -0.474 A  
ENDROOT
BRANCH   5   8
HETATM    8  C   UNL     1      -6.989  19.385  65.558  1.00  0.00    -0.283 A  
HETATM    9  C   UNL     1      -6.130  18.256  65.479  1.00  0.00    -0.230 A  
HETATM   10  C   UNL     1      -5.257  18.096  64.387  1.00  0.00     0.138 A  
HETATM   11  C   UNL     1      -6.897  20.319  64.499  1.00  0.00    -0.011 A  
HETATM   12  C   UNL     1      -5.173  19.059  63.388  1.00  0.00    -0.296 A  
HETATM   13  C   UNL     1      -5.990  20.177  63.445  1.00  0.00    -0.219 A  
BRANCH   9  14
HETATM   14  N   UNL     1      -6.042  17.333  66.548  1.00  0.00    -0.206 N  
HETATM   15  O   UNL     1      -8.105  16.302  66.320  1.00  0.00    -0.308 OA 
HETATM   16  H   UNL     1      -5.217  17.374  67.146  1.00  0.00     0.000 HD 
HETATM   17  C   UNL     1      -7.002  16.374  66.838  1.00  0.00    -0.212 C  
BRANCH  17  18
HETATM   18  C   UNL     1      -6.685  15.449  67.953  1.00  0.00    -0.177 A  
HETATM   19  C   UNL     1      -7.463  15.306  69.094  1.00  0.00    -0.179 A  
HETATM   20 CL   UNL     1      -8.908  16.193  69.396  1.00  0.00    -0.188 Cl 
HETATM   21  N   UNL     1      -7.159  14.476  70.120  1.00  0.00     0.019 NA 
HETATM   22  C   UNL     1      -6.016  13.770  70.026  1.00  0.00    -0.144 A  
HETATM   23  C   UNL     1      -5.161  13.845  68.937  1.00  0.00    -0.073 A  
HETATM   24  C   UNL     1      -5.501  14.697  67.886  1.00  0.00    -0.097 A  
ENDBRANCH  17  18
ENDBRANCH   9  14
ENDBRANCH   5   8
TORSDOF 3
ENDMDL
MODEL      199
REMARK 921   NORMALIZED FREE ENERGY PREDICTED BY IDOCK:   -1.95 KCAL/MOL
REMARK 922        TOTAL FREE ENERGY PREDICTED BY IDOCK:   -3.63 KCAL/MOL
REMARK 923 INTER-LIGAND FREE ENERGY PREDICTED BY IDOCK:   -2.61 KCAL/MOL
REMARK 924 INTRA-LIGAND FREE ENERGY PREDICTED BY IDOCK:   -1.01 KCAL/MOL
REMARK 927      BINDING AFFINITY PREDICTED BY RF-SCORE:    0.00 PKD
ROOT
HETATM    1 CL   UNL     1      -7.916  12.130  68.234  1.00  0.00    -0.157 Cl 
HETATM    2  C   UNL     1      -7.995  10.779  69.293  1.00  0.00    -0.106 A  
HETATM    3  C   UNL     1      -9.213  10.161  69.541  1.00  0.00    -0.223 A  
HETATM    4  C   UNL     1      -9.276   9.077  70.427  1.00  0.00    -0.243 A  
HETATM    5  C   UNL     1      -8.141   8.612  71.126  1.00  0.00    -0.176 A  
HETATM    6  C   UNL     1      -6.844  10.320  69.919  1.00  0.00    -0.134 A  
HETATM    7  C   UNL     1      -6.926   9.270  70.843  1.00  0.00    -0.107 A  
ENDROOT
BRANCH   5   8
HETATM    8  C   UNL     1      -8.261   7.558  72.186  1.00  0.00    -0.118 A  
HETATM    9  C   UNL     1      -7.940   6.186  72.007  1.00  0.00    -0.106 A  
HETATM   10  C   UNL     1      -7.965   5.296  73.096  1.00  0.00    -0.101 A  
HETATM   11  C   UNL     1      -8.613   7.954  73.499  1.00  0.00    -0.302 A  
HETATM   12  C   UNL     1      -8.354   5.721  74.362  1.00  0.00    -0.108 A  
HETATM   13  C   UNL     1      -8.684   7.052  74.565  1.00  0.00    -0.227 A  
BRANCH   9  14
HETATM   14  N   UNL     1      -7.708   5.656  70.715  1.00  0.00    -0.090 N  
HETATM   15  O   UNL     1      -5.397   5.512  70.782  1.00  0.00    -0.008 OA 
HETATM   16  H   UNL     1      -8.512   5.538  70.098  1.00  0.00     0.000 HD 
HETATM   17  C   UNL     1      -6.462   5.287  70.231  1.00  0.00    -0.034 C  
BRANCH  17  18
HETATM   18  C   UNL     1      -6.441   4.678  68.878  1.00  0.00    -0.036 A  
HETATM   19  C   UNL     1      -7.123   5.190  67.781  1.00  0.00    -0.066 A  
HETATM   20 CL   UNL     1      -8.108   6.601  67.828  1.00  0.00    -0.115 Cl 
HETATM   21  N   UNL     1      -7.119   4.618  66.554  1.00  0.00    -0.073 NA 
HETATM   22  C   UNL     1      -6.429   3.472  66.407  1.00  0.00    -0.037 A  
HETATM   23  C   UNL     1      -5.723   2.870  67.438  1.00  0.00    -0.022 A  
HETATM   24  C   UNL     1      -5.730   3.482  68.690  1.00  0.00    -0.022 A  
ENDBRANCH  17  18
ENDBRANCH   9  14
ENDBRANCH   5   8
TORSDOF 3
ENDMDL
MODEL      200
REMARK 921   NORMALIZED FREE ENERGY PREDICTED BY IDOCK:   -1.76 KCAL/MOL
REMARK 922        TOTAL FREE ENERGY PREDICTED BY IDOCK:   -3.41 KCAL/MOL
REMARK 923 INTER-LIGAND FREE ENERGY PREDICTED BY IDOCK:   -3.86 KCAL/MOL
REMARK 924 INTRA-LIGAND FREE ENERGY PREDICTED BY IDOCK:    0.45 KCAL/MOL
REMARK 927      BINDING AFFINITY PREDICTED BY RF-SCORE:    0.00 PKD
ROOT
HETATM    1 CL   UNL     1     -12.991  11.360  71.765  1.00  0.00    -0.561 Cl 
HETATM    2  C   UNL     1     -12.275  11.023  70.239  1.00  0.00    -0.363 A  
HETATM    3  C   UNL     1     -11.516   9.873  70.067  1.00  0.00    -0.274 A  
HETATM    4  C   UNL     1     -10.911   9.617  68.828  1.00  0.00    -0.153 A  
HETATM    5  C   UNL     1     -11.004  10.521  67.748  1.00  0.00    -0.372 A  
HETATM    6  C   UNL     1     -12.435  11.912  69.186  1.00  0.00     0.263 A  
HETATM    7  C   UNL     1     -11.784  11.675  67.969  1.00  0.00    -0.351 A  
ENDROOT
BRANCH   5   8
HETATM    8  C   UNL     1     -10.219  10.305  66.488  1.00  0.00    -0.289 A  
HETATM    9  C   UNL     1      -9.074   9.473  66.377  1.00  0.00    -0.159 A  
HETATM   10  C   UNL     1      -8.480   9.235  65.123  1.00  0.00    -0.173 A  
HETATM   11  C   UNL     1     -10.700  10.876  65.285  1.00  0.00    -0.194 A  
HETATM   12  C   UNL     1      -8.962   9.847  63.972  1.00  0.00    -0.276 A  
HETATM   13  C   UNL     1     -10.072  10.675  64.052  1.00  0.00    -0.378 A  
BRANCH   9  14
HETATM   14  N   UNL     1      -8.431   8.962  67.530  1.00  0.00    -0.116 N  
HETATM   15  O   UNL     1      -6.431   8.291  66.574  1.00  0.00    -0.053 OA 
HETATM   16  H   UNL     1      -8.961   8.947  68.402  1.00  0.00     0.000 HD 
HETATM   17  C   UNL     1      -7.130   8.483  67.555  1.00  0.00    -0.080 C  
BRANCH  17  18
HETATM   18  C   UNL     1      -6.614   8.065  68.882  1.00  0.00    -0.049 A  
HETATM   19  C   UNL     1      -6.799   8.788  70.053  1.00  0.00    -0.042 A  
HETATM   20 CL   UNL     1      -7.644  10.286  70.142  1.00  0.00    -0.131 Cl 
HETATM   21  N   UNL     1      -6.307   8.415  71.259  1.00  0.00    -0.038 NA 
HETATM   22  C   UNL     1      -5.575   7.286  71.306  1.00  0.00    -0.035 A  
HETATM   23  C   UNL     1      -5.320   6.496  70.195  1.00  0.00    -0.014 A  
HETATM   24  C   UNL     1      -5.847   6.892  68.966  1.00  0.00    -0.019 A  
ENDBRANCH  17  18
ENDBRANCH   9  14
ENDBRANCH   5   8
TORSDOF 3
ENDMDL
MODEL      201
REMARK 921   NORMALIZED FREE ENERGY PREDICTED BY IDOCK:   -1.57 KCAL/MOL
REMARK 922        TOTAL FREE ENERGY PREDICTED BY IDOCK:   -3.18 KCAL/MOL
REMARK 923 INTER-LIGAND FREE ENERGY PREDICTED BY IDOCK:   -2.33 KCAL/MOL
REMARK 924 INTRA-LIGAND FREE ENERGY PREDICTED BY IDOCK:   -0.85 KCAL/MOL
REMARK 927      BINDING AFFINITY PREDICTED BY RF-SCORE:    0.00 PKD
ROOT
HETATM    1 CL   UNL     1      -7.235  11.822  69.289  1.00  0.00    -0.046 Cl 
HETATM    2  C   UNL     1      -7.700  10.226  68.853  1.00  0.00    -0.098 A  
HETATM    3  C   UNL     1      -6.742   9.315  68.429  1.00  0.00    -0.059 A  
HETATM    4  C   UNL     1      -7.130   8.023  68.048  1.00  0.00    -0.086 A  
HETATM    5  C   UNL     1      -8.483   7.621  68.030  1.00  0.00    -0.123 A  
HETATM    6  C   UNL     1      -9.037   9.855  68.901  1.00  0.00    -0.156 A  
HETATM    7  C   UNL     1      -9.421   8.579  68.468  1.00  0.00    -0.146 A  
ENDROOT
BRANCH   5   8
HETATM    8  C   UNL     1      -8.889   6.291  67.469  1.00  0.00    -0.103 A  
HETATM    9  C   UNL     1      -8.838   5.061  68.177  1.00  0.00    -0.102 A  
HETATM   10  C   UNL     1      -9.359   3.884  67.608  1.00  0.00    -0.232 A  
HETATM   11  C   UNL     1      -9.472   6.249  66.179  1.00  0.00    -0.092 A  
HETATM   12  C   UNL     1      -9.888   3.882  66.322  1.00  0.00    -0.131 A  
HETATM   13  C   UNL     1      -9.940   5.066  65.602  1.00  0.00    -0.098 A  
BRANCH   9  14
HETATM   14  N   UNL     1      -8.156   4.962  69.414  1.00  0.00    -0.077 N  
HETATM   15  O   UNL     1      -9.573   6.244  70.724  1.00  0.00    -0.174 OA 
HETATM   16  H   UNL     1      -7.266   4.463  69.428  1.00  0.00     0.000 HD 
HETATM   17  C   UNL     1      -8.617   5.495  70.608  1.00  0.00    -0.129 C  
BRANCH  17  18
HETATM   18  C   UNL     1      -7.793   5.213  71.810  1.00  0.00    -0.110 A  
HETATM   19  C   UNL     1      -6.965   6.143  72.424  1.00  0.00    -0.079 A  
HETATM   20 CL   UNL     1      -6.756   7.762  71.875  1.00  0.00    -0.053 Cl 
HETATM   21  N   UNL     1      -6.198   5.876  73.507  1.00  0.00    -0.061 NA 
HETATM   22  C   UNL     1      -6.232   4.621  73.994  1.00  0.00    -0.043 A  
HETATM   23  C   UNL     1      -7.014   3.613  73.451  1.00  0.00    -0.049 A  
HETATM   24  C   UNL     1      -7.806   3.915  72.344  1.00  0.00    -0.080 A  
ENDBRANCH  17  18
ENDBRANCH   9  14
ENDBRANCH   5   8
TORSDOF 3
ENDMDL
MODEL      202
REMARK 921   NORMALIZED FREE ENERGY PREDICTED BY IDOCK:   -1.53 KCAL/MOL
REMARK 922        TOTAL FREE ENERGY PREDICTED BY IDOCK:   -3.13 KCAL/MOL
REMARK 923 INTER-LIGAND FREE ENERGY PREDICTED BY IDOCK:   -2.36 KCAL/MOL
REMARK 924 INTRA-LIGAND FREE ENERGY PREDICTED BY IDOCK:   -0.77 KCAL/MOL
REMARK 927      BINDING AFFINITY PREDICTED BY RF-SCORE:    0.00 PKD
ROOT
HETATM    1 CL   UNL     1      -9.341   6.821  72.318  1.00  0.00    -0.143 Cl 
HETATM    2  C   UNL     1      -9.119   6.002  70.823  1.00  0.00    -0.153 A  
HETATM    3  C   UNL     1      -9.867   6.368  69.713  1.00  0.00    -0.189 A  
HETATM    4  C   UNL     1      -9.703   5.678  68.504  1.00  0.00    -0.172 A  
HETATM    5  C   UNL     1      -8.829   4.576  68.382  1.00  0.00    -0.126 A  
HETATM    6  C   UNL     1      -8.209   4.958  70.733  1.00  0.00    -0.094 A  
HETATM    7  C   UNL     1      -8.090   4.240  69.536  1.00  0.00    -0.062 A  
ENDROOT
BRANCH   5   8
HETATM    8  C   UNL     1      -8.787   3.755  67.128  1.00  0.00    -0.135 A  
HETATM    9  C   UNL     1      -8.360   4.231  65.860  1.00  0.00    -0.109 A  
HETATM   10  C   UNL     1      -8.236   3.351  64.769  1.00  0.00    -0.090 A  
HETATM   11  C   UNL     1      -9.086   2.374  67.213  1.00  0.00    -0.180 A  
HETATM   12  C   UNL     1      -8.577   2.008  64.887  1.00  0.00    -0.099 A  
HETATM   13  C   UNL     1      -9.009   1.518  66.110  1.00  0.00    -0.092 A  
BRANCH   9  14
HETATM   14  N   UNL     1      -8.167   5.614  65.630  1.00  0.00    -0.120 N  
HETATM   15  O   UNL     1      -6.031   5.841  66.499  1.00  0.00    -0.020 OA 
HETATM   16  H   UNL     1      -8.946   6.145  65.241  1.00  0.00     0.000 HD 
HETATM   17  C   UNL     1      -6.989   6.296  65.895  1.00  0.00    -0.061 C  
BRANCH  17  18
HETATM   18  C   UNL     1      -6.962   7.728  65.508  1.00  0.00    -0.053 A  
HETATM   19  C   UNL     1      -7.144   8.189  64.210  1.00  0.00    -0.078 A  
HETATM   20 CL   UNL     1      -7.412   7.167  62.850  1.00  0.00    -0.089 Cl 
HETATM   21  N   UNL     1      -7.097   9.496  63.857  1.00  0.00    -0.104 NA 
HETATM   22  C   UNL     1      -6.834  10.390  64.829  1.00  0.00    -0.028 A  
HETATM   23  C   UNL     1      -6.626  10.037  66.154  1.00  0.00    -0.088 A  
HETATM   24  C   UNL     1      -6.691   8.687  66.497  1.00  0.00    -0.071 A  
ENDBRANCH  17  18
ENDBRANCH   9  14
ENDBRANCH   5   8
TORSDOF 3
ENDMDL
MODEL      203
REMARK 921   NORMALIZED FREE ENERGY PREDICTED BY IDOCK:   -1.36 KCAL/MOL
REMARK 922        TOTAL FREE ENERGY PREDICTED BY IDOCK:   -2.94 KCAL/MOL
REMARK 923 INTER-LIGAND FREE ENERGY PREDICTED BY IDOCK:   -3.01 KCAL/MOL
REMARK 924 INTRA-LIGAND FREE ENERGY PREDICTED BY IDOCK:    0.07 KCAL/MOL
REMARK 927      BINDING AFFINITY PREDICTED BY RF-SCORE:    0.00 PKD
ROOT
HETATM    1 CL   UNL     1      -5.842  11.557  70.498  1.00  0.00    -0.151 Cl 
HETATM    2  C   UNL     1      -6.669  10.270  69.715  1.00  0.00    -0.103 A  
HETATM    3  C   UNL     1      -6.277   9.861  68.448  1.00  0.00    -0.050 A  
HETATM    4  C   UNL     1      -6.973   8.830  67.803  1.00  0.00    -0.075 A  
HETATM    5  C   UNL     1      -8.106   8.214  68.378  1.00  0.00    -0.128 A  
HETATM    6  C   UNL     1      -7.745   9.656  70.340  1.00  0.00    -0.178 A  
HETATM    7  C   UNL     1      -8.468   8.662  69.666  1.00  0.00    -0.129 A  
ENDROOT
BRANCH   5   8
HETATM    8  C   UNL     1      -8.929   7.228  67.606  1.00  0.00    -0.126 A  
HETATM    9  C   UNL     1      -9.968   6.431  68.155  1.00  0.00    -0.136 A  
HETATM   10  C   UNL     1     -10.769   5.625  67.325  1.00  0.00    -0.299 A  
HETATM   11  C   UNL     1      -8.749   7.146  66.204  1.00  0.00    -0.164 A  
HETATM   12  C   UNL     1     -10.532   5.546  65.957  1.00  0.00    -0.052 A  
HETATM   13  C   UNL     1      -9.516   6.303  65.394  1.00  0.00     0.463 A  
BRANCH   9  14
HETATM   14  N   UNL     1     -10.145   6.332  69.556  1.00  0.00    -0.169 N  
HETATM   15  O   UNL     1      -8.280   5.061  70.078  1.00  0.00    -0.079 OA 
HETATM   16  H   UNL     1     -10.991   6.737  69.959  1.00  0.00     0.000 HD 
HETATM   17  C   UNL     1      -9.247   5.722  70.419  1.00  0.00    -0.153 C  
BRANCH  17  18
HETATM   18  C   UNL     1      -9.578   5.793  71.864  1.00  0.00    -0.172 A  
HETATM   19  C   UNL     1      -9.615   4.694  72.711  1.00  0.00    -0.134 A  
HETATM   20 CL   UNL     1      -9.298   3.077  72.211  1.00  0.00    -0.154 Cl 
HETATM   21  N   UNL     1      -9.939   4.760  74.024  1.00  0.00    -0.156 NA 
HETATM   22  C   UNL     1     -10.267   5.968  74.520  1.00  0.00    -0.290 A  
HETATM   23  C   UNL     1     -10.273   7.128  73.760  1.00  0.00    -0.395 A  
HETATM   24  C   UNL     1      -9.924   7.038  72.413  1.00  0.00    -0.184 A  
ENDBRANCH  17  18
ENDBRANCH   9  14
ENDBRANCH   5   8
TORSDOF 3
ENDMDL
MODEL      204
REMARK 921   NORMALIZED FREE ENERGY PREDICTED BY IDOCK:   -1.33 KCAL/MOL
REMARK 922        TOTAL FREE ENERGY PREDICTED BY IDOCK:   -2.90 KCAL/MOL
REMARK 923 INTER-LIGAND FREE ENERGY PREDICTED BY IDOCK:   -2.50 KCAL/MOL
REMARK 924 INTRA-LIGAND FREE ENERGY PREDICTED BY IDOCK:   -0.40 KCAL/MOL
REMARK 927      BINDING AFFINITY PREDICTED BY RF-SCORE:    0.00 PKD
ROOT
HETATM    1 CL   UNL     1     -10.903  20.635  70.489  1.00  0.00     1.802 Cl 
HETATM    2  C   UNL     1      -9.824  20.196  69.225  1.00  0.00     0.038 A  
HETATM    3  C   UNL     1      -8.570  19.683  69.528  1.00  0.00     0.330 A  
HETATM    4  C   UNL     1      -7.683  19.353  68.494  1.00  0.00    -0.380 A  
HETATM    5  C   UNL     1      -8.001  19.572  67.136  1.00  0.00    -0.298 A  
HETATM    6  C   UNL     1     -10.197  20.377  67.900  1.00  0.00    -0.362 A  
HETATM    7  C   UNL     1      -9.285  20.095  66.875  1.00  0.00    -0.499 A  
ENDROOT
BRANCH   5   8
HETATM    8  C   UNL     1      -6.980  19.362  66.057  1.00  0.00    -0.283 A  
HETATM    9  C   UNL     1      -6.637  18.102  65.499  1.00  0.00    -0.175 A  
HETATM   10  C   UNL     1      -5.757  18.020  64.403  1.00  0.00     0.679 A  
HETATM   11  C   UNL     1      -6.381  20.498  65.461  1.00  0.00    -0.284 A  
HETATM   12  C   UNL     1      -5.162  19.160  63.873  1.00  0.00    -0.287 A  
HETATM   13  C   UNL     1      -5.469  20.402  64.406  1.00  0.00    -0.232 A  
BRANCH   9  14
HETATM   14  N   UNL     1      -7.069  16.897  66.102  1.00  0.00    -0.133 N  
HETATM   15  O   UNL     1      -9.346  17.086  65.719  1.00  0.00    -0.524 OA 
HETATM   16  H   UNL     1      -6.369  16.322  66.572  1.00  0.00     0.000 HD 
HETATM   17  C   UNL     1      -8.380  16.444  66.097  1.00  0.00    -0.256 C  
BRANCH  17  18
HETATM   18  C   UNL     1      -8.614  15.116  66.716  1.00  0.00    -0.297 A  
HETATM   19  C   UNL     1      -9.445  14.141  66.179  1.00  0.00    -0.203 A  
HETATM   20 CL   UNL     1     -10.344  14.331  64.722  1.00  0.00    -0.442 Cl 
HETATM   21  N   UNL     1      -9.674  12.938  66.758  1.00  0.00    -0.239 NA 
HETATM   22  C   UNL     1      -9.071  12.695  67.937  1.00  0.00    -0.200 A  
HETATM   23  C   UNL     1      -8.230  13.602  68.565  1.00  0.00    -0.112 A  
HETATM   24  C   UNL     1      -8.000  14.829  67.945  1.00  0.00    -0.147 A  
ENDBRANCH  17  18
ENDBRANCH   9  14
ENDBRANCH   5   8
TORSDOF 3
ENDMDL
MODEL      205
REMARK 921   NORMALIZED FREE ENERGY PREDICTED BY IDOCK:   -0.80 KCAL/MOL
REMARK 922        TOTAL FREE ENERGY PREDICTED BY IDOCK:   -2.27 KCAL/MOL
REMARK 923 INTER-LIGAND FREE ENERGY PREDICTED BY IDOCK:   -2.57 KCAL/MOL
REMARK 924 INTRA-LIGAND FREE ENERGY PREDICTED BY IDOCK:    0.30 KCAL/MOL
REMARK 927      BINDING AFFINITY PREDICTED BY RF-SCORE:    0.00 PKD
ROOT
HETATM    1 CL   UNL     1      -5.128   6.789  70.465  1.00  0.00    -0.018 Cl 
HETATM    2  C   UNL     1      -6.014   6.173  69.127  1.00  0.00    -0.024 A  
HETATM    3  C   UNL     1      -6.025   4.809  68.870  1.00  0.00    -0.025 A  
HETATM    4  C   UNL     1      -6.726   4.315  67.762  1.00  0.00    -0.051 A  
HETATM    5  C   UNL     1      -7.391   5.168  66.854  1.00  0.00    -0.086 A  
HETATM    6  C   UNL     1      -6.699   7.043  68.290  1.00  0.00    -0.064 A  
HETATM    7  C   UNL     1      -7.353   6.545  67.155  1.00  0.00    -0.086 A  
ENDROOT
BRANCH   5   8
HETATM    8  C   UNL     1      -7.998   4.633  65.591  1.00  0.00    -0.095 A  
HETATM    9  C   UNL     1      -8.751   5.402  64.664  1.00  0.00    -0.054 A  
HETATM   10  C   UNL     1      -9.174   4.841  63.445  1.00  0.00     0.025 A  
HETATM   11  C   UNL     1      -7.721   3.296  65.219  1.00  0.00    -0.081 A  
HETATM   12  C   UNL     1      -8.912   3.510  63.138  1.00  0.00    -0.095 A  
HETATM   13  C   UNL     1      -8.189   2.732  64.029  1.00  0.00    -0.083 A  
BRANCH   9  14
HETATM   14  N   UNL     1      -9.200   6.703  64.993  1.00  0.00    -0.004 N  
HETATM   15  O   UNL     1      -7.340   7.916  64.332  1.00  0.00    -0.077 OA 
HETATM   16  H   UNL     1     -10.106   6.792  65.455  1.00  0.00     0.000 HD 
HETATM   17  C   UNL     1      -8.492   7.867  64.731  1.00  0.00     0.007 C  
BRANCH  17  18
HETATM   18  C   UNL     1      -9.171   9.138  65.082  1.00  0.00    -0.218 A  
HETATM   19  C   UNL     1      -9.159  10.275  64.286  1.00  0.00    -0.243 A  
HETATM   20 CL   UNL     1      -8.340  10.389  62.775  1.00  0.00    -0.166 Cl 
HETATM   21  N   UNL     1      -9.762  11.441  64.620  1.00  0.00    -0.245 NA 
HETATM   22  C   UNL     1     -10.387  11.494  65.811  1.00  0.00    -0.248 A  
HETATM   23  C   UNL     1     -10.450  10.421  66.688  1.00  0.00    -0.279 A  
HETATM   24  C   UNL     1      -9.833   9.227  66.317  1.00  0.00    -0.361 A  
ENDBRANCH  17  18
ENDBRANCH   9  14
ENDBRANCH   5   8
TORSDOF 3
ENDMDL
MODEL      206
REMARK 921   NORMALIZED FREE ENERGY PREDICTED BY IDOCK:    0.63 KCAL/MOL
REMARK 922        TOTAL FREE ENERGY PREDICTED BY IDOCK:   -0.60 KCAL/MOL
REMARK 923 INTER-LIGAND FREE ENERGY PREDICTED BY IDOCK:   -0.66 KCAL/MOL
REMARK 924 INTRA-LIGAND FREE ENERGY PREDICTED BY IDOCK:    0.06 KCAL/MOL
REMARK 927      BINDING AFFINITY PREDICTED BY RF-SCORE:    0.00 PKD
ROOT
HETATM    1 CL   UNL     1     -13.152  15.560  72.969  1.00  0.00    -0.570 Cl 
HETATM    2  C   UNL     1     -12.240  14.685  71.804  1.00  0.00    -0.338 A  
HETATM    3  C   UNL     1     -12.313  13.300  71.763  1.00  0.00     0.093 A  
HETATM    4  C   UNL     1     -11.546  12.589  70.829  1.00  0.00     0.683 A  
HETATM    5  C   UNL     1     -10.650  13.234  69.948  1.00  0.00     0.886 A  
HETATM    6  C   UNL     1     -11.412  15.363  70.920  1.00  0.00    -0.396 A  
HETATM    7  C   UNL     1     -10.609  14.641  70.026  1.00  0.00     0.036 A  
ENDROOT
BRANCH   5   8
HETATM    8  C   UNL     1      -9.724  12.446  69.071  1.00  0.00     0.292 A  
HETATM    9  C   UNL     1      -8.989  12.981  67.980  1.00  0.00    -0.199 A  
HETATM   10  C   UNL     1      -8.049  12.190  67.292  1.00  0.00    -0.176 A  
HETATM   11  C   UNL     1      -9.465  11.094  69.400  1.00  0.00     0.221 A  
HETATM   12  C   UNL     1      -7.854  10.855  67.626  1.00  0.00    -0.113 A  
HETATM   13  C   UNL     1      -8.567  10.302  68.679  1.00  0.00    -0.128 A  
BRANCH   9  14
HETATM   14  N   UNL     1      -9.268  14.275  67.480  1.00  0.00    -0.191 N  
HETATM   15  O   UNL     1      -9.247  13.809  65.210  1.00  0.00     0.415 OA 
HETATM   16  H   UNL     1      -9.338  15.040  68.151  1.00  0.00     0.000 HD 
HETATM   17  C   UNL     1      -9.453  14.575  66.138  1.00  0.00    -0.259 C  
BRANCH  17  18
HETATM   18  C   UNL     1      -9.815  15.979  65.826  1.00  0.00    -0.357 A  
HETATM   19  C   UNL     1     -10.933  16.352  65.091  1.00  0.00    -0.232 A  
HETATM   20 CL   UNL     1     -12.060  15.239  64.415  1.00  0.00    -0.367 Cl 
HETATM   21  N   UNL     1     -11.248  17.634  64.790  1.00  0.00    -0.612 NA 
HETATM   22  C   UNL     1     -10.407  18.594  65.215  1.00  0.00     0.754 A  
HETATM   23  C   UNL     1      -9.258  18.332  65.946  1.00  0.00     0.183 A  
HETATM   24  C   UNL     1      -8.959  17.006  66.256  1.00  0.00    -0.282 A  
ENDBRANCH  17  18
ENDBRANCH   9  14
ENDBRANCH   5   8
TORSDOF 3
ENDMDL
MODEL      207
REMARK 921   NORMALIZED FREE ENERGY PREDICTED BY IDOCK:    2.00 KCAL/MOL
REMARK 922        TOTAL FREE ENERGY PREDICTED BY IDOCK:    1.02 KCAL/MOL
REMARK 923 INTER-LIGAND FREE ENERGY PREDICTED BY IDOCK:    1.20 KCAL/MOL
REMARK 924 INTRA-LIGAND FREE ENERGY PREDICTED BY IDOCK:   -0.19 KCAL/MOL
REMARK 927      BINDING AFFINITY PREDICTED BY RF-SCORE:    0.00 PKD
ROOT
HETATM    1 CL   UNL     1     -12.638  18.041  67.210  1.00  0.00     4.819 Cl 
HETATM    2  C   UNL     1     -11.275  17.061  67.577  1.00  0.00     0.138 A  
HETATM    3  C   UNL     1     -10.051  17.652  67.860  1.00  0.00    -0.345 A  
HETATM    4  C   UNL     1      -8.935  16.847  68.131  1.00  0.00    -0.227 A  
HETATM    5  C   UNL     1      -8.997  15.438  68.079  1.00  0.00    -0.171 A  
HETATM    6  C   UNL     1     -11.392  15.678  67.568  1.00  0.00    -0.198 A  
HETATM    7  C   UNL     1     -10.260  14.882  67.788  1.00  0.00    -0.236 A  
ENDROOT
BRANCH   5   8
HETATM    8  C   UNL     1      -7.759  14.602  68.215  1.00  0.00    -0.123 A  
HETATM    9  C   UNL     1      -7.744  13.223  68.553  1.00  0.00    -0.120 A  
HETATM   10  C   UNL     1      -6.540  12.493  68.533  1.00  0.00    -0.077 A  
HETATM   11  C   UNL     1      -6.511  15.180  67.881  1.00  0.00    -0.176 A  
HETATM   12  C   UNL     1      -5.331  13.111  68.236  1.00  0.00    -0.089 A  
HETATM   13  C   UNL     1      -5.313  14.460  67.914  1.00  0.00    -0.076 A  
BRANCH   9  14
HETATM   14  N   UNL     1      -8.909  12.579  69.033  1.00  0.00    -0.227 N  
HETATM   15  O   UNL     1      -8.610  10.496  68.064  1.00  0.00    -0.118 OA 
HETATM   16  H   UNL     1      -9.570  13.134  69.576  1.00  0.00     0.000 HD 
HETATM   17  C   UNL     1      -9.213  11.243  68.817  1.00  0.00    -0.126 C  
BRANCH  17  18
HETATM   18  C   UNL     1     -10.445  10.738  69.473  1.00  0.00    -0.205 A  
HETATM   19  C   UNL     1     -11.728  10.938  68.981  1.00  0.00    -0.320 A  
HETATM   20 CL   UNL     1     -12.087  11.814  67.542  1.00  0.00    -0.051 Cl 
HETATM   21  N   UNL     1     -12.851  10.495  69.594  1.00  0.00    -0.035 NA 
HETATM   22  C   UNL     1     -12.702   9.844  70.763  1.00  0.00    -0.224 A  
HETATM   23  C   UNL     1     -11.468   9.601  71.348  1.00  0.00    -0.455 A  
HETATM   24  C   UNL     1     -10.324  10.055  70.693  1.00  0.00    -0.153 A  
ENDBRANCH  17  18
ENDBRANCH   9  14
ENDBRANCH   5   8
TORSDOF 3
ENDMDL
MODEL      208
REMARK 921   NORMALIZED FREE ENERGY PREDICTED BY IDOCK:    4.12 KCAL/MOL
REMARK 922        TOTAL FREE ENERGY PREDICTED BY IDOCK:    3.51 KCAL/MOL
REMARK 923 INTER-LIGAND FREE ENERGY PREDICTED BY IDOCK:    4.39 KCAL/MOL
REMARK 924 INTRA-LIGAND FREE ENERGY PREDICTED BY IDOCK:   -0.89 KCAL/MOL
REMARK 927      BINDING AFFINITY PREDICTED BY RF-SCORE:    0.00 PKD
ROOT
HETATM    1 CL   UNL     1      -5.516  17.657  66.288  1.00  0.00    -0.221 Cl 
HETATM    2  C   UNL     1      -5.631  16.138  67.085  1.00  0.00     0.027 A  
HETATM    3  C   UNL     1      -5.607  14.963  66.347  1.00  0.00     3.700 A  
HETATM    4  C   UNL     1      -5.729  13.728  67.000  1.00  0.00     1.136 A  
HETATM    5  C   UNL     1      -5.930  13.634  68.394  1.00  0.00    -0.097 A  
HETATM    6  C   UNL     1      -5.774  16.088  68.465  1.00  0.00    -0.106 A  
HETATM    7  C   UNL     1      -5.948  14.853  69.102  1.00  0.00    -0.101 A  
ENDROOT
BRANCH   5   8
HETATM    8  C   UNL     1      -6.218  12.315  69.048  1.00  0.00    -0.082 A  
HETATM    9  C   UNL     1      -7.499  11.708  69.121  1.00  0.00     0.003 A  
HETATM   10  C   UNL     1      -7.649  10.410  69.644  1.00  0.00    -0.158 A  
HETATM   11  C   UNL     1      -5.132  11.551  69.539  1.00  0.00    -0.052 A  
HETATM   12  C   UNL     1      -6.559   9.711  70.151  1.00  0.00    -0.081 A  
HETATM   13  C   UNL     1      -5.297  10.284  70.105  1.00  0.00    -0.042 A  
BRANCH   9  14
HETATM   14  N   UNL     1      -8.668  12.433  68.785  1.00  0.00    -0.376 N  
HETATM   15  O   UNL     1      -9.270  11.296  66.858  1.00  0.00    -0.169 OA 
HETATM   16  H   UNL     1      -8.911  13.238  69.362  1.00  0.00     0.000 HD 
HETATM   17  C   UNL     1      -9.506  12.122  67.724  1.00  0.00    -0.192 C  
BRANCH  17  18
HETATM   18  C   UNL     1     -10.724  12.958  67.588  1.00  0.00    -0.237 A  
HETATM   19  C   UNL     1     -11.757  12.988  68.516  1.00  0.00    -0.342 A  
HETATM   20 CL   UNL     1     -11.788  12.048  69.959  1.00  0.00    -0.405 Cl 
HETATM   21  N   UNL     1     -12.878  13.736  68.378  1.00  0.00     1.025 NA 
HETATM   22  C   UNL     1     -12.996  14.471  67.257  1.00  0.00     1.788 A  
HETATM   23  C   UNL     1     -12.031  14.505  66.262  1.00  0.00    -0.335 A  
HETATM   24  C   UNL     1     -10.879  13.737  66.431  1.00  0.00    -0.287 A  
ENDBRANCH  17  18
ENDBRANCH   9  14
ENDBRANCH   5   8
TORSDOF 3
ENDMDL
MODEL      209
REMARK 921   NORMALIZED FREE ENERGY PREDICTED BY IDOCK:    4.56 KCAL/MOL
REMARK 922        TOTAL FREE ENERGY PREDICTED BY IDOCK:    4.02 KCAL/MOL
REMARK 923 INTER-LIGAND FREE ENERGY PREDICTED BY IDOCK:    3.92 KCAL/MOL
REMARK 924 INTRA-LIGAND FREE ENERGY PREDICTED BY IDOCK:    0.10 KCAL/MOL
REMARK 927      BINDING AFFINITY PREDICTED BY RF-SCORE:    0.00 PKD
ROOT
HETATM    1 CL   UNL     1      -9.198  15.714  70.343  1.00  0.00     0.686 Cl 
HETATM    2  C   UNL     1     -10.112  14.259  70.356  1.00  0.00     1.428 A  
HETATM    3  C   UNL     1     -11.189  14.122  71.221  1.00  0.00     0.950 A  
HETATM    4  C   UNL     1     -11.913  12.922  71.246  1.00  0.00     0.501 A  
HETATM    5  C   UNL     1     -11.555  11.812  70.451  1.00  0.00    -0.109 A  
HETATM    6  C   UNL     1      -9.758  13.210  69.517  1.00  0.00     1.189 A  
HETATM    7  C   UNL     1     -10.455  11.997  69.588  1.00  0.00     0.545 A  
ENDROOT
BRANCH   5   8
HETATM    8  C   UNL     1     -12.243  10.489  70.610  1.00  0.00    -0.446 A  
HETATM    9  C   UNL     1     -11.757   9.255  70.102  1.00  0.00     0.027 A  
HETATM   10  C   UNL     1     -12.410   8.047  70.410  1.00  0.00     0.438 A  
HETATM   11  C   UNL     1     -13.406  10.423  71.415  1.00  0.00    -0.373 A  
HETATM   12  C   UNL     1     -13.571   8.033  71.174  1.00  0.00    -0.088 A  
HETATM   13  C   UNL     1     -14.076   9.224  71.674  1.00  0.00    -0.230 A  
BRANCH   9  14
HETATM   14  N   UNL     1     -10.686   9.221  69.178  1.00  0.00    -0.311 N  
HETATM   15  O   UNL     1      -9.402   7.561  70.160  1.00  0.00    -0.158 OA 
HETATM   16  H   UNL     1     -10.690   9.901  68.418  1.00  0.00     0.000 HD 
HETATM   17  C   UNL     1      -9.630   8.323  69.235  1.00  0.00    -0.164 C  
BRANCH  17  18
HETATM   18  C   UNL     1      -8.647   8.399  68.126  1.00  0.00    -0.139 A  
HETATM   19  C   UNL     1      -8.984   8.336  66.780  1.00  0.00    -0.147 A  
HETATM   20 CL   UNL     1     -10.592   8.144  66.194  1.00  0.00     0.646 Cl 
HETATM   21  N   UNL     1      -8.083   8.383  65.771  1.00  0.00    -0.111 NA 
HETATM   22  C   UNL     1      -6.782   8.473  66.107  1.00  0.00    -0.068 A  
HETATM   23  C   UNL     1      -6.336   8.532  67.419  1.00  0.00    -0.057 A  
HETATM   24  C   UNL     1      -7.283   8.494  68.442  1.00  0.00    -0.085 A  
ENDBRANCH  17  18
ENDBRANCH   9  14
ENDBRANCH   5   8
TORSDOF 3
ENDMDL
MODEL      210
REMARK 921   NORMALIZED FREE ENERGY PREDICTED BY IDOCK:    4.83 KCAL/MOL
REMARK 922        TOTAL FREE ENERGY PREDICTED BY IDOCK:    4.34 KCAL/MOL
REMARK 923 INTER-LIGAND FREE ENERGY PREDICTED BY IDOCK:    4.48 KCAL/MOL
REMARK 924 INTRA-LIGAND FREE ENERGY PREDICTED BY IDOCK:   -0.14 KCAL/MOL
REMARK 927      BINDING AFFINITY PREDICTED BY RF-SCORE:    0.00 PKD
ROOT
HETATM    1 CL   UNL     1      -6.204  17.667  65.610  1.00  0.00    -0.136 Cl 
HETATM    2  C   UNL     1      -6.195  16.327  66.686  1.00  0.00     0.360 A  
HETATM    3  C   UNL     1      -5.480  15.182  66.364  1.00  0.00     3.262 A  
HETATM    4  C   UNL     1      -5.498  14.082  67.233  1.00  0.00     0.578 A  
HETATM    5  C   UNL     1      -6.268  14.073  68.416  1.00  0.00    -0.102 A  
HETATM    6  C   UNL     1      -6.923  16.381  67.867  1.00  0.00    -0.154 A  
HETATM    7  C   UNL     1      -6.979  15.257  68.702  1.00  0.00    -0.110 A  
ENDROOT
BRANCH   5   8
HETATM    8  C   UNL     1      -6.400  12.831  69.246  1.00  0.00    -0.108 A  
HETATM    9  C   UNL     1      -6.733  11.547  68.738  1.00  0.00    -0.079 A  
HETATM   10  C   UNL     1      -6.710  10.417  69.577  1.00  0.00    -0.081 A  
HETATM   11  C   UNL     1      -6.067  12.896  70.620  1.00  0.00     0.107 A  
HETATM   12  C   UNL     1      -6.413  10.534  70.930  1.00  0.00     0.212 A  
HETATM   13  C   UNL     1      -6.096  11.777  71.457  1.00  0.00     1.445 A  
BRANCH   9  14
HETATM   14  N   UNL     1      -7.212  11.390  67.416  1.00  0.00    -0.107 N  
HETATM   15  O   UNL     1      -5.259  10.677  66.395  1.00  0.00    -0.049 OA 
HETATM   16  H   UNL     1      -8.177  11.660  67.224  1.00  0.00     0.000 HD 
HETATM   17  C   UNL     1      -6.459  10.892  66.363  1.00  0.00    -0.130 C  
BRANCH  17  18
HETATM   18  C   UNL     1      -7.170  10.731  65.071  1.00  0.00     0.205 A  
HETATM   19  C   UNL     1      -8.463  11.178  64.831  1.00  0.00     0.220 A  
HETATM   20 CL   UNL     1      -9.444  11.973  66.002  1.00  0.00    -0.241 Cl 
HETATM   21  N   UNL     1      -9.117  11.008  63.657  1.00  0.00    -0.176 NA 
HETATM   22  C   UNL     1      -8.473  10.345  62.680  1.00  0.00    -0.186 A  
HETATM   23  C   UNL     1      -7.185   9.847  62.817  1.00  0.00    -0.120 A  
HETATM   24  C   UNL     1      -6.526  10.043  64.030  1.00  0.00    -0.132 A  
ENDBRANCH  17  18
ENDBRANCH   9  14
ENDBRANCH   5   8
TORSDOF 3
ENDMDL
MODEL      211
REMARK 921   NORMALIZED FREE ENERGY PREDICTED BY IDOCK:    5.82 KCAL/MOL
REMARK 922        TOTAL FREE ENERGY PREDICTED BY IDOCK:    5.51 KCAL/MOL
REMARK 923 INTER-LIGAND FREE ENERGY PREDICTED BY IDOCK:    5.64 KCAL/MOL
REMARK 924 INTRA-LIGAND FREE ENERGY PREDICTED BY IDOCK:   -0.13 KCAL/MOL
REMARK 927      BINDING AFFINITY PREDICTED BY RF-SCORE:    0.00 PKD
ROOT
HETATM    1 CL   UNL     1      -6.744  18.977  63.036  1.00  0.00     3.597 Cl 
HETATM    2  C   UNL     1      -6.755  19.154  64.745  1.00  0.00     0.270 A  
HETATM    3  C   UNL     1      -5.579  19.448  65.421  1.00  0.00    -0.199 A  
HETATM    4  C   UNL     1      -5.588  19.564  66.818  1.00  0.00    -0.166 A  
HETATM    5  C   UNL     1      -6.754  19.341  67.581  1.00  0.00    -0.238 A  
HETATM    6  C   UNL     1      -7.936  18.979  65.453  1.00  0.00     0.747 A  
HETATM    7  C   UNL     1      -7.925  19.044  66.853  1.00  0.00    -0.270 A  
ENDROOT
BRANCH   5   8
HETATM    8  C   UNL     1      -6.707  19.313  69.080  1.00  0.00    -0.351 A  
HETATM    9  C   UNL     1      -6.951  18.164  69.878  1.00  0.00     0.469 A  
HETATM   10  C   UNL     1      -6.760  18.206  71.272  1.00  0.00     3.106 A  
HETATM   11  C   UNL     1      -6.283  20.476  69.766  1.00  0.00    -0.226 A  
HETATM   12  C   UNL     1      -6.379  19.381  71.909  1.00  0.00     0.696 A  
HETATM   13  C   UNL     1      -6.145  20.522  71.156  1.00  0.00    -0.063 A  
BRANCH   9  14
HETATM   14  N   UNL     1      -7.508  16.991  69.314  1.00  0.00    -0.165 N  
HETATM   15  O   UNL     1      -6.016  15.430  70.154  1.00  0.00    -0.143 OA 
HETATM   16  H   UNL     1      -8.304  17.097  68.685  1.00  0.00     0.000 HD 
HETATM   17  C   UNL     1      -7.044  15.707  69.558  1.00  0.00    -0.195 C  
BRANCH  17  18
HETATM   18  C   UNL     1      -7.815  14.604  68.933  1.00  0.00    -0.148 A  
HETATM   19  C   UNL     1      -9.189  14.631  68.728  1.00  0.00    -0.184 A  
HETATM   20 CL   UNL     1     -10.208  15.942  69.183  1.00  0.00    -0.219 Cl 
HETATM   21  N   UNL     1      -9.892  13.614  68.177  1.00  0.00    -0.231 NA 
HETATM   22  C   UNL     1      -9.210  12.505  67.833  1.00  0.00    -0.200 A  
HETATM   23  C   UNL     1      -7.841  12.369  68.004  1.00  0.00    -0.141 A  
HETATM   24  C   UNL     1      -7.134  13.434  68.562  1.00  0.00    -0.108 A  
ENDBRANCH  17  18
ENDBRANCH   9  14
ENDBRANCH   5   8
TORSDOF 3
ENDMDL
MODEL      212
REMARK 921   NORMALIZED FREE ENERGY PREDICTED BY IDOCK:    6.12 KCAL/MOL
REMARK 922        TOTAL FREE ENERGY PREDICTED BY IDOCK:    5.86 KCAL/MOL
REMARK 923 INTER-LIGAND FREE ENERGY PREDICTED BY IDOCK:    5.35 KCAL/MOL
REMARK 924 INTRA-LIGAND FREE ENERGY PREDICTED BY IDOCK:    0.51 KCAL/MOL
REMARK 927      BINDING AFFINITY PREDICTED BY RF-SCORE:    0.00 PKD
ROOT
HETATM    1 CL   UNL     1      -9.197  16.068  71.268  1.00  0.00     3.580 Cl 
HETATM    2  C   UNL     1      -8.712  14.784  70.233  1.00  0.00     1.133 A  
HETATM    3  C   UNL     1      -9.542  14.373  69.200  1.00  0.00     0.020 A  
HETATM    4  C   UNL     1      -9.155  13.307  68.377  1.00  0.00    -0.137 A  
HETATM    5  C   UNL     1      -7.957  12.591  68.591  1.00  0.00    -0.029 A  
HETATM    6  C   UNL     1      -7.500  14.142  70.446  1.00  0.00     1.103 A  
HETATM    7  C   UNL     1      -7.145  13.044  69.652  1.00  0.00     0.375 A  
ENDROOT
BRANCH   5   8
HETATM    8  C   UNL     1      -7.639  11.357  67.801  1.00  0.00    -0.105 A  
HETATM    9  C   UNL     1      -7.214  10.122  68.360  1.00  0.00    -0.076 A  
HETATM   10  C   UNL     1      -7.061   8.983  67.548  1.00  0.00    -0.076 A  
HETATM   11  C   UNL     1      -7.877  11.366  66.406  1.00  0.00    -0.067 A  
HETATM   12  C   UNL     1      -7.269   9.047  66.175  1.00  0.00    -0.090 A  
HETATM   13  C   UNL     1      -7.673  10.242  65.599  1.00  0.00    -0.148 A  
BRANCH   9  14
HETATM   14  N   UNL     1      -6.817  10.036  69.716  1.00  0.00    -0.079 N  
HETATM   15  O   UNL     1      -6.456   7.752  69.853  1.00  0.00    -0.033 OA 
HETATM   16  H   UNL     1      -6.844  10.889  70.275  1.00  0.00     0.000 HD 
HETATM   17  C   UNL     1      -6.394   8.870  70.337  1.00  0.00    -0.041 C  
BRANCH  17  18
HETATM   18  C   UNL     1      -5.945   9.006  71.744  1.00  0.00    -0.077 A  
HETATM   19  C   UNL     1      -5.955   7.970  72.670  1.00  0.00    -0.051 A  
HETATM   20 CL   UNL     1      -6.506   6.374  72.329  1.00  0.00    -0.054 Cl 
HETATM   21  N   UNL     1      -5.565   8.104  73.960  1.00  0.00    -0.066 NA 
HETATM   22  C   UNL     1      -5.168   9.325  74.363  1.00  0.00    -0.127 A  
HETATM   23  C   UNL     1      -5.129  10.429  73.524  1.00  0.00     0.172 A  
HETATM   24  C   UNL     1      -5.524  10.266  72.197  1.00  0.00     0.226 A  
ENDBRANCH  17  18
ENDBRANCH   9  14
ENDBRANCH   5   8
TORSDOF 3
ENDMDL
MODEL      213
REMARK 921   NORMALIZED FREE ENERGY PREDICTED BY IDOCK:    8.70 KCAL/MOL
REMARK 922        TOTAL FREE ENERGY PREDICTED BY IDOCK:    8.89 KCAL/MOL
REMARK 923 INTER-LIGAND FREE ENERGY PREDICTED BY IDOCK:    8.80 KCAL/MOL
REMARK 924 INTRA-LIGAND FREE ENERGY PREDICTED BY IDOCK:    0.09 KCAL/MOL
REMARK 927      BINDING AFFINITY PREDICTED BY RF-SCORE:    0.00 PKD
ROOT
HETATM    1 CL   UNL     1     -12.567  12.952  73.400  1.00  0.00     3.022 Cl 
HETATM    2  C   UNL     1     -12.120  11.987  72.050  1.00  0.00     1.630 A  
HETATM    3  C   UNL     1     -10.837  12.073  71.528  1.00  0.00     5.910 A  
HETATM    4  C   UNL     1     -10.486  11.304  70.410  1.00  0.00     1.357 A  
HETATM    5  C   UNL     1     -11.415  10.469  69.753  1.00  0.00    -0.365 A  
HETATM    6  C   UNL     1     -13.050  11.137  71.467  1.00  0.00    -0.489 A  
HETATM    7  C   UNL     1     -12.706  10.413  70.318  1.00  0.00    -0.221 A  
ENDROOT
BRANCH   5   8
HETATM    8  C   UNL     1     -11.065   9.781  68.468  1.00  0.00    -0.138 A  
HETATM    9  C   UNL     1     -10.511  10.422  67.328  1.00  0.00    -0.252 A  
HETATM   10  C   UNL     1     -10.099   9.670  66.212  1.00  0.00    -0.322 A  
HETATM   11  C   UNL     1     -11.184   8.372  68.400  1.00  0.00     0.536 A  
HETATM   12  C   UNL     1     -10.270   8.291  66.173  1.00  0.00     0.214 A  
HETATM   13  C   UNL     1     -10.819   7.638  67.267  1.00  0.00    -0.263 A  
BRANCH   9  14
HETATM   14  N   UNL     1     -10.474  11.834  67.234  1.00  0.00    -0.209 N  
HETATM   15  O   UNL     1     -10.131  12.046  64.953  1.00  0.00    -0.260 OA 
HETATM   16  H   UNL     1     -10.531  12.370  68.100  1.00  0.00     0.000 HD 
HETATM   17  C   UNL     1     -10.365  12.538  66.044  1.00  0.00    -0.256 C  
BRANCH  17  18
HETATM   18  C   UNL     1     -10.423  14.017  66.153  1.00  0.00    -0.297 A  
HETATM   19  C   UNL     1      -9.597  14.771  66.976  1.00  0.00    -0.241 A  
HETATM   20 CL   UNL     1      -8.390  14.104  68.008  1.00  0.00    -0.149 Cl 
HETATM   21  N   UNL     1      -9.668  16.119  67.090  1.00  0.00    -0.230 NA 
HETATM   22  C   UNL     1     -10.616  16.751  66.374  1.00  0.00    -0.192 A  
HETATM   23  C   UNL     1     -11.500  16.093  65.531  1.00  0.00     0.359 A  
HETATM   24  C   UNL     1     -11.400  14.707  65.420  1.00  0.00    -0.344 A  
ENDBRANCH  17  18
ENDBRANCH   9  14
ENDBRANCH   5   8
TORSDOF 3
ENDMDL
MODEL      214
REMARK 921   NORMALIZED FREE ENERGY PREDICTED BY IDOCK:    9.95 KCAL/MOL
REMARK 922        TOTAL FREE ENERGY PREDICTED BY IDOCK:   10.36 KCAL/MOL
REMARK 923 INTER-LIGAND FREE ENERGY PREDICTED BY IDOCK:    6.03 KCAL/MOL
REMARK 924 INTRA-LIGAND FREE ENERGY PREDICTED BY IDOCK:    4.33 KCAL/MOL
REMARK 927      BINDING AFFINITY PREDICTED BY RF-SCORE:    0.00 PKD
ROOT
HETATM    1 CL   UNL     1     -13.038  18.053  67.150  1.00  0.00     7.384 Cl 
HETATM    2  C   UNL     1     -11.560  17.474  67.811  1.00  0.00     0.963 A  
HETATM    3  C   UNL     1     -10.438  18.290  67.825  1.00  0.00    -0.430 A  
HETATM    4  C   UNL     1      -9.229  17.803  68.340  1.00  0.00    -0.285 A  
HETATM    5  C   UNL     1      -9.092  16.477  68.807  1.00  0.00    -0.256 A  
HETATM    6  C   UNL     1     -11.484  16.180  68.310  1.00  0.00    -0.259 A  
HETATM    7  C   UNL     1     -10.258  15.685  68.773  1.00  0.00    -0.215 A  
ENDROOT
BRANCH   5   8
HETATM    8  C   UNL     1      -7.754  15.929  69.203  1.00  0.00    -0.220 A  
HETATM    9  C   UNL     1      -6.504  16.438  68.759  1.00  0.00    -0.142 A  
HETATM   10  C   UNL     1      -5.299  15.937  69.285  1.00  0.00    -0.110 A  
HETATM   11  C   UNL     1      -7.704  14.900  70.174  1.00  0.00     0.405 A  
HETATM   12  C   UNL     1      -5.296  14.899  70.210  1.00  0.00    -0.117 A  
HETATM   13  C   UNL     1      -6.501  14.374  70.653  1.00  0.00     0.006 A  
BRANCH   9  14
HETATM   14  N   UNL     1      -6.435  17.369  67.695  1.00  0.00    -0.147 N  
HETATM   15  O   UNL     1      -7.584  19.130  68.666  1.00  0.00    -0.319 OA 
HETATM   16  H   UNL     1      -6.005  17.062  66.822  1.00  0.00     0.000 HD 
HETATM   17  C   UNL     1      -6.911  18.670  67.759  1.00  0.00    -0.215 C  
BRANCH  17  18
HETATM   18  C   UNL     1      -6.670  19.512  66.561  1.00  0.00    -0.197 A  
HETATM   19  C   UNL     1      -7.593  19.697  65.540  1.00  0.00    -0.050 A  
HETATM   20 CL   UNL     1      -9.150  18.964  65.499  1.00  0.00     0.735 Cl 
HETATM   21  N   UNL     1      -7.361  20.450  64.438  1.00  0.00     0.207 NA 
HETATM   22  C   UNL     1      -6.151  21.028  64.327  1.00  0.00    -0.294 A  
HETATM   23  C   UNL     1      -5.154  20.900  65.283  1.00  0.00    -0.226 A  
HETATM   24  C   UNL     1      -5.419  20.131  66.415  1.00  0.00    -0.186 A  
ENDBRANCH  17  18
ENDBRANCH   9  14
ENDBRANCH   5   8
TORSDOF 3
ENDMDL
MODEL      215
REMARK 921   NORMALIZED FREE ENERGY PREDICTED BY IDOCK:   11.92 KCAL/MOL
REMARK 922        TOTAL FREE ENERGY PREDICTED BY IDOCK:   12.68 KCAL/MOL
REMARK 923 INTER-LIGAND FREE ENERGY PREDICTED BY IDOCK:    8.79 KCAL/MOL
REMARK 924 INTRA-LIGAND FREE ENERGY PREDICTED BY IDOCK:    3.89 KCAL/MOL
REMARK 927      BINDING AFFINITY PREDICTED BY RF-SCORE:    0.00 PKD
ROOT
HETATM    1 CL   UNL     1     -13.203  18.062  67.061  1.00  0.00     8.330 Cl 
HETATM    2  C   UNL     1     -11.687  17.440  67.580  1.00  0.00     1.326 A  
HETATM    3  C   UNL     1     -10.525  18.163  67.352  1.00  0.00    -0.414 A  
HETATM    4  C   UNL     1      -9.288  17.638  67.752  1.00  0.00    -0.255 A  
HETATM    5  C   UNL     1      -9.171  16.361  68.341  1.00  0.00    -0.217 A  
HETATM    6  C   UNL     1     -11.623  16.202  68.205  1.00  0.00    -0.133 A  
HETATM    7  C   UNL     1     -10.377  15.662  68.553  1.00  0.00    -0.219 A  
ENDROOT
BRANCH   5   8
HETATM    8  C   UNL     1      -7.827  15.753  68.614  1.00  0.00    -0.156 A  
HETATM    9  C   UNL     1      -7.444  14.434  68.253  1.00  0.00    -0.123 A  
HETATM   10  C   UNL     1      -6.120  13.995  68.439  1.00  0.00    -0.100 A  
HETATM   11  C   UNL     1      -6.815  16.570  69.173  1.00  0.00    -0.218 A  
HETATM   12  C   UNL     1      -5.167  14.819  69.027  1.00  0.00    -0.094 A  
HETATM   13  C   UNL     1      -5.515  16.109  69.401  1.00  0.00    -0.119 A  
BRANCH   9  14
HETATM   14  N   UNL     1      -8.406  13.492  67.814  1.00  0.00    -0.166 N  
HETATM   15  O   UNL     1      -9.576  14.823  66.322  1.00  0.00    -0.280 OA 
HETATM   16  H   UNL     1      -8.406  12.571  68.254  1.00  0.00     0.000 HD 
HETATM   17  C   UNL     1      -9.348  13.735  66.826  1.00  0.00    -0.266 C  
BRANCH  17  18
HETATM   18  C   UNL     1     -10.215  12.590  66.454  1.00  0.00    -0.260 A  
HETATM   19  C   UNL     1     -11.467  12.349  67.005  1.00  0.00    -0.358 A  
HETATM   20 CL   UNL     1     -12.197  13.334  68.215  1.00  0.00    -0.216 Cl 
HETATM   21  N   UNL     1     -12.247  11.291  66.680  1.00  0.00     0.788 NA 
HETATM   22  C   UNL     1     -11.756  10.414  65.784  1.00  0.00     2.420 A  
HETATM   23  C   UNL     1     -10.514  10.553  65.182  1.00  0.00    -0.225 A  
HETATM   24  C   UNL     1      -9.734  11.657  65.523  1.00  0.00    -0.259 A  
ENDBRANCH  17  18
ENDBRANCH   9  14
ENDBRANCH   5   8
TORSDOF 3
ENDMDL
MODEL      216
REMARK 921   NORMALIZED FREE ENERGY PREDICTED BY IDOCK:   19.18 KCAL/MOL
REMARK 922        TOTAL FREE ENERGY PREDICTED BY IDOCK:   21.20 KCAL/MOL
REMARK 923 INTER-LIGAND FREE ENERGY PREDICTED BY IDOCK:   21.42 KCAL/MOL
REMARK 924 INTRA-LIGAND FREE ENERGY PREDICTED BY IDOCK:   -0.22 KCAL/MOL
REMARK 927      BINDING AFFINITY PREDICTED BY RF-SCORE:    0.00 PKD
ROOT
HETATM    1 CL   UNL     1      -5.130   6.689  69.118  1.00  0.00    -0.012 Cl 
HETATM    2  C   UNL     1      -6.693   6.505  68.425  1.00  0.00    -0.068 A  
HETATM    3  C   UNL     1      -7.119   5.257  67.994  1.00  0.00    -0.066 A  
HETATM    4  C   UNL     1      -8.384   5.118  67.405  1.00  0.00    -0.106 A  
HETATM    5  C   UNL     1      -9.234   6.223  67.184  1.00  0.00    -0.125 A  
HETATM    6  C   UNL     1      -7.519   7.611  68.275  1.00  0.00    -0.104 A  
HETATM    7  C   UNL     1      -8.759   7.471  67.637  1.00  0.00    -0.122 A  
ENDROOT
BRANCH   5   8
HETATM    8  C   UNL     1     -10.509   6.078  66.409  1.00  0.00    -0.141 A  
HETATM    9  C   UNL     1     -11.459   7.114  66.208  1.00  0.00     2.670 A  
HETATM   10  C   UNL     1     -12.566   6.917  65.361  1.00  0.00    11.057 A  
HETATM   11  C   UNL     1     -10.754   4.860  65.730  1.00  0.00    -0.194 A  
HETATM   12  C   UNL     1     -12.788   5.691  64.743  1.00  0.00     7.233 A  
HETATM   13  C   UNL     1     -11.884   4.657  64.931  1.00  0.00     1.887 A  
BRANCH   9  14
HETATM   14  N   UNL     1     -11.386   8.321  66.943  1.00  0.00     0.466 N  
HETATM   15  O   UNL     1     -10.448   9.687  65.324  1.00  0.00     0.160 OA 
HETATM   16  H   UNL     1     -11.667   8.299  67.924  1.00  0.00     0.000 HD 
HETATM   17  C   UNL     1     -10.959   9.533  66.421  1.00  0.00     0.490 C  
BRANCH  17  18
HETATM   18  C   UNL     1     -11.031  10.700  67.335  1.00  0.00    -0.361 A  
HETATM   19  C   UNL     1     -11.595  11.923  66.996  1.00  0.00    -0.291 A  
HETATM   20 CL   UNL     1     -12.282  12.277  65.457  1.00  0.00    -0.363 Cl 
HETATM   21  N   UNL     1     -11.639  12.992  67.825  1.00  0.00    -0.319 NA 
HETATM   22  C   UNL     1     -11.078  12.856  69.041  1.00  0.00    -0.233 A  
HETATM   23  C   UNL     1     -10.479  11.683  69.477  1.00  0.00     0.175 A  
HETATM   24  C   UNL     1     -10.456  10.590  68.611  1.00  0.00    -0.211 A  
ENDBRANCH  17  18
ENDBRANCH   9  14
ENDBRANCH   5   8
TORSDOF 3
ENDMDL
MODEL      217
REMARK 921   NORMALIZED FREE ENERGY PREDICTED BY IDOCK:   20.23 KCAL/MOL
REMARK 922        TOTAL FREE ENERGY PREDICTED BY IDOCK:   22.44 KCAL/MOL
REMARK 923 INTER-LIGAND FREE ENERGY PREDICTED BY IDOCK:   19.98 KCAL/MOL
REMARK 924 INTRA-LIGAND FREE ENERGY PREDICTED BY IDOCK:    2.46 KCAL/MOL
REMARK 927      BINDING AFFINITY PREDICTED BY RF-SCORE:    0.00 PKD
ROOT
HETATM    1 CL   UNL     1      -7.433  15.467  73.671  1.00  0.00     7.651 Cl 
HETATM    2  C   UNL     1      -8.132  15.252  72.115  1.00  0.00     6.558 A  
HETATM    3  C   UNL     1      -9.337  15.866  71.805  1.00  0.00     5.479 A  
HETATM    4  C   UNL     1      -9.917  15.665  70.544  1.00  0.00     0.418 A  
HETATM    5  C   UNL     1      -9.340  14.809  69.581  1.00  0.00     0.186 A  
HETATM    6  C   UNL     1      -7.503  14.444  71.178  1.00  0.00     2.380 A  
HETATM    7  C   UNL     1      -8.116  14.206  69.941  1.00  0.00     0.953 A  
ENDROOT
BRANCH   5   8
HETATM    8  C   UNL     1     -10.056  14.484  68.305  1.00  0.00    -0.232 A  
HETATM    9  C   UNL     1      -9.934  15.219  67.095  1.00  0.00    -0.233 A  
HETATM   10  C   UNL     1     -10.548  14.763  65.914  1.00  0.00    -0.322 A  
HETATM   11  C   UNL     1     -10.830  13.300  68.245  1.00  0.00    -0.276 A  
HETATM   12  C   UNL     1     -11.332  13.614  65.911  1.00  0.00    -0.317 A  
HETATM   13  C   UNL     1     -11.479  12.883  67.079  1.00  0.00    -0.390 A  
BRANCH   9  14
HETATM   14  N   UNL     1      -9.299  16.484  67.074  1.00  0.00    -0.224 N  
HETATM   15  O   UNL     1      -7.415  15.975  68.324  1.00  0.00    -0.130 OA 
HETATM   16  H   UNL     1      -9.791  17.256  66.624  1.00  0.00     0.000 HD 
HETATM   17  C   UNL     1      -8.052  16.744  67.623  1.00  0.00    -0.177 C  
BRANCH  17  18
HETATM   18  C   UNL     1      -7.526  18.118  67.425  1.00  0.00    -0.219 A  
HETATM   19  C   UNL     1      -8.154  19.091  66.659  1.00  0.00    -0.274 A  
HETATM   20 CL   UNL     1      -9.631  18.847  65.808  1.00  0.00     0.087 Cl 
HETATM   21  N   UNL     1      -7.660  20.336  66.463  1.00  0.00    -0.268 NA 
HETATM   22  C   UNL     1      -6.475  20.628  67.032  1.00  0.00    -0.265 A  
HETATM   23  C   UNL     1      -5.759  19.728  67.807  1.00  0.00    -0.211 A  
HETATM   24  C   UNL     1      -6.293  18.455  68.005  1.00  0.00    -0.193 A  
ENDBRANCH  17  18
ENDBRANCH   9  14
ENDBRANCH   5   8
TORSDOF 3
ENDMDL
MODEL      218
REMARK 921   NORMALIZED FREE ENERGY PREDICTED BY IDOCK:   24.62 KCAL/MOL
REMARK 922        TOTAL FREE ENERGY PREDICTED BY IDOCK:   27.61 KCAL/MOL
REMARK 923 INTER-LIGAND FREE ENERGY PREDICTED BY IDOCK:   15.19 KCAL/MOL
REMARK 924 INTRA-LIGAND FREE ENERGY PREDICTED BY IDOCK:   12.42 KCAL/MOL
REMARK 927      BINDING AFFINITY PREDICTED BY RF-SCORE:    0.00 PKD
ROOT
HETATM    1 CL   UNL     1      -6.881  12.111  67.394  1.00  0.00    -0.133 Cl 
HETATM    2  C   UNL     1      -7.930  13.326  66.781  1.00  0.00     0.327 A  
HETATM    3  C   UNL     1      -7.423  14.570  66.430  1.00  0.00     1.924 A  
HETATM    4  C   UNL     1      -8.287  15.567  65.957  1.00  0.00     0.477 A  
HETATM    5  C   UNL     1      -9.683  15.369  65.868  1.00  0.00    -0.392 A  
HETATM    6  C   UNL     1      -9.289  13.072  66.659  1.00  0.00    -0.242 A  
HETATM    7  C   UNL     1     -10.153  14.091  66.235  1.00  0.00    -0.307 A  
ENDROOT
BRANCH   5   8
HETATM    8  C   UNL     1     -10.604  16.497  65.512  1.00  0.00    -0.310 A  
HETATM    9  C   UNL     1     -10.429  17.847  65.918  1.00  0.00    -0.253 A  
HETATM   10  C   UNL     1     -11.278  18.858  65.430  1.00  0.00     0.901 A  
HETATM   11  C   UNL     1     -11.672  16.244  64.618  1.00  0.00     0.073 A  
HETATM   12  C   UNL     1     -12.339  18.557  64.583  1.00  0.00     8.991 A  
HETATM   13  C   UNL     1     -12.541  17.246  64.179  1.00  0.00     6.583 A  
BRANCH   9  14
HETATM   14  N   UNL     1      -9.482  18.191  66.912  1.00  0.00    -0.277 N  
HETATM   15  O   UNL     1      -8.668  16.077  67.396  1.00  0.00    -0.174 OA 
HETATM   16  H   UNL     1      -9.429  19.168  67.202  1.00  0.00     0.000 HD 
HETATM   17  C   UNL     1      -8.619  17.290  67.519  1.00  0.00    -0.209 C  
BRANCH  17  18
HETATM   18  C   UNL     1      -7.646  17.863  68.480  1.00  0.00    -0.290 A  
HETATM   19  C   UNL     1      -6.688  17.120  69.158  1.00  0.00    -0.238 A  
HETATM   20 CL   UNL     1      -6.495  15.416  68.997  1.00  0.00    -0.108 Cl 
HETATM   21  N   UNL     1      -5.816  17.644  70.051  1.00  0.00    -0.251 NA 
HETATM   22  C   UNL     1      -5.909  18.962  70.307  1.00  0.00    -0.197 A  
HETATM   23  C   UNL     1      -6.835  19.794  69.695  1.00  0.00    -0.310 A  
HETATM   24  C   UNL     1      -7.715  19.235  68.769  1.00  0.00    -0.397 A  
ENDBRANCH  17  18
ENDBRANCH   9  14
ENDBRANCH   5   8
TORSDOF 3
ENDMDL
MODEL      219
REMARK 921   NORMALIZED FREE ENERGY PREDICTED BY IDOCK:   24.71 KCAL/MOL
REMARK 922        TOTAL FREE ENERGY PREDICTED BY IDOCK:   27.71 KCAL/MOL
REMARK 923 INTER-LIGAND FREE ENERGY PREDICTED BY IDOCK:   13.13 KCAL/MOL
REMARK 924 INTRA-LIGAND FREE ENERGY PREDICTED BY IDOCK:   14.58 KCAL/MOL
REMARK 927      BINDING AFFINITY PREDICTED BY RF-SCORE:    0.00 PKD
ROOT
HETATM    1 CL   UNL     1     -13.578  18.814  66.485  1.00  0.00    11.321 Cl 
HETATM    2  C   UNL     1     -12.097  18.471  67.288  1.00  0.00     3.258 A  
HETATM    3  C   UNL     1     -10.931  19.114  66.899  1.00  0.00    -0.313 A  
HETATM    4  C   UNL     1      -9.721  18.810  67.539  1.00  0.00    -0.343 A  
HETATM    5  C   UNL     1      -9.632  17.823  68.545  1.00  0.00    -0.322 A  
HETATM    6  C   UNL     1     -12.064  17.532  68.310  1.00  0.00     2.538 A  
HETATM    7  C   UNL     1     -10.842  17.195  68.907  1.00  0.00    -0.172 A  
ENDROOT
BRANCH   5   8
HETATM    8  C   UNL     1      -8.305  17.401  69.102  1.00  0.00     0.051 A  
HETATM    9  C   UNL     1      -8.048  16.153  69.730  1.00  0.00     0.415 A  
HETATM   10  C   UNL     1      -6.741  15.797  70.109  1.00  0.00     0.118 A  
HETATM   11  C   UNL     1      -7.187  18.245  68.901  1.00  0.00    -0.282 A  
HETATM   12  C   UNL     1      -5.677  16.674  69.927  1.00  0.00    -0.213 A  
HETATM   13  C   UNL     1      -5.900  17.905  69.327  1.00  0.00    -0.221 A  
BRANCH   9  14
HETATM   14  N   UNL     1      -9.110  15.294  70.101  1.00  0.00    -0.235 N  
HETATM   15  O   UNL     1     -10.782  16.166  68.755  1.00  0.00    -0.259 OA 
HETATM   16  H   UNL     1      -8.934  14.611  70.839  1.00  0.00     0.000 HD 
HETATM   17  C   UNL     1     -10.373  15.315  69.529  1.00  0.00    -0.262 C  
BRANCH  17  18
HETATM   18  C   UNL     1     -11.323  14.278  70.003  1.00  0.00    -0.224 A  
HETATM   19  C   UNL     1     -12.114  14.405  71.137  1.00  0.00    -0.341 A  
HETATM   20 CL   UNL     1     -12.104  15.779  72.175  1.00  0.00    -0.512 Cl 
HETATM   21  N   UNL     1     -12.963  13.447  71.578  1.00  0.00    -0.359 NA 
HETATM   22  C   UNL     1     -13.016  12.297  70.880  1.00  0.00     0.023 A  
HETATM   23  C   UNL     1     -12.261  12.062  69.741  1.00  0.00    -0.226 A  
HETATM   24  C   UNL     1     -11.403  13.067  69.297  1.00  0.00    -0.310 A  
ENDBRANCH  17  18
ENDBRANCH   9  14
ENDBRANCH   5   8
TORSDOF 3
ENDMDL
MODEL      220
REMARK 921   NORMALIZED FREE ENERGY PREDICTED BY IDOCK:   27.53 KCAL/MOL
REMARK 922        TOTAL FREE ENERGY PREDICTED BY IDOCK:   31.03 KCAL/MOL
REMARK 923 INTER-LIGAND FREE ENERGY PREDICTED BY IDOCK:   31.18 KCAL/MOL
REMARK 924 INTRA-LIGAND FREE ENERGY PREDICTED BY IDOCK:   -0.15 KCAL/MOL
REMARK 927      BINDING AFFINITY PREDICTED BY RF-SCORE:    0.00 PKD
ROOT
HETATM    1 CL   UNL     1      -6.180  17.829  65.499  1.00  0.00    -0.135 Cl 
HETATM    2  C   UNL     1      -6.793  16.500  66.399  1.00  0.00     0.160 A  
HETATM    3  C   UNL     1      -7.076  15.300  65.761  1.00  0.00     5.241 A  
HETATM    4  C   UNL     1      -7.602  14.228  66.494  1.00  0.00     1.375 A  
HETATM    5  C   UNL     1      -7.908  14.337  67.868  1.00  0.00    -0.156 A  
HETATM    6  C   UNL     1      -7.029  16.633  67.761  1.00  0.00    -0.153 A  
HETATM    7  C   UNL     1      -7.605  15.574  68.475  1.00  0.00    -0.127 A  
ENDROOT
BRANCH   5   8
HETATM    8  C   UNL     1      -8.617  13.234  68.595  1.00  0.00     0.026 A  
HETATM    9  C   UNL     1     -10.021  13.167  68.798  1.00  0.00    -0.028 A  
HETATM   10  C   UNL     1     -10.607  12.029  69.383  1.00  0.00     0.108 A  
HETATM   11  C   UNL     1      -7.866  12.112  69.023  1.00  0.00     0.167 A  
HETATM   12  C   UNL     1      -9.827  10.966  69.824  1.00  0.00     0.304 A  
HETATM   13  C   UNL     1      -8.452  11.008  69.649  1.00  0.00     0.477 A  
BRANCH   9  14
HETATM   14  N   UNL     1     -10.848  14.285  68.534  1.00  0.00    -0.245 N  
HETATM   15  O   UNL     1     -10.012  15.750  70.122  1.00  0.00    -0.214 OA 
HETATM   16  H   UNL     1     -11.583  14.178  67.834  1.00  0.00     0.000 HD 
HETATM   17  C   UNL     1     -10.728  15.515  69.162  1.00  0.00    -0.250 C  
BRANCH  17  18
HETATM   18  C   UNL     1     -11.641  16.583  68.686  1.00  0.00    -0.034 A  
HETATM   19  C   UNL     1     -13.023  16.545  68.819  1.00  0.00     3.230 A  
HETATM   20 CL   UNL     1     -13.889  15.244  69.543  1.00  0.00     2.201 Cl 
HETATM   21  N   UNL     1     -13.855  17.511  68.363  1.00  0.00     7.746 NA 
HETATM   22  C   UNL     1     -13.298  18.556  67.723  1.00  0.00     8.878 A  
HETATM   23  C   UNL     1     -11.931  18.688  67.526  1.00  0.00     2.558 A  
HETATM   24  C   UNL     1     -11.092  17.687  68.015  1.00  0.00     0.049 A  
ENDBRANCH  17  18
ENDBRANCH   9  14
ENDBRANCH   5   8
TORSDOF 3
ENDMDL
MODEL      221
REMARK 921   NORMALIZED FREE ENERGY PREDICTED BY IDOCK:   42.33 KCAL/MOL
REMARK 922        TOTAL FREE ENERGY PREDICTED BY IDOCK:   48.42 KCAL/MOL
REMARK 923 INTER-LIGAND FREE ENERGY PREDICTED BY IDOCK:   48.10 KCAL/MOL
REMARK 924 INTRA-LIGAND FREE ENERGY PREDICTED BY IDOCK:    0.32 KCAL/MOL
REMARK 927      BINDING AFFINITY PREDICTED BY RF-SCORE:    0.00 PKD
ROOT
HETATM    1 CL   UNL     1      -9.279  16.564  71.422  1.00  0.00     5.509 Cl 
HETATM    2  C   UNL     1      -8.607  15.726  70.080  1.00  0.00     0.554 A  
HETATM    3  C   UNL     1      -9.258  15.742  68.854  1.00  0.00    -0.227 A  
HETATM    4  C   UNL     1      -8.721  15.034  67.770  1.00  0.00    -0.167 A  
HETATM    5  C   UNL     1      -7.552  14.251  67.891  1.00  0.00    -0.159 A  
HETATM    6  C   UNL     1      -7.426  15.012  70.228  1.00  0.00     0.394 A  
HETATM    7  C   UNL     1      -6.925  14.264  69.154  1.00  0.00    -0.118 A  
ENDROOT
BRANCH   5   8
HETATM    8  C   UNL     1      -7.085  13.377  66.766  1.00  0.00     1.080 A  
HETATM    9  C   UNL     1      -7.939  12.705  65.851  1.00  0.00     1.699 A  
HETATM   10  C   UNL     1      -7.405  12.008  64.752  1.00  0.00     3.741 A  
HETATM   11  C   UNL     1      -5.696  13.285  66.511  1.00  0.00     2.544 A  
HETATM   12  C   UNL     1      -6.031  11.912  64.561  1.00  0.00     4.033 A  
HETATM   13  C   UNL     1      -5.172  12.548  65.445  1.00  0.00     4.418 A  
BRANCH   9  14
HETATM   14  N   UNL     1      -9.332  12.617  66.088  1.00  0.00    -0.402 N  
HETATM   15  O   UNL     1      -9.939  11.335  64.256  1.00  0.00    -0.253 OA 
HETATM   16  H   UNL     1      -9.714  13.134  66.880  1.00  0.00     0.000 HD 
HETATM   17  C   UNL     1     -10.213  11.874  65.315  1.00  0.00    -0.272 C  
BRANCH  17  18
HETATM   18  C   UNL     1     -11.623  11.847  65.777  1.00  0.00    -0.281 A  
HETATM   19  C   UNL     1     -12.700  12.291  65.020  1.00  0.00     0.085 A  
HETATM   20 CL   UNL     1     -12.561  12.955  63.437  1.00  0.00    -0.368 Cl 
HETATM   21  N   UNL     1     -13.983  12.286  65.453  1.00  0.00     3.369 NA 
HETATM   22  C   UNL     1     -14.212  11.843  66.703  1.00  0.00    15.708 A  
HETATM   23  C   UNL     1     -13.209  11.388  67.546  1.00  0.00     7.021 A  
HETATM   24  C   UNL     1     -11.897  11.391  67.075  1.00  0.00     0.188 A  
ENDBRANCH  17  18
ENDBRANCH   9  14
ENDBRANCH   5   8
TORSDOF 3
ENDMDL
MODEL      222
REMARK 921   NORMALIZED FREE ENERGY PREDICTED BY IDOCK:   71.78 KCAL/MOL
REMARK 922        TOTAL FREE ENERGY PREDICTED BY IDOCK:   83.03 KCAL/MOL
REMARK 923 INTER-LIGAND FREE ENERGY PREDICTED BY IDOCK:   82.56 KCAL/MOL
REMARK 924 INTRA-LIGAND FREE ENERGY PREDICTED BY IDOCK:    0.47 KCAL/MOL
REMARK 927      BINDING AFFINITY PREDICTED BY RF-SCORE:    0.00 PKD
ROOT
HETATM    1 CL   UNL     1      -9.726  18.361  73.251  1.00  0.00     6.819 Cl 
HETATM    2  C   UNL     1      -9.140  17.397  71.955  1.00  0.00    11.805 A  
HETATM    3  C   UNL     1      -8.855  17.982  70.728  1.00  0.00     5.404 A  
HETATM    4  C   UNL     1      -8.403  17.186  69.666  1.00  0.00     0.855 A  
HETATM    5  C   UNL     1      -8.272  15.785  69.781  1.00  0.00     0.145 A  
HETATM    6  C   UNL     1      -8.974  16.030  72.127  1.00  0.00     8.945 A  
HETATM    7  C   UNL     1      -8.573  15.236  71.045  1.00  0.00     2.797 A  
ENDROOT
BRANCH   5   8
HETATM    8  C   UNL     1      -7.942  14.937  68.590  1.00  0.00    -0.144 A  
HETATM    9  C   UNL     1      -7.501  13.588  68.650  1.00  0.00    -0.108 A  
HETATM   10  C   UNL     1      -7.336  12.834  67.473  1.00  0.00    -0.153 A  
HETATM   11  C   UNL     1      -8.184  15.461  67.297  1.00  0.00    -0.222 A  
HETATM   12  C   UNL     1      -7.549  13.402  66.222  1.00  0.00     2.092 A  
HETATM   13  C   UNL     1      -7.969  14.720  66.131  1.00  0.00     1.549 A  
BRANCH   9  14
HETATM   14  N   UNL     1      -7.099  13.009  69.878  1.00  0.00    -0.101 N  
HETATM   15  O   UNL     1      -9.183  12.449  70.723  1.00  0.00     6.479 OA 
HETATM   16  H   UNL     1      -6.107  13.030  70.112  1.00  0.00     0.000 HD 
HETATM   17  C   UNL     1      -7.965  12.414  70.784  1.00  0.00     6.543 C  
BRANCH  17  18
HETATM   18  C   UNL     1      -7.336  11.794  71.976  1.00  0.00     9.489 A  
HETATM   19  C   UNL     1      -6.837  10.498  72.010  1.00  0.00     2.948 A  
HETATM   20 CL   UNL     1      -6.887   9.408  70.678  1.00  0.00    -0.093 Cl 
HETATM   21  N   UNL     1      -6.284   9.928  73.107  1.00  0.00     0.312 NA 
HETATM   22  C   UNL     1      -6.243  10.664  74.233  1.00  0.00     1.763 A  
HETATM   23  C   UNL     1      -6.722  11.964  74.312  1.00  0.00     4.743 A  
HETATM   24  C   UNL     1      -7.276  12.535  73.167  1.00  0.00    10.693 A  
ENDBRANCH  17  18
ENDBRANCH   9  14
ENDBRANCH   5   8
TORSDOF 3
ENDMDL
