MODEL        1
REMARK 921   NORMALIZED FREE ENERGY PREDICTED BY IDOCK:   -7.25 KCAL/MOL
REMARK 922        TOTAL FREE ENERGY PREDICTED BY IDOCK:  -14.37 KCAL/MOL
REMARK 923 INTER-LIGAND FREE ENERGY PREDICTED BY IDOCK:  -11.91 KCAL/MOL
REMARK 924 INTRA-LIGAND FREE ENERGY PREDICTED BY IDOCK:   -2.46 KCAL/MOL
REMARK 927      BINDING AFFINITY PREDICTED BY RF-SCORE:    0.00 PKD
ROOT
HETATM    1  C   UNL     1     -10.793   7.193  67.172  1.00  0.00    -0.333 C  
HETATM    2  O   UNL     1     -10.646   8.609  67.062  1.00  0.00    -0.294 OA 
ENDROOT
BRANCH   2   3
HETATM    3  C   UNL     1      -9.377   9.094  66.862  1.00  0.00    -0.156 A  
HETATM    4  C   UNL     1      -8.224   8.361  67.189  1.00  0.00    -0.108 A  
HETATM    5  C   UNL     1      -6.947   8.909  67.030  1.00  0.00    -0.074 A  
HETATM    6  C   UNL     1      -6.799  10.192  66.521  1.00  0.00    -0.090 A  
HETATM    7  C   UNL     1      -7.928  10.926  66.176  1.00  0.00    -0.155 A  
HETATM    8  C   UNL     1      -9.218  10.393  66.336  1.00  0.00    -0.161 A  
BRANCH   8   9
HETATM    9  O   UNL     1     -10.189  11.313  65.998  1.00  0.00    -0.231 OA 
BRANCH   9  10
HETATM   10  C   UNL     1     -10.178  12.581  66.484  1.00  0.00    -0.240 A  
HETATM   11  C   UNL     1     -10.135  12.968  67.805  1.00  0.00    -0.229 A  
HETATM   12  N   UNL     1     -10.038  14.238  68.219  1.00  0.00    -0.232 NA 
HETATM   13  N   UNL     1     -10.150  14.927  65.942  1.00  0.00    -0.305 NA 
HETATM   14  C   UNL     1     -10.001  15.183  67.257  1.00  0.00    -0.230 A  
HETATM   15  C   UNL     1     -10.259  13.635  65.589  1.00  0.00    -0.304 A  
BRANCH  11  16
HETATM   16  N   UNL     1     -10.178  12.106  68.927  1.00  0.00    -0.413 N  
HETATM   17  H   UNL     1      -9.311  11.767  69.345  1.00  0.00     0.000 HD 
BRANCH  16  18
HETATM   18  S   UNL     1     -11.655  11.643  69.565  1.00  0.00    -0.346 S  
HETATM   19  O   UNL     1     -12.114  12.676  70.477  1.00  0.00    -0.363 OA 
HETATM   20  O   UNL     1     -12.475  11.249  68.435  1.00  0.00    -0.403 OA 
BRANCH  18  21
HETATM   21  C   UNL     1     -11.350  10.189  70.538  1.00  0.00    -0.338 A  
HETATM   22  C   UNL     1     -10.797   7.868  72.045  1.00  0.00    -0.312 A  
HETATM   23  C   UNL     1     -10.117   9.552  70.413  1.00  0.00    -0.329 A  
HETATM   24  C   UNL     1      -9.850   8.403  71.156  1.00  0.00    -0.242 A  
HETATM   25  C   UNL     1     -12.010   8.572  72.203  1.00  0.00    -0.451 A  
HETATM   26  C   UNL     1     -12.288   9.729  71.460  1.00  0.00    -0.495 A  
BRANCH  22  27
HETATM   27  C   UNL     1     -10.545   6.542  72.788  1.00  0.00    -0.257 C  
HETATM   28  C   UNL     1      -9.334   5.753  72.234  1.00  0.00    -0.155 C  
HETATM   29  C   UNL     1     -11.782   5.630  72.641  1.00  0.00    -0.256 C  
HETATM   30  C   UNL     1     -10.278   6.795  74.285  1.00  0.00    -0.309 C  
ENDBRANCH  22  27
ENDBRANCH  18  21
ENDBRANCH  16  18
ENDBRANCH  11  16
BRANCH  14  31
HETATM   31  C   UNL     1      -9.686  16.576  67.668  1.00  0.00    -0.239 A  
HETATM   32  N   UNL     1      -8.419  16.845  68.066  1.00  0.00    -0.207 NA 
HETATM   33  N   UNL     1     -10.696  17.479  67.702  1.00  0.00    -0.345 NA 
HETATM   34  C   UNL     1     -10.389  18.708  68.149  1.00  0.00    -0.359 A  
HETATM   35  C   UNL     1      -8.177  18.088  68.514  1.00  0.00    -0.303 A  
HETATM   36  C   UNL     1      -9.134  19.072  68.576  1.00  0.00    -0.401 A  
ENDBRANCH  14  31
BRANCH  15  37
HETATM   37  O   UNL     1     -10.490  13.336  64.258  1.00  0.00    -0.424 OA 
BRANCH  37  38
HETATM   38  C   UNL     1     -11.849  13.449  63.815  1.00  0.00    -0.431 C  
BRANCH  38  39
HETATM   39  C   UNL     1     -12.374  12.093  63.355  1.00  0.00    -0.538 C  
HETATM   40  O   UNL     1     -11.297  11.223  63.021  1.00  0.00    -0.847 OA 
HETATM   41  H   UNL     1     -11.624  10.378  62.735  1.00  0.00     0.000 HD 
ENDBRANCH  38  39
ENDBRANCH  37  38
ENDBRANCH  15  37
ENDBRANCH   9  10
ENDBRANCH   8   9
ENDBRANCH   2   3
TORSDOF 11
ENDMDL
MODEL        2
REMARK 921   NORMALIZED FREE ENERGY PREDICTED BY IDOCK:   -7.20 KCAL/MOL
REMARK 922        TOTAL FREE ENERGY PREDICTED BY IDOCK:  -14.29 KCAL/MOL
REMARK 923 INTER-LIGAND FREE ENERGY PREDICTED BY IDOCK:  -11.73 KCAL/MOL
REMARK 924 INTRA-LIGAND FREE ENERGY PREDICTED BY IDOCK:   -2.57 KCAL/MOL
REMARK 927      BINDING AFFINITY PREDICTED BY RF-SCORE:    0.00 PKD
ROOT
HETATM    1  C   UNL     1     -11.362  16.193  64.602  1.00  0.00    -0.282 C  
HETATM    2  O   UNL     1     -11.008  15.226  65.591  1.00  0.00    -0.334 OA 
ENDROOT
BRANCH   2   3
HETATM    3  C   UNL     1     -10.170  15.636  66.597  1.00  0.00    -0.279 A  
HETATM    4  C   UNL     1      -8.848  16.053  66.362  1.00  0.00    -0.363 A  
HETATM    5  C   UNL     1      -8.001  16.406  67.417  1.00  0.00    -0.179 A  
HETATM    6  C   UNL     1      -8.466  16.370  68.724  1.00  0.00    -0.249 A  
HETATM    7  C   UNL     1      -9.775  15.976  68.975  1.00  0.00    -0.244 A  
HETATM    8  C   UNL     1     -10.637  15.610  67.928  1.00  0.00    -0.278 A  
BRANCH   8   9
HETATM    9  O   UNL     1     -11.861  15.190  68.406  1.00  0.00    -0.328 OA 
BRANCH   9  10
HETATM   10  C   UNL     1     -12.025  13.977  68.993  1.00  0.00    -0.357 A  
HETATM   11  C   UNL     1     -11.785  12.741  68.436  1.00  0.00    -0.339 A  
HETATM   12  N   UNL     1     -11.882  11.580  69.097  1.00  0.00    -0.324 NA 
HETATM   13  N   UNL     1     -12.631  12.797  71.003  1.00  0.00    -0.335 NA 
HETATM   14  C   UNL     1     -12.263  11.654  70.389  1.00  0.00    -0.347 A  
HETATM   15  C   UNL     1     -12.526  13.928  70.283  1.00  0.00    -0.314 A  
BRANCH  11  16
HETATM   16  N   UNL     1     -11.394  12.493  67.098  1.00  0.00    -0.304 N  
HETATM   17  H   UNL     1     -12.054  12.645  66.335  1.00  0.00     0.000 HD 
BRANCH  16  18
HETATM   18  S   UNL     1      -9.845  11.948  66.772  1.00  0.00    -0.201 S  
HETATM   19  O   UNL     1      -9.606  12.047  65.342  1.00  0.00    -0.220 OA 
HETATM   20  O   UNL     1      -8.973  12.633  67.706  1.00  0.00    -0.171 OA 
BRANCH  18  21
HETATM   21  C   UNL     1      -9.821  10.221  67.185  1.00  0.00    -0.185 A  
HETATM   22  C   UNL     1      -9.724   7.491  67.891  1.00  0.00    -0.170 A  
HETATM   23  C   UNL     1      -8.995   9.796  68.223  1.00  0.00    -0.119 A  
HETATM   24  C   UNL     1      -8.947   8.447  68.566  1.00  0.00    -0.136 A  
HETATM   25  C   UNL     1     -10.603   7.957  66.890  1.00  0.00    -0.333 A  
HETATM   26  C   UNL     1     -10.658   9.314  66.538  1.00  0.00    -0.117 A  
BRANCH  22  27
HETATM   27  C   UNL     1      -9.595   5.986  68.196  1.00  0.00    -0.122 C  
HETATM   28  C   UNL     1     -10.373   5.552  69.462  1.00  0.00    -0.357 C  
HETATM   29  C   UNL     1      -8.111   5.638  68.439  1.00  0.00    -0.103 C  
HETATM   30  C   UNL     1     -10.128   5.142  67.022  1.00  0.00    -0.252 C  
ENDBRANCH  22  27
ENDBRANCH  18  21
ENDBRANCH  16  18
ENDBRANCH  11  16
BRANCH  14  31
HETATM   31  C   UNL     1     -12.181  10.416  71.206  1.00  0.00    -0.389 A  
HETATM   32  N   UNL     1     -11.017   9.723  71.187  1.00  0.00    -0.352 NA 
HETATM   33  N   UNL     1     -13.295  10.002  71.858  1.00  0.00    -0.422 NA 
HETATM   34  C   UNL     1     -13.205   8.840  72.526  1.00  0.00    -0.347 A  
HETATM   35  C   UNL     1     -10.992   8.563  71.864  1.00  0.00    -0.324 A  
HETATM   36  C   UNL     1     -12.067   8.068  72.560  1.00  0.00    -0.338 A  
ENDBRANCH  14  31
BRANCH  15  37
HETATM   37  O   UNL     1     -12.967  15.109  70.852  1.00  0.00    -0.379 OA 
BRANCH  37  38
HETATM   38  C   UNL     1     -13.341  15.042  72.234  1.00  0.00    -0.398 C  
BRANCH  38  39
HETATM   39  C   UNL     1     -12.531  16.040  73.054  1.00  0.00    -0.511 C  
HETATM   40  O   UNL     1     -13.068  16.166  74.367  1.00  0.00    -0.926 OA 
HETATM   41  H   UNL     1     -12.564  16.787  74.879  1.00  0.00     0.000 HD 
ENDBRANCH  38  39
ENDBRANCH  37  38
ENDBRANCH  15  37
ENDBRANCH   9  10
ENDBRANCH   8   9
ENDBRANCH   2   3
TORSDOF 11
ENDMDL
MODEL        3
REMARK 921   NORMALIZED FREE ENERGY PREDICTED BY IDOCK:   -7.18 KCAL/MOL
REMARK 922        TOTAL FREE ENERGY PREDICTED BY IDOCK:  -14.27 KCAL/MOL
REMARK 923 INTER-LIGAND FREE ENERGY PREDICTED BY IDOCK:  -12.42 KCAL/MOL
REMARK 924 INTRA-LIGAND FREE ENERGY PREDICTED BY IDOCK:   -1.85 KCAL/MOL
REMARK 927      BINDING AFFINITY PREDICTED BY RF-SCORE:    0.00 PKD
ROOT
HETATM    1  C   UNL     1     -12.143  16.017  71.860  1.00  0.00    -0.514 C  
HETATM    2  O   UNL     1     -12.407  15.387  70.606  1.00  0.00    -0.344 OA 
ENDROOT
BRANCH   2   3
HETATM    3  C   UNL     1     -12.440  14.015  70.587  1.00  0.00    -0.365 A  
HETATM    4  C   UNL     1     -13.052  13.256  71.600  1.00  0.00    -0.453 A  
HETATM    5  C   UNL     1     -13.014  11.859  71.582  1.00  0.00    -0.447 A  
HETATM    6  C   UNL     1     -12.382  11.193  70.541  1.00  0.00    -0.454 A  
HETATM    7  C   UNL     1     -11.786  11.927  69.522  1.00  0.00    -0.410 A  
HETATM    8  C   UNL     1     -11.808  13.331  69.528  1.00  0.00    -0.327 A  
BRANCH   8   9
HETATM    9  O   UNL     1     -11.101  13.851  68.463  1.00  0.00    -0.244 OA 
BRANCH   9  10
HETATM   10  C   UNL     1     -10.455  13.056  67.572  1.00  0.00    -0.227 A  
HETATM   11  C   UNL     1      -9.212  12.482  67.714  1.00  0.00    -0.198 A  
HETATM   12  N   UNL     1      -8.665  11.633  66.835  1.00  0.00    -0.179 NA 
HETATM   13  N   UNL     1     -10.569  11.945  65.439  1.00  0.00    -0.261 NA 
HETATM   14  C   UNL     1      -9.394  11.354  65.734  1.00  0.00    -0.228 A  
HETATM   15  C   UNL     1     -11.061  12.799  66.353  1.00  0.00    -0.285 A  
BRANCH  11  16
HETATM   16  N   UNL     1      -8.322  12.681  68.797  1.00  0.00    -0.356 N  
HETATM   17  H   UNL     1      -8.470  12.190  69.678  1.00  0.00     0.000 HD 
BRANCH  16  18
HETATM   18  S   UNL     1      -7.024  13.726  68.626  1.00  0.00    -0.108 S  
HETATM   19  O   UNL     1      -6.388  13.896  69.920  1.00  0.00    -0.134 OA 
HETATM   20  O   UNL     1      -6.260  13.235  67.495  1.00  0.00    -0.201 OA 
BRANCH  18  21
HETATM   21  C   UNL     1      -7.704  15.301  68.169  1.00  0.00    -0.117 A  
HETATM   22  C   UNL     1      -8.833  17.802  67.507  1.00  0.00    -0.243 A  
HETATM   23  C   UNL     1      -8.589  15.924  69.048  1.00  0.00    -0.239 A  
HETATM   24  C   UNL     1      -9.147  17.157  68.715  1.00  0.00    -0.244 A  
HETATM   25  C   UNL     1      -7.882  17.182  66.668  1.00  0.00    -0.297 A  
HETATM   26  C   UNL     1      -7.315  15.941  66.994  1.00  0.00    -0.243 A  
BRANCH  22  27
HETATM   27  C   UNL     1      -9.527  19.112  67.089  1.00  0.00    -0.367 C  
HETATM   28  C   UNL     1      -8.553  20.153  66.486  1.00  0.00    -0.327 C  
HETATM   29  C   UNL     1     -10.174  19.767  68.328  1.00  0.00    -0.569 C  
HETATM   30  C   UNL     1     -10.617  18.841  66.033  1.00  0.00    -0.442 C  
ENDBRANCH  22  27
ENDBRANCH  18  21
ENDBRANCH  16  18
ENDBRANCH  11  16
BRANCH  14  31
HETATM   31  C   UNL     1      -8.914  10.265  64.844  1.00  0.00    -0.201 A  
HETATM   32  N   UNL     1      -9.039  10.441  63.507  1.00  0.00    -0.224 NA 
HETATM   33  N   UNL     1      -8.455   9.125  65.416  1.00  0.00    -0.140 NA 
HETATM   34  C   UNL     1      -8.099   8.135  64.581  1.00  0.00    -0.148 A  
HETATM   35  C   UNL     1      -8.678   9.411  62.724  1.00  0.00    -0.229 A  
HETATM   36  C   UNL     1      -8.194   8.222  63.212  1.00  0.00    -0.095 A  
ENDBRANCH  14  31
BRANCH  15  37
HETATM   37  O   UNL     1     -12.225  13.483  66.053  1.00  0.00    -0.414 OA 
BRANCH  37  38
HETATM   38  C   UNL     1     -12.311  14.027  64.729  1.00  0.00    -0.413 C  
BRANCH  38  39
HETATM   39  C   UNL     1     -11.425  15.261  64.601  1.00  0.00    -0.354 C  
HETATM   40  O   UNL     1     -11.990  16.193  63.684  1.00  0.00    -1.375 OA 
HETATM   41  H   UNL     1     -11.438  16.962  63.604  1.00  0.00     0.000 HD 
ENDBRANCH  38  39
ENDBRANCH  37  38
ENDBRANCH  15  37
ENDBRANCH   9  10
ENDBRANCH   8   9
ENDBRANCH   2   3
TORSDOF 11
ENDMDL
MODEL        4
REMARK 921   NORMALIZED FREE ENERGY PREDICTED BY IDOCK:   -7.18 KCAL/MOL
REMARK 922        TOTAL FREE ENERGY PREDICTED BY IDOCK:  -14.25 KCAL/MOL
REMARK 923 INTER-LIGAND FREE ENERGY PREDICTED BY IDOCK:  -12.30 KCAL/MOL
REMARK 924 INTRA-LIGAND FREE ENERGY PREDICTED BY IDOCK:   -1.95 KCAL/MOL
REMARK 927      BINDING AFFINITY PREDICTED BY RF-SCORE:    0.00 PKD
ROOT
HETATM    1  C   UNL     1      -9.602  10.225  63.824  1.00  0.00    -0.284 C  
HETATM    2  O   UNL     1     -10.336  10.229  65.049  1.00  0.00    -0.288 OA 
ENDROOT
BRANCH   2   3
HETATM    3  C   UNL     1      -9.782   9.563  66.114  1.00  0.00    -0.258 A  
HETATM    4  C   UNL     1      -8.602   8.806  66.006  1.00  0.00    -0.166 A  
HETATM    5  C   UNL     1      -8.099   8.090  67.096  1.00  0.00    -0.117 A  
HETATM    6  C   UNL     1      -8.752   8.134  68.320  1.00  0.00    -0.133 A  
HETATM    7  C   UNL     1      -9.911   8.891  68.450  1.00  0.00    -0.191 A  
HETATM    8  C   UNL     1     -10.435   9.610  67.364  1.00  0.00    -0.257 A  
BRANCH   8   9
HETATM    9  O   UNL     1     -11.621  10.232  67.695  1.00  0.00    -0.299 OA 
BRANCH   9  10
HETATM   10  C   UNL     1     -11.672  11.248  68.594  1.00  0.00    -0.324 A  
HETATM   11  C   UNL     1     -11.116  12.502  68.469  1.00  0.00    -0.262 A  
HETATM   12  N   UNL     1     -11.276  13.493  69.355  1.00  0.00    -0.225 NA 
HETATM   13  N   UNL     1     -12.516  11.990  70.724  1.00  0.00    -0.330 NA 
HETATM   14  C   UNL     1     -12.020  13.211  70.445  1.00  0.00    -0.266 A  
HETATM   15  C   UNL     1     -12.310  11.031  69.804  1.00  0.00    -0.262 A  
BRANCH  11  16
HETATM   16  N   UNL     1     -10.303  12.949  67.400  1.00  0.00    -0.232 N  
HETATM   17  H   UNL     1      -9.333  12.641  67.330  1.00  0.00     0.000 HD 
BRANCH  16  18
HETATM   18  S   UNL     1     -10.940  13.986  66.249  1.00  0.00    -0.304 S  
HETATM   19  O   UNL     1     -10.530  13.530  64.932  1.00  0.00    -0.360 OA 
HETATM   20  O   UNL     1     -12.348  14.124  66.568  1.00  0.00    -0.460 OA 
BRANCH  18  21
HETATM   21  C   UNL     1     -10.172  15.565  66.515  1.00  0.00    -0.283 A  
HETATM   22  C   UNL     1      -9.017  18.098  66.976  1.00  0.00    -0.263 A  
HETATM   23  C   UNL     1     -10.819  16.490  67.331  1.00  0.00    -0.202 A  
HETATM   24  C   UNL     1     -10.247  17.742  67.553  1.00  0.00    -0.356 A  
HETATM   25  C   UNL     1      -8.350  17.118  66.210  1.00  0.00    -0.298 A  
HETATM   26  C   UNL     1      -8.918  15.856  65.981  1.00  0.00    -0.337 A  
BRANCH  22  27
HETATM   27  C   UNL     1      -8.434  19.516  67.133  1.00  0.00    -0.329 C  
HETATM   28  C   UNL     1      -7.570  19.682  68.406  1.00  0.00    -0.362 C  
HETATM   29  C   UNL     1      -9.588  20.536  67.236  1.00  0.00    -0.580 C  
HETATM   30  C   UNL     1      -7.544  19.878  65.927  1.00  0.00    -0.334 C  
ENDBRANCH  22  27
ENDBRANCH  18  21
ENDBRANCH  16  18
ENDBRANCH  11  16
BRANCH  14  31
HETATM   31  C   UNL     1     -12.389  14.339  71.340  1.00  0.00    -0.353 A  
HETATM   32  N   UNL     1     -11.385  15.065  71.888  1.00  0.00    -0.317 NA 
HETATM   33  N   UNL     1     -13.701  14.529  71.623  1.00  0.00    -0.380 NA 
HETATM   34  C   UNL     1     -13.992  15.511  72.493  1.00  0.00    -0.555 A  
HETATM   35  C   UNL     1     -11.738  16.025  72.759  1.00  0.00    -0.376 A  
HETATM   36  C   UNL     1     -13.040  16.296  73.101  1.00  0.00    -0.384 A  
ENDBRANCH  14  31
BRANCH  15  37
HETATM   37  O   UNL     1     -12.736   9.747  70.089  1.00  0.00     0.117 OA 
BRANCH  37  38
HETATM   38  C   UNL     1     -12.249   9.179  71.311  1.00  0.00    -0.327 C  
BRANCH  38  39
HETATM   39  C   UNL     1     -13.290   8.243  71.917  1.00  0.00    -0.342 C  
HETATM   40  O   UNL     1     -13.967   8.876  72.998  1.00  0.00    -1.022 OA 
HETATM   41  H   UNL     1     -14.616   8.293  73.375  1.00  0.00     0.000 HD 
ENDBRANCH  38  39
ENDBRANCH  37  38
ENDBRANCH  15  37
ENDBRANCH   9  10
ENDBRANCH   8   9
ENDBRANCH   2   3
TORSDOF 11
ENDMDL
MODEL        5
REMARK 921   NORMALIZED FREE ENERGY PREDICTED BY IDOCK:   -7.15 KCAL/MOL
REMARK 922        TOTAL FREE ENERGY PREDICTED BY IDOCK:  -14.21 KCAL/MOL
REMARK 923 INTER-LIGAND FREE ENERGY PREDICTED BY IDOCK:  -11.54 KCAL/MOL
REMARK 924 INTRA-LIGAND FREE ENERGY PREDICTED BY IDOCK:   -2.67 KCAL/MOL
REMARK 927      BINDING AFFINITY PREDICTED BY RF-SCORE:    0.00 PKD
ROOT
HETATM    1  C   UNL     1     -12.235  11.209  70.813  1.00  0.00    -0.385 C  
HETATM    2  O   UNL     1     -12.481  12.230  69.845  1.00  0.00    -0.078 OA 
ENDROOT
BRANCH   2   3
HETATM    3  C   UNL     1     -12.138  13.515  70.188  1.00  0.00    -0.354 A  
HETATM    4  C   UNL     1     -12.528  14.106  71.402  1.00  0.00    -0.438 A  
HETATM    5  C   UNL     1     -12.214  15.438  71.693  1.00  0.00    -0.445 A  
HETATM    6  C   UNL     1     -11.487  16.195  70.785  1.00  0.00    -0.408 A  
HETATM    7  C   UNL     1     -11.078  15.622  69.587  1.00  0.00    -0.299 A  
HETATM    8  C   UNL     1     -11.392  14.289  69.275  1.00  0.00    -0.283 A  
BRANCH   8   9
HETATM    9  O   UNL     1     -10.950  13.949  68.013  1.00  0.00    -0.242 OA 
BRANCH   9  10
HETATM   10  C   UNL     1     -10.503  12.700  67.721  1.00  0.00    -0.221 A  
HETATM   11  C   UNL     1      -9.339  12.107  68.155  1.00  0.00    -0.204 A  
HETATM   12  N   UNL     1      -8.996  10.837  67.903  1.00  0.00    -0.137 NA 
HETATM   13  N   UNL     1     -10.967  10.629  66.582  1.00  0.00    -0.140 NA 
HETATM   14  C   UNL     1      -9.858  10.119  67.153  1.00  0.00    -0.187 A  
HETATM   15  C   UNL     1     -11.252  11.914  66.860  1.00  0.00    -0.325 A  
BRANCH  11  16
HETATM   16  N   UNL     1      -8.331  12.724  68.934  1.00  0.00    -0.339 N  
HETATM   17  H   UNL     1      -8.343  12.635  69.950  1.00  0.00     0.000 HD 
BRANCH  16  18
HETATM   18  S   UNL     1      -7.118  13.600  68.182  1.00  0.00    -0.139 S  
HETATM   19  O   UNL     1      -6.010  13.753  69.108  1.00  0.00    -0.079 OA 
HETATM   20  O   UNL     1      -6.910  12.972  66.892  1.00  0.00     0.035 OA 
BRANCH  18  21
HETATM   21  C   UNL     1      -7.778  15.222  67.888  1.00  0.00    -0.136 A  
HETATM   22  C   UNL     1      -8.806  17.821  67.493  1.00  0.00    -0.243 A  
HETATM   23  C   UNL     1      -7.570  16.210  68.848  1.00  0.00    -0.201 A  
HETATM   24  C   UNL     1      -8.082  17.490  68.651  1.00  0.00    -0.263 A  
HETATM   25  C   UNL     1      -8.943  16.821  66.506  1.00  0.00    -0.304 A  
HETATM   26  C   UNL     1      -8.430  15.529  66.696  1.00  0.00    -0.314 A  
BRANCH  22  27
HETATM   27  C   UNL     1      -9.463  19.203  67.321  1.00  0.00    -0.367 C  
HETATM   28  C   UNL     1      -8.461  20.307  66.905  1.00  0.00    -0.354 C  
HETATM   29  C   UNL     1     -10.088  19.645  68.662  1.00  0.00    -0.547 C  
HETATM   30  C   UNL     1     -10.563  19.155  66.241  1.00  0.00    -0.521 C  
ENDBRANCH  22  27
ENDBRANCH  18  21
ENDBRANCH  16  18
ENDBRANCH  11  16
BRANCH  14  31
HETATM   31  C   UNL     1      -9.615   8.659  67.028  1.00  0.00    -0.182 A  
HETATM   32  N   UNL     1      -8.347   8.249  66.783  1.00  0.00    -0.106 NA 
HETATM   33  N   UNL     1     -10.681   7.823  67.084  1.00  0.00    -0.321 NA 
HETATM   34  C   UNL     1     -10.431   6.517  66.893  1.00  0.00    -0.277 A  
HETATM   35  C   UNL     1      -8.163   6.932  66.589  1.00  0.00    -0.115 A  
HETATM   36  C   UNL     1      -9.180   6.010  66.636  1.00  0.00    -0.151 A  
ENDBRANCH  14  31
BRANCH  15  37
HETATM   37  O   UNL     1     -12.338  12.495  66.233  1.00  0.00    -0.570 OA 
BRANCH  37  38
HETATM   38  C   UNL     1     -12.355  12.416  64.802  1.00  0.00    -0.423 C  
BRANCH  38  39
HETATM   39  C   UNL     1     -11.635  13.614  64.192  1.00  0.00    -0.352 C  
HETATM   40  O   UNL     1     -12.396  14.168  63.124  1.00  0.00    -1.125 OA 
HETATM   41  H   UNL     1     -11.948  14.915  62.744  1.00  0.00     0.000 HD 
ENDBRANCH  38  39
ENDBRANCH  37  38
ENDBRANCH  15  37
ENDBRANCH   9  10
ENDBRANCH   8   9
ENDBRANCH   2   3
TORSDOF 11
ENDMDL
MODEL        6
REMARK 921   NORMALIZED FREE ENERGY PREDICTED BY IDOCK:   -7.08 KCAL/MOL
REMARK 922        TOTAL FREE ENERGY PREDICTED BY IDOCK:  -14.09 KCAL/MOL
REMARK 923 INTER-LIGAND FREE ENERGY PREDICTED BY IDOCK:  -11.39 KCAL/MOL
REMARK 924 INTRA-LIGAND FREE ENERGY PREDICTED BY IDOCK:   -2.70 KCAL/MOL
REMARK 927      BINDING AFFINITY PREDICTED BY RF-SCORE:    0.00 PKD
ROOT
HETATM    1  C   UNL     1     -13.694  13.100  72.429  1.00  0.00    -0.540 C  
HETATM    2  O   UNL     1     -12.724  12.759  71.438  1.00  0.00    -0.351 OA 
ENDROOT
BRANCH   2   3
HETATM    3  C   UNL     1     -12.271  13.771  70.629  1.00  0.00    -0.363 A  
HETATM    4  C   UNL     1     -11.983  15.059  71.112  1.00  0.00    -0.375 A  
HETATM    5  C   UNL     1     -11.583  16.084  70.250  1.00  0.00    -0.335 A  
HETATM    6  C   UNL     1     -11.442  15.836  68.892  1.00  0.00    -0.381 A  
HETATM    7  C   UNL     1     -11.706  14.564  68.398  1.00  0.00    -0.367 A  
HETATM    8  C   UNL     1     -12.117  13.524  69.248  1.00  0.00    -0.288 A  
BRANCH   8   9
HETATM    9  O   UNL     1     -12.388  12.371  68.541  1.00  0.00    -0.102 OA 
BRANCH   9  10
HETATM   10  C   UNL     1     -11.436  11.734  67.813  1.00  0.00    -0.311 A  
HETATM   11  C   UNL     1     -11.265  11.772  66.447  1.00  0.00    -0.323 A  
HETATM   12  N   UNL     1     -10.250  11.191  65.794  1.00  0.00    -0.249 NA 
HETATM   13  N   UNL     1      -9.491  10.316  67.875  1.00  0.00    -0.141 NA 
HETATM   14  C   UNL     1      -9.360  10.512  66.548  1.00  0.00    -0.163 A  
HETATM   15  C   UNL     1     -10.538  10.911  68.472  1.00  0.00    -0.190 A  
BRANCH  11  16
HETATM   16  N   UNL     1     -12.113  12.426  65.520  1.00  0.00    -0.411 N  
HETATM   17  H   UNL     1     -13.126  12.357  65.616  1.00  0.00     0.000 HD 
BRANCH  16  18
HETATM   18  S   UNL     1     -11.446  13.311  64.265  1.00  0.00    -0.404 S  
HETATM   19  O   UNL     1     -10.360  12.546  63.678  1.00  0.00    -0.422 OA 
HETATM   20  O   UNL     1     -12.559  13.746  63.444  1.00  0.00    -0.842 OA 
BRANCH  18  21
HETATM   21  C   UNL     1     -10.724  14.758  64.999  1.00  0.00    -0.433 A  
HETATM   22  C   UNL     1      -9.523  17.012  66.201  1.00  0.00    -0.253 A  
HETATM   23  C   UNL     1      -9.532  14.621  65.708  1.00  0.00    -0.180 A  
HETATM   24  C   UNL     1      -8.945  15.736  66.303  1.00  0.00    -0.381 A  
HETATM   25  C   UNL     1     -10.693  17.135  65.420  1.00  0.00    -0.097 A  
HETATM   26  C   UNL     1     -11.291  16.018  64.817  1.00  0.00    -0.285 A  
BRANCH  22  27
HETATM   27  C   UNL     1      -8.934  18.226  66.945  1.00  0.00    -0.281 C  
HETATM   28  C   UNL     1      -7.912  19.022  66.099  1.00  0.00    -0.273 C  
HETATM   29  C   UNL     1      -8.192  17.741  68.208  1.00  0.00    -0.285 C  
HETATM   30  C   UNL     1     -10.049  19.208  67.358  1.00  0.00    -0.465 C  
ENDBRANCH  22  27
ENDBRANCH  18  21
ENDBRANCH  16  18
ENDBRANCH  11  16
BRANCH  14  31
HETATM   31  C   UNL     1      -8.118  10.035  65.887  1.00  0.00    -0.126 A  
HETATM   32  N   UNL     1      -7.114   9.587  66.679  1.00  0.00    -0.085 NA 
HETATM   33  N   UNL     1      -8.024  10.147  64.540  1.00  0.00    -0.148 NA 
HETATM   34  C   UNL     1      -6.858   9.773  63.985  1.00  0.00    -0.120 A  
HETATM   35  C   UNL     1      -5.969   9.240  66.068  1.00  0.00    -0.055 A  
HETATM   36  C   UNL     1      -5.785   9.311  64.709  1.00  0.00    -0.063 A  
ENDBRANCH  14  31
BRANCH  15  37
HETATM   37  O   UNL     1     -10.749  10.670  69.817  1.00  0.00    -0.256 OA 
BRANCH  37  38
HETATM   38  C   UNL     1     -10.981   9.304  70.183  1.00  0.00    -0.246 C  
BRANCH  38  39
HETATM   39  C   UNL     1     -12.290   9.173  70.956  1.00  0.00    -0.214 C  
HETATM   40  O   UNL     1     -13.255  10.102  70.471  1.00  0.00    -0.585 OA 
HETATM   41  H   UNL     1     -14.070  10.021  70.952  1.00  0.00     0.000 HD 
ENDBRANCH  38  39
ENDBRANCH  37  38
ENDBRANCH  15  37
ENDBRANCH   9  10
ENDBRANCH   8   9
ENDBRANCH   2   3
TORSDOF 11
ENDMDL
MODEL        7
REMARK 921   NORMALIZED FREE ENERGY PREDICTED BY IDOCK:   -7.05 KCAL/MOL
REMARK 922        TOTAL FREE ENERGY PREDICTED BY IDOCK:  -14.04 KCAL/MOL
REMARK 923 INTER-LIGAND FREE ENERGY PREDICTED BY IDOCK:  -12.69 KCAL/MOL
REMARK 924 INTRA-LIGAND FREE ENERGY PREDICTED BY IDOCK:   -1.35 KCAL/MOL
REMARK 927      BINDING AFFINITY PREDICTED BY RF-SCORE:    0.00 PKD
ROOT
HETATM    1  C   UNL     1      -7.033  19.697  65.456  1.00  0.00    -0.291 C  
HETATM    2  O   UNL     1      -7.686  18.430  65.538  1.00  0.00    -0.484 OA 
ENDROOT
BRANCH   2   3
HETATM    3  C   UNL     1      -7.076  17.458  66.292  1.00  0.00    -0.295 A  
HETATM    4  C   UNL     1      -5.748  17.565  66.739  1.00  0.00    -0.208 A  
HETATM    5  C   UNL     1      -5.137  16.529  67.452  1.00  0.00    -0.155 A  
HETATM    6  C   UNL     1      -5.849  15.376  67.751  1.00  0.00    -0.150 A  
HETATM    7  C   UNL     1      -7.169  15.259  67.332  1.00  0.00    -0.235 A  
HETATM    8  C   UNL     1      -7.795  16.286  66.608  1.00  0.00    -0.275 A  
BRANCH   8   9
HETATM    9  O   UNL     1      -9.077  15.933  66.236  1.00  0.00    -0.285 OA 
BRANCH   9  10
HETATM   10  C   UNL     1     -10.003  15.533  67.145  1.00  0.00    -0.242 A  
HETATM   11  C   UNL     1     -10.328  14.241  67.492  1.00  0.00    -0.248 A  
HETATM   12  N   UNL     1     -11.191  13.912  68.462  1.00  0.00    -0.255 NA 
HETATM   13  N   UNL     1     -11.627  16.232  68.780  1.00  0.00    -0.302 NA 
HETATM   14  C   UNL     1     -11.784  14.935  69.113  1.00  0.00    -0.309 A  
HETATM   15  C   UNL     1     -10.758  16.499  67.789  1.00  0.00    -0.329 A  
BRANCH  11  16
HETATM   16  N   UNL     1      -9.809  13.064  66.901  1.00  0.00    -0.235 N  
HETATM   17  H   UNL     1      -8.801  12.948  66.791  1.00  0.00     0.000 HD 
BRANCH  16  18
HETATM   18  S   UNL     1     -10.854  11.863  66.383  1.00  0.00    -0.290 S  
HETATM   19  O   UNL     1     -12.208  12.389  66.385  1.00  0.00    -0.604 OA 
HETATM   20  O   UNL     1     -10.279  11.329  65.163  1.00  0.00    -0.260 OA 
BRANCH  18  21
HETATM   21  C   UNL     1     -10.793  10.580  67.610  1.00  0.00    -0.300 A  
HETATM   22  C   UNL     1     -10.709   8.596  69.615  1.00  0.00    -0.204 A  
HETATM   23  C   UNL     1     -11.112  10.903  68.927  1.00  0.00    -0.307 A  
HETATM   24  C   UNL     1     -11.066   9.921  69.915  1.00  0.00    -0.318 A  
HETATM   25  C   UNL     1     -10.457   8.281  68.263  1.00  0.00    -0.211 A  
HETATM   26  C   UNL     1     -10.502   9.263  67.262  1.00  0.00    -0.334 A  
BRANCH  22  27
HETATM   27  C   UNL     1     -10.553   7.534  70.721  1.00  0.00    -0.227 C  
HETATM   28  C   UNL     1     -11.581   6.382  70.607  1.00  0.00    -0.412 C  
HETATM   29  C   UNL     1     -10.767   8.194  72.100  1.00  0.00    -0.360 C  
HETATM   30  C   UNL     1      -9.149   6.899  70.676  1.00  0.00    -0.155 C  
ENDBRANCH  22  27
ENDBRANCH  18  21
ENDBRANCH  16  18
ENDBRANCH  11  16
BRANCH  14  31
HETATM   31  C   UNL     1     -12.583  14.614  70.323  1.00  0.00    -0.318 A  
HETATM   32  N   UNL     1     -12.506  13.354  70.814  1.00  0.00    -0.358 NA 
HETATM   33  N   UNL     1     -13.404  15.570  70.822  1.00  0.00    -0.485 NA 
HETATM   34  C   UNL     1     -14.166  15.221  71.873  1.00  0.00    -0.581 A  
HETATM   35  C   UNL     1     -13.301  13.061  71.857  1.00  0.00    -0.446 A  
HETATM   36  C   UNL     1     -14.158  13.966  72.435  1.00  0.00    -0.586 A  
ENDBRANCH  14  31
BRANCH  15  37
HETATM   37  O   UNL     1     -10.627  17.810  67.368  1.00  0.00    -0.368 OA 
BRANCH  37  38
HETATM   38  C   UNL     1     -10.037  18.717  68.307  1.00  0.00    -0.383 C  
BRANCH  38  39
HETATM   39  C   UNL     1      -9.891  20.104  67.690  1.00  0.00    -0.429 C  
HETATM   40  O   UNL     1     -10.259  20.084  66.314  1.00  0.00    -0.459 OA 
HETATM   41  H   UNL     1     -10.168  20.948  65.929  1.00  0.00     0.000 HD 
ENDBRANCH  38  39
ENDBRANCH  37  38
ENDBRANCH  15  37
ENDBRANCH   9  10
ENDBRANCH   8   9
ENDBRANCH   2   3
TORSDOF 11
ENDMDL
MODEL        8
REMARK 921   NORMALIZED FREE ENERGY PREDICTED BY IDOCK:   -6.93 KCAL/MOL
REMARK 922        TOTAL FREE ENERGY PREDICTED BY IDOCK:  -13.85 KCAL/MOL
REMARK 923 INTER-LIGAND FREE ENERGY PREDICTED BY IDOCK:  -11.97 KCAL/MOL
REMARK 924 INTRA-LIGAND FREE ENERGY PREDICTED BY IDOCK:   -1.89 KCAL/MOL
REMARK 927      BINDING AFFINITY PREDICTED BY RF-SCORE:    0.00 PKD
ROOT
HETATM    1  C   UNL     1      -7.943   9.756  69.607  1.00  0.00    -0.150 C  
HETATM    2  O   UNL     1      -9.197   9.528  68.964  1.00  0.00    -0.146 OA 
ENDROOT
BRANCH   2   3
HETATM    3  C   UNL     1      -9.221   9.594  67.593  1.00  0.00    -0.130 A  
HETATM    4  C   UNL     1      -8.086   9.349  66.801  1.00  0.00    -0.109 A  
HETATM    5  C   UNL     1      -8.130   9.486  65.410  1.00  0.00    -0.125 A  
HETATM    6  C   UNL     1      -9.313   9.849  64.784  1.00  0.00    -0.339 A  
HETATM    7  C   UNL     1     -10.450  10.079  65.549  1.00  0.00    -0.008 A  
HETATM    8  C   UNL     1     -10.423   9.954  66.947  1.00  0.00    -0.215 A  
BRANCH   8   9
HETATM    9  O   UNL     1     -11.637  10.294  67.509  1.00  0.00    -0.255 OA 
BRANCH   9  10
HETATM   10  C   UNL     1     -11.760  11.326  68.382  1.00  0.00    -0.294 A  
HETATM   11  C   UNL     1     -11.721  12.672  68.095  1.00  0.00    -0.347 A  
HETATM   12  N   UNL     1     -11.938  13.644  68.991  1.00  0.00    -0.351 NA 
HETATM   13  N   UNL     1     -12.140  11.968  70.672  1.00  0.00    -0.347 NA 
HETATM   14  C   UNL     1     -12.190  13.250  70.257  1.00  0.00    -0.321 A  
HETATM   15  C   UNL     1     -11.904  11.039  69.730  1.00  0.00    -0.347 A  
BRANCH  11  16
HETATM   16  N   UNL     1     -11.458  13.245  66.828  1.00  0.00    -0.333 N  
HETATM   17  H   UNL     1     -12.227  13.464  66.196  1.00  0.00     0.000 HD 
BRANCH  16  18
HETATM   18  S   UNL     1      -9.878  13.564  66.371  1.00  0.00    -0.295 S  
HETATM   19  O   UNL     1      -8.982  12.816  67.235  1.00  0.00    -0.183 OA 
HETATM   20  O   UNL     1      -9.831  13.378  64.934  1.00  0.00    -0.168 OA 
BRANCH  18  21
HETATM   21  C   UNL     1      -9.598  15.286  66.697  1.00  0.00    -0.257 A  
HETATM   22  C   UNL     1      -9.075  18.012  67.212  1.00  0.00    -0.255 A  
HETATM   23  C   UNL     1      -8.296  15.776  66.617  1.00  0.00    -0.319 A  
HETATM   24  C   UNL     1      -8.041  17.122  66.875  1.00  0.00    -0.247 A  
HETATM   25  C   UNL     1     -10.392  17.505  67.221  1.00  0.00    -0.337 A  
HETATM   26  C   UNL     1     -10.658  16.152  66.961  1.00  0.00    -0.292 A  
BRANCH  22  27
HETATM   27  C   UNL     1      -8.784  19.474  67.602  1.00  0.00    -0.361 C  
HETATM   28  C   UNL     1      -7.973  20.240  66.530  1.00  0.00    -0.276 C  
HETATM   29  C   UNL     1      -7.950  19.502  68.901  1.00  0.00    -0.329 C  
HETATM   30  C   UNL     1     -10.096  20.252  67.825  1.00  0.00    -0.505 C  
ENDBRANCH  22  27
ENDBRANCH  18  21
ENDBRANCH  16  18
ENDBRANCH  11  16
BRANCH  14  31
HETATM   31  C   UNL     1     -12.637  14.283  71.226  1.00  0.00    -0.364 A  
HETATM   32  N   UNL     1     -11.690  14.902  71.972  1.00  0.00    -0.344 NA 
HETATM   33  N   UNL     1     -13.968  14.494  71.370  1.00  0.00    -0.382 NA 
HETATM   34  C   UNL     1     -14.338  15.383  72.307  1.00  0.00    -0.483 A  
HETATM   35  C   UNL     1     -12.122  15.771  72.900  1.00  0.00    -0.490 A  
HETATM   36  C   UNL     1     -13.449  16.055  73.113  1.00  0.00    -0.587 A  
ENDBRANCH  14  31
BRANCH  15  37
HETATM   37  O   UNL     1     -11.770   9.721  70.128  1.00  0.00    -0.221 OA 
BRANCH  37  38
HETATM   38  C   UNL     1     -11.650   9.500  71.539  1.00  0.00    -0.395 C  
BRANCH  38  39
HETATM   39  C   UNL     1     -12.969   8.991  72.113  1.00  0.00    -0.424 C  
HETATM   40  O   UNL     1     -13.785  10.078  72.537  1.00  0.00    -0.632 OA 
HETATM   41  H   UNL     1     -14.607   9.762  72.895  1.00  0.00     0.000 HD 
ENDBRANCH  38  39
ENDBRANCH  37  38
ENDBRANCH  15  37
ENDBRANCH   9  10
ENDBRANCH   8   9
ENDBRANCH   2   3
TORSDOF 11
ENDMDL
MODEL        9
REMARK 921   NORMALIZED FREE ENERGY PREDICTED BY IDOCK:   -6.71 KCAL/MOL
REMARK 922        TOTAL FREE ENERGY PREDICTED BY IDOCK:  -13.48 KCAL/MOL
REMARK 923 INTER-LIGAND FREE ENERGY PREDICTED BY IDOCK:  -11.80 KCAL/MOL
REMARK 924 INTRA-LIGAND FREE ENERGY PREDICTED BY IDOCK:   -1.68 KCAL/MOL
REMARK 927      BINDING AFFINITY PREDICTED BY RF-SCORE:    0.00 PKD
ROOT
HETATM    1  C   UNL     1      -8.057  10.593  68.942  1.00  0.00    -0.139 C  
HETATM    2  O   UNL     1      -9.405  10.940  68.626  1.00  0.00    -0.173 OA 
ENDROOT
BRANCH   2   3
HETATM    3  C   UNL     1     -10.370  10.608  69.544  1.00  0.00    -0.182 A  
HETATM    4  C   UNL     1     -10.146   9.687  70.582  1.00  0.00    -0.324 A  
HETATM    5  C   UNL     1     -11.169   9.324  71.463  1.00  0.00    -0.457 A  
HETATM    6  C   UNL     1     -12.429   9.893  71.337  1.00  0.00    -0.495 A  
HETATM    7  C   UNL     1     -12.665  10.818  70.328  1.00  0.00    -0.286 A  
HETATM    8  C   UNL     1     -11.651  11.187  69.429  1.00  0.00    -0.318 A  
BRANCH   8   9
HETATM    9  O   UNL     1     -12.120  12.063  68.471  1.00  0.00    -0.367 OA 
BRANCH   9  10
HETATM   10  C   UNL     1     -11.599  13.307  68.319  1.00  0.00    -0.334 A  
HETATM   11  C   UNL     1     -10.626  13.702  67.429  1.00  0.00    -0.259 A  
HETATM   12  N   UNL     1     -10.215  14.967  67.267  1.00  0.00    -0.240 NA 
HETATM   13  N   UNL     1     -11.674  15.605  69.038  1.00  0.00    -0.385 NA 
HETATM   14  C   UNL     1     -10.797  15.894  68.057  1.00  0.00    -0.317 A  
HETATM   15  C   UNL     1     -12.037  14.316  69.161  1.00  0.00    -0.302 A  
BRANCH  11  16
HETATM   16  N   UNL     1      -9.914  12.856  66.544  1.00  0.00    -0.253 N  
HETATM   17  H   UNL     1      -8.975  12.539  66.784  1.00  0.00     0.000 HD 
BRANCH  16  18
HETATM   18  S   UNL     1     -10.619  12.378  65.103  1.00  0.00    -0.302 S  
HETATM   19  O   UNL     1     -11.998  12.000  65.360  1.00  0.00    -0.399 OA 
HETATM   20  O   UNL     1     -10.316  13.421  64.142  1.00  0.00    -0.380 OA 
BRANCH  18  21
HETATM   21  C   UNL     1      -9.765  10.909  64.588  1.00  0.00    -0.280 A  
HETATM   22  C   UNL     1      -8.407   8.549  63.844  1.00  0.00    -0.093 A  
HETATM   23  C   UNL     1      -9.582   9.885  65.515  1.00  0.00    -0.341 A  
HETATM   24  C   UNL     1      -8.908   8.723  65.145  1.00  0.00    -0.177 A  
HETATM   25  C   UNL     1      -8.665   9.572  62.906  1.00  0.00    -0.233 A  
HETATM   26  C   UNL     1      -9.343  10.745  63.270  1.00  0.00    -0.324 A  
BRANCH  22  27
HETATM   27  C   UNL     1      -7.570   7.314  63.461  1.00  0.00    -0.117 C  
HETATM   28  C   UNL     1      -8.267   6.404  62.421  1.00  0.00    -0.066 C  
HETATM   29  C   UNL     1      -7.323   6.452  64.718  1.00  0.00    -0.076 C  
HETATM   30  C   UNL     1      -6.214   7.735  62.862  1.00  0.00    -0.071 C  
ENDBRANCH  22  27
ENDBRANCH  18  21
ENDBRANCH  16  18
ENDBRANCH  11  16
BRANCH  14  31
HETATM   31  C   UNL     1     -10.519  17.323  67.763  1.00  0.00    -0.371 A  
HETATM   32  N   UNL     1     -10.232  18.138  68.807  1.00  0.00    -0.374 NA 
HETATM   33  N   UNL     1     -10.647  17.752  66.483  1.00  0.00    -0.275 NA 
HETATM   34  C   UNL     1     -10.461  19.065  66.268  1.00  0.00    -0.457 A  
HETATM   35  C   UNL     1     -10.068  19.442  68.530  1.00  0.00    -0.437 A  
HETATM   36  C   UNL     1     -10.170  19.967  67.264  1.00  0.00    -0.572 A  
ENDBRANCH  14  31
BRANCH  15  37
HETATM   37  O   UNL     1     -12.876  13.969  70.205  1.00  0.00    -0.242 OA 
BRANCH  37  38
HETATM   38  C   UNL     1     -13.031  14.947  71.241  1.00  0.00    -0.363 C  
BRANCH  38  39
HETATM   39  C   UNL     1     -13.521  14.289  72.526  1.00  0.00    -0.515 C  
HETATM   40  O   UNL     1     -12.823  14.807  73.654  1.00  0.00    -0.505 OA 
HETATM   41  H   UNL     1     -13.129  14.397  74.456  1.00  0.00     0.000 HD 
ENDBRANCH  38  39
ENDBRANCH  37  38
ENDBRANCH  15  37
ENDBRANCH   9  10
ENDBRANCH   8   9
ENDBRANCH   2   3
TORSDOF 11
ENDMDL
MODEL       10
REMARK 921   NORMALIZED FREE ENERGY PREDICTED BY IDOCK:   -6.68 KCAL/MOL
REMARK 922        TOTAL FREE ENERGY PREDICTED BY IDOCK:  -13.43 KCAL/MOL
REMARK 923 INTER-LIGAND FREE ENERGY PREDICTED BY IDOCK:  -11.64 KCAL/MOL
REMARK 924 INTRA-LIGAND FREE ENERGY PREDICTED BY IDOCK:   -1.80 KCAL/MOL
REMARK 927      BINDING AFFINITY PREDICTED BY RF-SCORE:    0.00 PKD
ROOT
HETATM    1  C   UNL     1      -8.449   9.441  70.519  1.00  0.00    -0.212 C  
HETATM    2  O   UNL     1      -9.667   9.975  70.000  1.00  0.00    -0.235 OA 
ENDROOT
BRANCH   2   3
HETATM    3  C   UNL     1     -10.802   9.793  70.750  1.00  0.00    -0.333 A  
HETATM    4  C   UNL     1     -10.870   8.877  71.815  1.00  0.00    -0.436 A  
HETATM    5  C   UNL     1     -12.060   8.671  72.519  1.00  0.00    -0.368 A  
HETATM    6  C   UNL     1     -13.198   9.392  72.187  1.00  0.00    -0.541 A  
HETATM    7  C   UNL     1     -13.146  10.314  71.148  1.00  0.00    -0.481 A  
HETATM    8  C   UNL     1     -11.961  10.528  70.425  1.00  0.00    -0.335 A  
BRANCH   8   9
HETATM    9  O   UNL     1     -12.152  11.431  69.400  1.00  0.00    -0.315 OA 
BRANCH   9  10
HETATM   10  C   UNL     1     -11.412  12.565  69.295  1.00  0.00    -0.293 A  
HETATM   11  C   UNL     1     -10.256  12.743  68.569  1.00  0.00    -0.200 A  
HETATM   12  N   UNL     1      -9.618  13.913  68.434  1.00  0.00    -0.218 NA 
HETATM   13  N   UNL     1     -11.217  14.886  69.908  1.00  0.00    -0.268 NA 
HETATM   14  C   UNL     1     -10.156  14.969  69.081  1.00  0.00    -0.245 A  
HETATM   15  C   UNL     1     -11.805  13.682  70.014  1.00  0.00    -0.308 A  
BRANCH  11  16
HETATM   16  N   UNL     1      -9.562  11.740  67.849  1.00  0.00    -0.181 N  
HETATM   17  H   UNL     1      -8.690  11.358  68.215  1.00  0.00     0.000 HD 
BRANCH  16  18
HETATM   18  S   UNL     1     -10.178  11.185  66.394  1.00  0.00    -0.240 S  
HETATM   19  O   UNL     1     -11.615  11.390  66.386  1.00  0.00    -0.369 OA 
HETATM   20  O   UNL     1      -9.351  11.774  65.358  1.00  0.00    -0.190 OA 
BRANCH  18  21
HETATM   21  C   UNL     1      -9.902   9.432  66.367  1.00  0.00    -0.269 A  
HETATM   22  C   UNL     1      -9.521   6.635  66.381  1.00  0.00    -0.166 A  
HETATM   23  C   UNL     1     -10.765   8.611  67.092  1.00  0.00    -0.199 A  
HETATM   24  C   UNL     1     -10.570   7.231  67.099  1.00  0.00    -0.416 A  
HETATM   25  C   UNL     1      -8.704   7.482  65.600  1.00  0.00    -0.105 A  
HETATM   26  C   UNL     1      -8.893   8.872  65.587  1.00  0.00    -0.230 A  
BRANCH  22  27
HETATM   27  C   UNL     1      -9.240   5.123  66.471  1.00  0.00    -0.136 C  
HETATM   28  C   UNL     1     -10.099   4.284  65.494  1.00  0.00    -0.235 C  
HETATM   29  C   UNL     1      -9.564   4.626  67.896  1.00  0.00    -0.205 C  
HETATM   30  C   UNL     1      -7.762   4.821  66.153  1.00  0.00    -0.091 C  
ENDBRANCH  22  27
ENDBRANCH  18  21
ENDBRANCH  16  18
ENDBRANCH  11  16
BRANCH  14  31
HETATM   31  C   UNL     1      -9.599  16.315  68.789  1.00  0.00    -0.242 A  
HETATM   32  N   UNL     1      -8.251  16.449  68.766  1.00  0.00    -0.223 NA 
HETATM   33  N   UNL     1     -10.463  17.349  68.642  1.00  0.00    -0.363 NA 
HETATM   34  C   UNL     1      -9.921  18.563  68.452  1.00  0.00    -0.380 A  
HETATM   35  C   UNL     1      -7.769  17.689  68.584  1.00  0.00    -0.281 A  
HETATM   36  C   UNL     1      -8.566  18.795  68.417  1.00  0.00    -0.373 A  
ENDBRANCH  14  31
BRANCH  15  37
HETATM   37  O   UNL     1     -12.848  13.539  70.911  1.00  0.00    -0.294 OA 
BRANCH  37  38
HETATM   38  C   UNL     1     -12.814  14.397  72.058  1.00  0.00    -0.343 C  
BRANCH  38  39
HETATM   39  C   UNL     1     -14.090  15.229  72.139  1.00  0.00    -0.560 C  
HETATM   40  O   UNL     1     -14.028  16.141  73.232  1.00  0.00    -0.756 OA 
HETATM   41  H   UNL     1     -14.822  16.659  73.283  1.00  0.00     0.000 HD 
ENDBRANCH  38  39
ENDBRANCH  37  38
ENDBRANCH  15  37
ENDBRANCH   9  10
ENDBRANCH   8   9
ENDBRANCH   2   3
TORSDOF 11
ENDMDL
MODEL       11
REMARK 921   NORMALIZED FREE ENERGY PREDICTED BY IDOCK:   -6.58 KCAL/MOL
REMARK 922        TOTAL FREE ENERGY PREDICTED BY IDOCK:  -13.28 KCAL/MOL
REMARK 923 INTER-LIGAND FREE ENERGY PREDICTED BY IDOCK:  -11.11 KCAL/MOL
REMARK 924 INTRA-LIGAND FREE ENERGY PREDICTED BY IDOCK:   -2.16 KCAL/MOL
REMARK 927      BINDING AFFINITY PREDICTED BY RF-SCORE:    0.00 PKD
ROOT
HETATM    1  C   UNL     1     -11.629  15.566  70.873  1.00  0.00    -0.375 C  
HETATM    2  O   UNL     1     -11.853  14.751  69.722  1.00  0.00    -0.281 OA 
ENDROOT
BRANCH   2   3
HETATM    3  C   UNL     1     -12.092  13.416  69.936  1.00  0.00    -0.322 A  
HETATM    4  C   UNL     1     -12.657  12.927  71.126  1.00  0.00    -0.373 A  
HETATM    5  C   UNL     1     -12.831  11.556  71.336  1.00  0.00    -0.489 A  
HETATM    6  C   UNL     1     -12.465  10.649  70.351  1.00  0.00    -0.421 A  
HETATM    7  C   UNL     1     -11.920  11.116  69.160  1.00  0.00    -0.413 A  
HETATM    8  C   UNL     1     -11.731  12.489  68.936  1.00  0.00    -0.322 A  
BRANCH   8   9
HETATM    9  O   UNL     1     -11.118  12.722  67.722  1.00  0.00    -0.233 OA 
BRANCH   9  10
HETATM   10  C   UNL     1     -10.240  13.743  67.546  1.00  0.00    -0.241 A  
HETATM   11  C   UNL     1      -8.944  13.819  68.005  1.00  0.00    -0.187 A  
HETATM   12  N   UNL     1      -8.098  14.817  67.722  1.00  0.00    -0.140 NA 
HETATM   13  N   UNL     1      -9.861  15.899  66.542  1.00  0.00    -0.246 NA 
HETATM   14  C   UNL     1      -8.579  15.814  66.951  1.00  0.00    -0.247 A  
HETATM   15  C   UNL     1     -10.667  14.874  66.869  1.00  0.00    -0.308 A  
BRANCH  11  16
HETATM   16  N   UNL     1      -8.296  12.868  68.830  1.00  0.00    -0.357 N  
HETATM   17  H   UNL     1      -8.264  13.004  69.840  1.00  0.00     0.000 HD 
BRANCH  16  18
HETATM   18  S   UNL     1      -7.583  11.518  68.141  1.00  0.00    -0.121 S  
HETATM   19  O   UNL     1      -7.809  11.551  66.707  1.00  0.00    -0.155 OA 
HETATM   20  O   UNL     1      -6.233  11.465  68.667  1.00  0.00    -0.046 OA 
BRANCH  18  21
HETATM   21  C   UNL     1      -8.459  10.109  68.773  1.00  0.00    -0.131 A  
HETATM   22  C   UNL     1      -9.875   7.851  69.704  1.00  0.00    -0.179 A  
HETATM   23  C   UNL     1      -9.013   9.207  67.866  1.00  0.00    -0.131 A  
HETATM   24  C   UNL     1      -9.714   8.096  68.330  1.00  0.00    -0.175 A  
HETATM   25  C   UNL     1      -9.246   8.743  70.600  1.00  0.00    -0.233 A  
HETATM   26  C   UNL     1      -8.538   9.864  70.142  1.00  0.00    -0.141 A  
BRANCH  22  27
HETATM   27  C   UNL     1     -10.738   6.684  70.219  1.00  0.00    -0.294 C  
HETATM   28  C   UNL     1      -9.966   5.722  71.155  1.00  0.00    -0.244 C  
HETATM   29  C   UNL     1     -11.232   5.844  69.021  1.00  0.00    -0.173 C  
HETATM   30  C   UNL     1     -11.955   7.208  71.006  1.00  0.00    -0.387 C  
ENDBRANCH  22  27
ENDBRANCH  18  21
ENDBRANCH  16  18
ENDBRANCH  11  16
BRANCH  14  31
HETATM   31  C   UNL     1      -7.615  16.827  66.449  1.00  0.00    -0.290 A  
HETATM   32  N   UNL     1      -6.294  16.571  66.603  1.00  0.00    -0.288 NA 
HETATM   33  N   UNL     1      -8.106  17.984  65.940  1.00  0.00    -0.534 NA 
HETATM   34  C   UNL     1      -7.205  18.906  65.564  1.00  0.00    -0.060 A  
HETATM   35  C   UNL     1      -5.442  17.536  66.219  1.00  0.00    -0.199 A  
HETATM   36  C   UNL     1      -5.846  18.736  65.685  1.00  0.00    -0.223 A  
ENDBRANCH  14  31
BRANCH  15  37
HETATM   37  O   UNL     1     -12.006  14.960  66.534  1.00  0.00    -0.237 OA 
BRANCH  37  38
HETATM   38  C   UNL     1     -12.488  13.978  65.608  1.00  0.00    -0.504 C  
BRANCH  38  39
HETATM   39  C   UNL     1     -11.936  14.246  64.212  1.00  0.00    -0.425 C  
HETATM   40  O   UNL     1     -11.951  15.641  63.923  1.00  0.00    -0.990 OA 
HETATM   41  H   UNL     1     -11.608  15.808  63.053  1.00  0.00     0.000 HD 
ENDBRANCH  38  39
ENDBRANCH  37  38
ENDBRANCH  15  37
ENDBRANCH   9  10
ENDBRANCH   8   9
ENDBRANCH   2   3
TORSDOF 11
ENDMDL
MODEL       12
REMARK 921   NORMALIZED FREE ENERGY PREDICTED BY IDOCK:   -6.57 KCAL/MOL
REMARK 922        TOTAL FREE ENERGY PREDICTED BY IDOCK:  -13.26 KCAL/MOL
REMARK 923 INTER-LIGAND FREE ENERGY PREDICTED BY IDOCK:  -11.85 KCAL/MOL
REMARK 924 INTRA-LIGAND FREE ENERGY PREDICTED BY IDOCK:   -1.41 KCAL/MOL
REMARK 927      BINDING AFFINITY PREDICTED BY RF-SCORE:    0.00 PKD
ROOT
HETATM    1  C   UNL     1     -12.345  14.403  70.582  1.00  0.00    -0.351 C  
HETATM    2  O   UNL     1     -12.207  13.461  69.518  1.00  0.00    -0.286 OA 
ENDROOT
BRANCH   2   3
HETATM    3  C   UNL     1     -11.871  12.174  69.858  1.00  0.00    -0.319 A  
HETATM    4  C   UNL     1     -12.509  11.472  70.895  1.00  0.00    -0.464 A  
HETATM    5  C   UNL     1     -12.101  10.184  71.257  1.00  0.00    -0.489 A  
HETATM    6  C   UNL     1     -11.064   9.566  70.573  1.00  0.00    -0.342 A  
HETATM    7  C   UNL     1     -10.433  10.238  69.533  1.00  0.00    -0.268 A  
HETATM    8  C   UNL     1     -10.824  11.534  69.163  1.00  0.00    -0.195 A  
BRANCH   8   9
HETATM    9  O   UNL     1     -10.022  12.035  68.157  1.00  0.00    -0.191 OA 
BRANCH   9  10
HETATM   10  C   UNL     1     -10.088  13.333  67.766  1.00  0.00    -0.229 A  
HETATM   11  C   UNL     1     -11.056  13.921  66.982  1.00  0.00    -0.301 A  
HETATM   12  N   UNL     1     -11.113  15.229  66.702  1.00  0.00    -0.309 NA 
HETATM   13  N   UNL     1      -9.077  15.515  67.904  1.00  0.00    -0.175 NA 
HETATM   14  C   UNL     1     -10.132  15.998  67.220  1.00  0.00    -0.266 A  
HETATM   15  C   UNL     1      -9.067  14.191  68.141  1.00  0.00    -0.193 A  
BRANCH  11  16
HETATM   16  N   UNL     1     -12.138  13.255  66.357  1.00  0.00    -0.407 N  
HETATM   17  H   UNL     1     -12.951  12.974  66.905  1.00  0.00     0.000 HD 
BRANCH  16  18
HETATM   18  S   UNL     1     -12.079  12.931  64.715  1.00  0.00    -0.450 S  
HETATM   19  O   UNL     1     -13.342  12.340  64.310  1.00  0.00    -0.777 OA 
HETATM   20  O   UNL     1     -11.606  14.148  64.082  1.00  0.00    -0.332 OA 
BRANCH  18  21
HETATM   21  C   UNL     1     -10.828  11.691  64.492  1.00  0.00    -0.324 A  
HETATM   22  C   UNL     1      -8.859   9.689  64.208  1.00  0.00    -0.260 A  
HETATM   23  C   UNL     1     -10.735  10.664  65.429  1.00  0.00    -0.106 A  
HETATM   24  C   UNL     1      -9.759   9.679  65.287  1.00  0.00    -0.330 A  
HETATM   25  C   UNL     1      -9.019  10.701  63.237  1.00  0.00    -0.229 A  
HETATM   26  C   UNL     1     -10.000  11.695  63.372  1.00  0.00    -0.447 A  
BRANCH  22  27
HETATM   27  C   UNL     1      -7.713   8.664  64.105  1.00  0.00    -0.129 C  
HETATM   28  C   UNL     1      -6.336   9.315  63.834  1.00  0.00    -0.090 C  
HETATM   29  C   UNL     1      -7.992   7.698  62.934  1.00  0.00    -0.120 C  
HETATM   30  C   UNL     1      -7.586   7.853  65.410  1.00  0.00    -0.084 C  
ENDBRANCH  22  27
ENDBRANCH  18  21
ENDBRANCH  16  18
ENDBRANCH  11  16
BRANCH  14  31
HETATM   31  C   UNL     1     -10.277  17.472  67.105  1.00  0.00    -0.323 A  
HETATM   32  N   UNL     1     -10.371  18.003  65.862  1.00  0.00    -0.591 NA 
HETATM   33  N   UNL     1     -10.226  18.212  68.240  1.00  0.00    -0.376 NA 
HETATM   34  C   UNL     1     -10.286  19.546  68.091  1.00  0.00    -0.433 A  
HETATM   35  C   UNL     1     -10.416  19.343  65.777  1.00  0.00    -0.392 A  
HETATM   36  C   UNL     1     -10.379  20.173  66.871  1.00  0.00    -0.503 A  
ENDBRANCH  14  31
BRANCH  15  37
HETATM   37  O   UNL     1      -7.964  13.646  68.772  1.00  0.00    -0.117 OA 
BRANCH  37  38
HETATM   38  C   UNL     1      -6.703  13.848  68.122  1.00  0.00    -0.125 C  
BRANCH  38  39
HETATM   39  C   UNL     1      -6.198  12.541  67.520  1.00  0.00    -0.155 C  
HETATM   40  O   UNL     1      -7.091  12.072  66.515  1.00  0.00    -0.373 OA 
HETATM   41  H   UNL     1      -6.776  11.258  66.139  1.00  0.00     0.000 HD 
ENDBRANCH  38  39
ENDBRANCH  37  38
ENDBRANCH  15  37
ENDBRANCH   9  10
ENDBRANCH   8   9
ENDBRANCH   2   3
TORSDOF 11
ENDMDL
MODEL       13
REMARK 921   NORMALIZED FREE ENERGY PREDICTED BY IDOCK:   -6.42 KCAL/MOL
REMARK 922        TOTAL FREE ENERGY PREDICTED BY IDOCK:  -13.02 KCAL/MOL
REMARK 923 INTER-LIGAND FREE ENERGY PREDICTED BY IDOCK:  -10.99 KCAL/MOL
REMARK 924 INTRA-LIGAND FREE ENERGY PREDICTED BY IDOCK:   -2.03 KCAL/MOL
REMARK 927      BINDING AFFINITY PREDICTED BY RF-SCORE:    0.00 PKD
ROOT
HETATM    1  C   UNL     1      -7.470   9.612  63.578  1.00  0.00    -0.120 C  
HETATM    2  O   UNL     1      -7.263   9.262  64.947  1.00  0.00    -0.098 OA 
ENDROOT
BRANCH   2   3
HETATM    3  C   UNL     1      -8.329   8.722  65.624  1.00  0.00    -0.138 A  
HETATM    4  C   UNL     1      -8.497   7.337  65.793  1.00  0.00    -0.148 A  
HETATM    5  C   UNL     1      -9.626   6.817  66.435  1.00  0.00    -0.149 A  
HETATM    6  C   UNL     1     -10.596   7.673  66.938  1.00  0.00    -0.359 A  
HETATM    7  C   UNL     1     -10.437   9.046  66.795  1.00  0.00    -0.270 A  
HETATM    8  C   UNL     1      -9.314   9.585  66.147  1.00  0.00    -0.198 A  
BRANCH   8   9
HETATM    9  O   UNL     1      -9.394  10.959  66.057  1.00  0.00    -0.177 OA 
BRANCH   9  10
HETATM   10  C   UNL     1     -10.061  11.701  66.978  1.00  0.00    -0.209 A  
HETATM   11  C   UNL     1     -11.246  12.380  66.805  1.00  0.00    -0.310 A  
HETATM   12  N   UNL     1     -11.900  13.023  67.780  1.00  0.00    -0.358 NA 
HETATM   13  N   UNL     1     -10.116  12.474  69.259  1.00  0.00     0.342 NA 
HETATM   14  C   UNL     1     -11.326  13.008  69.001  1.00  0.00    -0.289 A  
HETATM   15  C   UNL     1      -9.501  11.854  68.236  1.00  0.00    -0.197 A  
BRANCH  11  16
HETATM   16  N   UNL     1     -11.965  12.502  65.591  1.00  0.00    -0.440 N  
HETATM   17  H   UNL     1     -12.853  12.014  65.471  1.00  0.00     0.000 HD 
BRANCH  16  18
HETATM   18  S   UNL     1     -11.354  13.450  64.354  1.00  0.00    -0.396 S  
HETATM   19  O   UNL     1     -10.303  12.712  63.676  1.00  0.00    -0.399 OA 
HETATM   20  O   UNL     1     -12.503  13.933  63.612  1.00  0.00    -0.768 OA 
BRANCH  18  21
HETATM   21  C   UNL     1     -10.588  14.853  65.127  1.00  0.00    -0.428 A  
HETATM   22  C   UNL     1      -9.425  17.129  66.325  1.00  0.00    -0.267 A  
HETATM   23  C   UNL     1     -11.236  16.085  65.063  1.00  0.00    -0.266 A  
HETATM   24  C   UNL     1     -10.656  17.207  65.652  1.00  0.00    -0.187 A  
HETATM   25  C   UNL     1      -8.824  15.857  66.434  1.00  0.00    -0.368 A  
HETATM   26  C   UNL     1      -9.400  14.722  65.844  1.00  0.00    -0.189 A  
BRANCH  22  27
HETATM   27  C   UNL     1      -8.732  18.386  66.884  1.00  0.00    -0.275 C  
HETATM   28  C   UNL     1      -9.290  19.704  66.294  1.00  0.00    -0.453 C  
HETATM   29  C   UNL     1      -7.228  18.339  66.538  1.00  0.00    -0.264 C  
HETATM   30  C   UNL     1      -8.897  18.466  68.415  1.00  0.00    -0.340 C  
ENDBRANCH  22  27
ENDBRANCH  18  21
ENDBRANCH  16  18
ENDBRANCH  11  16
BRANCH  14  31
HETATM   31  C   UNL     1     -12.119  13.529  70.144  1.00  0.00    -0.354 A  
HETATM   32  N   UNL     1     -12.584  12.636  71.050  1.00  0.00    -0.330 NA 
HETATM   33  N   UNL     1     -12.403  14.855  70.177  1.00  0.00    -0.328 NA 
HETATM   34  C   UNL     1     -13.184  15.278  71.185  1.00  0.00    -0.498 A  
HETATM   35  C   UNL     1     -13.369  13.118  72.028  1.00  0.00    -0.493 A  
HETATM   36  C   UNL     1     -13.704  14.445  72.147  1.00  0.00    -0.557 A  
ENDBRANCH  14  31
BRANCH  15  37
HETATM   37  O   UNL     1      -8.225  11.361  68.440  1.00  0.00    -0.137 OA 
BRANCH  37  38
HETATM   38  C   UNL     1      -7.184  12.340  68.562  1.00  0.00    -0.103 C  
BRANCH  38  39
HETATM   39  C   UNL     1      -6.032  12.012  67.618  1.00  0.00    -0.093 C  
HETATM   40  O   UNL     1      -6.514  11.769  66.301  1.00  0.00    -0.377 OA 
HETATM   41  H   UNL     1      -5.796  11.564  65.712  1.00  0.00     0.000 HD 
ENDBRANCH  38  39
ENDBRANCH  37  38
ENDBRANCH  15  37
ENDBRANCH   9  10
ENDBRANCH   8   9
ENDBRANCH   2   3
TORSDOF 11
ENDMDL
MODEL       14
REMARK 921   NORMALIZED FREE ENERGY PREDICTED BY IDOCK:   -6.42 KCAL/MOL
REMARK 922        TOTAL FREE ENERGY PREDICTED BY IDOCK:  -13.01 KCAL/MOL
REMARK 923 INTER-LIGAND FREE ENERGY PREDICTED BY IDOCK:  -11.27 KCAL/MOL
REMARK 924 INTRA-LIGAND FREE ENERGY PREDICTED BY IDOCK:   -1.73 KCAL/MOL
REMARK 927      BINDING AFFINITY PREDICTED BY RF-SCORE:    0.00 PKD
ROOT
HETATM    1  C   UNL     1     -12.021  15.248  72.500  1.00  0.00    -0.424 C  
HETATM    2  O   UNL     1     -12.407  14.821  71.194  1.00  0.00    -0.291 OA 
ENDROOT
BRANCH   2   3
HETATM    3  C   UNL     1     -12.456  13.468  70.965  1.00  0.00    -0.369 A  
HETATM    4  C   UNL     1     -13.118  12.576  71.825  1.00  0.00    -0.450 A  
HETATM    5  C   UNL     1     -13.096  11.196  71.596  1.00  0.00    -0.529 A  
HETATM    6  C   UNL     1     -12.432  10.686  70.490  1.00  0.00    -0.445 A  
HETATM    7  C   UNL     1     -11.786  11.554  69.618  1.00  0.00    -0.419 A  
HETATM    8  C   UNL     1     -11.791  12.941  69.838  1.00  0.00    -0.303 A  
BRANCH   8   9
HETATM    9  O   UNL     1     -11.035  13.605  68.893  1.00  0.00    -0.245 OA 
BRANCH   9  10
HETATM   10  C   UNL     1     -10.455  12.954  67.852  1.00  0.00    -0.224 A  
HETATM   11  C   UNL     1      -9.233  12.320  67.841  1.00  0.00    -0.190 A  
HETATM   12  N   UNL     1      -8.753  11.619  66.805  1.00  0.00    -0.184 NA 
HETATM   13  N   UNL     1     -10.690  12.238  65.564  1.00  0.00    -0.270 NA 
HETATM   14  C   UNL     1      -9.531  11.563  65.704  1.00  0.00    -0.222 A  
HETATM   15  C   UNL     1     -11.113  12.936  66.633  1.00  0.00    -0.284 A  
BRANCH  11  16
HETATM   16  N   UNL     1      -8.298  12.295  68.903  1.00  0.00    -0.351 N  
HETATM   17  H   UNL     1      -8.190  13.108  69.509  1.00  0.00     0.000 HD 
BRANCH  16  18
HETATM   18  S   UNL     1      -7.371  10.924  69.164  1.00  0.00    -0.126 S  
HETATM   19  O   UNL     1      -6.823  10.484  67.893  1.00  0.00    -0.068 OA 
HETATM   20  O   UNL     1      -6.488  11.241  70.269  1.00  0.00    -0.207 OA 
BRANCH  18  21
HETATM   21  C   UNL     1      -8.488   9.659  69.715  1.00  0.00    -0.190 A  
HETATM   22  C   UNL     1     -10.236   7.657  70.666  1.00  0.00    -0.199 A  
HETATM   23  C   UNL     1      -8.603   9.423  71.084  1.00  0.00     0.052 A  
HETATM   24  C   UNL     1      -9.464   8.431  71.549  1.00  0.00    -0.267 A  
HETATM   25  C   UNL     1     -10.152   7.963  69.290  1.00  0.00    -0.197 A  
HETATM   26  C   UNL     1      -9.288   8.961  68.814  1.00  0.00    -0.137 A  
BRANCH  22  27
HETATM   27  C   UNL     1     -11.108   6.491  71.168  1.00  0.00    -0.332 C  
HETATM   28  C   UNL     1     -12.625   6.749  71.003  1.00  0.00    -0.259 C  
HETATM   29  C   UNL     1     -10.851   6.270  72.674  1.00  0.00    -0.273 C  
HETATM   30  C   UNL     1     -10.780   5.194  70.403  1.00  0.00    -0.129 C  
ENDBRANCH  22  27
ENDBRANCH  18  21
ENDBRANCH  16  18
ENDBRANCH  11  16
BRANCH  14  31
HETATM   31  C   UNL     1      -9.129  10.629  64.621  1.00  0.00    -0.211 A  
HETATM   32  N   UNL     1      -9.554  10.901  63.363  1.00  0.00    -0.297 NA 
HETATM   33  N   UNL     1      -8.432   9.517  64.958  1.00  0.00    -0.144 NA 
HETATM   34  C   UNL     1      -8.150   8.659  63.963  1.00  0.00    -0.163 A  
HETATM   35  C   UNL     1      -9.251  10.001  62.414  1.00  0.00    -0.296 A  
HETATM   36  C   UNL     1      -8.541   8.850  62.659  1.00  0.00    -0.182 A  
ENDBRANCH  14  31
BRANCH  15  37
HETATM   37  O   UNL     1     -12.256  13.703  66.503  1.00  0.00    -0.419 OA 
BRANCH  37  38
HETATM   38  C   UNL     1     -12.532  14.206  65.189  1.00  0.00    -0.439 C  
BRANCH  38  39
HETATM   39  C   UNL     1     -11.609  15.375  64.862  1.00  0.00    -0.248 C  
HETATM   40  O   UNL     1     -12.010  16.007  63.650  1.00  0.00    -1.344 OA 
HETATM   41  H   UNL     1     -11.435  16.736  63.446  1.00  0.00     0.000 HD 
ENDBRANCH  38  39
ENDBRANCH  37  38
ENDBRANCH  15  37
ENDBRANCH   9  10
ENDBRANCH   8   9
ENDBRANCH   2   3
TORSDOF 11
ENDMDL
MODEL       15
REMARK 921   NORMALIZED FREE ENERGY PREDICTED BY IDOCK:   -6.38 KCAL/MOL
REMARK 922        TOTAL FREE ENERGY PREDICTED BY IDOCK:  -12.94 KCAL/MOL
REMARK 923 INTER-LIGAND FREE ENERGY PREDICTED BY IDOCK:  -11.05 KCAL/MOL
REMARK 924 INTRA-LIGAND FREE ENERGY PREDICTED BY IDOCK:   -1.89 KCAL/MOL
REMARK 927      BINDING AFFINITY PREDICTED BY RF-SCORE:    0.00 PKD
ROOT
HETATM    1  C   UNL     1      -6.757  10.333  63.389  1.00  0.00    -0.096 C  
HETATM    2  O   UNL     1      -7.939  10.879  63.974  1.00  0.00     0.129 OA 
ENDROOT
BRANCH   2   3
HETATM    3  C   UNL     1      -8.609  10.097  64.882  1.00  0.00    -0.178 A  
HETATM    4  C   UNL     1      -8.520   8.694  64.887  1.00  0.00    -0.180 A  
HETATM    5  C   UNL     1      -9.264   7.924  65.786  1.00  0.00    -0.033 A  
HETATM    6  C   UNL     1     -10.093   8.543  66.712  1.00  0.00    -0.369 A  
HETATM    7  C   UNL     1     -10.181   9.929  66.733  1.00  0.00    -0.301 A  
HETATM    8  C   UNL     1      -9.447  10.718  65.832  1.00  0.00    -0.197 A  
BRANCH   8   9
HETATM    9  O   UNL     1      -9.736  12.059  65.983  1.00  0.00    -0.232 OA 
BRANCH   9  10
HETATM   10  C   UNL     1     -10.272  12.553  67.129  1.00  0.00    -0.217 A  
HETATM   11  C   UNL     1      -9.637  12.729  68.338  1.00  0.00    -0.175 A  
HETATM   12  N   UNL     1     -10.197  13.305  69.410  1.00  0.00     0.374 NA 
HETATM   13  N   UNL     1     -12.228  13.488  68.178  1.00  0.00    -0.230 NA 
HETATM   14  C   UNL     1     -11.477  13.712  69.275  1.00  0.00    -0.291 A  
HETATM   15  C   UNL     1     -11.615  12.893  67.140  1.00  0.00    -0.363 A  
BRANCH  11  16
HETATM   16  N   UNL     1      -8.309  12.348  68.645  1.00  0.00    -0.345 N  
HETATM   17  H   UNL     1      -8.124  11.445  69.081  1.00  0.00     0.000 HD 
BRANCH  16  18
HETATM   18  S   UNL     1      -7.043  13.385  68.290  1.00  0.00    -0.126 S  
HETATM   19  O   UNL     1      -6.187  13.494  69.459  1.00  0.00    -0.105 OA 
HETATM   20  O   UNL     1      -6.497  12.933  67.025  1.00  0.00    -0.178 OA 
BRANCH  18  21
HETATM   21  C   UNL     1      -7.764  14.985  68.022  1.00  0.00    -0.123 A  
HETATM   22  C   UNL     1      -8.909  17.515  67.518  1.00  0.00    -0.229 A  
HETATM   23  C   UNL     1      -8.169  15.325  66.733  1.00  0.00    -0.215 A  
HETATM   24  C   UNL     1      -8.731  16.577  66.487  1.00  0.00    -0.317 A  
HETATM   25  C   UNL     1      -8.553  17.120  68.825  1.00  0.00    -0.236 A  
HETATM   26  C   UNL     1      -7.987  15.862  69.081  1.00  0.00    -0.233 A  
BRANCH  22  27
HETATM   27  C   UNL     1      -9.430  18.937  67.232  1.00  0.00    -0.336 C  
HETATM   28  C   UNL     1     -10.134  19.584  68.449  1.00  0.00    -0.546 C  
HETATM   29  C   UNL     1     -10.468  18.882  66.089  1.00  0.00    -0.521 C  
HETATM   30  C   UNL     1      -8.275  19.871  66.822  1.00  0.00    -0.357 C  
ENDBRANCH  22  27
ENDBRANCH  18  21
ENDBRANCH  16  18
ENDBRANCH  11  16
BRANCH  14  31
HETATM   31  C   UNL     1     -12.059  14.536  70.366  1.00  0.00    -0.322 A  
HETATM   32  N   UNL     1     -11.285  15.509  70.904  1.00  0.00    -0.348 NA 
HETATM   33  N   UNL     1     -13.297  14.219  70.818  1.00  0.00    -0.222 NA 
HETATM   34  C   UNL     1     -13.761  14.938  71.854  1.00  0.00    -0.429 A  
HETATM   35  C   UNL     1     -11.799  16.185  71.945  1.00  0.00    -0.525 A  
HETATM   36  C   UNL     1     -13.047  15.941  72.465  1.00  0.00    -0.536 A  
ENDBRANCH  14  31
BRANCH  15  37
HETATM   37  O   UNL     1     -12.371  12.576  66.026  1.00  0.00    -0.615 OA 
BRANCH  37  38
HETATM   38  C   UNL     1     -12.980  13.680  65.345  1.00  0.00    -0.276 C  
BRANCH  38  39
HETATM   39  C   UNL     1     -12.001  14.303  64.356  1.00  0.00    -0.456 C  
HETATM   40  O   UNL     1     -12.325  13.929  63.021  1.00  0.00    -1.101 OA 
HETATM   41  H   UNL     1     -11.715  14.317  62.405  1.00  0.00     0.000 HD 
ENDBRANCH  38  39
ENDBRANCH  37  38
ENDBRANCH  15  37
ENDBRANCH   9  10
ENDBRANCH   8   9
ENDBRANCH   2   3
TORSDOF 11
ENDMDL
MODEL       16
REMARK 921   NORMALIZED FREE ENERGY PREDICTED BY IDOCK:   -6.36 KCAL/MOL
REMARK 922        TOTAL FREE ENERGY PREDICTED BY IDOCK:  -12.91 KCAL/MOL
REMARK 923 INTER-LIGAND FREE ENERGY PREDICTED BY IDOCK:  -11.59 KCAL/MOL
REMARK 924 INTRA-LIGAND FREE ENERGY PREDICTED BY IDOCK:   -1.32 KCAL/MOL
REMARK 927      BINDING AFFINITY PREDICTED BY RF-SCORE:    0.00 PKD
ROOT
HETATM    1  C   UNL     1      -9.746   7.539  73.370  1.00  0.00    -0.291 C  
HETATM    2  O   UNL     1     -10.316   7.645  72.065  1.00  0.00    -0.196 OA 
ENDROOT
BRANCH   2   3
HETATM    3  C   UNL     1     -11.367   8.515  71.909  1.00  0.00    -0.329 A  
HETATM    4  C   UNL     1     -12.641   8.270  72.449  1.00  0.00    -0.323 A  
HETATM    5  C   UNL     1     -13.706   9.147  72.218  1.00  0.00    -0.548 A  
HETATM    6  C   UNL     1     -13.512  10.295  71.463  1.00  0.00    -0.336 A  
HETATM    7  C   UNL     1     -12.254  10.562  70.936  1.00  0.00    -0.490 A  
HETATM    8  C   UNL     1     -11.176   9.689  71.150  1.00  0.00    -0.384 A  
BRANCH   8   9
HETATM    9  O   UNL     1     -10.044  10.110  70.482  1.00  0.00    -0.142 OA 
BRANCH   9  10
HETATM   10  C   UNL     1     -10.040  10.326  69.142  1.00  0.00    -0.218 A  
HETATM   11  C   UNL     1     -10.082  11.538  68.491  1.00  0.00    -0.207 A  
HETATM   12  N   UNL     1      -9.986  11.689  67.164  1.00  0.00    -0.198 NA 
HETATM   13  N   UNL     1      -9.923   9.317  66.958  1.00  0.00    -0.206 NA 
HETATM   14  C   UNL     1      -9.861  10.558  66.437  1.00  0.00    -0.210 A  
HETATM   15  C   UNL     1     -10.034   9.229  68.295  1.00  0.00    -0.173 A  
BRANCH  11  16
HETATM   16  N   UNL     1     -10.222  12.807  69.103  1.00  0.00    -0.413 N  
HETATM   17  H   UNL     1      -9.482  13.170  69.705  1.00  0.00     0.000 HD 
BRANCH  16  18
HETATM   18  S   UNL     1     -11.606  13.711  68.835  1.00  0.00    -0.345 S  
HETATM   19  O   UNL     1     -12.373  13.087  67.772  1.00  0.00    -0.144 OA 
HETATM   20  O   UNL     1     -12.205  13.924  70.139  1.00  0.00    -0.324 OA 
BRANCH  18  21
HETATM   21  C   UNL     1     -11.066  15.290  68.230  1.00  0.00    -0.300 A  
HETATM   22  C   UNL     1     -10.220  17.831  67.339  1.00  0.00    -0.353 A  
HETATM   23  C   UNL     1     -10.914  16.336  69.139  1.00  0.00    -0.324 A  
HETATM   24  C   UNL     1     -10.500  17.590  68.694  1.00  0.00    -0.338 A  
HETATM   25  C   UNL     1     -10.316  16.738  66.451  1.00  0.00    -0.309 A  
HETATM   26  C   UNL     1     -10.731  15.472  66.890  1.00  0.00    -0.317 A  
BRANCH  22  27
HETATM   27  C   UNL     1      -9.865  19.241  66.828  1.00  0.00    -0.430 C  
HETATM   28  C   UNL     1      -8.376  19.389  66.432  1.00  0.00    -0.342 C  
HETATM   29  C   UNL     1     -10.138  20.274  67.943  1.00  0.00    -0.476 C  
HETATM   30  C   UNL     1     -10.706  19.601  65.587  1.00  0.00    -0.428 C  
ENDBRANCH  22  27
ENDBRANCH  18  21
ENDBRANCH  16  18
ENDBRANCH  11  16
BRANCH  14  31
HETATM   31  C   UNL     1      -9.545  10.697  64.992  1.00  0.00    -0.265 A  
HETATM   32  N   UNL     1      -8.412  10.113  64.534  1.00  0.00    -0.169 NA 
HETATM   33  N   UNL     1     -10.361  11.465  64.228  1.00  0.00    -0.299 NA 
HETATM   34  C   UNL     1     -10.003  11.627  62.943  1.00  0.00    -0.153 A  
HETATM   35  C   UNL     1      -8.102  10.321  63.244  1.00  0.00    -0.157 A  
HETATM   36  C   UNL     1      -8.871  11.076  62.392  1.00  0.00    -0.358 A  
ENDBRANCH  14  31
BRANCH  15  37
HETATM   37  O   UNL     1     -10.178   7.975  68.860  1.00  0.00    -0.201 OA 
BRANCH  37  38
HETATM   38  C   UNL     1      -9.669   6.877  68.092  1.00  0.00    -0.131 C  
BRANCH  38  39
HETATM   39  C   UNL     1     -10.711   5.768  67.993  1.00  0.00    -0.209 C  
HETATM   40  O   UNL     1     -11.207   5.660  66.663  1.00  0.00    -0.555 OA 
HETATM   41  H   UNL     1     -11.856   4.968  66.601  1.00  0.00     0.000 HD 
ENDBRANCH  38  39
ENDBRANCH  37  38
ENDBRANCH  15  37
ENDBRANCH   9  10
ENDBRANCH   8   9
ENDBRANCH   2   3
TORSDOF 11
ENDMDL
MODEL       17
REMARK 921   NORMALIZED FREE ENERGY PREDICTED BY IDOCK:   -6.35 KCAL/MOL
REMARK 922        TOTAL FREE ENERGY PREDICTED BY IDOCK:  -12.90 KCAL/MOL
REMARK 923 INTER-LIGAND FREE ENERGY PREDICTED BY IDOCK:  -10.35 KCAL/MOL
REMARK 924 INTRA-LIGAND FREE ENERGY PREDICTED BY IDOCK:   -2.55 KCAL/MOL
REMARK 927      BINDING AFFINITY PREDICTED BY RF-SCORE:    0.00 PKD
ROOT
HETATM    1  C   UNL     1      -9.397  10.461  63.436  1.00  0.00    -0.300 C  
HETATM    2  O   UNL     1      -9.073  10.856  64.769  1.00  0.00    -0.200 OA 
ENDROOT
BRANCH   2   3
HETATM    3  C   UNL     1      -7.803  10.580  65.213  1.00  0.00    -0.100 A  
HETATM    4  C   UNL     1      -6.904   9.778  64.491  1.00  0.00    -0.118 A  
HETATM    5  C   UNL     1      -5.640   9.465  65.002  1.00  0.00    -0.057 A  
HETATM    6  C   UNL     1      -5.244   9.968  66.233  1.00  0.00    -0.043 A  
HETATM    7  C   UNL     1      -6.114  10.778  66.954  1.00  0.00    -0.071 A  
HETATM    8  C   UNL     1      -7.389  11.095  66.460  1.00  0.00    -0.129 A  
BRANCH   8   9
HETATM    9  O   UNL     1      -8.107  11.851  67.364  1.00  0.00    -0.147 OA 
BRANCH   9  10
HETATM   10  C   UNL     1      -8.286  13.186  67.201  1.00  0.00    -0.120 A  
HETATM   11  C   UNL     1      -9.291  13.814  66.500  1.00  0.00    -0.233 A  
HETATM   12  N   UNL     1      -9.464  15.142  66.449  1.00  0.00    -0.276 NA 
HETATM   13  N   UNL     1      -7.481  15.390  67.745  1.00  0.00    -0.141 NA 
HETATM   14  C   UNL     1      -8.566  15.891  67.122  1.00  0.00    -0.196 A  
HETATM   15  C   UNL     1      -7.354  14.052  67.750  1.00  0.00    -0.167 A  
BRANCH  11  16
HETATM   16  N   UNL     1     -10.298  13.176  65.737  1.00  0.00    -0.285 N  
HETATM   17  H   UNL     1     -10.107  12.885  64.778  1.00  0.00     0.000 HD 
BRANCH  16  18
HETATM   18  S   UNL     1     -11.805  12.901  66.413  1.00  0.00    -0.402 S  
HETATM   19  O   UNL     1     -12.276  14.133  67.022  1.00  0.00    -0.432 OA 
HETATM   20  O   UNL     1     -12.593  12.247  65.386  1.00  0.00    -0.572 OA 
BRANCH  18  21
HETATM   21  C   UNL     1     -11.561  11.731  67.726  1.00  0.00    -0.304 A  
HETATM   22  C   UNL     1     -11.150   9.819  69.761  1.00  0.00    -0.272 A  
HETATM   23  C   UNL     1     -10.961  10.510  67.427  1.00  0.00    -0.352 A  
HETATM   24  C   UNL     1     -10.763   9.567  68.434  1.00  0.00    -0.230 A  
HETATM   25  C   UNL     1     -11.693  11.089  70.049  1.00  0.00    -0.437 A  
HETATM   26  C   UNL     1     -11.895  12.045  69.042  1.00  0.00    -0.372 A  
BRANCH  22  27
HETATM   27  C   UNL     1     -11.029   8.739  70.854  1.00  0.00    -0.315 C  
HETATM   28  C   UNL     1     -12.078   8.894  71.981  1.00  0.00    -0.442 C  
HETATM   29  C   UNL     1      -9.639   8.835  71.517  1.00  0.00    -0.354 C  
HETATM   30  C   UNL     1     -11.208   7.331  70.253  1.00  0.00    -0.287 C  
ENDBRANCH  22  27
ENDBRANCH  18  21
ENDBRANCH  16  18
ENDBRANCH  11  16
BRANCH  14  31
HETATM   31  C   UNL     1      -8.843  17.344  67.259  1.00  0.00    -0.232 A  
HETATM   32  N   UNL     1      -8.669  18.126  66.166  1.00  0.00    -0.492 NA 
HETATM   33  N   UNL     1      -9.175  17.821  68.484  1.00  0.00    -0.280 NA 
HETATM   34  C   UNL     1      -9.347  19.150  68.585  1.00  0.00    -0.388 A  
HETATM   35  C   UNL     1      -8.844  19.448  66.334  1.00  0.00    -0.359 A  
HETATM   36  C   UNL     1      -9.189  20.021  67.533  1.00  0.00    -0.475 A  
ENDBRANCH  14  31
BRANCH  15  37
HETATM   37  O   UNL     1      -6.215  13.503  68.311  1.00  0.00    -0.084 OA 
BRANCH  37  38
HETATM   38  C   UNL     1      -6.125  13.566  69.740  1.00  0.00    -0.127 C  
BRANCH  38  39
HETATM   39  C   UNL     1      -5.930  12.171  70.324  1.00  0.00    -0.137 C  
HETATM   40  O   UNL     1      -7.116  11.395  70.181  1.00  0.00    -0.429 OA 
HETATM   41  H   UNL     1      -6.995  10.525  70.545  1.00  0.00     0.000 HD 
ENDBRANCH  38  39
ENDBRANCH  37  38
ENDBRANCH  15  37
ENDBRANCH   9  10
ENDBRANCH   8   9
ENDBRANCH   2   3
TORSDOF 11
ENDMDL
MODEL       18
REMARK 921   NORMALIZED FREE ENERGY PREDICTED BY IDOCK:   -6.34 KCAL/MOL
REMARK 922        TOTAL FREE ENERGY PREDICTED BY IDOCK:  -12.88 KCAL/MOL
REMARK 923 INTER-LIGAND FREE ENERGY PREDICTED BY IDOCK:  -10.33 KCAL/MOL
REMARK 924 INTRA-LIGAND FREE ENERGY PREDICTED BY IDOCK:   -2.54 KCAL/MOL
REMARK 927      BINDING AFFINITY PREDICTED BY RF-SCORE:    0.00 PKD
ROOT
HETATM    1  C   UNL     1     -12.620  14.594  70.603  1.00  0.00    -0.357 C  
HETATM    2  O   UNL     1     -12.355  13.848  69.414  1.00  0.00    -0.329 OA 
ENDROOT
BRANCH   2   3
HETATM    3  C   UNL     1     -12.022  12.525  69.565  1.00  0.00    -0.266 A  
HETATM    4  C   UNL     1     -12.328  11.792  70.724  1.00  0.00    -0.433 A  
HETATM    5  C   UNL     1     -11.920  10.462  70.870  1.00  0.00    -0.478 A  
HETATM    6  C   UNL     1     -11.218   9.834  69.851  1.00  0.00    -0.271 A  
HETATM    7  C   UNL     1     -10.921  10.538  68.690  1.00  0.00    -0.294 A  
HETATM    8  C   UNL     1     -11.316  11.876  68.530  1.00  0.00    -0.276 A  
BRANCH   8   9
HETATM    9  O   UNL     1     -10.860  12.398  67.337  1.00  0.00    -0.227 OA 
BRANCH   9  10
HETATM   10  C   UNL     1     -10.382  13.665  67.243  1.00  0.00    -0.249 A  
HETATM   11  C   UNL     1      -9.312  14.206  67.920  1.00  0.00    -0.204 A  
HETATM   12  N   UNL     1      -8.833  15.440  67.719  1.00  0.00    -0.167 NA 
HETATM   13  N   UNL     1     -10.598  15.806  66.161  1.00  0.00    -0.311 NA 
HETATM   14  C   UNL     1      -9.475  16.191  66.799  1.00  0.00    -0.238 A  
HETATM   15  C   UNL     1     -11.038  14.561  66.415  1.00  0.00    -0.331 A  
BRANCH  11  16
HETATM   16  N   UNL     1      -8.545  13.558  68.919  1.00  0.00    -0.363 N  
HETATM   17  H   UNL     1      -8.878  13.529  69.882  1.00  0.00     0.000 HD 
BRANCH  16  18
HETATM   18  S   UNL     1      -7.088  12.839  68.513  1.00  0.00    -0.106 S  
HETATM   19  O   UNL     1      -6.616  13.412  67.265  1.00  0.00    -0.234 OA 
HETATM   20  O   UNL     1      -6.263  12.904  69.704  1.00  0.00    -0.115 OA 
BRANCH  18  21
HETATM   21  C   UNL     1      -7.442  11.128  68.198  1.00  0.00    -0.093 A  
HETATM   22  C   UNL     1      -8.025   8.427  67.625  1.00  0.00    -0.110 A  
HETATM   23  C   UNL     1      -7.750  10.740  66.896  1.00  0.00    -0.130 A  
HETATM   24  C   UNL     1      -8.041   9.406  66.618  1.00  0.00    -0.108 A  
HETATM   25  C   UNL     1      -7.642   8.834  68.921  1.00  0.00    -0.091 A  
HETATM   26  C   UNL     1      -7.347  10.175  69.210  1.00  0.00    -0.098 A  
BRANCH  22  27
HETATM   27  C   UNL     1      -8.448   6.973  67.342  1.00  0.00    -0.122 C  
HETATM   28  C   UNL     1      -7.315   5.948  67.589  1.00  0.00    -0.077 C  
HETATM   29  C   UNL     1      -8.860   6.838  65.860  1.00  0.00    -0.127 C  
HETATM   30  C   UNL     1      -9.636   6.565  68.236  1.00  0.00    -0.131 C  
ENDBRANCH  22  27
ENDBRANCH  18  21
ENDBRANCH  16  18
ENDBRANCH  11  16
BRANCH  14  31
HETATM   31  C   UNL     1      -8.851  17.480  66.402  1.00  0.00    -0.241 A  
HETATM   32  N   UNL     1      -7.558  17.457  65.997  1.00  0.00    -0.468 NA 
HETATM   33  N   UNL     1      -9.578  18.615  66.542  1.00  0.00    -0.327 NA 
HETATM   34  C   UNL     1      -8.957  19.768  66.244  1.00  0.00    -0.376 A  
HETATM   35  C   UNL     1      -6.988  18.642  65.724  1.00  0.00    -0.255 A  
HETATM   36  C   UNL     1      -7.648  19.843  65.829  1.00  0.00    -0.309 A  
ENDBRANCH  14  31
BRANCH  15  37
HETATM   37  O   UNL     1     -12.229  14.157  65.840  1.00  0.00    -0.412 OA 
BRANCH  37  38
HETATM   38  C   UNL     1     -12.161  13.763  64.463  1.00  0.00    -0.428 C  
BRANCH  38  39
HETATM   39  C   UNL     1     -12.465  12.276  64.318  1.00  0.00    -0.413 C  
HETATM   40  O   UNL     1     -11.729  11.715  63.236  1.00  0.00    -0.770 OA 
HETATM   41  H   UNL     1     -11.919  10.788  63.146  1.00  0.00     0.000 HD 
ENDBRANCH  38  39
ENDBRANCH  37  38
ENDBRANCH  15  37
ENDBRANCH   9  10
ENDBRANCH   8   9
ENDBRANCH   2   3
TORSDOF 11
ENDMDL
MODEL       19
REMARK 921   NORMALIZED FREE ENERGY PREDICTED BY IDOCK:   -6.30 KCAL/MOL
REMARK 922        TOTAL FREE ENERGY PREDICTED BY IDOCK:  -12.81 KCAL/MOL
REMARK 923 INTER-LIGAND FREE ENERGY PREDICTED BY IDOCK:  -11.29 KCAL/MOL
REMARK 924 INTRA-LIGAND FREE ENERGY PREDICTED BY IDOCK:   -1.53 KCAL/MOL
REMARK 927      BINDING AFFINITY PREDICTED BY RF-SCORE:    0.00 PKD
ROOT
HETATM    1  C   UNL     1     -11.501  12.911  63.481  1.00  0.00    -0.412 C  
HETATM    2  O   UNL     1     -11.357  11.492  63.552  1.00  0.00    -0.408 OA 
ENDROOT
BRANCH   2   3
HETATM    3  C   UNL     1     -10.085  10.997  63.703  1.00  0.00    -0.371 A  
HETATM    4  C   UNL     1      -9.056  11.255  62.780  1.00  0.00    -0.327 A  
HETATM    5  C   UNL     1      -7.788  10.684  62.931  1.00  0.00    -0.064 A  
HETATM    6  C   UNL     1      -7.519   9.866  64.019  1.00  0.00    -0.135 A  
HETATM    7  C   UNL     1      -8.519   9.614  64.951  1.00  0.00    -0.161 A  
HETATM    8  C   UNL     1      -9.800  10.171  64.810  1.00  0.00    -0.312 A  
BRANCH   8   9
HETATM    9  O   UNL     1     -10.651   9.737  65.806  1.00  0.00    -0.026 OA 
BRANCH   9  10
HETATM   10  C   UNL     1     -10.214   9.492  67.068  1.00  0.00    -0.255 A  
HETATM   11  C   UNL     1      -9.878  10.419  68.029  1.00  0.00    -0.150 A  
HETATM   12  N   UNL     1      -9.537  10.115  69.288  1.00  0.00    -0.214 NA 
HETATM   13  N   UNL     1      -9.707   7.809  68.714  1.00  0.00    -0.155 NA 
HETATM   14  C   UNL     1      -9.508   8.803  69.603  1.00  0.00    -0.170 A  
HETATM   15  C   UNL     1     -10.032   8.177  67.463  1.00  0.00    -0.192 A  
BRANCH  11  16
HETATM   16  N   UNL     1      -9.846  11.824  67.856  1.00  0.00    -0.178 N  
HETATM   17  H   UNL     1      -8.961  12.297  67.676  1.00  0.00     0.000 HD 
BRANCH  16  18
HETATM   18  S   UNL     1     -11.267  12.706  67.949  1.00  0.00    -0.286 S  
HETATM   19  O   UNL     1     -12.114  12.346  66.825  1.00  0.00    -0.578 OA 
HETATM   20  O   UNL     1     -11.749  12.549  69.307  1.00  0.00    -0.291 OA 
BRANCH  18  21
HETATM   21  C   UNL     1     -10.815  14.410  67.734  1.00  0.00    -0.258 A  
HETATM   22  C   UNL     1     -10.143  17.137  67.454  1.00  0.00    -0.301 A  
HETATM   23  C   UNL     1     -11.238  15.336  68.686  1.00  0.00    -0.303 A  
HETATM   24  C   UNL     1     -10.907  16.682  68.541  1.00  0.00    -0.356 A  
HETATM   25  C   UNL     1      -9.671  16.169  66.542  1.00  0.00    -0.282 A  
HETATM   26  C   UNL     1      -9.998  14.811  66.679  1.00  0.00    -0.272 A  
BRANCH  22  27
HETATM   27  C   UNL     1      -9.866  18.637  67.235  1.00  0.00    -0.345 C  
HETATM   28  C   UNL     1     -10.735  19.260  66.116  1.00  0.00    -0.478 C  
HETATM   29  C   UNL     1      -8.392  18.830  66.820  1.00  0.00    -0.288 C  
HETATM   30  C   UNL     1     -10.139  19.437  68.524  1.00  0.00    -0.527 C  
ENDBRANCH  22  27
ENDBRANCH  18  21
ENDBRANCH  16  18
ENDBRANCH  11  16
BRANCH  14  31
HETATM   31  C   UNL     1      -9.338   8.439  71.034  1.00  0.00    -0.171 A  
HETATM   32  N   UNL     1     -10.437   8.038  71.718  1.00  0.00    -0.219 NA 
HETATM   33  N   UNL     1      -8.117   8.605  71.597  1.00  0.00    -0.205 NA 
HETATM   34  C   UNL     1      -8.018   8.336  72.910  1.00  0.00    -0.141 A  
HETATM   35  C   UNL     1     -10.278   7.795  73.030  1.00  0.00    -0.330 A  
HETATM   36  C   UNL     1      -9.078   7.927  73.685  1.00  0.00    -0.337 A  
ENDBRANCH  14  31
BRANCH  15  37
HETATM   37  O   UNL     1     -10.168   7.190  66.504  1.00  0.00    -0.173 OA 
BRANCH  37  38
HETATM   38  C   UNL     1     -10.911   6.028  66.897  1.00  0.00    -0.318 C  
BRANCH  38  39
HETATM   39  C   UNL     1     -10.564   4.845  66.000  1.00  0.00    -0.261 C  
HETATM   40  O   UNL     1     -11.672   4.498  65.174  1.00  0.00    -1.036 OA 
HETATM   41  H   UNL     1     -11.456   3.761  64.615  1.00  0.00     0.000 HD 
ENDBRANCH  38  39
ENDBRANCH  37  38
ENDBRANCH  15  37
ENDBRANCH   9  10
ENDBRANCH   8   9
ENDBRANCH   2   3
TORSDOF 11
ENDMDL
MODEL       20
REMARK 921   NORMALIZED FREE ENERGY PREDICTED BY IDOCK:   -6.30 KCAL/MOL
REMARK 922        TOTAL FREE ENERGY PREDICTED BY IDOCK:  -12.81 KCAL/MOL
REMARK 923 INTER-LIGAND FREE ENERGY PREDICTED BY IDOCK:  -10.87 KCAL/MOL
REMARK 924 INTRA-LIGAND FREE ENERGY PREDICTED BY IDOCK:   -1.94 KCAL/MOL
REMARK 927      BINDING AFFINITY PREDICTED BY RF-SCORE:    0.00 PKD
ROOT
HETATM    1  C   UNL     1     -13.245  12.132  72.080  1.00  0.00    -0.391 C  
HETATM    2  O   UNL     1     -12.640  12.212  70.789  1.00  0.00    -0.303 OA 
ENDROOT
BRANCH   2   3
HETATM    3  C   UNL     1     -12.196  13.445  70.379  1.00  0.00    -0.345 A  
HETATM    4  C   UNL     1     -11.808  14.450  71.281  1.00  0.00    -0.287 A  
HETATM    5  C   UNL     1     -11.420  15.716  70.832  1.00  0.00    -0.425 A  
HETATM    6  C   UNL     1     -11.390  15.993  69.473  1.00  0.00    -0.344 A  
HETATM    7  C   UNL     1     -11.754  15.005  68.565  1.00  0.00    -0.345 A  
HETATM    8  C   UNL     1     -12.154  13.731  68.999  1.00  0.00    -0.322 A  
BRANCH   8   9
HETATM    9  O   UNL     1     -12.535  12.934  67.939  1.00  0.00    -0.026 OA 
BRANCH   9  10
HETATM   10  C   UNL     1     -11.646  12.156  67.270  1.00  0.00    -0.334 A  
HETATM   11  C   UNL     1     -11.160  10.926  67.653  1.00  0.00    -0.313 A  
HETATM   12  N   UNL     1     -10.349  10.166  66.905  1.00  0.00    -0.235 NA 
HETATM   13  N   UNL     1     -10.306  11.910  65.284  1.00  0.00    -0.265 NA 
HETATM   14  C   UNL     1      -9.983  10.672  65.709  1.00  0.00    -0.257 A  
HETATM   15  C   UNL     1     -11.110  12.631  66.084  1.00  0.00    -0.292 A  
BRANCH  11  16
HETATM   16  N   UNL     1     -11.436  10.265  68.874  1.00  0.00    -0.467 N  
HETATM   17  H   UNL     1     -12.401  10.084  69.151  1.00  0.00     0.000 HD 
BRANCH  16  18
HETATM   18  S   UNL     1     -10.173   9.781  69.862  1.00  0.00    -0.270 S  
HETATM   19  O   UNL     1      -9.010  10.599  69.567  1.00  0.00    -0.104 OA 
HETATM   20  O   UNL     1     -10.711   9.736  71.208  1.00  0.00    -0.304 OA 
BRANCH  18  21
HETATM   21  C   UNL     1      -9.773   8.118  69.388  1.00  0.00    -0.170 A  
HETATM   22  C   UNL     1      -9.069   5.499  68.604  1.00  0.00    -0.128 A  
HETATM   23  C   UNL     1      -8.511   7.863  68.853  1.00  0.00    -0.128 A  
HETATM   24  C   UNL     1      -8.169   6.570  68.464  1.00  0.00    -0.121 A  
HETATM   25  C   UNL     1     -10.313   5.772  69.212  1.00  0.00    -0.326 A  
HETATM   26  C   UNL     1     -10.666   7.071  69.607  1.00  0.00    -0.265 A  
BRANCH  22  27
HETATM   27  C   UNL     1      -8.733   4.091  68.078  1.00  0.00    -0.119 C  
HETATM   28  C   UNL     1      -8.791   3.001  69.175  1.00  0.00    -0.155 C  
HETATM   29  C   UNL     1      -7.297   4.083  67.512  1.00  0.00    -0.068 C  
HETATM   30  C   UNL     1      -9.718   3.673  66.968  1.00  0.00    -0.100 C  
ENDBRANCH  22  27
ENDBRANCH  18  21
ENDBRANCH  16  18
ENDBRANCH  11  16
BRANCH  14  31
HETATM   31  C   UNL     1      -9.260   9.776  64.771  1.00  0.00    -0.261 A  
HETATM   32  N   UNL     1      -9.304  10.075  63.451  1.00  0.00    -0.286 NA 
HETATM   33  N   UNL     1      -8.665   8.666  65.275  1.00  0.00    -0.183 NA 
HETATM   34  C   UNL     1      -8.083   7.841  64.388  1.00  0.00    -0.091 A  
HETATM   35  C   UNL     1      -8.715   9.206  62.613  1.00  0.00    -0.199 A  
HETATM   36  C   UNL     1      -8.081   8.062  63.031  1.00  0.00    -0.120 A  
ENDBRANCH  14  31
BRANCH  15  37
HETATM   37  O   UNL     1     -11.401  13.933  65.719  1.00  0.00    -0.302 OA 
BRANCH  37  38
HETATM   38  C   UNL     1     -10.295  14.721  65.262  1.00  0.00    -0.398 C  
BRANCH  38  39
HETATM   39  C   UNL     1     -10.728  16.165  65.032  1.00  0.00    -0.337 C  
HETATM   40  O   UNL     1     -11.619  16.254  63.925  1.00  0.00    -1.489 OA 
HETATM   41  H   UNL     1     -11.888  17.153  63.782  1.00  0.00     0.000 HD 
ENDBRANCH  38  39
ENDBRANCH  37  38
ENDBRANCH  15  37
ENDBRANCH   9  10
ENDBRANCH   8   9
ENDBRANCH   2   3
TORSDOF 11
ENDMDL
MODEL       21
REMARK 921   NORMALIZED FREE ENERGY PREDICTED BY IDOCK:   -6.25 KCAL/MOL
REMARK 922        TOTAL FREE ENERGY PREDICTED BY IDOCK:  -12.72 KCAL/MOL
REMARK 923 INTER-LIGAND FREE ENERGY PREDICTED BY IDOCK:  -10.95 KCAL/MOL
REMARK 924 INTRA-LIGAND FREE ENERGY PREDICTED BY IDOCK:   -1.78 KCAL/MOL
REMARK 927      BINDING AFFINITY PREDICTED BY RF-SCORE:    0.00 PKD
ROOT
HETATM    1  C   UNL     1     -10.522  16.007  65.658  1.00  0.00    -0.397 C  
HETATM    2  O   UNL     1     -11.378  14.903  65.956  1.00  0.00    -0.342 OA 
ENDROOT
BRANCH   2   3
HETATM    3  C   UNL     1     -11.550  14.582  67.280  1.00  0.00    -0.385 A  
HETATM    4  C   UNL     1     -11.365  15.513  68.317  1.00  0.00    -0.360 A  
HETATM    5  C   UNL     1     -11.488  15.137  69.658  1.00  0.00    -0.314 A  
HETATM    6  C   UNL     1     -11.821  13.831  69.987  1.00  0.00    -0.377 A  
HETATM    7  C   UNL     1     -12.025  12.901  68.974  1.00  0.00    -0.297 A  
HETATM    8  C   UNL     1     -11.897  13.259  67.622  1.00  0.00    -0.357 A  
BRANCH   8   9
HETATM    9  O   UNL     1     -12.075  12.170  66.793  1.00  0.00    -0.609 OA 
BRANCH   9  10
HETATM   10  C   UNL     1     -11.106  11.235  66.618  1.00  0.00    -0.235 A  
HETATM   11  C   UNL     1     -10.848  10.142  67.414  1.00  0.00    -0.261 A  
HETATM   12  N   UNL     1      -9.932   9.204  67.139  1.00  0.00    -0.200 NA 
HETATM   13  N   UNL     1      -9.302  10.467  65.220  1.00  0.00    -0.197 NA 
HETATM   14  C   UNL     1      -9.213   9.379  66.010  1.00  0.00    -0.200 A  
HETATM   15  C   UNL     1     -10.230  11.380  65.555  1.00  0.00    -0.264 A  
BRANCH  11  16
HETATM   16  N   UNL     1     -11.501   9.823  68.629  1.00  0.00    -0.488 N  
HETATM   17  H   UNL     1     -12.508   9.659  68.641  1.00  0.00     0.000 HD 
BRANCH  16  18
HETATM   18  S   UNL     1     -10.615   9.718  70.046  1.00  0.00    -0.297 S  
HETATM   19  O   UNL     1      -9.373  10.452  69.876  1.00  0.00    -0.094 OA 
HETATM   20  O   UNL     1     -11.528  10.067  71.117  1.00  0.00    -0.357 OA 
BRANCH  18  21
HETATM   21  C   UNL     1     -10.185   8.007  70.245  1.00  0.00    -0.200 A  
HETATM   22  C   UNL     1      -9.426   5.305  70.545  1.00  0.00    -0.222 A  
HETATM   23  C   UNL     1      -8.838   7.653  70.228  1.00  0.00    -0.145 A  
HETATM   24  C   UNL     1      -8.467   6.317  70.373  1.00  0.00    -0.134 A  
HETATM   25  C   UNL     1     -10.779   5.699  70.626  1.00  0.00    -0.333 A  
HETATM   26  C   UNL     1     -11.161   7.042  70.482  1.00  0.00    -0.335 A  
BRANCH  22  27
HETATM   27  C   UNL     1      -9.027   3.818  70.599  1.00  0.00    -0.159 C  
HETATM   28  C   UNL     1      -9.361   3.050  69.297  1.00  0.00    -0.217 C  
HETATM   29  C   UNL     1      -9.798   3.122  71.741  1.00  0.00    -0.229 C  
HETATM   30  C   UNL     1      -7.513   3.666  70.843  1.00  0.00    -0.040 C  
ENDBRANCH  22  27
ENDBRANCH  18  21
ENDBRANCH  16  18
ENDBRANCH  11  16
BRANCH  14  31
HETATM   31  C   UNL     1      -8.339   8.262  65.568  1.00  0.00    -0.155 A  
HETATM   32  N   UNL     1      -7.857   7.423  66.517  1.00  0.00    -0.096 NA 
HETATM   33  N   UNL     1      -8.006   8.188  64.256  1.00  0.00    -0.143 NA 
HETATM   34  C   UNL     1      -7.155   7.209  63.905  1.00  0.00    -0.061 A  
HETATM   35  C   UNL     1      -7.002   6.472  66.107  1.00  0.00    -0.062 A  
HETATM   36  C   UNL     1      -6.613   6.315  64.798  1.00  0.00    -0.038 A  
ENDBRANCH  14  31
BRANCH  15  37
HETATM   37  O   UNL     1     -10.300  12.546  64.814  1.00  0.00    -0.292 OA 
BRANCH  37  38
HETATM   38  C   UNL     1     -10.752  12.406  63.461  1.00  0.00    -0.430 C  
BRANCH  38  39
HETATM   39  C   UNL     1     -12.237  12.739  63.358  1.00  0.00    -0.504 C  
HETATM   40  O   UNL     1     -12.438  14.148  63.366  1.00  0.00    -1.122 OA 
HETATM   41  H   UNL     1     -13.363  14.356  63.302  1.00  0.00     0.000 HD 
ENDBRANCH  38  39
ENDBRANCH  37  38
ENDBRANCH  15  37
ENDBRANCH   9  10
ENDBRANCH   8   9
ENDBRANCH   2   3
TORSDOF 11
ENDMDL
MODEL       22
REMARK 921   NORMALIZED FREE ENERGY PREDICTED BY IDOCK:   -6.22 KCAL/MOL
REMARK 922        TOTAL FREE ENERGY PREDICTED BY IDOCK:  -12.68 KCAL/MOL
REMARK 923 INTER-LIGAND FREE ENERGY PREDICTED BY IDOCK:   -9.37 KCAL/MOL
REMARK 924 INTRA-LIGAND FREE ENERGY PREDICTED BY IDOCK:   -3.31 KCAL/MOL
REMARK 927      BINDING AFFINITY PREDICTED BY RF-SCORE:    0.00 PKD
ROOT
HETATM    1  C   UNL     1      -7.759   7.876  72.873  1.00  0.00    -0.121 C  
HETATM    2  O   UNL     1      -7.934   8.039  71.465  1.00  0.00    -0.091 OA 
ENDROOT
BRANCH   2   3
HETATM    3  C   UNL     1      -8.928   7.303  70.867  1.00  0.00    -0.150 A  
HETATM    4  C   UNL     1      -8.729   5.989  70.411  1.00  0.00    -0.144 A  
HETATM    5  C   UNL     1      -9.744   5.290  69.750  1.00  0.00    -0.257 A  
HETATM    6  C   UNL     1     -10.983   5.884  69.553  1.00  0.00    -0.438 A  
HETATM    7  C   UNL     1     -11.203   7.177  70.012  1.00  0.00    -0.271 A  
HETATM    8  C   UNL     1     -10.192   7.896  70.671  1.00  0.00    -0.196 A  
BRANCH   8   9
HETATM    9  O   UNL     1     -10.603   9.177  70.978  1.00  0.00    -0.242 OA 
BRANCH   9  10
HETATM   10  C   UNL     1     -10.640  10.163  70.045  1.00  0.00    -0.287 A  
HETATM   11  C   UNL     1      -9.568  10.785  69.445  1.00  0.00    -0.030 A  
HETATM   12  N   UNL     1      -9.670  11.691  68.465  1.00  0.00    -0.197 NA 
HETATM   13  N   UNL     1     -12.040  11.554  68.664  1.00  0.00    -0.505 NA 
HETATM   14  C   UNL     1     -10.920  12.014  68.072  1.00  0.00    -0.223 A  
HETATM   15  C   UNL     1     -11.873  10.657  69.652  1.00  0.00    -0.286 A  
BRANCH  11  16
HETATM   16  N   UNL     1      -8.203  10.569  69.751  1.00  0.00    -0.378 N  
HETATM   17  H   UNL     1      -7.886  10.585  70.721  1.00  0.00     0.000 HD 
BRANCH  16  18
HETATM   18  S   UNL     1      -7.108  10.289  68.515  1.00  0.00    -0.076 S  
HETATM   19  O   UNL     1      -7.257  11.331  67.514  1.00  0.00    -0.090 OA 
HETATM   20  O   UNL     1      -5.826  10.072  69.156  1.00  0.00    -0.038 OA 
BRANCH  18  21
HETATM   21  C   UNL     1      -7.592   8.761  67.752  1.00  0.00    -0.097 A  
HETATM   22  C   UNL     1      -8.432   6.362  66.525  1.00  0.00    -0.118 A  
HETATM   23  C   UNL     1      -8.834   8.694  67.124  1.00  0.00    -0.138 A  
HETATM   24  C   UNL     1      -9.247   7.507  66.523  1.00  0.00    -0.217 A  
HETATM   25  C   UNL     1      -7.151   6.477  67.107  1.00  0.00    -0.076 A  
HETATM   26  C   UNL     1      -6.727   7.669  67.714  1.00  0.00    -0.067 A  
BRANCH  22  27
HETATM   27  C   UNL     1      -8.928   5.019  65.955  1.00  0.00    -0.136 C  
HETATM   28  C   UNL     1     -10.433   4.767  66.212  1.00  0.00    -0.311 C  
HETATM   29  C   UNL     1      -8.157   3.862  66.626  1.00  0.00    -0.097 C  
HETATM   30  C   UNL     1      -8.708   4.957  64.431  1.00  0.00    -0.140 C  
ENDBRANCH  22  27
ENDBRANCH  18  21
ENDBRANCH  16  18
ENDBRANCH  11  16
BRANCH  14  31
HETATM   31  C   UNL     1     -11.066  12.854  66.855  1.00  0.00    -0.278 A  
HETATM   32  N   UNL     1     -12.190  12.700  66.113  1.00  0.00    -0.586 NA 
HETATM   33  N   UNL     1     -10.038  13.666  66.508  1.00  0.00    -0.279 NA 
HETATM   34  C   UNL     1     -10.175  14.355  65.363  1.00  0.00    -0.382 A  
HETATM   35  C   UNL     1     -12.263  13.407  64.973  1.00  0.00    -0.424 A  
HETATM   36  C   UNL     1     -11.276  14.261  64.545  1.00  0.00    -0.331 A  
ENDBRANCH  14  31
BRANCH  15  37
HETATM   37  O   UNL     1     -12.993  10.220  70.336  1.00  0.00    -0.272 OA 
BRANCH  37  38
HETATM   38  C   UNL     1     -13.069  10.587  71.720  1.00  0.00    -0.464 C  
BRANCH  38  39
HETATM   39  C   UNL     1     -13.776   9.500  72.522  1.00  0.00    -0.277 C  
HETATM   40  O   UNL     1     -12.869   8.456  72.862  1.00  0.00    -0.659 OA 
HETATM   41  H   UNL     1     -13.310   7.778  73.362  1.00  0.00     0.000 HD 
ENDBRANCH  38  39
ENDBRANCH  37  38
ENDBRANCH  15  37
ENDBRANCH   9  10
ENDBRANCH   8   9
ENDBRANCH   2   3
TORSDOF 11
ENDMDL
MODEL       23
REMARK 921   NORMALIZED FREE ENERGY PREDICTED BY IDOCK:   -6.17 KCAL/MOL
REMARK 922        TOTAL FREE ENERGY PREDICTED BY IDOCK:  -12.60 KCAL/MOL
REMARK 923 INTER-LIGAND FREE ENERGY PREDICTED BY IDOCK:  -10.93 KCAL/MOL
REMARK 924 INTRA-LIGAND FREE ENERGY PREDICTED BY IDOCK:   -1.67 KCAL/MOL
REMARK 927      BINDING AFFINITY PREDICTED BY RF-SCORE:    0.00 PKD
ROOT
HETATM    1  C   UNL     1     -13.548   9.215  72.164  1.00  0.00    -0.474 C  
HETATM    2  O   UNL     1     -12.792   8.456  71.220  1.00  0.00    -0.275 OA 
ENDROOT
BRANCH   2   3
HETATM    3  C   UNL     1     -11.426   8.585  71.261  1.00  0.00    -0.277 A  
HETATM    4  C   UNL     1     -10.660   8.204  72.376  1.00  0.00    -0.393 A  
HETATM    5  C   UNL     1      -9.277   8.407  72.409  1.00  0.00    -0.345 A  
HETATM    6  C   UNL     1      -8.631   8.972  71.318  1.00  0.00    -0.221 A  
HETATM    7  C   UNL     1      -9.369   9.340  70.200  1.00  0.00    -0.258 A  
HETATM    8  C   UNL     1     -10.760   9.151  70.153  1.00  0.00    -0.233 A  
BRANCH   8   9
HETATM    9  O   UNL     1     -11.298   9.646  68.983  1.00  0.00    -0.065 OA 
BRANCH   9  10
HETATM   10  C   UNL     1     -10.556   9.784  67.854  1.00  0.00    -0.259 A  
HETATM   11  C   UNL     1      -9.963  10.933  67.380  1.00  0.00    -0.186 A  
HETATM   12  N   UNL     1      -9.168  10.986  66.304  1.00  0.00    -0.176 NA 
HETATM   13  N   UNL     1      -9.587   8.667  65.953  1.00  0.00    -0.191 NA 
HETATM   14  C   UNL     1      -8.968   9.824  65.645  1.00  0.00    -0.163 A  
HETATM   15  C   UNL     1     -10.384   8.680  67.035  1.00  0.00    -0.298 A  
BRANCH  11  16
HETATM   16  N   UNL     1     -10.083  12.225  67.944  1.00  0.00    -0.194 N  
HETATM   17  H   UNL     1      -9.308  12.628  68.472  1.00  0.00     0.000 HD 
BRANCH  16  18
HETATM   18  S   UNL     1     -11.502  13.092  67.743  1.00  0.00    -0.334 S  
HETATM   19  O   UNL     1     -12.147  12.653  66.519  1.00  0.00    -0.525 OA 
HETATM   20  O   UNL     1     -12.205  13.011  69.009  1.00  0.00    -0.227 OA 
BRANCH  18  21
HETATM   21  C   UNL     1     -11.026  14.786  67.502  1.00  0.00    -0.304 A  
HETATM   22  C   UNL     1     -10.293  17.494  67.193  1.00  0.00    -0.330 A  
HETATM   23  C   UNL     1     -11.055  15.648  68.597  1.00  0.00    -0.317 A  
HETATM   24  C   UNL     1     -10.696  16.985  68.439  1.00  0.00    -0.361 A  
HETATM   25  C   UNL     1     -10.208  16.584  66.116  1.00  0.00    -0.360 A  
HETATM   26  C   UNL     1     -10.567  15.237  66.266  1.00  0.00    -0.312 A  
BRANCH  22  27
HETATM   27  C   UNL     1      -9.998  18.993  66.992  1.00  0.00    -0.405 C  
HETATM   28  C   UNL     1     -10.283  19.844  68.252  1.00  0.00    -0.562 C  
HETATM   29  C   UNL     1     -10.896  19.545  65.864  1.00  0.00    -0.426 C  
HETATM   30  C   UNL     1      -8.520  19.213  66.616  1.00  0.00    -0.319 C  
ENDBRANCH  22  27
ENDBRANCH  18  21
ENDBRANCH  16  18
ENDBRANCH  11  16
BRANCH  14  31
HETATM   31  C   UNL     1      -7.935   9.804  64.578  1.00  0.00    -0.144 A  
HETATM   32  N   UNL     1      -8.252   9.209  63.403  1.00  0.00    -0.168 NA 
HETATM   33  N   UNL     1      -6.708  10.307  64.863  1.00  0.00    -0.121 NA 
HETATM   34  C   UNL     1      -5.778  10.205  63.899  1.00  0.00    -0.135 A  
HETATM   35  C   UNL     1      -7.277   9.127  62.483  1.00  0.00    -0.096 A  
HETATM   36  C   UNL     1      -6.008   9.615  62.678  1.00  0.00    -0.098 A  
ENDBRANCH  14  31
BRANCH  15  37
HETATM   37  O   UNL     1     -11.097   7.534  67.338  1.00  0.00    -0.159 OA 
BRANCH  37  38
HETATM   38  C   UNL     1     -10.333   6.435  67.851  1.00  0.00    -0.190 C  
BRANCH  38  39
HETATM   39  C   UNL     1     -10.300   5.291  66.844  1.00  0.00    -0.255 C  
HETATM   40  O   UNL     1     -11.307   5.465  65.852  1.00  0.00    -0.772 OA 
HETATM   41  H   UNL     1     -11.287   4.752  65.224  1.00  0.00     0.000 HD 
ENDBRANCH  38  39
ENDBRANCH  37  38
ENDBRANCH  15  37
ENDBRANCH   9  10
ENDBRANCH   8   9
ENDBRANCH   2   3
TORSDOF 11
ENDMDL
MODEL       24
REMARK 921   NORMALIZED FREE ENERGY PREDICTED BY IDOCK:   -6.15 KCAL/MOL
REMARK 922        TOTAL FREE ENERGY PREDICTED BY IDOCK:  -12.56 KCAL/MOL
REMARK 923 INTER-LIGAND FREE ENERGY PREDICTED BY IDOCK:  -10.00 KCAL/MOL
REMARK 924 INTRA-LIGAND FREE ENERGY PREDICTED BY IDOCK:   -2.56 KCAL/MOL
REMARK 927      BINDING AFFINITY PREDICTED BY RF-SCORE:    0.00 PKD
ROOT
HETATM    1  C   UNL     1      -6.272  10.635  66.050  1.00  0.00    -0.134 C  
HETATM    2  O   UNL     1      -6.765  10.948  67.353  1.00  0.00    -0.072 OA 
ENDROOT
BRANCH   2   3
HETATM    3  C   UNL     1      -6.908  12.277  67.667  1.00  0.00    -0.124 A  
HETATM    4  C   UNL     1      -5.879  13.216  67.479  1.00  0.00    -0.075 A  
HETATM    5  C   UNL     1      -6.035  14.550  67.868  1.00  0.00    -0.150 A  
HETATM    6  C   UNL     1      -7.230  14.975  68.431  1.00  0.00    -0.111 A  
HETATM    7  C   UNL     1      -8.265  14.064  68.609  1.00  0.00    -0.103 A  
HETATM    8  C   UNL     1      -8.122  12.719  68.232  1.00  0.00    -0.154 A  
BRANCH   8   9
HETATM    9  O   UNL     1      -9.241  11.981  68.561  1.00  0.00    -0.185 OA 
BRANCH   9  10
HETATM   10  C   UNL     1      -9.475  10.755  68.027  1.00  0.00    -0.160 A  
HETATM   11  C   UNL     1      -9.964  10.470  66.772  1.00  0.00    -0.204 A  
HETATM   12  N   UNL     1     -10.089   9.234  66.271  1.00  0.00    -0.276 NA 
HETATM   13  N   UNL     1      -9.341   8.374  68.362  1.00  0.00    -0.135 NA 
HETATM   14  C   UNL     1      -9.724   8.217  67.079  1.00  0.00    -0.212 A  
HETATM   15  C   UNL     1      -9.248   9.637  68.813  1.00  0.00    -0.141 A  
BRANCH  11  16
HETATM   16  N   UNL     1     -10.400  11.416  65.814  1.00  0.00    -0.247 N  
HETATM   17  H   UNL     1      -9.901  11.517  64.930  1.00  0.00     0.000 HD 
BRANCH  16  18
HETATM   18  S   UNL     1     -11.738  12.370  66.136  1.00  0.00    -0.369 S  
HETATM   19  O   UNL     1     -12.595  12.385  64.964  1.00  0.00    -0.601 OA 
HETATM   20  O   UNL     1     -12.255  11.917  67.413  1.00  0.00    -0.502 OA 
BRANCH  18  21
HETATM   21  C   UNL     1     -11.133  14.025  66.359  1.00  0.00    -0.316 A  
HETATM   22  C   UNL     1     -10.224  16.664  66.773  1.00  0.00    -0.301 A  
HETATM   23  C   UNL     1     -11.584  14.755  67.457  1.00  0.00    -0.379 A  
HETATM   24  C   UNL     1     -11.135  16.060  67.656  1.00  0.00    -0.243 A  
HETATM   25  C   UNL     1      -9.732  15.879  65.709  1.00  0.00    -0.360 A  
HETATM   26  C   UNL     1     -10.178  14.565  65.501  1.00  0.00    -0.394 A  
BRANCH  22  27
HETATM   27  C   UNL     1      -9.808  18.139  66.930  1.00  0.00    -0.331 C  
HETATM   28  C   UNL     1     -10.034  18.688  68.360  1.00  0.00    -0.428 C  
HETATM   29  C   UNL     1     -10.649  19.013  65.975  1.00  0.00    -0.499 C  
HETATM   30  C   UNL     1      -8.313  18.324  66.602  1.00  0.00    -0.281 C  
ENDBRANCH  22  27
ENDBRANCH  18  21
ENDBRANCH  16  18
ENDBRANCH  11  16
BRANCH  14  31
HETATM   31  C   UNL     1      -9.653   6.856  66.488  1.00  0.00    -0.143 A  
HETATM   32  N   UNL     1      -8.588   6.562  65.704  1.00  0.00    -0.147 NA 
HETATM   33  N   UNL     1     -10.693   6.011  66.697  1.00  0.00    -0.279 NA 
HETATM   34  C   UNL     1     -10.628   4.816  66.086  1.00  0.00    -0.234 A  
HETATM   35  C   UNL     1      -8.586   5.356  65.112  1.00  0.00    -0.149 A  
HETATM   36  C   UNL     1      -9.590   4.432  65.271  1.00  0.00    -0.186 A  
ENDBRANCH  14  31
BRANCH  15  37
HETATM   37  O   UNL     1      -8.932   9.836  70.145  1.00  0.00    -0.226 OA 
BRANCH  37  38
HETATM   38  C   UNL     1      -9.660   9.041  71.089  1.00  0.00    -0.286 C  
BRANCH  38  39
HETATM   39  C   UNL     1     -11.112   9.503  71.169  1.00  0.00    -0.379 C  
HETATM   40  O   UNL     1     -11.957   8.639  70.416  1.00  0.00    -0.484 OA 
HETATM   41  H   UNL     1     -12.861   8.926  70.465  1.00  0.00     0.000 HD 
ENDBRANCH  38  39
ENDBRANCH  37  38
ENDBRANCH  15  37
ENDBRANCH   9  10
ENDBRANCH   8   9
ENDBRANCH   2   3
TORSDOF 11
ENDMDL
MODEL       25
REMARK 921   NORMALIZED FREE ENERGY PREDICTED BY IDOCK:   -6.10 KCAL/MOL
REMARK 922        TOTAL FREE ENERGY PREDICTED BY IDOCK:  -12.49 KCAL/MOL
REMARK 923 INTER-LIGAND FREE ENERGY PREDICTED BY IDOCK:  -10.99 KCAL/MOL
REMARK 924 INTRA-LIGAND FREE ENERGY PREDICTED BY IDOCK:   -1.50 KCAL/MOL
REMARK 927      BINDING AFFINITY PREDICTED BY RF-SCORE:    0.00 PKD
ROOT
HETATM    1  C   UNL     1     -12.911  15.160  71.624  1.00  0.00    -0.375 C  
HETATM    2  O   UNL     1     -12.126  14.348  70.751  1.00  0.00    -0.299 OA 
ENDROOT
BRANCH   2   3
HETATM    3  C   UNL     1     -12.308  12.989  70.825  1.00  0.00    -0.310 A  
HETATM    4  C   UNL     1     -13.211  12.392  71.722  1.00  0.00    -0.435 A  
HETATM    5  C   UNL     1     -13.327  11.002  71.815  1.00  0.00    -0.400 A  
HETATM    6  C   UNL     1     -12.559  10.183  70.998  1.00  0.00    -0.478 A  
HETATM    7  C   UNL     1     -11.674  10.757  70.093  1.00  0.00    -0.425 A  
HETATM    8  C   UNL     1     -11.539  12.151  69.992  1.00  0.00    -0.171 A  
BRANCH   8   9
HETATM    9  O   UNL     1     -10.560  12.498  69.084  1.00  0.00    -0.111 OA 
BRANCH   9  10
HETATM   10  C   UNL     1     -10.278  11.728  68.002  1.00  0.00    -0.193 A  
HETATM   11  C   UNL     1     -10.952  11.695  66.802  1.00  0.00    -0.290 A  
HETATM   12  N   UNL     1     -10.571  10.976  65.738  1.00  0.00    -0.228 NA 
HETATM   13  N   UNL     1      -8.789  10.093  67.049  1.00  0.00    -0.135 NA 
HETATM   14  C   UNL     1      -9.459  10.224  65.887  1.00  0.00    -0.190 A  
HETATM   15  C   UNL     1      -9.227  10.829  68.085  1.00  0.00    -0.151 A  
BRANCH  11  16
HETATM   16  N   UNL     1     -12.134  12.410  66.491  1.00  0.00    -0.242 N  
HETATM   17  H   UNL     1     -13.012  12.173  66.953  1.00  0.00     0.000 HD 
BRANCH  16  18
HETATM   18  S   UNL     1     -12.086  13.646  65.361  1.00  0.00    -0.432 S  
HETATM   19  O   UNL     1     -11.348  13.186  64.198  1.00  0.00    -0.368 OA 
HETATM   20  O   UNL     1     -13.451  14.115  65.222  1.00  0.00    -0.606 OA 
BRANCH  18  21
HETATM   21  C   UNL     1     -11.139  14.958  66.092  1.00  0.00    -0.335 A  
HETATM   22  C   UNL     1      -9.685  17.045  67.315  1.00  0.00    -0.253 A  
HETATM   23  C   UNL     1     -11.452  15.362  67.389  1.00  0.00    -0.197 A  
HETATM   24  C   UNL     1     -10.734  16.396  67.987  1.00  0.00    -0.334 A  
HETATM   25  C   UNL     1      -9.344  16.571  66.030  1.00  0.00    -0.302 A  
HETATM   26  C   UNL     1     -10.062  15.531  65.420  1.00  0.00    -0.387 A  
BRANCH  22  27
HETATM   27  C   UNL     1      -8.959  18.256  67.933  1.00  0.00    -0.285 C  
HETATM   28  C   UNL     1      -7.744  17.859  68.804  1.00  0.00    -0.263 C  
HETATM   29  C   UNL     1      -9.936  19.026  68.848  1.00  0.00    -0.460 C  
HETATM   30  C   UNL     1      -8.442  19.203  66.832  1.00  0.00    -0.309 C  
ENDBRANCH  22  27
ENDBRANCH  18  21
ENDBRANCH  16  18
ENDBRANCH  11  16
BRANCH  14  31
HETATM   31  C   UNL     1      -8.894   9.580  64.674  1.00  0.00    -0.213 A  
HETATM   32  N   UNL     1      -9.268  10.067  63.467  1.00  0.00    -0.271 NA 
HETATM   33  N   UNL     1      -8.101   8.492  64.836  1.00  0.00    -0.137 NA 
HETATM   34  C   UNL     1      -7.667   7.892  63.715  1.00  0.00    -0.135 A  
HETATM   35  C   UNL     1      -8.812   9.417  62.383  1.00  0.00    -0.247 A  
HETATM   36  C   UNL     1      -7.998   8.313  62.449  1.00  0.00    -0.156 A  
ENDBRANCH  14  31
BRANCH  15  37
HETATM   37  O   UNL     1      -8.613  10.664  69.313  1.00  0.00    -0.151 OA 
BRANCH  37  38
HETATM   38  C   UNL     1      -7.591   9.661  69.375  1.00  0.00    -0.097 C  
BRANCH  38  39
HETATM   39  C   UNL     1      -6.362  10.197  70.103  1.00  0.00    -0.107 C  
HETATM   40  O   UNL     1      -6.565  11.547  70.505  1.00  0.00    -0.513 OA 
HETATM   41  H   UNL     1      -5.800  11.882  70.959  1.00  0.00     0.000 HD 
ENDBRANCH  38  39
ENDBRANCH  37  38
ENDBRANCH  15  37
ENDBRANCH   9  10
ENDBRANCH   8   9
ENDBRANCH   2   3
TORSDOF 11
ENDMDL
MODEL       26
REMARK 921   NORMALIZED FREE ENERGY PREDICTED BY IDOCK:   -6.10 KCAL/MOL
REMARK 922        TOTAL FREE ENERGY PREDICTED BY IDOCK:  -12.48 KCAL/MOL
REMARK 923 INTER-LIGAND FREE ENERGY PREDICTED BY IDOCK:  -10.25 KCAL/MOL
REMARK 924 INTRA-LIGAND FREE ENERGY PREDICTED BY IDOCK:   -2.23 KCAL/MOL
REMARK 927      BINDING AFFINITY PREDICTED BY RF-SCORE:    0.00 PKD
ROOT
HETATM    1  C   UNL     1     -12.457  14.302  65.484  1.00  0.00    -0.422 C  
HETATM    2  O   UNL     1     -11.995  13.110  66.118  1.00  0.00    -0.386 OA 
ENDROOT
BRANCH   2   3
HETATM    3  C   UNL     1     -11.197  12.273  65.377  1.00  0.00    -0.328 A  
HETATM    4  C   UNL     1     -10.675  12.636  64.124  1.00  0.00    -0.435 A  
HETATM    5  C   UNL     1      -9.916  11.738  63.367  1.00  0.00    -0.446 A  
HETATM    6  C   UNL     1      -9.647  10.468  63.859  1.00  0.00    -0.363 A  
HETATM    7  C   UNL     1     -10.141  10.098  65.104  1.00  0.00    -0.329 A  
HETATM    8  C   UNL     1     -10.911  10.984  65.874  1.00  0.00    -0.045 A  
BRANCH   8   9
HETATM    9  O   UNL     1     -11.353  10.390  67.038  1.00  0.00    -0.222 OA 
BRANCH   9  10
HETATM   10  C   UNL     1     -10.492   9.954  67.993  1.00  0.00    -0.222 A  
HETATM   11  C   UNL     1      -9.691  10.722  68.808  1.00  0.00    -0.192 A  
HETATM   12  N   UNL     1      -8.926  10.235  69.794  1.00  0.00    -0.125 NA 
HETATM   13  N   UNL     1      -9.600   8.042  69.155  1.00  0.00    -0.155 NA 
HETATM   14  C   UNL     1      -8.944   8.897  69.965  1.00  0.00    -0.165 A  
HETATM   15  C   UNL     1     -10.339   8.589  68.174  1.00  0.00    -0.206 A  
BRANCH  11  16
HETATM   16  N   UNL     1      -9.550  12.129  68.750  1.00  0.00    -0.405 N  
HETATM   17  H   UNL     1     -10.293  12.733  69.102  1.00  0.00     0.000 HD 
BRANCH  16  18
HETATM   18  S   UNL     1      -8.159  12.799  68.101  1.00  0.00    -0.164 S  
HETATM   19  O   UNL     1      -7.124  12.804  69.120  1.00  0.00    -0.068 OA 
HETATM   20  O   UNL     1      -7.938  12.121  66.838  1.00  0.00    -0.157 OA 
BRANCH  18  21
HETATM   21  C   UNL     1      -8.540  14.495  67.739  1.00  0.00    -0.175 A  
HETATM   22  C   UNL     1      -9.143  17.207  67.241  1.00  0.00    -0.227 A  
HETATM   23  C   UNL     1      -8.509  15.421  68.780  1.00  0.00    -0.188 A  
HETATM   24  C   UNL     1      -8.811  16.759  68.530  1.00  0.00    -0.248 A  
HETATM   25  C   UNL     1      -9.100  16.262  66.193  1.00  0.00    -0.377 A  
HETATM   26  C   UNL     1      -8.796  14.914  66.435  1.00  0.00    -0.196 A  
BRANCH  22  27
HETATM   27  C   UNL     1      -9.580  18.662  66.981  1.00  0.00    -0.319 C  
HETATM   28  C   UNL     1      -8.411  19.583  66.557  1.00  0.00    -0.365 C  
HETATM   29  C   UNL     1     -10.175  19.257  68.276  1.00  0.00    -0.513 C  
HETATM   30  C   UNL     1     -10.639  18.723  65.862  1.00  0.00    -0.405 C  
ENDBRANCH  22  27
ENDBRANCH  18  21
ENDBRANCH  16  18
ENDBRANCH  11  16
BRANCH  14  31
HETATM   31  C   UNL     1      -8.276   8.345  71.171  1.00  0.00    -0.131 A  
HETATM   32  N   UNL     1      -7.388   9.137  71.819  1.00  0.00    -0.332 NA 
HETATM   33  N   UNL     1      -8.526   7.056  71.511  1.00  0.00    -0.116 NA 
HETATM   34  C   UNL     1      -7.848   6.570  72.564  1.00  0.00    -0.103 A  
HETATM   35  C   UNL     1      -6.733   8.590  72.857  1.00  0.00    -0.048 A  
HETATM   36  C   UNL     1      -6.927   7.298  73.279  1.00  0.00    -0.074 A  
ENDBRANCH  14  31
BRANCH  15  37
HETATM   37  O   UNL     1     -10.965   7.743  67.276  1.00  0.00    -0.221 OA 
BRANCH  37  38
HETATM   38  C   UNL     1     -10.843   6.340  67.542  1.00  0.00    -0.349 C  
BRANCH  38  39
HETATM   39  C   UNL     1     -10.194   5.628  66.360  1.00  0.00    -0.171 C  
HETATM   40  O   UNL     1     -11.163   4.884  65.628  1.00  0.00    -0.860 OA 
HETATM   41  H   UNL     1     -10.759   4.440  64.891  1.00  0.00     0.000 HD 
ENDBRANCH  38  39
ENDBRANCH  37  38
ENDBRANCH  15  37
ENDBRANCH   9  10
ENDBRANCH   8   9
ENDBRANCH   2   3
TORSDOF 11
ENDMDL
MODEL       27
REMARK 921   NORMALIZED FREE ENERGY PREDICTED BY IDOCK:   -6.08 KCAL/MOL
REMARK 922        TOTAL FREE ENERGY PREDICTED BY IDOCK:  -12.46 KCAL/MOL
REMARK 923 INTER-LIGAND FREE ENERGY PREDICTED BY IDOCK:   -9.49 KCAL/MOL
REMARK 924 INTRA-LIGAND FREE ENERGY PREDICTED BY IDOCK:   -2.97 KCAL/MOL
REMARK 927      BINDING AFFINITY PREDICTED BY RF-SCORE:    0.00 PKD
ROOT
HETATM    1  C   UNL     1     -13.923   8.876  71.782  1.00  0.00    -0.393 C  
HETATM    2  O   UNL     1     -12.607   9.428  71.827  1.00  0.00    -0.335 OA 
ENDROOT
BRANCH   2   3
HETATM    3  C   UNL     1     -12.418  10.651  71.231  1.00  0.00    -0.410 A  
HETATM    4  C   UNL     1     -13.051  11.822  71.683  1.00  0.00    -0.443 A  
HETATM    5  C   UNL     1     -12.885  13.039  71.015  1.00  0.00    -0.281 A  
HETATM    6  C   UNL     1     -12.067  13.113  69.897  1.00  0.00    -0.357 A  
HETATM    7  C   UNL     1     -11.420  11.969  69.445  1.00  0.00    -0.361 A  
HETATM    8  C   UNL     1     -11.581  10.737  70.099  1.00  0.00    -0.337 A  
BRANCH   8   9
HETATM    9  O   UNL     1     -10.906   9.727  69.445  1.00  0.00    -0.226 OA 
BRANCH   9  10
HETATM   10  C   UNL     1      -9.888   9.047  70.032  1.00  0.00    -0.184 A  
HETATM   11  C   UNL     1      -8.602   9.490  70.247  1.00  0.00    -0.226 A  
HETATM   12  N   UNL     1      -7.665   8.802  70.912  1.00  0.00    -0.096 NA 
HETATM   13  N   UNL     1      -9.217   7.008  71.124  1.00  0.00    -0.157 NA 
HETATM   14  C   UNL     1      -8.026   7.587  71.374  1.00  0.00    -0.095 A  
HETATM   15  C   UNL     1     -10.111   7.741  70.439  1.00  0.00    -0.194 A  
BRANCH  11  16
HETATM   16  N   UNL     1      -8.066  10.728  69.818  1.00  0.00    -0.348 N  
HETATM   17  H   UNL     1      -8.079  11.535  70.441  1.00  0.00     0.000 HD 
BRANCH  16  18
HETATM   18  S   UNL     1      -7.409  10.862  68.283  1.00  0.00    -0.092 S  
HETATM   19  O   UNL     1      -6.230  11.708  68.352  1.00  0.00    -0.049 OA 
HETATM   20  O   UNL     1      -7.309   9.510  67.769  1.00  0.00    -0.082 OA 
BRANCH  18  21
HETATM   21  C   UNL     1      -8.609  11.722  67.296  1.00  0.00    -0.162 A  
HETATM   22  C   UNL     1     -10.491  13.158  65.759  1.00  0.00    -0.291 A  
HETATM   23  C   UNL     1      -8.580  13.115  67.277  1.00  0.00    -0.210 A  
HETATM   24  C   UNL     1      -9.513  13.820  66.520  1.00  0.00    -0.282 A  
HETATM   25  C   UNL     1     -10.455  11.747  65.742  1.00  0.00    -0.302 A  
HETATM   26  C   UNL     1      -9.518  11.029  66.501  1.00  0.00    -0.211 A  
BRANCH  22  27
HETATM   27  C   UNL     1     -11.588  13.933  65.005  1.00  0.00    -0.350 C  
HETATM   28  C   UNL     1     -11.904  13.343  63.610  1.00  0.00    -0.451 C  
HETATM   29  C   UNL     1     -11.126  15.390  64.783  1.00  0.00    -0.416 C  
HETATM   30  C   UNL     1     -12.904  13.937  65.808  1.00  0.00    -0.437 C  
ENDBRANCH  22  27
ENDBRANCH  18  21
ENDBRANCH  16  18
ENDBRANCH  11  16
BRANCH  14  31
HETATM   31  C   UNL     1      -7.086   6.888  72.289  1.00  0.00    -0.073 A  
HETATM   32  N   UNL     1      -7.285   5.566  72.509  1.00  0.00    -0.091 NA 
HETATM   33  N   UNL     1      -6.134   7.624  72.914  1.00  0.00    -0.054 NA 
HETATM   34  C   UNL     1      -5.349   6.972  73.789  1.00  0.00    -0.046 A  
HETATM   35  C   UNL     1      -6.476   4.974  73.404  1.00  0.00    -0.065 A  
HETATM   36  C   UNL     1      -5.479   5.635  74.079  1.00  0.00    -0.032 A  
ENDBRANCH  14  31
BRANCH  15  37
HETATM   37  O   UNL     1     -11.315   7.154  70.096  1.00  0.00    -0.277 OA 
BRANCH  37  38
HETATM   38  C   UNL     1     -11.237   6.021  69.222  1.00  0.00    -0.297 C  
BRANCH  38  39
HETATM   39  C   UNL     1     -10.530   6.397  67.924  1.00  0.00    -0.222 C  
HETATM   40  O   UNL     1     -11.262   7.396  67.223  1.00  0.00    -0.554 OA 
HETATM   41  H   UNL     1     -10.822   7.631  66.414  1.00  0.00     0.000 HD 
ENDBRANCH  38  39
ENDBRANCH  37  38
ENDBRANCH  15  37
ENDBRANCH   9  10
ENDBRANCH   8   9
ENDBRANCH   2   3
TORSDOF 11
ENDMDL
MODEL       28
REMARK 921   NORMALIZED FREE ENERGY PREDICTED BY IDOCK:   -6.06 KCAL/MOL
REMARK 922        TOTAL FREE ENERGY PREDICTED BY IDOCK:  -12.42 KCAL/MOL
REMARK 923 INTER-LIGAND FREE ENERGY PREDICTED BY IDOCK:   -9.72 KCAL/MOL
REMARK 924 INTRA-LIGAND FREE ENERGY PREDICTED BY IDOCK:   -2.70 KCAL/MOL
REMARK 927      BINDING AFFINITY PREDICTED BY RF-SCORE:    0.00 PKD
ROOT
HETATM    1  C   UNL     1     -12.035  13.709  67.776  1.00  0.00    -0.352 C  
HETATM    2  O   UNL     1     -12.036  12.408  67.189  1.00  0.00    -0.528 OA 
ENDROOT
BRANCH   2   3
HETATM    3  C   UNL     1     -11.755  12.324  65.848  1.00  0.00    -0.389 A  
HETATM    4  C   UNL     1     -12.647  12.766  64.856  1.00  0.00    -0.541 A  
HETATM    5  C   UNL     1     -12.356  12.609  63.497  1.00  0.00    -0.591 A  
HETATM    6  C   UNL     1     -11.158  12.029  63.105  1.00  0.00    -0.265 A  
HETATM    7  C   UNL     1     -10.256  11.601  64.071  1.00  0.00    -0.391 A  
HETATM    8  C   UNL     1     -10.535  11.743  65.440  1.00  0.00    -0.272 A  
BRANCH   8   9
HETATM    9  O   UNL     1      -9.538  11.192  66.219  1.00  0.00    -0.194 OA 
BRANCH   9  10
HETATM   10  C   UNL     1      -9.410   9.850  66.377  1.00  0.00    -0.167 A  
HETATM   11  C   UNL     1     -10.203   9.019  67.136  1.00  0.00    -0.265 A  
HETATM   12  N   UNL     1     -10.078   7.687  67.182  1.00  0.00    -0.225 NA 
HETATM   13  N   UNL     1      -8.183   7.874  65.752  1.00  0.00    -0.123 NA 
HETATM   14  C   UNL     1      -9.087   7.149  66.441  1.00  0.00    -0.157 A  
HETATM   15  C   UNL     1      -8.351   9.208  65.755  1.00  0.00    -0.126 A  
BRANCH  11  16
HETATM   16  N   UNL     1     -11.270   9.424  67.974  1.00  0.00    -0.492 N  
HETATM   17  H   UNL     1     -12.233   9.364  67.642  1.00  0.00     0.000 HD 
BRANCH  16  18
HETATM   18  S   UNL     1     -10.947  10.002  69.512  1.00  0.00    -0.253 S  
HETATM   19  O   UNL     1      -9.684  10.718  69.486  1.00  0.00    -0.133 OA 
HETATM   20  O   UNL     1     -12.156  10.670  69.953  1.00  0.00    -0.303 OA 
BRANCH  18  21
HETATM   21  C   UNL     1     -10.715   8.577  70.546  1.00  0.00    -0.221 A  
HETATM   22  C   UNL     1     -10.287   6.349  72.225  1.00  0.00    -0.215 A  
HETATM   23  C   UNL     1      -9.798   8.655  71.592  1.00  0.00    -0.351 A  
HETATM   24  C   UNL     1      -9.587   7.551  72.416  1.00  0.00    -0.205 A  
HETATM   25  C   UNL     1     -11.259   6.319  71.202  1.00  0.00    -0.365 A  
HETATM   26  C   UNL     1     -11.479   7.425  70.368  1.00  0.00    -0.250 A  
BRANCH  22  27
HETATM   27  C   UNL     1      -9.980   5.095  73.066  1.00  0.00    -0.190 C  
HETATM   28  C   UNL     1      -9.360   5.423  74.445  1.00  0.00    -0.131 C  
HETATM   29  C   UNL     1      -8.963   4.210  72.315  1.00  0.00    -0.139 C  
HETATM   30  C   UNL     1     -11.265   4.282  73.326  1.00  0.00    -0.338 C  
ENDBRANCH  22  27
ENDBRANCH  18  21
ENDBRANCH  16  18
ENDBRANCH  11  16
BRANCH  14  31
HETATM   31  C   UNL     1      -9.050   5.670  66.304  1.00  0.00    -0.148 A  
HETATM   32  N   UNL     1      -8.830   5.155  65.070  1.00  0.00    -0.152 NA 
HETATM   33  N   UNL     1      -9.317   4.918  67.400  1.00  0.00    -0.126 NA 
HETATM   34  C   UNL     1      -9.347   3.587  67.222  1.00  0.00    -0.205 A  
HETATM   35  C   UNL     1      -8.885   3.818  64.954  1.00  0.00    -0.121 A  
HETATM   36  C   UNL     1      -9.140   2.975  66.008  1.00  0.00    -0.142 A  
ENDBRANCH  14  31
BRANCH  15  37
HETATM   37  O   UNL     1      -7.401   9.990  65.125  1.00  0.00    -0.127 OA 
BRANCH  37  38
HETATM   38  C   UNL     1      -6.091   9.981  65.707  1.00  0.00    -0.086 C  
BRANCH  38  39
HETATM   39  C   UNL     1      -6.002  11.004  66.835  1.00  0.00    -0.088 C  
HETATM   40  O   UNL     1      -6.850  12.118  66.573  1.00  0.00    -0.360 OA 
HETATM   41  H   UNL     1      -6.795  12.755  67.275  1.00  0.00     0.000 HD 
ENDBRANCH  38  39
ENDBRANCH  37  38
ENDBRANCH  15  37
ENDBRANCH   9  10
ENDBRANCH   8   9
ENDBRANCH   2   3
TORSDOF 11
ENDMDL
MODEL       29
REMARK 921   NORMALIZED FREE ENERGY PREDICTED BY IDOCK:   -6.02 KCAL/MOL
REMARK 922        TOTAL FREE ENERGY PREDICTED BY IDOCK:  -12.36 KCAL/MOL
REMARK 923 INTER-LIGAND FREE ENERGY PREDICTED BY IDOCK:   -9.71 KCAL/MOL
REMARK 924 INTRA-LIGAND FREE ENERGY PREDICTED BY IDOCK:   -2.65 KCAL/MOL
REMARK 927      BINDING AFFINITY PREDICTED BY RF-SCORE:    0.00 PKD
ROOT
HETATM    1  C   UNL     1      -9.262   9.718  64.074  1.00  0.00    -0.215 C  
HETATM    2  O   UNL     1      -8.778   9.578  65.410  1.00  0.00    -0.144 OA 
ENDROOT
BRANCH   2   3
HETATM    3  C   UNL     1      -9.620   9.960  66.425  1.00  0.00    -0.200 A  
HETATM    4  C   UNL     1     -10.370   9.040  67.177  1.00  0.00    -0.342 A  
HETATM    5  C   UNL     1     -11.265   9.467  68.163  1.00  0.00     0.067 A  
HETATM    6  C   UNL     1     -11.409  10.821  68.431  1.00  0.00    -0.367 A  
HETATM    7  C   UNL     1     -10.662  11.745  67.710  1.00  0.00    -0.244 A  
HETATM    8  C   UNL     1      -9.766  11.334  66.711  1.00  0.00    -0.193 A  
BRANCH   8   9
HETATM    9  O   UNL     1      -9.184  12.414  66.079  1.00  0.00    -0.173 OA 
BRANCH   9  10
HETATM   10  C   UNL     1      -9.492  13.693  66.414  1.00  0.00    -0.234 A  
HETATM   11  C   UNL     1      -9.178  14.348  67.584  1.00  0.00    -0.196 A  
HETATM   12  N   UNL     1      -9.434  15.641  67.820  1.00  0.00    -0.207 NA 
HETATM   13  N   UNL     1     -10.514  15.753  65.700  1.00  0.00    -0.360 NA 
HETATM   14  C   UNL     1     -10.061  16.320  66.836  1.00  0.00    -0.278 A  
HETATM   15  C   UNL     1     -10.240  14.449  65.526  1.00  0.00    -0.363 A  
BRANCH  11  16
HETATM   16  N   UNL     1      -8.536  13.779  68.710  1.00  0.00    -0.360 N  
HETATM   17  H   UNL     1      -9.054  13.639  69.578  1.00  0.00     0.000 HD 
BRANCH  16  18
HETATM   18  S   UNL     1      -6.924  13.336  68.613  1.00  0.00    -0.105 S  
HETATM   19  O   UNL     1      -6.386  13.806  67.349  1.00  0.00    -0.315 OA 
HETATM   20  O   UNL     1      -6.318  13.750  69.864  1.00  0.00    -0.134 OA 
BRANCH  18  21
HETATM   21  C   UNL     1      -6.893  11.561  68.565  1.00  0.00    -0.074 A  
HETATM   22  C   UNL     1      -6.805   8.744  68.418  1.00  0.00    -0.065 A  
HETATM   23  C   UNL     1      -6.171  10.936  67.550  1.00  0.00    -0.053 A  
HETATM   24  C   UNL     1      -6.134   9.544  67.479  1.00  0.00    -0.053 A  
HETATM   25  C   UNL     1      -7.471   9.402  69.475  1.00  0.00    -0.083 A  
HETATM   26  C   UNL     1      -7.513  10.802  69.554  1.00  0.00    -0.113 A  
BRANCH  22  27
HETATM   27  C   UNL     1      -6.853   7.210  68.282  1.00  0.00    -0.074 C  
HETATM   28  C   UNL     1      -8.022   6.565  69.064  1.00  0.00    -0.111 C  
HETATM   29  C   UNL     1      -5.549   6.604  68.843  1.00  0.00    -0.017 C  
HETATM   30  C   UNL     1      -7.009   6.797  66.805  1.00  0.00    -0.067 C  
ENDBRANCH  22  27
ENDBRANCH  18  21
ENDBRANCH  16  18
ENDBRANCH  11  16
BRANCH  14  31
HETATM   31  C   UNL     1     -10.173  17.794  66.977  1.00  0.00    -0.346 A  
HETATM   32  N   UNL     1     -10.344  18.525  65.849  1.00  0.00    -0.599 NA 
HETATM   33  N   UNL     1     -10.019  18.335  68.211  1.00  0.00    -0.344 NA 
HETATM   34  C   UNL     1     -10.054  19.675  68.289  1.00  0.00    -0.449 A  
HETATM   35  C   UNL     1     -10.359  19.861  65.990  1.00  0.00    -0.486 A  
HETATM   36  C   UNL     1     -10.219  20.498  67.199  1.00  0.00    -0.334 A  
ENDBRANCH  14  31
BRANCH  15  37
HETATM   37  O   UNL     1     -10.754  13.814  64.410  1.00  0.00    -0.407 OA 
BRANCH  37  38
HETATM   38  C   UNL     1     -12.176  13.634  64.388  1.00  0.00    -0.390 C  
BRANCH  38  39
HETATM   39  C   UNL     1     -12.525  12.152  64.302  1.00  0.00    -0.363 C  
HETATM   40  O   UNL     1     -12.118  11.611  63.050  1.00  0.00    -0.915 OA 
HETATM   41  H   UNL     1     -12.335  10.687  62.996  1.00  0.00     0.000 HD 
ENDBRANCH  38  39
ENDBRANCH  37  38
ENDBRANCH  15  37
ENDBRANCH   9  10
ENDBRANCH   8   9
ENDBRANCH   2   3
TORSDOF 11
ENDMDL
MODEL       30
REMARK 921   NORMALIZED FREE ENERGY PREDICTED BY IDOCK:   -6.00 KCAL/MOL
REMARK 922        TOTAL FREE ENERGY PREDICTED BY IDOCK:  -12.32 KCAL/MOL
REMARK 923 INTER-LIGAND FREE ENERGY PREDICTED BY IDOCK:  -10.86 KCAL/MOL
REMARK 924 INTRA-LIGAND FREE ENERGY PREDICTED BY IDOCK:   -1.46 KCAL/MOL
REMARK 927      BINDING AFFINITY PREDICTED BY RF-SCORE:    0.00 PKD
ROOT
HETATM    1  C   UNL     1      -6.504  10.393  67.921  1.00  0.00    -0.060 C  
HETATM    2  O   UNL     1      -7.770  10.026  68.469  1.00  0.00    -0.085 OA 
ENDROOT
BRANCH   2   3
HETATM    3  C   UNL     1      -8.028   8.685  68.609  1.00  0.00    -0.115 A  
HETATM    4  C   UNL     1      -7.030   7.749  68.930  1.00  0.00    -0.066 A  
HETATM    5  C   UNL     1      -7.315   6.382  69.004  1.00  0.00    -0.089 A  
HETATM    6  C   UNL     1      -8.607   5.928  68.782  1.00  0.00    -0.110 A  
HETATM    7  C   UNL     1      -9.611   6.840  68.480  1.00  0.00    -0.130 A  
HETATM    8  C   UNL     1      -9.341   8.216  68.393  1.00  0.00    -0.135 A  
BRANCH   8   9
HETATM    9  O   UNL     1     -10.462   8.927  68.018  1.00  0.00    -0.220 OA 
BRANCH   9  10
HETATM   10  C   UNL     1     -10.863  10.039  68.685  1.00  0.00    -0.229 A  
HETATM   11  C   UNL     1     -10.691  11.351  68.301  1.00  0.00    -0.204 A  
HETATM   12  N   UNL     1     -11.189  12.404  68.961  1.00  0.00    -0.260 NA 
HETATM   13  N   UNL     1     -12.017  10.903  70.614  1.00  0.00    -0.347 NA 
HETATM   14  C   UNL     1     -11.884  12.136  70.086  1.00  0.00    -0.287 A  
HETATM   15  C   UNL     1     -11.484   9.887  69.914  1.00  0.00    -0.179 A  
BRANCH  11  16
HETATM   16  N   UNL     1      -9.980  11.798  67.162  1.00  0.00    -0.202 N  
HETATM   17  H   UNL     1      -8.999  11.546  67.039  1.00  0.00     0.000 HD 
BRANCH  16  18
HETATM   18  S   UNL     1     -10.755  12.744  66.017  1.00  0.00    -0.278 S  
HETATM   19  O   UNL     1     -10.216  12.425  64.706  1.00  0.00    -0.284 OA 
HETATM   20  O   UNL     1     -12.175  12.605  66.276  1.00  0.00    -0.562 OA 
BRANCH  18  21
HETATM   21  C   UNL     1     -10.308  14.426  66.368  1.00  0.00    -0.287 A  
HETATM   22  C   UNL     1      -9.550  17.074  66.984  1.00  0.00    -0.257 A  
HETATM   23  C   UNL     1      -9.289  14.666  67.288  1.00  0.00    -0.212 A  
HETATM   24  C   UNL     1      -8.921  15.975  67.592  1.00  0.00    -0.193 A  
HETATM   25  C   UNL     1     -10.531  16.802  66.006  1.00  0.00    -0.300 A  
HETATM   26  C   UNL     1     -10.908  15.487  65.693  1.00  0.00    -0.354 A  
BRANCH  22  27
HETATM   27  C   UNL     1      -9.219  18.522  67.395  1.00  0.00    -0.286 C  
HETATM   28  C   UNL     1      -9.243  19.513  66.207  1.00  0.00    -0.416 C  
HETATM   29  C   UNL     1      -7.797  18.571  67.995  1.00  0.00    -0.291 C  
HETATM   30  C   UNL     1     -10.228  19.037  68.441  1.00  0.00    -0.450 C  
ENDBRANCH  22  27
ENDBRANCH  18  21
ENDBRANCH  16  18
ENDBRANCH  11  16
BRANCH  14  31
HETATM   31  C   UNL     1     -12.622  13.255  70.726  1.00  0.00    -0.280 A  
HETATM   32  N   UNL     1     -12.436  14.501  70.227  1.00  0.00    -0.347 NA 
HETATM   33  N   UNL     1     -13.374  12.985  71.821  1.00  0.00    -0.411 NA 
HETATM   34  C   UNL     1     -13.967  14.033  72.417  1.00  0.00    -0.521 A  
HETATM   35  C   UNL     1     -13.045  15.509  70.873  1.00  0.00    -0.448 A  
HETATM   36  C   UNL     1     -13.833  15.331  71.984  1.00  0.00    -0.626 A  
ENDBRANCH  14  31
BRANCH  15  37
HETATM   37  O   UNL     1     -11.533   8.617  70.460  1.00  0.00    -0.260 OA 
BRANCH  37  38
HETATM   38  C   UNL     1     -10.968   8.474  71.770  1.00  0.00    -0.306 C  
BRANCH  38  39
HETATM   39  C   UNL     1     -11.054   7.022  72.231  1.00  0.00    -0.252 C  
HETATM   40  O   UNL     1     -11.047   6.945  73.653  1.00  0.00    -0.518 OA 
HETATM   41  H   UNL     1     -11.101   6.041  73.941  1.00  0.00     0.000 HD 
ENDBRANCH  38  39
ENDBRANCH  37  38
ENDBRANCH  15  37
ENDBRANCH   9  10
ENDBRANCH   8   9
ENDBRANCH   2   3
TORSDOF 11
ENDMDL
MODEL       31
REMARK 921   NORMALIZED FREE ENERGY PREDICTED BY IDOCK:   -5.98 KCAL/MOL
REMARK 922        TOTAL FREE ENERGY PREDICTED BY IDOCK:  -12.29 KCAL/MOL
REMARK 923 INTER-LIGAND FREE ENERGY PREDICTED BY IDOCK:   -9.38 KCAL/MOL
REMARK 924 INTRA-LIGAND FREE ENERGY PREDICTED BY IDOCK:   -2.91 KCAL/MOL
REMARK 927      BINDING AFFINITY PREDICTED BY RF-SCORE:    0.00 PKD
ROOT
HETATM    1  C   UNL     1     -13.318   6.729  71.632  1.00  0.00    -0.126 C  
HETATM    2  O   UNL     1     -12.150   7.491  71.939  1.00  0.00    -0.288 OA 
ENDROOT
BRANCH   2   3
HETATM    3  C   UNL     1     -12.101   8.781  71.472  1.00  0.00    -0.329 A  
HETATM    4  C   UNL     1     -13.092   9.733  71.767  1.00  0.00    -0.528 A  
HETATM    5  C   UNL     1     -13.044  11.021  71.224  1.00  0.00    -0.381 A  
HETATM    6  C   UNL     1     -11.994  11.387  70.394  1.00  0.00    -0.465 A  
HETATM    7  C   UNL     1     -10.996  10.464  70.105  1.00  0.00    -0.365 A  
HETATM    8  C   UNL     1     -11.032   9.164  70.635  1.00  0.00    -0.263 A  
BRANCH   8   9
HETATM    9  O   UNL     1      -9.985   8.398  70.165  1.00  0.00    -0.183 OA 
BRANCH   9  10
HETATM   10  C   UNL     1     -10.154   7.474  69.185  1.00  0.00    -0.192 A  
HETATM   11  C   UNL     1     -10.519   7.702  67.877  1.00  0.00    -0.207 A  
HETATM   12  N   UNL     1     -10.584   6.754  66.933  1.00  0.00    -0.301 NA 
HETATM   13  N   UNL     1     -10.029   5.142  68.597  1.00  0.00    -0.163 NA 
HETATM   14  C   UNL     1     -10.287   5.496  67.322  1.00  0.00    -0.236 A  
HETATM   15  C   UNL     1      -9.992   6.135  69.502  1.00  0.00    -0.166 A  
BRANCH  11  16
HETATM   16  N   UNL     1     -10.871   8.953  67.317  1.00  0.00    -0.403 N  
HETATM   17  H   UNL     1     -11.819   9.314  67.425  1.00  0.00     0.000 HD 
BRANCH  16  18
HETATM   18  S   UNL     1      -9.726   9.840  66.476  1.00  0.00    -0.225 S  
HETATM   19  O   UNL     1      -8.403   9.399  66.882  1.00  0.00    -0.124 OA 
HETATM   20  O   UNL     1     -10.119   9.782  65.081  1.00  0.00    -0.262 OA 
BRANCH  18  21
HETATM   21  C   UNL     1      -9.901  11.524  67.012  1.00  0.00    -0.192 A  
HETATM   22  C   UNL     1     -10.249  14.203  67.828  1.00  0.00    -0.242 A  
HETATM   23  C   UNL     1     -11.116  12.169  66.793  1.00  0.00    -0.349 A  
HETATM   24  C   UNL     1     -11.283  13.493  67.194  1.00  0.00    -0.324 A  
HETATM   25  C   UNL     1      -9.053  13.505  68.099  1.00  0.00    -0.199 A  
HETATM   26  C   UNL     1      -8.877  12.171  67.699  1.00  0.00    -0.172 A  
BRANCH  22  27
HETATM   27  C   UNL     1     -10.393  15.697  68.177  1.00  0.00    -0.246 C  
HETATM   28  C   UNL     1      -9.203  16.249  68.997  1.00  0.00    -0.253 C  
HETATM   29  C   UNL     1     -11.663  15.904  69.031  1.00  0.00    -0.377 C  
HETATM   30  C   UNL     1     -10.500  16.549  66.897  1.00  0.00    -0.282 C  
ENDBRANCH  22  27
ENDBRANCH  18  21
ENDBRANCH  16  18
ENDBRANCH  11  16
BRANCH  14  31
HETATM   31  C   UNL     1     -10.147   4.461  66.265  1.00  0.00    -0.225 A  
HETATM   32  N   UNL     1      -9.193   3.514  66.432  1.00  0.00    -0.161 NA 
HETATM   33  N   UNL     1     -10.922   4.566  65.158  1.00  0.00    -0.138 NA 
HETATM   34  C   UNL     1     -10.716   3.655  64.192  1.00  0.00    -0.210 A  
HETATM   35  C   UNL     1      -9.026   2.639  65.426  1.00  0.00    -0.134 A  
HETATM   36  C   UNL     1      -9.770   2.661  64.271  1.00  0.00    -0.135 A  
ENDBRANCH  14  31
BRANCH  15  37
HETATM   37  O   UNL     1      -9.807   5.803  70.832  1.00  0.00    -0.169 OA 
BRANCH  37  38
HETATM   38  C   UNL     1      -8.454   5.564  71.239  1.00  0.00    -0.127 C  
BRANCH  38  39
HETATM   39  C   UNL     1      -8.131   6.351  72.505  1.00  0.00    -0.102 C  
HETATM   40  O   UNL     1      -9.194   7.241  72.829  1.00  0.00    -0.136 OA 
HETATM   41  H   UNL     1      -8.993   7.731  73.618  1.00  0.00     0.000 HD 
ENDBRANCH  38  39
ENDBRANCH  37  38
ENDBRANCH  15  37
ENDBRANCH   9  10
ENDBRANCH   8   9
ENDBRANCH   2   3
TORSDOF 11
ENDMDL
MODEL       32
REMARK 921   NORMALIZED FREE ENERGY PREDICTED BY IDOCK:   -5.98 KCAL/MOL
REMARK 922        TOTAL FREE ENERGY PREDICTED BY IDOCK:  -12.29 KCAL/MOL
REMARK 923 INTER-LIGAND FREE ENERGY PREDICTED BY IDOCK:   -8.85 KCAL/MOL
REMARK 924 INTRA-LIGAND FREE ENERGY PREDICTED BY IDOCK:   -3.43 KCAL/MOL
REMARK 927      BINDING AFFINITY PREDICTED BY RF-SCORE:    0.00 PKD
ROOT
HETATM    1  C   UNL     1      -9.873   6.732  74.168  1.00  0.00    -0.321 C  
HETATM    2  O   UNL     1      -9.184   6.961  72.938  1.00  0.00    -0.134 OA 
ENDROOT
BRANCH   2   3
HETATM    3  C   UNL     1      -9.865   6.687  71.777  1.00  0.00    -0.161 A  
HETATM    4  C   UNL     1     -10.070   5.379  71.308  1.00  0.00    -0.270 A  
HETATM    5  C   UNL     1     -10.714   5.138  70.090  1.00  0.00    -0.105 A  
HETATM    6  C   UNL     1     -11.184   6.200  69.330  1.00  0.00    -0.466 A  
HETATM    7  C   UNL     1     -11.005   7.501  69.787  1.00  0.00    -0.195 A  
HETATM    8  C   UNL     1     -10.353   7.761  71.003  1.00  0.00    -0.202 A  
BRANCH   8   9
HETATM    9  O   UNL     1     -10.225   9.116  71.228  1.00  0.00    -0.284 OA 
BRANCH   9  10
HETATM   10  C   UNL     1     -10.481  10.032  70.258  1.00  0.00    -0.272 A  
HETATM   11  C   UNL     1      -9.669  10.376  69.201  1.00  0.00    -0.220 A  
HETATM   12  N   UNL     1     -10.016  11.226  68.225  1.00  0.00    -0.188 NA 
HETATM   13  N   UNL     1     -12.071  11.606  69.368  1.00  0.00    -0.293 NA 
HETATM   14  C   UNL     1     -11.241  11.783  68.321  1.00  0.00    -0.255 A  
HETATM   15  C   UNL     1     -11.661  10.754  70.324  1.00  0.00    -0.352 A  
BRANCH  11  16
HETATM   16  N   UNL     1      -8.360   9.893  68.965  1.00  0.00    -0.121 N  
HETATM   17  H   UNL     1      -7.611  10.098  69.627  1.00  0.00     0.000 HD 
BRANCH  16  18
HETATM   18  S   UNL     1      -8.042   8.985  67.594  1.00  0.00    -0.109 S  
HETATM   19  O   UNL     1      -9.244   8.934  66.779  1.00  0.00    -0.145 OA 
HETATM   20  O   UNL     1      -6.808   9.509  67.042  1.00  0.00    -0.081 OA 
BRANCH  18  21
HETATM   21  C   UNL     1      -7.721   7.330  68.150  1.00  0.00    -0.117 A  
HETATM   22  C   UNL     1      -7.249   4.671  68.972  1.00  0.00    -0.053 A  
HETATM   23  C   UNL     1      -8.074   6.268  67.320  1.00  0.00    -0.109 A  
HETATM   24  C   UNL     1      -7.843   4.957  67.731  1.00  0.00    -0.094 A  
HETATM   25  C   UNL     1      -6.840   5.766  69.764  1.00  0.00    -0.061 A  
HETATM   26  C   UNL     1      -7.068   7.090  69.357  1.00  0.00    -0.079 A  
BRANCH  22  27
HETATM   27  C   UNL     1      -7.089   3.224  69.475  1.00  0.00    -0.041 C  
HETATM   28  C   UNL     1      -8.278   2.310  69.091  1.00  0.00    -0.071 C  
HETATM   29  C   UNL     1      -7.002   3.224  71.017  1.00  0.00    -0.033 C  
HETATM   30  C   UNL     1      -5.814   2.581  68.895  1.00  0.00    -0.023 C  
ENDBRANCH  22  27
ENDBRANCH  18  21
ENDBRANCH  16  18
ENDBRANCH  11  16
BRANCH  14  31
HETATM   31  C   UNL     1     -11.738  12.564  67.158  1.00  0.00    -0.355 A  
HETATM   32  N   UNL     1     -12.017  11.888  66.017  1.00  0.00    -0.459 NA 
HETATM   33  N   UNL     1     -11.808  13.913  67.273  1.00  0.00    -0.386 NA 
HETATM   34  C   UNL     1     -12.191  14.590  66.178  1.00  0.00    -0.251 A  
HETATM   35  C   UNL     1     -12.383  12.622  64.953  1.00  0.00    -0.498 A  
HETATM   36  C   UNL     1     -12.490  13.991  64.978  1.00  0.00    -0.446 A  
ENDBRANCH  14  31
BRANCH  15  37
HETATM   37  O   UNL     1     -12.449  10.604  71.450  1.00  0.00    -0.368 OA 
BRANCH  37  38
HETATM   38  C   UNL     1     -13.711   9.953  71.255  1.00  0.00    -0.106 C  
BRANCH  38  39
HETATM   39  C   UNL     1     -13.976   8.956  72.378  1.00  0.00    -0.448 C  
HETATM   40  O   UNL     1     -12.756   8.551  72.990  1.00  0.00    -0.679 OA 
HETATM   41  H   UNL     1     -12.920   7.930  73.690  1.00  0.00     0.000 HD 
ENDBRANCH  38  39
ENDBRANCH  37  38
ENDBRANCH  15  37
ENDBRANCH   9  10
ENDBRANCH   8   9
ENDBRANCH   2   3
TORSDOF 11
ENDMDL
MODEL       33
REMARK 921   NORMALIZED FREE ENERGY PREDICTED BY IDOCK:   -5.98 KCAL/MOL
REMARK 922        TOTAL FREE ENERGY PREDICTED BY IDOCK:  -12.28 KCAL/MOL
REMARK 923 INTER-LIGAND FREE ENERGY PREDICTED BY IDOCK:  -10.73 KCAL/MOL
REMARK 924 INTRA-LIGAND FREE ENERGY PREDICTED BY IDOCK:   -1.55 KCAL/MOL
REMARK 927      BINDING AFFINITY PREDICTED BY RF-SCORE:    0.00 PKD
ROOT
HETATM    1  C   UNL     1      -9.651  17.738  66.358  1.00  0.00    -0.283 C  
HETATM    2  O   UNL     1      -9.468  16.322  66.367  1.00  0.00    -0.254 OA 
ENDROOT
BRANCH   2   3
HETATM    3  C   UNL     1     -10.522  15.550  65.945  1.00  0.00    -0.342 A  
HETATM    4  C   UNL     1     -11.062  15.644  64.651  1.00  0.00    -0.387 A  
HETATM    5  C   UNL     1     -12.175  14.887  64.273  1.00  0.00    -0.365 A  
HETATM    6  C   UNL     1     -12.755  14.005  65.174  1.00  0.00    -0.419 A  
HETATM    7  C   UNL     1     -12.224  13.886  66.453  1.00  0.00    -0.487 A  
HETATM    8  C   UNL     1     -11.111  14.644  66.852  1.00  0.00    -0.333 A  
BRANCH   8   9
HETATM    9  O   UNL     1     -10.796  14.419  68.176  1.00  0.00    -0.236 OA 
BRANCH   9  10
HETATM   10  C   UNL     1     -11.026  13.223  68.776  1.00  0.00    -0.260 A  
HETATM   11  C   UNL     1     -10.463  12.007  68.458  1.00  0.00    -0.229 A  
HETATM   12  N   UNL     1     -10.665  10.876  69.145  1.00  0.00    -0.214 NA 
HETATM   13  N   UNL     1     -12.188  12.064  70.538  1.00  0.00    -0.361 NA 
HETATM   14  C   UNL     1     -11.497  10.956  70.205  1.00  0.00    -0.302 A  
HETATM   15  C   UNL     1     -11.955  13.165  69.802  1.00  0.00    -0.314 A  
BRANCH  11  16
HETATM   16  N   UNL     1      -9.586  11.754  67.376  1.00  0.00    -0.168 N  
HETATM   17  H   UNL     1      -9.852  12.019  66.428  1.00  0.00     0.000 HD 
BRANCH  16  18
HETATM   18  S   UNL     1      -8.109  11.016  67.658  1.00  0.00    -0.118 S  
HETATM   19  O   UNL     1      -7.212  11.333  66.561  1.00  0.00    -0.139 OA 
HETATM   20  O   UNL     1      -7.745  11.354  69.020  1.00  0.00    -0.125 OA 
BRANCH  18  21
HETATM   21  C   UNL     1      -8.403   9.266  67.601  1.00  0.00    -0.116 A  
HETATM   22  C   UNL     1      -8.917   6.495  67.449  1.00  0.00    -0.110 A  
HETATM   23  C   UNL     1      -9.135   8.748  66.534  1.00  0.00    -0.203 A  
HETATM   24  C   UNL     1      -9.390   7.380  66.465  1.00  0.00    -0.222 A  
HETATM   25  C   UNL     1      -8.121   7.036  68.481  1.00  0.00    -0.124 A  
HETATM   26  C   UNL     1      -7.859   8.412  68.558  1.00  0.00    -0.120 A  
BRANCH  22  27
HETATM   27  C   UNL     1      -9.286   4.999  67.431  1.00  0.00    -0.138 C  
HETATM   28  C   UNL     1      -8.101   4.083  67.040  1.00  0.00    -0.096 C  
HETATM   29  C   UNL     1     -10.403   4.758  66.393  1.00  0.00    -0.312 C  
HETATM   30  C   UNL     1      -9.777   4.541  68.819  1.00  0.00    -0.213 C  
ENDBRANCH  22  27
ENDBRANCH  18  21
ENDBRANCH  16  18
ENDBRANCH  11  16
BRANCH  14  31
HETATM   31  C   UNL     1     -11.581   9.780  71.108  1.00  0.00    -0.392 A  
HETATM   32  N   UNL     1     -12.810   9.392  71.527  1.00  0.00    -0.341 NA 
HETATM   33  N   UNL     1     -10.425   9.209  71.529  1.00  0.00    -0.341 NA 
HETATM   34  C   UNL     1     -10.538   8.195  72.402  1.00  0.00    -0.323 A  
HETATM   35  C   UNL     1     -12.857   8.380  72.409  1.00  0.00    -0.277 A  
HETATM   36  C   UNL     1     -11.741   7.736  72.884  1.00  0.00    -0.231 A  
ENDBRANCH  14  31
BRANCH  15  37
HETATM   37  O   UNL     1     -12.701  14.299  70.064  1.00  0.00    -0.297 OA 
BRANCH  37  38
HETATM   38  C   UNL     1     -12.638  14.798  71.406  1.00  0.00    -0.326 C  
BRANCH  38  39
HETATM   39  C   UNL     1     -14.000  14.681  72.083  1.00  0.00    -0.492 C  
HETATM   40  O   UNL     1     -14.212  13.356  72.559  1.00  0.00    -0.721 OA 
HETATM   41  H   UNL     1     -15.061  13.282  72.981  1.00  0.00     0.000 HD 
ENDBRANCH  38  39
ENDBRANCH  37  38
ENDBRANCH  15  37
ENDBRANCH   9  10
ENDBRANCH   8   9
ENDBRANCH   2   3
TORSDOF 11
ENDMDL
MODEL       34
REMARK 921   NORMALIZED FREE ENERGY PREDICTED BY IDOCK:   -5.96 KCAL/MOL
REMARK 922        TOTAL FREE ENERGY PREDICTED BY IDOCK:  -12.25 KCAL/MOL
REMARK 923 INTER-LIGAND FREE ENERGY PREDICTED BY IDOCK:  -10.91 KCAL/MOL
REMARK 924 INTRA-LIGAND FREE ENERGY PREDICTED BY IDOCK:   -1.34 KCAL/MOL
REMARK 927      BINDING AFFINITY PREDICTED BY RF-SCORE:    0.00 PKD
ROOT
HETATM    1  C   UNL     1      -7.019  19.690  65.601  1.00  0.00    -0.302 C  
HETATM    2  O   UNL     1      -7.643  18.406  65.568  1.00  0.00    -0.510 OA 
ENDROOT
BRANCH   2   3
HETATM    3  C   UNL     1      -7.052  17.402  66.296  1.00  0.00    -0.295 A  
HETATM    4  C   UNL     1      -5.723  17.472  66.746  1.00  0.00    -0.208 A  
HETATM    5  C   UNL     1      -5.133  16.406  67.432  1.00  0.00    -0.143 A  
HETATM    6  C   UNL     1      -5.868  15.259  67.699  1.00  0.00    -0.094 A  
HETATM    7  C   UNL     1      -7.189  15.179  67.276  1.00  0.00    -0.197 A  
HETATM    8  C   UNL     1      -7.795  16.237  66.580  1.00  0.00    -0.263 A  
BRANCH   8   9
HETATM    9  O   UNL     1      -9.082  15.919  66.198  1.00  0.00    -0.310 OA 
BRANCH   9  10
HETATM   10  C   UNL     1      -9.870  15.099  66.941  1.00  0.00    -0.237 A  
HETATM   11  C   UNL     1      -9.968  13.729  66.851  1.00  0.00    -0.264 A  
HETATM   12  N   UNL     1     -10.699  12.966  67.675  1.00  0.00    -0.221 NA 
HETATM   13  N   UNL     1     -11.460  14.954  68.744  1.00  0.00    -0.291 NA 
HETATM   14  C   UNL     1     -11.393  13.612  68.635  1.00  0.00    -0.286 A  
HETATM   15  C   UNL     1     -10.715  15.666  67.881  1.00  0.00    -0.294 A  
BRANCH  11  16
HETATM   16  N   UNL     1      -9.319  12.908  65.898  1.00  0.00    -0.462 N  
HETATM   17  H   UNL     1      -8.312  12.986  65.756  1.00  0.00     0.000 HD 
BRANCH  16  18
HETATM   18  S   UNL     1     -10.210  11.809  65.002  1.00  0.00    -0.282 S  
HETATM   19  O   UNL     1     -11.623  12.058  65.229  1.00  0.00    -0.336 OA 
HETATM   20  O   UNL     1      -9.668  11.853  63.658  1.00  0.00    -0.301 OA 
BRANCH  18  21
HETATM   21  C   UNL     1      -9.850  10.205  65.673  1.00  0.00    -0.280 A  
HETATM   22  C   UNL     1      -9.333   7.668  66.796  1.00  0.00    -0.218 A  
HETATM   23  C   UNL     1     -10.649   9.721  66.707  1.00  0.00    -0.208 A  
HETATM   24  C   UNL     1     -10.388   8.470  67.261  1.00  0.00    -0.372 A  
HETATM   25  C   UNL     1      -8.582   8.152  65.703  1.00  0.00    -0.181 A  
HETATM   26  C   UNL     1      -8.838   9.411  65.138  1.00  0.00    -0.233 A  
BRANCH  22  27
HETATM   27  C   UNL     1      -8.975   6.332  67.475  1.00  0.00    -0.108 C  
HETATM   28  C   UNL     1      -8.426   5.274  66.488  1.00  0.00    -0.112 C  
HETATM   29  C   UNL     1     -10.242   5.730  68.121  1.00  0.00    -0.235 C  
HETATM   30  C   UNL     1      -7.903   6.541  68.563  1.00  0.00    -0.106 C  
ENDBRANCH  22  27
ENDBRANCH  18  21
ENDBRANCH  16  18
ENDBRANCH  11  16
BRANCH  14  31
HETATM   31  C   UNL     1     -12.045  12.791  69.688  1.00  0.00    -0.222 A  
HETATM   32  N   UNL     1     -12.445  13.417  70.820  1.00  0.00    -0.358 NA 
HETATM   33  N   UNL     1     -12.130  11.451  69.495  1.00  0.00    -0.317 NA 
HETATM   34  C   UNL     1     -12.659  10.732  70.499  1.00  0.00    -0.336 A  
HETATM   35  C   UNL     1     -12.955  12.643  71.793  1.00  0.00    -0.313 A  
HETATM   36  C   UNL     1     -13.089  11.280  71.684  1.00  0.00    -0.513 A  
ENDBRANCH  14  31
BRANCH  15  37
HETATM   37  O   UNL     1     -10.817  17.045  67.911  1.00  0.00    -0.357 OA 
BRANCH  37  38
HETATM   38  C   UNL     1     -10.239  17.694  69.051  1.00  0.00    -0.314 C  
BRANCH  38  39
HETATM   39  C   UNL     1      -9.580  19.007  68.640  1.00  0.00    -0.403 C  
HETATM   40  O   UNL     1     -10.454  19.774  67.819  1.00  0.00    -0.426 OA 
HETATM   41  H   UNL     1     -10.044  20.592  67.563  1.00  0.00     0.000 HD 
ENDBRANCH  38  39
ENDBRANCH  37  38
ENDBRANCH  15  37
ENDBRANCH   9  10
ENDBRANCH   8   9
ENDBRANCH   2   3
TORSDOF 11
ENDMDL
MODEL       35
REMARK 921   NORMALIZED FREE ENERGY PREDICTED BY IDOCK:   -5.95 KCAL/MOL
REMARK 922        TOTAL FREE ENERGY PREDICTED BY IDOCK:  -12.24 KCAL/MOL
REMARK 923 INTER-LIGAND FREE ENERGY PREDICTED BY IDOCK:   -9.91 KCAL/MOL
REMARK 924 INTRA-LIGAND FREE ENERGY PREDICTED BY IDOCK:   -2.33 KCAL/MOL
REMARK 927      BINDING AFFINITY PREDICTED BY RF-SCORE:    0.00 PKD
ROOT
HETATM    1  C   UNL     1     -12.921  14.480  71.726  1.00  0.00    -0.341 C  
HETATM    2  O   UNL     1     -12.559  13.461  70.794  1.00  0.00    -0.336 OA 
ENDROOT
BRANCH   2   3
HETATM    3  C   UNL     1     -12.076  13.868  69.575  1.00  0.00    -0.342 A  
HETATM    4  C   UNL     1     -11.854  15.219  69.259  1.00  0.00    -0.353 A  
HETATM    5  C   UNL     1     -11.420  15.604  67.986  1.00  0.00    -0.294 A  
HETATM    6  C   UNL     1     -11.179  14.644  67.014  1.00  0.00    -0.348 A  
HETATM    7  C   UNL     1     -11.377  13.301  67.313  1.00  0.00    -0.347 A  
HETATM    8  C   UNL     1     -11.820  12.898  68.583  1.00  0.00    -0.312 A  
BRANCH   8   9
HETATM    9  O   UNL     1     -12.014  11.532  68.640  1.00  0.00    -0.424 OA 
BRANCH   9  10
HETATM   10  C   UNL     1     -11.222  10.726  69.392  1.00  0.00    -0.276 A  
HETATM   11  C   UNL     1      -9.892  10.435  69.187  1.00  0.00    -0.223 A  
HETATM   12  N   UNL     1      -9.141   9.699  70.016  1.00  0.00    -0.225 NA 
HETATM   13  N   UNL     1     -11.080   9.330  71.350  1.00  0.00    -0.341 NA 
HETATM   14  C   UNL     1      -9.760   9.205  71.109  1.00  0.00    -0.290 A  
HETATM   15  C   UNL     1     -11.784  10.068  70.474  1.00  0.00    -0.318 A  
BRANCH  11  16
HETATM   16  N   UNL     1      -9.106  10.864  68.090  1.00  0.00    -0.149 N  
HETATM   17  H   UNL     1      -8.424  11.613  68.211  1.00  0.00     0.000 HD 
BRANCH  16  18
HETATM   18  S   UNL     1      -9.298  10.136  66.594  1.00  0.00    -0.166 S  
HETATM   19  O   UNL     1     -10.640  10.410  66.111  1.00  0.00    -0.187 OA 
HETATM   20  O   UNL     1      -8.144  10.526  65.807  1.00  0.00    -0.150 OA 
BRANCH  18  21
HETATM   21  C   UNL     1      -9.192   8.385  66.869  1.00  0.00    -0.157 A  
HETATM   22  C   UNL     1      -8.945   5.605  67.291  1.00  0.00    -0.111 A  
HETATM   23  C   UNL     1      -7.932   7.788  66.882  1.00  0.00    -0.112 A  
HETATM   24  C   UNL     1      -7.816   6.415  67.087  1.00  0.00    -0.108 A  
HETATM   25  C   UNL     1     -10.203   6.245  67.342  1.00  0.00    -0.223 A  
HETATM   26  C   UNL     1     -10.330   7.627  67.137  1.00  0.00    -0.385 A  
BRANCH  22  27
HETATM   27  C   UNL     1      -8.828   4.074  67.412  1.00  0.00    -0.132 C  
HETATM   28  C   UNL     1      -9.591   3.498  68.629  1.00  0.00    -0.140 C  
HETATM   29  C   UNL     1      -7.344   3.686  67.587  1.00  0.00    -0.062 C  
HETATM   30  C   UNL     1      -9.388   3.381  66.154  1.00  0.00    -0.151 C  
ENDBRANCH  22  27
ENDBRANCH  18  21
ENDBRANCH  16  18
ENDBRANCH  11  16
BRANCH  14  31
HETATM   31  C   UNL     1      -8.916   8.563  72.150  1.00  0.00    -0.230 A  
HETATM   32  N   UNL     1      -9.540   7.849  73.117  1.00  0.00    -0.274 NA 
HETATM   33  N   UNL     1      -7.580   8.793  72.125  1.00  0.00    -0.334 NA 
HETATM   34  C   UNL     1      -6.859   8.258  73.124  1.00  0.00    -0.107 A  
HETATM   35  C   UNL     1      -8.767   7.349  74.095  1.00  0.00    -0.224 A  
HETATM   36  C   UNL     1      -7.405   7.522  74.148  1.00  0.00    -0.141 A  
ENDBRANCH  14  31
BRANCH  15  37
HETATM   37  O   UNL     1     -13.154  10.156  70.644  1.00  0.00    -0.341 OA 
BRANCH  37  38
HETATM   38  C   UNL     1     -13.647   9.845  71.953  1.00  0.00    -0.303 C  
BRANCH  38  39
HETATM   39  C   UNL     1     -14.365   8.499  71.946  1.00  0.00    -0.448 C  
HETATM   40  O   UNL     1     -13.433   7.431  72.077  1.00  0.00    -0.505 OA 
HETATM   41  H   UNL     1     -13.880   6.592  72.073  1.00  0.00     0.000 HD 
ENDBRANCH  38  39
ENDBRANCH  37  38
ENDBRANCH  15  37
ENDBRANCH   9  10
ENDBRANCH   8   9
ENDBRANCH   2   3
TORSDOF 11
ENDMDL
MODEL       36
REMARK 921   NORMALIZED FREE ENERGY PREDICTED BY IDOCK:   -5.93 KCAL/MOL
REMARK 922        TOTAL FREE ENERGY PREDICTED BY IDOCK:  -12.21 KCAL/MOL
REMARK 923 INTER-LIGAND FREE ENERGY PREDICTED BY IDOCK:  -10.15 KCAL/MOL
REMARK 924 INTRA-LIGAND FREE ENERGY PREDICTED BY IDOCK:   -2.06 KCAL/MOL
REMARK 927      BINDING AFFINITY PREDICTED BY RF-SCORE:    0.00 PKD
ROOT
HETATM    1  C   UNL     1     -12.430  12.096  63.597  1.00  0.00    -0.549 C  
HETATM    2  O   UNL     1     -12.038  12.532  64.899  1.00  0.00    -0.402 OA 
ENDROOT
BRANCH   2   3
HETATM    3  C   UNL     1     -11.615  13.832  65.025  1.00  0.00    -0.341 A  
HETATM    4  C   UNL     1     -12.151  14.882  64.259  1.00  0.00    -0.373 A  
HETATM    5  C   UNL     1     -11.654  16.185  64.367  1.00  0.00    -0.146 A  
HETATM    6  C   UNL     1     -10.629  16.466  65.259  1.00  0.00    -0.320 A  
HETATM    7  C   UNL     1     -10.098  15.444  66.037  1.00  0.00    -0.346 A  
HETATM    8  C   UNL     1     -10.579  14.129  65.935  1.00  0.00    -0.298 A  
BRANCH   8   9
HETATM    9  O   UNL     1      -9.868  13.267  66.745  1.00  0.00    -0.249 OA 
BRANCH   9  10
HETATM   10  C   UNL     1     -10.484  12.419  67.607  1.00  0.00    -0.216 A  
HETATM   11  C   UNL     1     -10.726  11.075  67.427  1.00  0.00    -0.257 A  
HETATM   12  N   UNL     1     -11.261  10.271  68.355  1.00  0.00    -0.254 NA 
HETATM   13  N   UNL     1     -11.509  12.169  69.772  1.00  0.00    -0.233 NA 
HETATM   14  C   UNL     1     -11.596  10.846  69.529  1.00  0.00    -0.313 A  
HETATM   15  C   UNL     1     -10.977  12.927  68.798  1.00  0.00    -0.254 A  
BRANCH  11  16
HETATM   16  N   UNL     1     -10.447  10.329  66.257  1.00  0.00    -0.185 N  
HETATM   17  H   UNL     1     -11.152  10.242  65.525  1.00  0.00     0.000 HD 
BRANCH  16  18
HETATM   18  S   UNL     1      -8.956   9.587  66.079  1.00  0.00    -0.175 S  
HETATM   19  O   UNL     1      -8.831   9.112  64.712  1.00  0.00    -0.193 OA 
HETATM   20  O   UNL     1      -7.980  10.513  66.623  1.00  0.00    -0.116 OA 
BRANCH  18  21
HETATM   21  C   UNL     1      -8.978   8.155  67.128  1.00  0.00    -0.139 A  
HETATM   22  C   UNL     1      -8.946   5.902  68.828  1.00  0.00    -0.117 A  
HETATM   23  C   UNL     1      -8.027   8.058  68.142  1.00  0.00    -0.128 A  
HETATM   24  C   UNL     1      -8.013   6.942  68.977  1.00  0.00    -0.116 A  
HETATM   25  C   UNL     1      -9.939   6.058  67.837  1.00  0.00    -0.151 A  
HETATM   26  C   UNL     1      -9.962   7.178  66.993  1.00  0.00    -0.283 A  
BRANCH  22  27
HETATM   27  C   UNL     1      -8.866   4.620  69.679  1.00  0.00    -0.121 C  
HETATM   28  C   UNL     1      -7.511   4.455  70.408  1.00  0.00    -0.049 C  
HETATM   29  C   UNL     1      -9.038   3.387  68.766  1.00  0.00    -0.204 C  
HETATM   30  C   UNL     1      -9.968   4.610  70.756  1.00  0.00    -0.284 C  
ENDBRANCH  22  27
ENDBRANCH  18  21
ENDBRANCH  16  18
ENDBRANCH  11  16
BRANCH  14  31
HETATM   31  C   UNL     1     -11.996   9.953  70.647  1.00  0.00    -0.277 A  
HETATM   32  N   UNL     1     -11.128   8.982  71.020  1.00  0.00    -0.266 NA 
HETATM   33  N   UNL     1     -13.234  10.104  71.177  1.00  0.00    -0.379 NA 
HETATM   34  C   UNL     1     -13.589   9.231  72.135  1.00  0.00    -0.471 A  
HETATM   35  C   UNL     1     -11.544   8.133  71.975  1.00  0.00    -0.330 A  
HETATM   36  C   UNL     1     -12.777   8.213  72.575  1.00  0.00    -0.159 A  
ENDBRANCH  14  31
BRANCH  15  37
HETATM   37  O   UNL     1     -10.942  14.298  68.979  1.00  0.00    -0.247 OA 
BRANCH  37  38
HETATM   38  C   UNL     1     -12.128  14.891  69.525  1.00  0.00    -0.279 C  
BRANCH  38  39
HETATM   39  C   UNL     1     -11.791  15.709  70.767  1.00  0.00    -0.384 C  
HETATM   40  O   UNL     1     -11.225  14.880  71.778  1.00  0.00    -0.548 OA 
HETATM   41  H   UNL     1     -11.015  15.390  72.552  1.00  0.00     0.000 HD 
ENDBRANCH  38  39
ENDBRANCH  37  38
ENDBRANCH  15  37
ENDBRANCH   9  10
ENDBRANCH   8   9
ENDBRANCH   2   3
TORSDOF 11
ENDMDL
MODEL       37
REMARK 921   NORMALIZED FREE ENERGY PREDICTED BY IDOCK:   -5.89 KCAL/MOL
REMARK 922        TOTAL FREE ENERGY PREDICTED BY IDOCK:  -12.13 KCAL/MOL
REMARK 923 INTER-LIGAND FREE ENERGY PREDICTED BY IDOCK:  -10.40 KCAL/MOL
REMARK 924 INTRA-LIGAND FREE ENERGY PREDICTED BY IDOCK:   -1.73 KCAL/MOL
REMARK 927      BINDING AFFINITY PREDICTED BY RF-SCORE:    0.00 PKD
ROOT
HETATM    1  C   UNL     1      -6.063   5.244  69.992  1.00  0.00    -0.018 C  
HETATM    2  O   UNL     1      -7.457   5.541  69.912  1.00  0.00    -0.067 OA 
ENDROOT
BRANCH   2   3
HETATM    3  C   UNL     1      -8.173   5.518  71.084  1.00  0.00    -0.120 A  
HETATM    4  C   UNL     1      -7.559   5.460  72.347  1.00  0.00    -0.097 A  
HETATM    5  C   UNL     1      -8.317   5.376  73.518  1.00  0.00    -0.113 A  
HETATM    6  C   UNL     1      -9.703   5.371  73.451  1.00  0.00    -0.159 A  
HETATM    7  C   UNL     1     -10.328   5.445  72.211  1.00  0.00    -0.260 A  
HETATM    8  C   UNL     1      -9.582   5.522  71.025  1.00  0.00    -0.170 A  
BRANCH   8   9
HETATM    9  O   UNL     1     -10.400   5.518  69.913  1.00  0.00    -0.246 OA 
BRANCH   9  10
HETATM   10  C   UNL     1     -10.457   6.573  69.060  1.00  0.00    -0.216 A  
HETATM   11  C   UNL     1     -10.537   7.908  69.388  1.00  0.00    -0.205 A  
HETATM   12  N   UNL     1     -10.502   8.910  68.499  1.00  0.00    -0.202 NA 
HETATM   13  N   UNL     1     -10.430   7.285  66.760  1.00  0.00    -0.275 NA 
HETATM   14  C   UNL     1     -10.401   8.558  67.200  1.00  0.00    -0.307 A  
HETATM   15  C   UNL     1     -10.481   6.323  67.698  1.00  0.00    -0.230 A  
BRANCH  11  16
HETATM   16  N   UNL     1     -10.660   8.439  70.695  1.00  0.00    -0.204 N  
HETATM   17  H   UNL     1      -9.825   8.647  71.243  1.00  0.00     0.000 HD 
BRANCH  16  18
HETATM   18  S   UNL     1     -12.179   8.723  71.338  1.00  0.00    -0.308 S  
HETATM   19  O   UNL     1     -13.175   8.131  70.463  1.00  0.00     0.518 OA 
HETATM   20  O   UNL     1     -12.106   8.330  72.732  1.00  0.00    -0.353 OA 
BRANCH  18  21
HETATM   21  C   UNL     1     -12.425  10.481  71.289  1.00  0.00    -0.419 A  
HETATM   22  C   UNL     1     -12.760  13.280  71.154  1.00  0.00    -0.404 A  
HETATM   23  C   UNL     1     -11.794  11.214  70.286  1.00  0.00    -0.455 A  
HETATM   24  C   UNL     1     -11.959  12.596  70.225  1.00  0.00    -0.363 A  
HETATM   25  C   UNL     1     -13.442  12.507  72.118  1.00  0.00    -0.523 A  
HETATM   26  C   UNL     1     -13.282  11.115  72.186  1.00  0.00    -0.297 A  
BRANCH  22  27
HETATM   27  C   UNL     1     -12.860  14.818  71.155  1.00  0.00    -0.406 C  
HETATM   28  C   UNL     1     -14.304  15.335  71.364  1.00  0.00    -0.578 C  
HETATM   29  C   UNL     1     -12.381  15.363  69.792  1.00  0.00    -0.288 C  
HETATM   30  C   UNL     1     -11.993  15.422  72.276  1.00  0.00    -0.529 C  
ENDBRANCH  22  27
ENDBRANCH  18  21
ENDBRANCH  16  18
ENDBRANCH  11  16
BRANCH  14  31
HETATM   31  C   UNL     1     -10.151   9.637  66.210  1.00  0.00    -0.252 A  
HETATM   32  N   UNL     1     -10.747  10.836  66.419  1.00  0.00    -0.205 NA 
HETATM   33  N   UNL     1      -9.411   9.342  65.113  1.00  0.00    -0.239 NA 
HETATM   34  C   UNL     1      -9.268  10.321  64.204  1.00  0.00    -0.267 A  
HETATM   35  C   UNL     1     -10.577  11.770  65.469  1.00  0.00    -0.276 A  
HETATM   36  C   UNL     1      -9.837  11.566  64.329  1.00  0.00    -0.279 A  
ENDBRANCH  14  31
BRANCH  15  37
HETATM   37  O   UNL     1     -10.589   5.008  67.284  1.00  0.00    -0.144 OA 
BRANCH  37  38
HETATM   38  C   UNL     1      -9.528   4.520  66.453  1.00  0.00    -0.172 C  
BRANCH  38  39
HETATM   39  C   UNL     1     -10.084   3.986  65.137  1.00  0.00    -0.182 C  
HETATM   40  O   UNL     1     -11.443   4.376  64.970  1.00  0.00    -1.090 OA 
HETATM   41  H   UNL     1     -11.790   4.043  64.150  1.00  0.00     0.000 HD 
ENDBRANCH  38  39
ENDBRANCH  37  38
ENDBRANCH  15  37
ENDBRANCH   9  10
ENDBRANCH   8   9
ENDBRANCH   2   3
TORSDOF 11
ENDMDL
MODEL       38
REMARK 921   NORMALIZED FREE ENERGY PREDICTED BY IDOCK:   -5.88 KCAL/MOL
REMARK 922        TOTAL FREE ENERGY PREDICTED BY IDOCK:  -12.12 KCAL/MOL
REMARK 923 INTER-LIGAND FREE ENERGY PREDICTED BY IDOCK:  -10.68 KCAL/MOL
REMARK 924 INTRA-LIGAND FREE ENERGY PREDICTED BY IDOCK:   -1.45 KCAL/MOL
REMARK 927      BINDING AFFINITY PREDICTED BY RF-SCORE:    0.00 PKD
ROOT
HETATM    1  C   UNL     1     -12.261  11.513  70.042  1.00  0.00    -0.278 C  
HETATM    2  O   UNL     1     -11.056  11.747  69.313  1.00  0.00    -0.242 OA 
ENDROOT
BRANCH   2   3
HETATM    3  C   UNL     1     -10.136  10.729  69.278  1.00  0.00    -0.177 A  
HETATM    4  C   UNL     1     -10.057   9.742  70.275  1.00  0.00    -0.323 A  
HETATM    5  C   UNL     1      -9.068   8.754  70.241  1.00  0.00    -0.185 A  
HETATM    6  C   UNL     1      -8.154   8.722  69.198  1.00  0.00    -0.118 A  
HETATM    7  C   UNL     1      -8.227   9.679  68.193  1.00  0.00    -0.106 A  
HETATM    8  C   UNL     1      -9.208  10.683  68.216  1.00  0.00    -0.153 A  
BRANCH   8   9
HETATM    9  O   UNL     1      -9.055  11.563  67.164  1.00  0.00    -0.161 OA 
BRANCH   9  10
HETATM   10  C   UNL     1      -9.409  12.870  67.264  1.00  0.00    -0.212 A  
HETATM   11  C   UNL     1      -8.846  13.828  68.076  1.00  0.00    -0.182 A  
HETATM   12  N   UNL     1      -9.182  15.124  68.065  1.00  0.00    -0.183 NA 
HETATM   13  N   UNL     1     -10.854  14.615  66.446  1.00  0.00    -0.309 NA 
HETATM   14  C   UNL     1     -10.157  15.485  67.204  1.00  0.00    -0.254 A  
HETATM   15  C   UNL     1     -10.479  13.325  66.511  1.00  0.00    -0.281 A  
BRANCH  11  16
HETATM   16  N   UNL     1      -7.829  13.611  69.037  1.00  0.00    -0.332 N  
HETATM   17  H   UNL     1      -8.064  13.243  69.958  1.00  0.00     0.000 HD 
BRANCH  16  18
HETATM   18  S   UNL     1      -6.236  13.963  68.655  1.00  0.00    -0.097 S  
HETATM   19  O   UNL     1      -5.398  13.622  69.791  1.00  0.00    -0.085 OA 
HETATM   20  O   UNL     1      -5.991  13.358  67.360  1.00  0.00    -0.331 OA 
BRANCH  18  21
HETATM   21  C   UNL     1      -6.145  15.724  68.451  1.00  0.00    -0.102 A  
HETATM   22  C   UNL     1      -6.026  18.533  68.200  1.00  0.00    -0.192 A  
HETATM   23  C   UNL     1      -6.377  16.536  69.559  1.00  0.00    -0.214 A  
HETATM   24  C   UNL     1      -6.321  17.922  69.430  1.00  0.00    -0.239 A  
HETATM   25  C   UNL     1      -5.729  17.687  67.109  1.00  0.00    -0.159 A  
HETATM   26  C   UNL     1      -5.782  16.290  67.230  1.00  0.00    -0.142 A  
BRANCH  22  27
HETATM   27  C   UNL     1      -6.068  20.063  68.029  1.00  0.00    -0.269 C  
HETATM   28  C   UNL     1      -7.485  20.604  67.720  1.00  0.00    -0.248 C  
HETATM   29  C   UNL     1      -5.163  20.472  66.847  1.00  0.00    -0.194 C  
HETATM   30  C   UNL     1      -5.579  20.770  69.309  1.00  0.00    -0.409 C  
ENDBRANCH  22  27
ENDBRANCH  18  21
ENDBRANCH  16  18
ENDBRANCH  11  16
BRANCH  14  31
HETATM   31  C   UNL     1     -10.411  16.937  67.016  1.00  0.00    -0.307 A  
HETATM   32  N   UNL     1     -10.383  17.424  65.752  1.00  0.00    -0.590 NA 
HETATM   33  N   UNL     1     -10.574  17.707  68.119  1.00  0.00    -0.377 NA 
HETATM   34  C   UNL     1     -10.728  19.026  67.914  1.00  0.00    -0.293 A  
HETATM   35  C   UNL     1     -10.530  18.752  65.612  1.00  0.00    -0.132 A  
HETATM   36  C   UNL     1     -10.710  19.610  66.669  1.00  0.00    -0.552 A  
ENDBRANCH  14  31
BRANCH  15  37
HETATM   37  O   UNL     1     -11.219  12.392  65.808  1.00  0.00    -0.305 OA 
BRANCH  37  38
HETATM   38  C   UNL     1     -12.238  12.915  64.947  1.00  0.00    -0.453 C  
BRANCH  38  39
HETATM   39  C   UNL     1     -11.880  12.668  63.485  1.00  0.00    -0.541 C  
HETATM   40  O   UNL     1     -12.308  11.374  63.074  1.00  0.00    -0.952 OA 
HETATM   41  H   UNL     1     -12.085  11.220  62.163  1.00  0.00     0.000 HD 
ENDBRANCH  38  39
ENDBRANCH  37  38
ENDBRANCH  15  37
ENDBRANCH   9  10
ENDBRANCH   8   9
ENDBRANCH   2   3
TORSDOF 11
ENDMDL
MODEL       39
REMARK 921   NORMALIZED FREE ENERGY PREDICTED BY IDOCK:   -5.87 KCAL/MOL
REMARK 922        TOTAL FREE ENERGY PREDICTED BY IDOCK:  -12.11 KCAL/MOL
REMARK 923 INTER-LIGAND FREE ENERGY PREDICTED BY IDOCK:   -8.82 KCAL/MOL
REMARK 924 INTRA-LIGAND FREE ENERGY PREDICTED BY IDOCK:   -3.29 KCAL/MOL
REMARK 927      BINDING AFFINITY PREDICTED BY RF-SCORE:    0.00 PKD
ROOT
HETATM    1  C   UNL     1     -10.805   6.259  66.997  1.00  0.00    -0.383 C  
HETATM    2  O   UNL     1     -10.771   7.674  67.190  1.00  0.00    -0.332 OA 
ENDROOT
BRANCH   2   3
HETATM    3  C   UNL     1      -9.960   8.402  66.356  1.00  0.00    -0.221 A  
HETATM    4  C   UNL     1      -8.958   7.812  65.566  1.00  0.00     0.015 A  
HETATM    5  C   UNL     1      -8.107   8.590  64.774  1.00  0.00    -0.151 A  
HETATM    6  C   UNL     1      -8.257   9.969  64.739  1.00  0.00    -0.155 A  
HETATM    7  C   UNL     1      -9.254  10.569  65.501  1.00  0.00    -0.223 A  
HETATM    8  C   UNL     1     -10.111   9.804  66.308  1.00  0.00    -0.243 A  
BRANCH   8   9
HETATM    9  O   UNL     1     -10.976  10.604  67.026  1.00  0.00    -0.269 OA 
BRANCH   9  10
HETATM   10  C   UNL     1     -10.700  11.908  67.283  1.00  0.00    -0.236 A  
HETATM   11  C   UNL     1      -9.810  12.407  68.208  1.00  0.00    -0.224 A  
HETATM   12  N   UNL     1      -9.518  13.705  68.354  1.00  0.00    -0.208 NA 
HETATM   13  N   UNL     1     -11.140  14.198  66.681  1.00  0.00    -0.307 NA 
HETATM   14  C   UNL     1     -10.169  14.564  67.541  1.00  0.00    -0.232 A  
HETATM   15  C   UNL     1     -11.399  12.883  66.589  1.00  0.00    -0.317 A  
BRANCH  11  16
HETATM   16  N   UNL     1      -9.062  11.645  69.137  1.00  0.00    -0.363 N  
HETATM   17  H   UNL     1      -9.504  11.295  69.987  1.00  0.00     0.000 HD 
BRANCH  16  18
HETATM   18  S   UNL     1      -7.446  11.322  68.838  1.00  0.00    -0.112 S  
HETATM   19  O   UNL     1      -7.098  11.853  67.532  1.00  0.00    -0.102 OA 
HETATM   20  O   UNL     1      -6.724  11.755  70.018  1.00  0.00    -0.024 OA 
BRANCH  18  21
HETATM   21  C   UNL     1      -7.297   9.556  68.737  1.00  0.00    -0.074 A  
HETATM   22  C   UNL     1      -7.003   6.757  68.523  1.00  0.00    -0.076 A  
HETATM   23  C   UNL     1      -6.267   9.017  67.968  1.00  0.00    -0.051 A  
HETATM   24  C   UNL     1      -6.128   7.634  67.862  1.00  0.00    -0.044 A  
HETATM   25  C   UNL     1      -7.995   7.328  69.350  1.00  0.00    -0.125 A  
HETATM   26  C   UNL     1      -8.142   8.718  69.463  1.00  0.00    -0.105 A  
BRANCH  22  27
HETATM   27  C   UNL     1      -6.918   5.231  68.323  1.00  0.00    -0.061 C  
HETATM   28  C   UNL     1      -7.124   4.797  66.852  1.00  0.00    -0.075 C  
HETATM   29  C   UNL     1      -8.021   4.543  69.155  1.00  0.00    -0.069 C  
HETATM   30  C   UNL     1      -5.542   4.698  68.768  1.00  0.00    -0.012 C  
ENDBRANCH  22  27
ENDBRANCH  18  21
ENDBRANCH  16  18
ENDBRANCH  11  16
BRANCH  14  31
HETATM   31  C   UNL     1      -9.721  15.980  67.532  1.00  0.00    -0.228 A  
HETATM   32  N   UNL     1     -10.197  16.787  66.553  1.00  0.00    -0.307 NA 
HETATM   33  N   UNL     1      -8.801  16.369  68.449  1.00  0.00    -0.206 NA 
HETATM   34  C   UNL     1      -8.365  17.637  68.363  1.00  0.00    -0.290 A  
HETATM   35  C   UNL     1      -9.715  18.040  66.512  1.00  0.00    -0.338 A  
HETATM   36  C   UNL     1      -8.789  18.525  67.403  1.00  0.00    -0.276 A  
ENDBRANCH  14  31
BRANCH  15  37
HETATM   37  O   UNL     1     -12.441  12.475  65.776  1.00  0.00    -0.626 OA 
BRANCH  37  38
HETATM   38  C   UNL     1     -12.502  13.084  64.480  1.00  0.00    -0.363 C  
BRANCH  38  39
HETATM   39  C   UNL     1     -11.751  12.239  63.457  1.00  0.00    -0.499 C  
HETATM   40  O   UNL     1     -12.634  11.327  62.812  1.00  0.00    -0.912 OA 
HETATM   41  H   UNL     1     -12.166  10.800  62.174  1.00  0.00     0.000 HD 
ENDBRANCH  38  39
ENDBRANCH  37  38
ENDBRANCH  15  37
ENDBRANCH   9  10
ENDBRANCH   8   9
ENDBRANCH   2   3
TORSDOF 11
ENDMDL
MODEL       40
REMARK 921   NORMALIZED FREE ENERGY PREDICTED BY IDOCK:   -5.87 KCAL/MOL
REMARK 922        TOTAL FREE ENERGY PREDICTED BY IDOCK:  -12.10 KCAL/MOL
REMARK 923 INTER-LIGAND FREE ENERGY PREDICTED BY IDOCK:   -9.90 KCAL/MOL
REMARK 924 INTRA-LIGAND FREE ENERGY PREDICTED BY IDOCK:   -2.20 KCAL/MOL
REMARK 927      BINDING AFFINITY PREDICTED BY RF-SCORE:    0.00 PKD
ROOT
HETATM    1  C   UNL     1     -11.923  14.458  67.672  1.00  0.00    -0.343 C  
HETATM    2  O   UNL     1     -10.868  14.041  66.805  1.00  0.00    -0.290 OA 
ENDROOT
BRANCH   2   3
HETATM    3  C   UNL     1     -11.226  13.417  65.635  1.00  0.00    -0.292 A  
HETATM    4  C   UNL     1     -12.314  13.838  64.853  1.00  0.00    -0.435 A  
HETATM    5  C   UNL     1     -12.690  13.143  63.699  1.00  0.00    -0.083 A  
HETATM    6  C   UNL     1     -11.971  12.027  63.295  1.00  0.00    -0.477 A  
HETATM    7  C   UNL     1     -10.881  11.605  64.047  1.00  0.00    -0.455 A  
HETATM    8  C   UNL     1     -10.495  12.287  65.212  1.00  0.00    -0.282 A  
BRANCH   8   9
HETATM    9  O   UNL     1      -9.435  11.660  65.836  1.00  0.00    -0.223 OA 
BRANCH   9  10
HETATM   10  C   UNL     1      -9.605  10.899  66.947  1.00  0.00    -0.178 A  
HETATM   11  C   UNL     1      -9.555  11.314  68.259  1.00  0.00    -0.193 A  
HETATM   12  N   UNL     1      -9.818  10.530  69.312  1.00  0.00    -0.218 NA 
HETATM   13  N   UNL     1     -10.099   8.705  67.808  1.00  0.00    -0.198 NA 
HETATM   14  C   UNL     1     -10.131   9.245  69.042  1.00  0.00    -0.199 A  
HETATM   15  C   UNL     1      -9.813   9.538  66.792  1.00  0.00    -0.216 A  
BRANCH  11  16
HETATM   16  N   UNL     1      -9.232  12.617  68.708  1.00  0.00    -0.400 N  
HETATM   17  H   UNL     1      -9.952  13.209  69.123  1.00  0.00     0.000 HD 
BRANCH  16  18
HETATM   18  S   UNL     1      -7.663  13.184  68.557  1.00  0.00    -0.084 S  
HETATM   19  O   UNL     1      -6.967  12.972  69.814  1.00  0.00     0.151 OA 
HETATM   20  O   UNL     1      -7.146  12.610  67.330  1.00  0.00    -0.149 OA 
BRANCH  18  21
HETATM   21  C   UNL     1      -7.784  14.939  68.319  1.00  0.00    -0.113 A  
HETATM   22  C   UNL     1      -7.914  17.726  67.890  1.00  0.00    -0.233 A  
HETATM   23  C   UNL     1      -6.975  15.537  67.354  1.00  0.00    -0.232 A  
HETATM   24  C   UNL     1      -7.039  16.914  67.149  1.00  0.00    -0.216 A  
HETATM   25  C   UNL     1      -8.771  17.086  68.812  1.00  0.00    -0.244 A  
HETATM   26  C   UNL     1      -8.713  15.701  69.025  1.00  0.00    -0.240 A  
BRANCH  22  27
HETATM   27  C   UNL     1      -7.912  19.259  67.740  1.00  0.00    -0.312 C  
HETATM   28  C   UNL     1      -7.495  19.733  66.327  1.00  0.00    -0.308 C  
HETATM   29  C   UNL     1      -6.903  19.871  68.735  1.00  0.00    -0.358 C  
HETATM   30  C   UNL     1      -9.313  19.838  68.020  1.00  0.00    -0.444 C  
ENDBRANCH  22  27
ENDBRANCH  18  21
ENDBRANCH  16  18
ENDBRANCH  11  16
BRANCH  14  31
HETATM   31  C   UNL     1     -10.628   8.405  70.162  1.00  0.00    -0.233 A  
HETATM   32  N   UNL     1     -10.960   7.120  69.888  1.00  0.00    -0.257 NA 
HETATM   33  N   UNL     1     -10.801   8.987  71.374  1.00  0.00    -0.301 NA 
HETATM   34  C   UNL     1     -11.321   8.216  72.343  1.00  0.00    -0.391 A  
HETATM   35  C   UNL     1     -11.487   6.403  70.895  1.00  0.00    -0.344 A  
HETATM   36  C   UNL     1     -11.690   6.904  72.157  1.00  0.00    -0.327 A  
ENDBRANCH  14  31
BRANCH  15  37
HETATM   37  O   UNL     1      -9.695   9.007  65.521  1.00  0.00    -0.203 OA 
BRANCH  37  38
HETATM   38  C   UNL     1      -8.414   8.458  65.185  1.00  0.00    -0.160 C  
BRANCH  38  39
HETATM   39  C   UNL     1      -7.844   9.151  63.952  1.00  0.00    -0.129 C  
HETATM   40  O   UNL     1      -7.314  10.427  64.292  1.00  0.00    -0.285 OA 
HETATM   41  H   UNL     1      -6.958  10.859  63.524  1.00  0.00     0.000 HD 
ENDBRANCH  38  39
ENDBRANCH  37  38
ENDBRANCH  15  37
ENDBRANCH   9  10
ENDBRANCH   8   9
ENDBRANCH   2   3
TORSDOF 11
ENDMDL
MODEL       41
REMARK 921   NORMALIZED FREE ENERGY PREDICTED BY IDOCK:   -5.83 KCAL/MOL
REMARK 922        TOTAL FREE ENERGY PREDICTED BY IDOCK:  -12.05 KCAL/MOL
REMARK 923 INTER-LIGAND FREE ENERGY PREDICTED BY IDOCK:  -10.24 KCAL/MOL
REMARK 924 INTRA-LIGAND FREE ENERGY PREDICTED BY IDOCK:   -1.81 KCAL/MOL
REMARK 927      BINDING AFFINITY PREDICTED BY RF-SCORE:    0.00 PKD
ROOT
HETATM    1  C   UNL     1      -7.230   6.538  64.038  1.00  0.00    -0.067 C  
HETATM    2  O   UNL     1      -7.820   7.825  63.852  1.00  0.00    -0.124 OA 
ENDROOT
BRANCH   2   3
HETATM    3  C   UNL     1      -7.277   8.872  64.556  1.00  0.00    -0.097 A  
HETATM    4  C   UNL     1      -5.891   9.051  64.702  1.00  0.00    -0.064 A  
HETATM    5  C   UNL     1      -5.373  10.093  65.477  1.00  0.00    -0.067 A  
HETATM    6  C   UNL     1      -6.230  10.988  66.102  1.00  0.00    -0.104 A  
HETATM    7  C   UNL     1      -7.604  10.836  65.954  1.00  0.00    -0.106 A  
HETATM    8  C   UNL     1      -8.141   9.791  65.186  1.00  0.00    -0.132 A  
BRANCH   8   9
HETATM    9  O   UNL     1      -9.521   9.789  65.232  1.00  0.00    -0.241 OA 
BRANCH   9  10
HETATM   10  C   UNL     1     -10.202  10.059  66.375  1.00  0.00    -0.221 A  
HETATM   11  C   UNL     1     -10.141   9.370  67.565  1.00  0.00    -0.215 A  
HETATM   12  N   UNL     1     -10.772   9.740  68.687  1.00  0.00    -0.223 NA 
HETATM   13  N   UNL     1     -11.751  11.540  67.473  1.00  0.00    -0.604 NA 
HETATM   14  C   UNL     1     -11.530  10.854  68.612  1.00  0.00    -0.311 A  
HETATM   15  C   UNL     1     -11.101  11.113  66.377  1.00  0.00    -0.138 A  
BRANCH  11  16
HETATM   16  N   UNL     1      -9.407   8.183  67.804  1.00  0.00    -0.134 N  
HETATM   17  H   UNL     1      -8.430   8.234  68.091  1.00  0.00     0.000 HD 
BRANCH  16  18
HETATM   18  S   UNL     1     -10.150   6.694  67.613  1.00  0.00    -0.173 S  
HETATM   19  O   UNL     1     -11.535   6.909  67.232  1.00  0.00    -0.147 OA 
HETATM   20  O   UNL     1      -9.271   5.914  66.763  1.00  0.00    -0.126 OA 
BRANCH  18  21
HETATM   21  C   UNL     1     -10.163   5.930  69.215  1.00  0.00    -0.213 A  
HETATM   22  C   UNL     1     -10.229   4.774  71.789  1.00  0.00    -0.258 A  
HETATM   23  C   UNL     1     -10.980   6.473  70.205  1.00  0.00    -0.365 A  
HETATM   24  C   UNL     1     -11.006   5.902  71.476  1.00  0.00    -0.323 A  
HETATM   25  C   UNL     1      -9.464   4.203  70.750  1.00  0.00    -0.242 A  
HETATM   26  C   UNL     1      -9.431   4.771  69.467  1.00  0.00    -0.227 A  
BRANCH  22  27
HETATM   27  C   UNL     1     -10.176   4.205  73.220  1.00  0.00    -0.217 C  
HETATM   28  C   UNL     1     -10.327   5.290  74.314  1.00  0.00    -0.308 C  
HETATM   29  C   UNL     1      -8.810   3.523  73.449  1.00  0.00    -0.088 C  
HETATM   30  C   UNL     1     -11.300   3.174  73.441  1.00  0.00    -0.206 C  
ENDBRANCH  22  27
ENDBRANCH  18  21
ENDBRANCH  16  18
ENDBRANCH  11  16
BRANCH  14  31
HETATM   31  C   UNL     1     -12.074  11.406  69.880  1.00  0.00    -0.330 A  
HETATM   32  N   UNL     1     -12.619  10.537  70.764  1.00  0.00    -0.357 NA 
HETATM   33  N   UNL     1     -12.070  12.752  70.047  1.00  0.00    -0.318 NA 
HETATM   34  C   UNL     1     -12.637  13.219  71.172  1.00  0.00    -0.325 A  
HETATM   35  C   UNL     1     -13.181  11.065  71.864  1.00  0.00    -0.398 A  
HETATM   36  C   UNL     1     -13.217  12.413  72.124  1.00  0.00    -0.491 A  
ENDBRANCH  14  31
BRANCH  15  37
HETATM   37  O   UNL     1     -11.362  11.742  65.173  1.00  0.00    -0.293 OA 
BRANCH  37  38
HETATM   38  C   UNL     1     -12.488  12.629  65.158  1.00  0.00    -0.463 C  
BRANCH  38  39
HETATM   39  C   UNL     1     -12.090  13.986  64.587  1.00  0.00    -0.440 C  
HETATM   40  O   UNL     1     -12.660  14.176  63.296  1.00  0.00    -1.080 OA 
HETATM   41  H   UNL     1     -12.412  15.022  62.940  1.00  0.00     0.000 HD 
ENDBRANCH  38  39
ENDBRANCH  37  38
ENDBRANCH  15  37
ENDBRANCH   9  10
ENDBRANCH   8   9
ENDBRANCH   2   3
TORSDOF 11
ENDMDL
MODEL       42
REMARK 921   NORMALIZED FREE ENERGY PREDICTED BY IDOCK:   -5.81 KCAL/MOL
REMARK 922        TOTAL FREE ENERGY PREDICTED BY IDOCK:  -12.01 KCAL/MOL
REMARK 923 INTER-LIGAND FREE ENERGY PREDICTED BY IDOCK:   -9.35 KCAL/MOL
REMARK 924 INTRA-LIGAND FREE ENERGY PREDICTED BY IDOCK:   -2.67 KCAL/MOL
REMARK 927      BINDING AFFINITY PREDICTED BY RF-SCORE:    0.00 PKD
ROOT
HETATM    1  C   UNL     1     -10.366   8.348  66.868  1.00  0.00    -0.307 C  
HETATM    2  O   UNL     1     -10.663   9.627  67.429  1.00  0.00    -0.275 OA 
ENDROOT
BRANCH   2   3
HETATM    3  C   UNL     1     -10.990   9.667  68.762  1.00  0.00    -0.117 A  
HETATM    4  C   UNL     1     -10.781   8.580  69.628  1.00  0.00    -0.200 A  
HETATM    5  C   UNL     1     -11.183   8.633  70.967  1.00  0.00    -0.321 A  
HETATM    6  C   UNL     1     -11.781   9.780  71.469  1.00  0.00    -0.450 A  
HETATM    7  C   UNL     1     -11.980  10.871  70.631  1.00  0.00    -0.467 A  
HETATM    8  C   UNL     1     -11.590  10.832  69.283  1.00  0.00    -0.305 A  
BRANCH   8   9
HETATM    9  O   UNL     1     -11.943  11.992  68.622  1.00  0.00    -0.316 OA 
BRANCH   9  10
HETATM   10  C   UNL     1     -11.186  13.116  68.692  1.00  0.00    -0.276 A  
HETATM   11  C   UNL     1      -9.930  13.311  68.163  1.00  0.00    -0.234 A  
HETATM   12  N   UNL     1      -9.270  14.476  68.189  1.00  0.00    -0.189 NA 
HETATM   13  N   UNL     1     -11.068  15.400  69.449  1.00  0.00    -0.262 NA 
HETATM   14  C   UNL     1      -9.892  15.507  68.800  1.00  0.00    -0.217 A  
HETATM   15  C   UNL     1     -11.677  14.202  69.399  1.00  0.00    -0.313 A  
BRANCH  11  16
HETATM   16  N   UNL     1      -9.143  12.335  67.507  1.00  0.00    -0.175 N  
HETATM   17  H   UNL     1      -9.549  11.761  66.769  1.00  0.00     0.000 HD 
BRANCH  16  18
HETATM   18  S   UNL     1      -7.540  12.126  67.946  1.00  0.00    -0.137 S  
HETATM   19  O   UNL     1      -6.724  12.112  66.745  1.00  0.00    -0.060 OA 
HETATM   20  O   UNL     1      -7.281  13.096  68.993  1.00  0.00    -0.083 OA 
BRANCH  18  21
HETATM   21  C   UNL     1      -7.425  10.510  68.673  1.00  0.00    -0.095 A  
HETATM   22  C   UNL     1      -7.233   7.911  69.755  1.00  0.00    -0.066 A  
HETATM   23  C   UNL     1      -7.103   9.432  67.850  1.00  0.00    -0.081 A  
HETATM   24  C   UNL     1      -7.013   8.150  68.388  1.00  0.00    -0.073 A  
HETATM   25  C   UNL     1      -7.490   9.029  70.577  1.00  0.00    -0.099 A  
HETATM   26  C   UNL     1      -7.582  10.324  70.044  1.00  0.00    -0.116 A  
BRANCH  22  27
HETATM   27  C   UNL     1      -7.238   6.482  70.332  1.00  0.00    -0.080 C  
HETATM   28  C   UNL     1      -7.782   5.426  69.340  1.00  0.00    -0.085 C  
HETATM   29  C   UNL     1      -8.147   6.437  71.580  1.00  0.00    -0.113 C  
HETATM   30  C   UNL     1      -5.813   6.046  70.727  1.00  0.00    -0.022 C  
ENDBRANCH  22  27
ENDBRANCH  18  21
ENDBRANCH  16  18
ENDBRANCH  11  16
BRANCH  14  31
HETATM   31  C   UNL     1      -9.285  16.856  68.667  1.00  0.00    -0.265 A  
HETATM   32  N   UNL     1      -7.933  16.939  68.617  1.00  0.00    -0.246 NA 
HETATM   33  N   UNL     1     -10.107  17.934  68.687  1.00  0.00    -0.381 NA 
HETATM   34  C   UNL     1      -9.517  19.141  68.639  1.00  0.00    -0.405 A  
HETATM   35  C   UNL     1      -7.403  18.172  68.582  1.00  0.00    -0.286 A  
HETATM   36  C   UNL     1      -8.155  19.321  68.589  1.00  0.00    -0.405 A  
ENDBRANCH  14  31
BRANCH  15  37
HETATM   37  O   UNL     1     -12.847  14.031  70.117  1.00  0.00    -0.242 OA 
BRANCH  37  38
HETATM   38  C   UNL     1     -13.162  15.062  71.061  1.00  0.00    -0.425 C  
BRANCH  38  39
HETATM   39  C   UNL     1     -13.040  14.535  72.487  1.00  0.00    -0.431 C  
HETATM   40  O   UNL     1     -13.827  13.361  72.659  1.00  0.00    -0.726 OA 
HETATM   41  H   UNL     1     -13.751  13.032  73.547  1.00  0.00     0.000 HD 
ENDBRANCH  38  39
ENDBRANCH  37  38
ENDBRANCH  15  37
ENDBRANCH   9  10
ENDBRANCH   8   9
ENDBRANCH   2   3
TORSDOF 11
ENDMDL
MODEL       43
REMARK 921   NORMALIZED FREE ENERGY PREDICTED BY IDOCK:   -5.77 KCAL/MOL
REMARK 922        TOTAL FREE ENERGY PREDICTED BY IDOCK:  -11.95 KCAL/MOL
REMARK 923 INTER-LIGAND FREE ENERGY PREDICTED BY IDOCK:   -9.58 KCAL/MOL
REMARK 924 INTRA-LIGAND FREE ENERGY PREDICTED BY IDOCK:   -2.37 KCAL/MOL
REMARK 927      BINDING AFFINITY PREDICTED BY RF-SCORE:    0.00 PKD
ROOT
HETATM    1  C   UNL     1     -13.877   7.429  71.549  1.00  0.00    -0.374 C  
HETATM    2  O   UNL     1     -12.576   8.018  71.541  1.00  0.00    -0.305 OA 
ENDROOT
BRANCH   2   3
HETATM    3  C   UNL     1     -12.499   9.364  71.280  1.00  0.00    -0.335 A  
HETATM    4  C   UNL     1     -13.189  10.325  72.038  1.00  0.00    -0.516 A  
HETATM    5  C   UNL     1     -13.138  11.683  71.707  1.00  0.00    -0.487 A  
HETATM    6  C   UNL     1     -12.377  12.107  70.626  1.00  0.00    -0.385 A  
HETATM    7  C   UNL     1     -11.673  11.172  69.876  1.00  0.00    -0.433 A  
HETATM    8  C   UNL     1     -11.720   9.804  70.189  1.00  0.00    -0.130 A  
BRANCH   8   9
HETATM    9  O   UNL     1     -11.007   9.053  69.278  1.00  0.00    -0.161 OA 
BRANCH   9  10
HETATM   10  C   UNL     1     -10.034   8.189  69.664  1.00  0.00    -0.193 A  
HETATM   11  C   UNL     1      -8.841   8.496  70.280  1.00  0.00    -0.148 A  
HETATM   12  N   UNL     1      -7.959   7.588  70.718  1.00  0.00    -0.102 NA 
HETATM   13  N   UNL     1      -9.358   5.882  69.819  1.00  0.00    -0.146 NA 
HETATM   14  C   UNL     1      -8.276   6.292  70.510  1.00  0.00    -0.118 A  
HETATM   15  C   UNL     1     -10.199   6.841  69.392  1.00  0.00    -0.187 A  
BRANCH  11  16
HETATM   16  N   UNL     1      -8.358   9.797  70.558  1.00  0.00    -0.248 N  
HETATM   17  H   UNL     1      -8.653  10.283  71.405  1.00  0.00     0.000 HD 
BRANCH  16  18
HETATM   18  S   UNL     1      -7.301  10.537  69.490  1.00  0.00    -0.144 S  
HETATM   19  O   UNL     1      -6.669  11.659  70.162  1.00  0.00    -0.081 OA 
HETATM   20  O   UNL     1      -6.492   9.475  68.925  1.00  0.00    -0.046 OA 
BRANCH  18  21
HETATM   21  C   UNL     1      -8.296  11.207  68.181  1.00  0.00    -0.136 A  
HETATM   22  C   UNL     1      -9.888  12.338  66.143  1.00  0.00    -0.257 A  
HETATM   23  C   UNL     1      -8.716  12.533  68.276  1.00  0.00    -0.171 A  
HETATM   24  C   UNL     1      -9.505  13.086  67.269  1.00  0.00    -0.224 A  
HETATM   25  C   UNL     1      -9.393  11.020  66.039  1.00  0.00    -0.225 A  
HETATM   26  C   UNL     1      -8.598  10.455  67.048  1.00  0.00    -0.130 A  
BRANCH  22  27
HETATM   27  C   UNL     1     -10.846  12.913  65.082  1.00  0.00    -0.320 C  
HETATM   28  C   UNL     1     -12.338  12.769  65.467  1.00  0.00    -0.495 C  
HETATM   29  C   UNL     1     -10.650  12.155  63.751  1.00  0.00    -0.482 C  
HETATM   30  C   UNL     1     -10.575  14.413  64.856  1.00  0.00    -0.456 C  
ENDBRANCH  22  27
ENDBRANCH  18  21
ENDBRANCH  16  18
ENDBRANCH  11  16
BRANCH  14  31
HETATM   31  C   UNL     1      -7.429   5.261  71.162  1.00  0.00    -0.084 A  
HETATM   32  N   UNL     1      -7.509   3.991  70.695  1.00  0.00    -0.041 NA 
HETATM   33  N   UNL     1      -6.686   5.625  72.235  1.00  0.00    -0.068 NA 
HETATM   34  C   UNL     1      -5.989   4.650  72.844  1.00  0.00    -0.017 A  
HETATM   35  C   UNL     1      -6.799   3.059  71.352  1.00  0.00    -0.031 A  
HETATM   36  C   UNL     1      -6.011   3.335  72.443  1.00  0.00    -0.009 A  
ENDBRANCH  14  31
BRANCH  15  37
HETATM   37  O   UNL     1     -11.280   6.466  68.615  1.00  0.00    -0.329 OA 
BRANCH  37  38
HETATM   38  C   UNL     1     -11.122   6.628  67.199  1.00  0.00    -0.357 C  
BRANCH  38  39
HETATM   39  C   UNL     1     -10.552   5.357  66.577  1.00  0.00    -0.289 C  
HETATM   40  O   UNL     1     -11.425   4.853  65.572  1.00  0.00    -0.914 OA 
HETATM   41  H   UNL     1     -11.070   4.062  65.184  1.00  0.00     0.000 HD 
ENDBRANCH  38  39
ENDBRANCH  37  38
ENDBRANCH  15  37
ENDBRANCH   9  10
ENDBRANCH   8   9
ENDBRANCH   2   3
TORSDOF 11
ENDMDL
MODEL       44
REMARK 921   NORMALIZED FREE ENERGY PREDICTED BY IDOCK:   -5.74 KCAL/MOL
REMARK 922        TOTAL FREE ENERGY PREDICTED BY IDOCK:  -11.89 KCAL/MOL
REMARK 923 INTER-LIGAND FREE ENERGY PREDICTED BY IDOCK:   -9.46 KCAL/MOL
REMARK 924 INTRA-LIGAND FREE ENERGY PREDICTED BY IDOCK:   -2.42 KCAL/MOL
REMARK 927      BINDING AFFINITY PREDICTED BY RF-SCORE:    0.00 PKD
ROOT
HETATM    1  C   UNL     1     -12.695  10.263  70.926  1.00  0.00    -0.370 C  
HETATM    2  O   UNL     1     -11.292  10.126  70.698  1.00  0.00    -0.307 OA 
ENDROOT
BRANCH   2   3
HETATM    3  C   UNL     1     -10.633   9.154  71.411  1.00  0.00    -0.341 A  
HETATM    4  C   UNL     1     -11.190   8.532  72.541  1.00  0.00    -0.336 A  
HETATM    5  C   UNL     1     -10.466   7.591  73.280  1.00  0.00    -0.426 A  
HETATM    6  C   UNL     1      -9.182   7.238  72.890  1.00  0.00    -0.185 A  
HETATM    7  C   UNL     1      -8.621   7.830  71.765  1.00  0.00    -0.141 A  
HETATM    8  C   UNL     1      -9.330   8.783  71.016  1.00  0.00    -0.222 A  
BRANCH   8   9
HETATM    9  O   UNL     1      -8.563   9.289  69.986  1.00  0.00    -0.145 OA 
BRANCH   9  10
HETATM   10  C   UNL     1      -9.108   9.996  68.964  1.00  0.00    -0.171 A  
HETATM   11  C   UNL     1     -10.163   9.624  68.161  1.00  0.00    -0.190 A  
HETATM   12  N   UNL     1     -10.714  10.406  67.223  1.00  0.00    -0.272 NA 
HETATM   13  N   UNL     1      -9.064  12.053  67.712  1.00  0.00    -0.179 NA 
HETATM   14  C   UNL     1     -10.166  11.629  67.062  1.00  0.00    -0.212 A  
HETATM   15  C   UNL     1      -8.547  11.218  68.631  1.00  0.00    -0.139 A  
BRANCH  11  16
HETATM   16  N   UNL     1     -10.836   8.379  68.195  1.00  0.00    -0.456 N  
HETATM   17  H   UNL     1     -11.742   8.299  68.658  1.00  0.00     0.000 HD 
BRANCH  16  18
HETATM   18  S   UNL     1     -10.142   7.038  67.472  1.00  0.00    -0.207 S  
HETATM   19  O   UNL     1     -11.127   6.408  66.611  1.00  0.00    -0.292 OA 
HETATM   20  O   UNL     1      -8.875   7.486  66.927  1.00  0.00    -0.127 OA 
BRANCH  18  21
HETATM   21  C   UNL     1      -9.785   5.890  68.780  1.00  0.00    -0.131 A  
HETATM   22  C   UNL     1      -9.288   4.086  70.892  1.00  0.00    -0.221 A  
HETATM   23  C   UNL     1     -10.778   5.626  69.722  1.00  0.00    -0.401 A  
HETATM   24  C   UNL     1     -10.527   4.737  70.765  1.00  0.00    -0.091 A  
HETATM   25  C   UNL     1      -8.325   4.319  69.887  1.00  0.00    -0.077 A  
HETATM   26  C   UNL     1      -8.569   5.212  68.833  1.00  0.00    -0.092 A  
BRANCH  22  27
HETATM   27  C   UNL     1      -8.971   3.185  72.102  1.00  0.00    -0.136 C  
HETATM   28  C   UNL     1      -7.689   3.609  72.857  1.00  0.00    -0.066 C  
HETATM   29  C   UNL     1      -8.750   1.736  71.618  1.00  0.00    -0.092 C  
HETATM   30  C   UNL     1     -10.129   3.208  73.119  1.00  0.00    -0.210 C  
ENDBRANCH  22  27
ENDBRANCH  18  21
ENDBRANCH  16  18
ENDBRANCH  11  16
BRANCH  14  31
HETATM   31  C   UNL     1     -10.876  12.593  66.183  1.00  0.00    -0.273 A  
HETATM   32  N   UNL     1     -12.157  12.314  65.844  1.00  0.00    -0.620 NA 
HETATM   33  N   UNL     1     -10.182  13.655  65.703  1.00  0.00    -0.299 NA 
HETATM   34  C   UNL     1     -10.835  14.465  64.853  1.00  0.00    -0.416 A  
HETATM   35  C   UNL     1     -12.753  13.154  64.982  1.00  0.00    -0.392 A  
HETATM   36  C   UNL     1     -12.133  14.259  64.451  1.00  0.00    -0.490 A  
ENDBRANCH  14  31
BRANCH  15  37
HETATM   37  O   UNL     1      -7.373  11.585  69.263  1.00  0.00    -0.095 OA 
BRANCH  37  38
HETATM   38  C   UNL     1      -6.609  12.615  68.623  1.00  0.00    -0.083 C  
BRANCH  38  39
HETATM   39  C   UNL     1      -5.569  12.005  67.689  1.00  0.00    -0.087 C  
HETATM   40  O   UNL     1      -6.079  11.907  66.363  1.00  0.00    -0.473 OA 
HETATM   41  H   UNL     1      -5.432  11.527  65.781  1.00  0.00     0.000 HD 
ENDBRANCH  38  39
ENDBRANCH  37  38
ENDBRANCH  15  37
ENDBRANCH   9  10
ENDBRANCH   8   9
ENDBRANCH   2   3
TORSDOF 11
ENDMDL
MODEL       45
REMARK 921   NORMALIZED FREE ENERGY PREDICTED BY IDOCK:   -5.72 KCAL/MOL
REMARK 922        TOTAL FREE ENERGY PREDICTED BY IDOCK:  -11.85 KCAL/MOL
REMARK 923 INTER-LIGAND FREE ENERGY PREDICTED BY IDOCK:   -9.74 KCAL/MOL
REMARK 924 INTRA-LIGAND FREE ENERGY PREDICTED BY IDOCK:   -2.12 KCAL/MOL
REMARK 927      BINDING AFFINITY PREDICTED BY RF-SCORE:    0.00 PKD
ROOT
HETATM    1  C   UNL     1     -11.476  11.570  64.036  1.00  0.00    -0.244 C  
HETATM    2  O   UNL     1     -10.561  11.481  65.129  1.00  0.00    -0.276 OA 
ENDROOT
BRANCH   2   3
HETATM    3  C   UNL     1      -9.358  10.864  64.891  1.00  0.00    -0.224 A  
HETATM    4  C   UNL     1      -9.066  10.209  63.682  1.00  0.00    -0.289 A  
HETATM    5  C   UNL     1      -7.854   9.537  63.496  1.00  0.00    -0.134 A  
HETATM    6  C   UNL     1      -6.902   9.527  64.506  1.00  0.00    -0.099 A  
HETATM    7  C   UNL     1      -7.166  10.184  65.702  1.00  0.00    -0.137 A  
HETATM    8  C   UNL     1      -8.382  10.856  65.909  1.00  0.00    -0.149 A  
BRANCH   8   9
HETATM    9  O   UNL     1      -8.459  11.377  67.185  1.00  0.00    -0.142 OA 
BRANCH   9  10
HETATM   10  C   UNL     1      -7.981  12.611  67.487  1.00  0.00    -0.174 A  
HETATM   11  C   UNL     1      -8.419  13.820  66.994  1.00  0.00    -0.133 A  
HETATM   12  N   UNL     1      -7.963  15.013  67.398  1.00  0.00    -0.179 NA 
HETATM   13  N   UNL     1      -6.414  13.877  68.807  1.00  0.00    -0.088 NA 
HETATM   14  C   UNL     1      -6.995  15.000  68.338  1.00  0.00    -0.109 A  
HETATM   15  C   UNL     1      -6.904  12.711  68.353  1.00  0.00    -0.090 A  
BRANCH  11  16
HETATM   16  N   UNL     1      -9.412  14.004  66.002  1.00  0.00    -0.499 N  
HETATM   17  H   UNL     1      -9.446  13.387  65.191  1.00  0.00     0.000 HD 
BRANCH  16  18
HETATM   18  S   UNL     1     -10.530  15.240  66.164  1.00  0.00    -0.324 S  
HETATM   19  O   UNL     1      -9.828  16.511  66.147  1.00  0.00    -0.297 OA 
HETATM   20  O   UNL     1     -11.572  14.968  65.192  1.00  0.00    -0.348 OA 
BRANCH  18  21
HETATM   21  C   UNL     1     -11.245  15.062  67.779  1.00  0.00    -0.321 A  
HETATM   22  C   UNL     1     -12.351  14.849  70.368  1.00  0.00    -0.401 A  
HETATM   23  C   UNL     1     -11.169  16.137  68.663  1.00  0.00    -0.369 A  
HETATM   24  C   UNL     1     -11.713  16.026  69.942  1.00  0.00    -0.276 A  
HETATM   25  C   UNL     1     -12.474  13.801  69.430  1.00  0.00    -0.062 A  
HETATM   26  C   UNL     1     -11.930  13.904  68.141  1.00  0.00    -0.385 A  
BRANCH  22  27
HETATM   27  C   UNL     1     -12.858  14.686  71.813  1.00  0.00    -0.402 C  
HETATM   28  C   UNL     1     -13.049  13.207  72.229  1.00  0.00    -0.458 C  
HETATM   29  C   UNL     1     -14.233  15.374  71.954  1.00  0.00    -0.640 C  
HETATM   30  C   UNL     1     -11.871  15.318  72.814  1.00  0.00    -0.521 C  
ENDBRANCH  22  27
ENDBRANCH  18  21
ENDBRANCH  16  18
ENDBRANCH  11  16
BRANCH  14  31
HETATM   31  C   UNL     1      -6.615  16.296  68.957  1.00  0.00    -0.169 A  
HETATM   32  N   UNL     1      -7.041  17.432  68.354  1.00  0.00    -0.203 NA 
HETATM   33  N   UNL     1      -5.799  16.276  70.039  1.00  0.00    -0.191 NA 
HETATM   34  C   UNL     1      -5.417  17.468  70.527  1.00  0.00    -0.232 A  
HETATM   35  C   UNL     1      -6.616  18.593  68.880  1.00  0.00    -0.265 A  
HETATM   36  C   UNL     1      -5.796  18.671  69.980  1.00  0.00    -0.246 A  
ENDBRANCH  14  31
BRANCH  15  37
HETATM   37  O   UNL     1      -6.284  11.540  68.751  1.00  0.00    -0.048 OA 
BRANCH  37  38
HETATM   38  C   UNL     1      -6.673  11.026  70.031  1.00  0.00    -0.094 C  
BRANCH  38  39
HETATM   39  C   UNL     1      -7.656   9.871  69.866  1.00  0.00    -0.163 C  
HETATM   40  O   UNL     1      -8.980  10.289  70.179  1.00  0.00    -0.358 OA 
HETATM   41  H   UNL     1      -9.593   9.570  70.076  1.00  0.00     0.000 HD 
ENDBRANCH  38  39
ENDBRANCH  37  38
ENDBRANCH  15  37
ENDBRANCH   9  10
ENDBRANCH   8   9
ENDBRANCH   2   3
TORSDOF 11
ENDMDL
MODEL       46
REMARK 921   NORMALIZED FREE ENERGY PREDICTED BY IDOCK:   -5.71 KCAL/MOL
REMARK 922        TOTAL FREE ENERGY PREDICTED BY IDOCK:  -11.84 KCAL/MOL
REMARK 923 INTER-LIGAND FREE ENERGY PREDICTED BY IDOCK:  -10.54 KCAL/MOL
REMARK 924 INTRA-LIGAND FREE ENERGY PREDICTED BY IDOCK:   -1.30 KCAL/MOL
REMARK 927      BINDING AFFINITY PREDICTED BY RF-SCORE:    0.00 PKD
ROOT
HETATM    1  C   UNL     1     -12.132  12.354  69.272  1.00  0.00    -0.165 C  
HETATM    2  O   UNL     1     -12.146  11.574  68.076  1.00  0.00    -0.617 OA 
ENDROOT
BRANCH   2   3
HETATM    3  C   UNL     1     -11.656  12.164  66.937  1.00  0.00    -0.341 A  
HETATM    4  C   UNL     1     -12.062  13.439  66.507  1.00  0.00    -0.444 A  
HETATM    5  C   UNL     1     -11.590  13.984  65.309  1.00  0.00    -0.339 A  
HETATM    6  C   UNL     1     -10.686  13.275  64.531  1.00  0.00    -0.428 A  
HETATM    7  C   UNL     1     -10.259  12.020  64.949  1.00  0.00    -0.302 A  
HETATM    8  C   UNL     1     -10.730  11.454  66.145  1.00  0.00    -0.267 A  
BRANCH   8   9
HETATM    9  O   UNL     1     -10.232  10.180  66.330  1.00  0.00    -0.238 OA 
BRANCH   9  10
HETATM   10  C   UNL     1      -9.946   9.694  67.565  1.00  0.00    -0.183 A  
HETATM   11  C   UNL     1      -9.397  10.379  68.626  1.00  0.00    -0.167 A  
HETATM   12  N   UNL     1      -9.221   9.864  69.849  1.00  0.00    -0.226 NA 
HETATM   13  N   UNL     1     -10.037   7.783  69.028  1.00  0.00    -0.191 NA 
HETATM   14  C   UNL     1      -9.596   8.579  70.022  1.00  0.00    -0.169 A  
HETATM   15  C   UNL     1     -10.180   8.352  67.818  1.00  0.00    -0.224 A  
BRANCH  11  16
HETATM   16  N   UNL     1      -8.944  11.719  68.606  1.00  0.00    -0.345 N  
HETATM   17  H   UNL     1      -9.580  12.479  68.847  1.00  0.00     0.000 HD 
BRANCH  16  18
HETATM   18  S   UNL     1      -7.358  12.055  68.184  1.00  0.00    -0.103 S  
HETATM   19  O   UNL     1      -6.504  11.788  69.328  1.00  0.00    -0.088 OA 
HETATM   20  O   UNL     1      -7.125  11.374  66.925  1.00  0.00    -0.128 OA 
BRANCH  18  21
HETATM   21  C   UNL     1      -7.279  13.801  67.872  1.00  0.00    -0.154 A  
HETATM   22  C   UNL     1      -7.232  16.577  67.363  1.00  0.00    -0.178 A  
HETATM   23  C   UNL     1      -8.472  14.502  67.704  1.00  0.00    -0.189 A  
HETATM   24  C   UNL     1      -8.444  15.871  67.449  1.00  0.00    -0.194 A  
HETATM   25  C   UNL     1      -6.042  15.856  67.605  1.00  0.00    -0.181 A  
HETATM   26  C   UNL     1      -6.061  14.477  67.863  1.00  0.00    -0.161 A  
BRANCH  22  27
HETATM   27  C   UNL     1      -7.193  18.068  66.977  1.00  0.00    -0.219 C  
HETATM   28  C   UNL     1      -6.727  18.984  68.134  1.00  0.00    -0.256 C  
HETATM   29  C   UNL     1      -8.610  18.532  66.579  1.00  0.00    -0.289 C  
HETATM   30  C   UNL     1      -6.232  18.302  65.794  1.00  0.00    -0.288 C  
ENDBRANCH  22  27
ENDBRANCH  18  21
ENDBRANCH  16  18
ENDBRANCH  11  16
BRANCH  14  31
HETATM   31  C   UNL     1      -9.608   8.043  71.407  1.00  0.00    -0.154 A  
HETATM   32  N   UNL     1     -10.568   7.142  71.727  1.00  0.00    -0.206 NA 
HETATM   33  N   UNL     1      -8.714   8.541  72.296  1.00  0.00    -0.305 NA 
HETATM   34  C   UNL     1      -8.802   8.087  73.557  1.00  0.00    -0.268 A  
HETATM   35  C   UNL     1     -10.613   6.734  73.006  1.00  0.00    -0.267 A  
HETATM   36  C   UNL     1      -9.744   7.176  73.974  1.00  0.00    -0.314 A  
ENDBRANCH  14  31
BRANCH  15  37
HETATM   37  O   UNL     1     -10.556   7.549  66.757  1.00  0.00    -0.318 OA 
BRANCH  37  38
HETATM   38  C   UNL     1     -11.124   6.278  67.099  1.00  0.00    -0.303 C  
BRANCH  38  39
HETATM   39  C   UNL     1     -10.561   5.183  66.199  1.00  0.00    -0.236 C  
HETATM   40  O   UNL     1     -11.564   4.694  65.314  1.00  0.00    -1.093 OA 
HETATM   41  H   UNL     1     -11.214   4.012  64.753  1.00  0.00     0.000 HD 
ENDBRANCH  38  39
ENDBRANCH  37  38
ENDBRANCH  15  37
ENDBRANCH   9  10
ENDBRANCH   8   9
ENDBRANCH   2   3
TORSDOF 11
ENDMDL
MODEL       47
REMARK 921   NORMALIZED FREE ENERGY PREDICTED BY IDOCK:   -5.69 KCAL/MOL
REMARK 922        TOTAL FREE ENERGY PREDICTED BY IDOCK:  -11.82 KCAL/MOL
REMARK 923 INTER-LIGAND FREE ENERGY PREDICTED BY IDOCK:  -10.12 KCAL/MOL
REMARK 924 INTRA-LIGAND FREE ENERGY PREDICTED BY IDOCK:   -1.70 KCAL/MOL
REMARK 927      BINDING AFFINITY PREDICTED BY RF-SCORE:    0.00 PKD
ROOT
HETATM    1  C   UNL     1      -6.892   8.877  70.651  1.00  0.00    -0.057 C  
HETATM    2  O   UNL     1      -8.112   9.486  71.075  1.00  0.00    -0.312 OA 
ENDROOT
BRANCH   2   3
HETATM    3  C   UNL     1      -8.926   8.752  71.901  1.00  0.00    -0.183 A  
HETATM    4  C   UNL     1      -8.424   7.887  72.888  1.00  0.00    -0.222 A  
HETATM    5  C   UNL     1      -9.280   7.106  73.672  1.00  0.00    -0.237 A  
HETATM    6  C   UNL     1     -10.654   7.193  73.499  1.00  0.00    -0.416 A  
HETATM    7  C   UNL     1     -11.170   8.056  72.539  1.00  0.00    -0.452 A  
HETATM    8  C   UNL     1     -10.325   8.841  71.738  1.00  0.00    -0.343 A  
BRANCH   8   9
HETATM    9  O   UNL     1     -11.042   9.569  70.811  1.00  0.00    -0.269 OA 
BRANCH   9  10
HETATM   10  C   UNL     1     -10.730   9.554  69.490  1.00  0.00    -0.228 A  
HETATM   11  C   UNL     1     -10.343  10.622  68.711  1.00  0.00    -0.193 A  
HETATM   12  N   UNL     1      -9.963  10.527  67.430  1.00  0.00    -0.174 NA 
HETATM   13  N   UNL     1     -10.455   8.199  67.518  1.00  0.00    -0.258 NA 
HETATM   14  C   UNL     1      -9.988   9.293  66.885  1.00  0.00    -0.233 A  
HETATM   15  C   UNL     1     -10.837   8.359  68.797  1.00  0.00     0.052 A  
BRANCH  11  16
HETATM   16  N   UNL     1     -10.276  11.974  69.126  1.00  0.00    -0.414 N  
HETATM   17  H   UNL     1      -9.395  12.363  69.461  1.00  0.00     0.000 HD 
BRANCH  16  18
HETATM   18  S   UNL     1     -11.649  12.932  69.066  1.00  0.00    -0.339 S  
HETATM   19  O   UNL     1     -12.474  12.495  67.953  1.00  0.00    -0.068 OA 
HETATM   20  O   UNL     1     -12.187  12.948  70.412  1.00  0.00    -0.354 OA 
BRANCH  18  21
HETATM   21  C   UNL     1     -11.097  14.577  68.690  1.00  0.00    -0.257 A  
HETATM   22  C   UNL     1     -10.206  17.170  68.018  1.00  0.00    -0.332 A  
HETATM   23  C   UNL     1     -10.802  14.894  67.365  1.00  0.00    -0.304 A  
HETATM   24  C   UNL     1     -10.359  16.174  67.038  1.00  0.00    -0.290 A  
HETATM   25  C   UNL     1     -10.577  16.842  69.340  1.00  0.00    -0.292 A  
HETATM   26  C   UNL     1     -11.025  15.556  69.678  1.00  0.00    -0.288 A  
BRANCH  22  27
HETATM   27  C   UNL     1      -9.617  18.552  67.677  1.00  0.00    -0.304 C  
HETATM   28  C   UNL     1      -9.597  19.520  68.884  1.00  0.00    -0.460 C  
HETATM   29  C   UNL     1     -10.474  19.218  66.580  1.00  0.00    -0.552 C  
HETATM   30  C   UNL     1      -8.165  18.418  67.175  1.00  0.00    -0.248 C  
ENDBRANCH  22  27
ENDBRANCH  18  21
ENDBRANCH  16  18
ENDBRANCH  11  16
BRANCH  14  31
HETATM   31  C   UNL     1      -9.380   9.119  65.541  1.00  0.00    -0.221 A  
HETATM   32  N   UNL     1      -8.523   8.084  65.365  1.00  0.00    -0.152 NA 
HETATM   33  N   UNL     1      -9.649  10.047  64.590  1.00  0.00    -0.306 NA 
HETATM   34  C   UNL     1      -9.023   9.897  63.410  1.00  0.00    -0.256 A  
HETATM   35  C   UNL     1      -7.919   7.995  64.168  1.00  0.00    -0.137 A  
HETATM   36  C   UNL     1      -8.136   8.882  63.142  1.00  0.00    -0.173 A  
ENDBRANCH  14  31
BRANCH  15  37
HETATM   37  O   UNL     1     -11.393   7.278  69.456  1.00  0.00    -0.098 OA 
BRANCH  37  38
HETATM   38  C   UNL     1     -10.973   5.983  69.007  1.00  0.00    -0.339 C  
BRANCH  38  39
HETATM   39  C   UNL     1     -10.240   5.244  70.122  1.00  0.00    -0.280 C  
HETATM   40  O   UNL     1      -8.855   5.573  70.119  1.00  0.00    -0.131 OA 
HETATM   41  H   UNL     1      -8.398   5.113  70.813  1.00  0.00     0.000 HD 
ENDBRANCH  38  39
ENDBRANCH  37  38
ENDBRANCH  15  37
ENDBRANCH   9  10
ENDBRANCH   8   9
ENDBRANCH   2   3
TORSDOF 11
ENDMDL
MODEL       48
REMARK 921   NORMALIZED FREE ENERGY PREDICTED BY IDOCK:   -5.67 KCAL/MOL
REMARK 922        TOTAL FREE ENERGY PREDICTED BY IDOCK:  -11.77 KCAL/MOL
REMARK 923 INTER-LIGAND FREE ENERGY PREDICTED BY IDOCK:   -9.63 KCAL/MOL
REMARK 924 INTRA-LIGAND FREE ENERGY PREDICTED BY IDOCK:   -2.14 KCAL/MOL
REMARK 927      BINDING AFFINITY PREDICTED BY RF-SCORE:    0.00 PKD
ROOT
HETATM    1  C   UNL     1     -11.558  13.589  69.347  1.00  0.00    -0.312 C  
HETATM    2  O   UNL     1     -11.265  12.194  69.278  1.00  0.00    -0.250 OA 
ENDROOT
BRANCH   2   3
HETATM    3  C   UNL     1     -11.808  11.390  70.250  1.00  0.00    -0.350 A  
HETATM    4  C   UNL     1     -12.939  11.760  70.997  1.00  0.00    -0.200 A  
HETATM    5  C   UNL     1     -13.429  10.944  72.022  1.00  0.00    -0.287 A  
HETATM    6  C   UNL     1     -12.812   9.734  72.303  1.00  0.00    -0.379 A  
HETATM    7  C   UNL     1     -11.702   9.343  71.563  1.00  0.00    -0.465 A  
HETATM    8  C   UNL     1     -11.191  10.153  70.536  1.00  0.00    -0.336 A  
BRANCH   8   9
HETATM    9  O   UNL     1     -10.052   9.607  69.982  1.00  0.00    -0.219 OA 
BRANCH   9  10
HETATM   10  C   UNL     1     -10.108   8.682  68.990  1.00  0.00    -0.199 A  
HETATM   11  C   UNL     1     -10.350   8.904  67.653  1.00  0.00    -0.251 A  
HETATM   12  N   UNL     1     -10.305   7.957  66.708  1.00  0.00    -0.316 NA 
HETATM   13  N   UNL     1      -9.881   6.354  68.417  1.00  0.00    -0.134 NA 
HETATM   14  C   UNL     1     -10.022   6.705  67.124  1.00  0.00    -0.160 A  
HETATM   15  C   UNL     1      -9.951   7.346  69.322  1.00  0.00    -0.173 A  
BRANCH  11  16
HETATM   16  N   UNL     1     -10.671  10.150  67.062  1.00  0.00    -0.227 N  
HETATM   17  H   UNL     1     -11.508  10.655  67.354  1.00  0.00     0.000 HD 
BRANCH  16  18
HETATM   18  S   UNL     1      -9.674  10.791  65.879  1.00  0.00    -0.238 S  
HETATM   19  O   UNL     1      -8.307  10.379  66.147  1.00  0.00    -0.138 OA 
HETATM   20  O   UNL     1     -10.297  10.469  64.610  1.00  0.00    -0.344 OA 
BRANCH  18  21
HETATM   21  C   UNL     1      -9.733  12.555  66.073  1.00  0.00    -0.241 A  
HETATM   22  C   UNL     1      -9.768  15.354  66.433  1.00  0.00    -0.311 A  
HETATM   23  C   UNL     1      -8.745  13.174  66.835  1.00  0.00    -0.156 A  
HETATM   24  C   UNL     1      -8.768  14.556  67.014  1.00  0.00    -0.256 A  
HETATM   25  C   UNL     1     -10.717  14.709  65.611  1.00  0.00    -0.340 A  
HETATM   26  C   UNL     1     -10.701  13.319  65.425  1.00  0.00    -0.308 A  
BRANCH  22  27
HETATM   27  C   UNL     1      -9.858  16.866  66.715  1.00  0.00    -0.284 C  
HETATM   28  C   UNL     1     -10.621  17.646  65.618  1.00  0.00    -0.137 C  
HETATM   29  C   UNL     1      -8.434  17.460  66.782  1.00  0.00    -0.280 C  
HETATM   30  C   UNL     1     -10.580  17.131  68.051  1.00  0.00    -0.374 C  
ENDBRANCH  22  27
ENDBRANCH  18  21
ENDBRANCH  16  18
ENDBRANCH  11  16
BRANCH  14  31
HETATM   31  C   UNL     1      -9.762   5.674  66.085  1.00  0.00    -0.098 A  
HETATM   32  N   UNL     1     -10.811   4.936  65.651  1.00  0.00    -0.150 NA 
HETATM   33  N   UNL     1      -8.481   5.473  65.689  1.00  0.00    -0.135 NA 
HETATM   34  C   UNL     1      -8.274   4.484  64.804  1.00  0.00    -0.108 A  
HETATM   35  C   UNL     1     -10.539   3.954  64.776  1.00  0.00    -0.117 A  
HETATM   36  C   UNL     1      -9.276   3.681  64.310  1.00  0.00    -0.134 A  
ENDBRANCH  14  31
BRANCH  15  37
HETATM   37  O   UNL     1      -9.888   7.015  70.663  1.00  0.00    -0.182 OA 
BRANCH  37  38
HETATM   38  C   UNL     1     -10.658   5.876  71.068  1.00  0.00    -0.250 C  
BRANCH  38  39
HETATM   39  C   UNL     1     -10.819   5.853  72.584  1.00  0.00    -0.251 C  
HETATM   40  O   UNL     1     -12.154   5.509  72.943  1.00  0.00    -0.542 OA 
HETATM   41  H   UNL     1     -12.255   5.495  73.888  1.00  0.00     0.000 HD 
ENDBRANCH  38  39
ENDBRANCH  37  38
ENDBRANCH  15  37
ENDBRANCH   9  10
ENDBRANCH   8   9
ENDBRANCH   2   3
TORSDOF 11
ENDMDL
MODEL       49
REMARK 921   NORMALIZED FREE ENERGY PREDICTED BY IDOCK:   -5.66 KCAL/MOL
REMARK 922        TOTAL FREE ENERGY PREDICTED BY IDOCK:  -11.76 KCAL/MOL
REMARK 923 INTER-LIGAND FREE ENERGY PREDICTED BY IDOCK:   -9.79 KCAL/MOL
REMARK 924 INTRA-LIGAND FREE ENERGY PREDICTED BY IDOCK:   -1.97 KCAL/MOL
REMARK 927      BINDING AFFINITY PREDICTED BY RF-SCORE:    0.00 PKD
ROOT
HETATM    1  C   UNL     1     -12.721  12.723  71.114  1.00  0.00    -0.263 C  
HETATM    2  O   UNL     1     -12.247  11.790  70.143  1.00  0.00    -0.299 OA 
ENDROOT
BRANCH   2   3
HETATM    3  C   UNL     1     -11.929  10.530  70.585  1.00  0.00    -0.357 A  
HETATM    4  C   UNL     1     -12.351  10.034  71.831  1.00  0.00    -0.348 A  
HETATM    5  C   UNL     1     -11.957   8.769  72.278  1.00  0.00    -0.415 A  
HETATM    6  C   UNL     1     -11.153   7.968  71.479  1.00  0.00    -0.290 A  
HETATM    7  C   UNL     1     -10.740   8.435  70.237  1.00  0.00    -0.240 A  
HETATM    8  C   UNL     1     -11.119   9.706  69.776  1.00  0.00    -0.217 A  
BRANCH   8   9
HETATM    9  O   UNL     1     -10.544   9.992  68.554  1.00  0.00    -0.195 OA 
BRANCH   9  10
HETATM   10  C   UNL     1      -9.695  11.037  68.388  1.00  0.00    -0.180 A  
HETATM   11  C   UNL     1     -10.011  12.314  67.981  1.00  0.00    -0.202 A  
HETATM   12  N   UNL     1      -9.138  13.328  67.920  1.00  0.00    -0.194 NA 
HETATM   13  N   UNL     1      -7.421  11.811  68.572  1.00  0.00    -0.104 NA 
HETATM   14  C   UNL     1      -7.865  13.047  68.268  1.00  0.00    -0.143 A  
HETATM   15  C   UNL     1      -8.341  10.831  68.602  1.00  0.00    -0.141 A  
BRANCH  11  16
HETATM   16  N   UNL     1     -11.289  12.765  67.573  1.00  0.00    -0.292 N  
HETATM   17  H   UNL     1     -12.116  12.520  68.118  1.00  0.00     0.000 HD 
BRANCH  16  18
HETATM   18  S   UNL     1     -11.440  13.701  66.192  1.00  0.00    -0.337 S  
HETATM   19  O   UNL     1     -10.499  13.219  65.197  1.00  0.00    -0.307 OA 
HETATM   20  O   UNL     1     -12.858  13.750  65.893  1.00  0.00    -0.438 OA 
BRANCH  18  21
HETATM   21  C   UNL     1     -10.930  15.342  66.639  1.00  0.00    -0.297 A  
HETATM   22  C   UNL     1     -10.079  17.955  67.281  1.00  0.00    -0.344 A  
HETATM   23  C   UNL     1     -10.256  16.110  65.692  1.00  0.00    -0.390 A  
HETATM   24  C   UNL     1      -9.834  17.399  66.015  1.00  0.00    -0.201 A  
HETATM   25  C   UNL     1     -10.823  17.181  68.198  1.00  0.00    -0.316 A  
HETATM   26  C   UNL     1     -11.252  15.883  67.882  1.00  0.00    -0.297 A  
BRANCH  22  27
HETATM   27  C   UNL     1      -9.523  19.337  67.676  1.00  0.00    -0.385 C  
HETATM   28  C   UNL     1      -9.789  20.428  66.611  1.00  0.00    -0.496 C  
HETATM   29  C   UNL     1      -7.992  19.242  67.849  1.00  0.00    -0.327 C  
HETATM   30  C   UNL     1     -10.153  19.823  68.996  1.00  0.00    -0.427 C  
ENDBRANCH  22  27
ENDBRANCH  18  21
ENDBRANCH  16  18
ENDBRANCH  11  16
BRANCH  14  31
HETATM   31  C   UNL     1      -6.921  14.185  68.412  1.00  0.00    -0.099 A  
HETATM   32  N   UNL     1      -6.367  14.396  69.631  1.00  0.00    -0.130 NA 
HETATM   33  N   UNL     1      -6.727  14.998  67.344  1.00  0.00    -0.272 NA 
HETATM   34  C   UNL     1      -5.925  16.058  67.533  1.00  0.00    -0.152 A  
HETATM   35  C   UNL     1      -5.584  15.479  69.760  1.00  0.00    -0.120 A  
HETATM   36  C   UNL     1      -5.323  16.354  68.733  1.00  0.00    -0.112 A  
ENDBRANCH  14  31
BRANCH  15  37
HETATM   37  O   UNL     1      -7.913   9.537  68.834  1.00  0.00    -0.088 OA 
BRANCH  37  38
HETATM   38  C   UNL     1      -7.410   8.827  67.695  1.00  0.00    -0.085 C  
BRANCH  38  39
HETATM   39  C   UNL     1      -8.253   7.585  67.427  1.00  0.00    -0.116 C  
HETATM   40  O   UNL     1      -9.331   7.888  66.548  1.00  0.00    -0.178 OA 
HETATM   41  H   UNL     1      -9.856   7.114  66.380  1.00  0.00     0.000 HD 
ENDBRANCH  38  39
ENDBRANCH  37  38
ENDBRANCH  15  37
ENDBRANCH   9  10
ENDBRANCH   8   9
ENDBRANCH   2   3
TORSDOF 11
ENDMDL
MODEL       50
REMARK 921   NORMALIZED FREE ENERGY PREDICTED BY IDOCK:   -5.65 KCAL/MOL
REMARK 922        TOTAL FREE ENERGY PREDICTED BY IDOCK:  -11.74 KCAL/MOL
REMARK 923 INTER-LIGAND FREE ENERGY PREDICTED BY IDOCK:   -9.24 KCAL/MOL
REMARK 924 INTRA-LIGAND FREE ENERGY PREDICTED BY IDOCK:   -2.50 KCAL/MOL
REMARK 927      BINDING AFFINITY PREDICTED BY RF-SCORE:    0.00 PKD
ROOT
HETATM    1  C   UNL     1     -12.438  15.902  71.541  1.00  0.00    -0.428 C  
HETATM    2  O   UNL     1     -12.303  15.383  70.218  1.00  0.00    -0.357 OA 
ENDROOT
BRANCH   2   3
HETATM    3  C   UNL     1     -11.050  14.977  69.828  1.00  0.00    -0.276 A  
HETATM    4  C   UNL     1      -9.918  15.802  69.932  1.00  0.00    -0.195 A  
HETATM    5  C   UNL     1      -8.668  15.379  69.468  1.00  0.00    -0.210 A  
HETATM    6  C   UNL     1      -8.523  14.116  68.913  1.00  0.00     0.002 A  
HETATM    7  C   UNL     1      -9.628  13.279  68.818  1.00  0.00     0.058 A  
HETATM    8  C   UNL     1     -10.892  13.690  69.271  1.00  0.00    -0.082 A  
BRANCH   8   9
HETATM    9  O   UNL     1     -11.855  12.734  69.019  1.00  0.00    -0.295 OA 
BRANCH   9  10
HETATM   10  C   UNL     1     -11.545  11.530  68.473  1.00  0.00    -0.313 A  
HETATM   11  C   UNL     1     -11.387  11.235  67.137  1.00  0.00    -0.220 A  
HETATM   12  N   UNL     1     -10.993  10.044  66.666  1.00  0.00     0.019 NA 
HETATM   13  N   UNL     1     -10.994   9.225  68.903  1.00  0.00    -0.088 NA 
HETATM   14  C   UNL     1     -10.763   9.081  67.583  1.00  0.00    -0.163 A  
HETATM   15  C   UNL     1     -11.402  10.439  69.314  1.00  0.00    -0.235 A  
BRANCH  11  16
HETATM   16  N   UNL     1     -11.601  12.124  66.057  1.00  0.00    -0.379 N  
HETATM   17  H   UNL     1     -12.549  12.398  65.800  1.00  0.00     0.000 HD 
BRANCH  16  18
HETATM   18  S   UNL     1     -10.292  12.725  65.202  1.00  0.00    -0.286 S  
HETATM   19  O   UNL     1      -9.092  12.035  65.640  1.00  0.00    -0.087 OA 
HETATM   20  O   UNL     1     -10.680  12.700  63.805  1.00  0.00    -0.416 OA 
BRANCH  18  21
HETATM   21  C   UNL     1     -10.118  14.426  65.680  1.00  0.00    -0.353 A  
HETATM   22  C   UNL     1      -9.919  17.136  66.444  1.00  0.00    -0.315 A  
HETATM   23  C   UNL     1     -11.253  15.122  66.092  1.00  0.00    -0.271 A  
HETATM   24  C   UNL     1     -11.151  16.461  66.465  1.00  0.00     0.171 A  
HETATM   25  C   UNL     1      -8.775  16.389  66.089  1.00  0.00    -0.347 A  
HETATM   26  C   UNL     1      -8.868  15.041  65.712  1.00  0.00     0.548 A  
BRANCH  22  27
HETATM   27  C   UNL     1      -9.820  18.642  66.754  1.00  0.00    -0.365 C  
HETATM   28  C   UNL     1      -8.452  19.255  66.369  1.00  0.00    -0.342 C  
HETATM   29  C   UNL     1     -10.003  18.866  68.270  1.00  0.00    -0.431 C  
HETATM   30  C   UNL     1     -10.904  19.429  65.991  1.00  0.00    -0.405 C  
ENDBRANCH  22  27
ENDBRANCH  18  21
ENDBRANCH  16  18
ENDBRANCH  11  16
BRANCH  14  31
HETATM   31  C   UNL     1     -10.130   7.821  67.116  1.00  0.00    -0.258 A  
HETATM   32  N   UNL     1      -8.790   7.824  66.915  1.00  0.00    -0.126 NA 
HETATM   33  N   UNL     1     -10.932   6.764  66.839  1.00  0.00    -0.370 NA 
HETATM   34  C   UNL     1     -10.333   5.666  66.349  1.00  0.00    -0.187 A  
HETATM   35  C   UNL     1      -8.250   6.701  66.412  1.00  0.00    -0.117 A  
HETATM   36  C   UNL     1      -8.982   5.578  66.110  1.00  0.00    -0.146 A  
ENDBRANCH  14  31
BRANCH  15  37
HETATM   37  O   UNL     1     -11.723  10.604  70.649  1.00  0.00    -0.320 OA 
BRANCH  37  38
HETATM   38  C   UNL     1     -11.754   9.411  71.442  1.00  0.00    -0.378 C  
BRANCH  38  39
HETATM   39  C   UNL     1     -13.189   8.927  71.622  1.00  0.00    -0.362 C  
HETATM   40  O   UNL     1     -13.585   9.025  72.986  1.00  0.00    -0.915 OA 
HETATM   41  H   UNL     1     -14.479   8.723  73.099  1.00  0.00     0.000 HD 
ENDBRANCH  38  39
ENDBRANCH  37  38
ENDBRANCH  15  37
ENDBRANCH   9  10
ENDBRANCH   8   9
ENDBRANCH   2   3
TORSDOF 11
ENDMDL
MODEL       51
REMARK 921   NORMALIZED FREE ENERGY PREDICTED BY IDOCK:   -5.61 KCAL/MOL
REMARK 922        TOTAL FREE ENERGY PREDICTED BY IDOCK:  -11.68 KCAL/MOL
REMARK 923 INTER-LIGAND FREE ENERGY PREDICTED BY IDOCK:  -10.14 KCAL/MOL
REMARK 924 INTRA-LIGAND FREE ENERGY PREDICTED BY IDOCK:   -1.54 KCAL/MOL
REMARK 927      BINDING AFFINITY PREDICTED BY RF-SCORE:    0.00 PKD
ROOT
HETATM    1  C   UNL     1     -10.918  16.578  69.244  1.00  0.00    -0.302 C  
HETATM    2  O   UNL     1     -10.985  16.893  67.853  1.00  0.00    -0.342 OA 
ENDROOT
BRANCH   2   3
HETATM    3  C   UNL     1     -10.272  17.984  67.422  1.00  0.00    -0.363 A  
HETATM    4  C   UNL     1     -10.580  19.297  67.818  1.00  0.00    -0.516 A  
HETATM    5  C   UNL     1      -9.872  20.391  67.311  1.00  0.00    -0.597 A  
HETATM    6  C   UNL     1      -8.830  20.192  66.417  1.00  0.00    -0.332 A  
HETATM    7  C   UNL     1      -8.500  18.899  66.027  1.00  0.00    -0.078 A  
HETATM    8  C   UNL     1      -9.205  17.790  66.520  1.00  0.00    -0.265 A  
BRANCH   8   9
HETATM    9  O   UNL     1      -8.758  16.614  65.951  1.00  0.00    -0.483 OA 
BRANCH   9  10
HETATM   10  C   UNL     1      -8.487  15.514  66.698  1.00  0.00    -0.279 A  
HETATM   11  C   UNL     1      -9.114  14.289  66.638  1.00  0.00    -0.226 A  
HETATM   12  N   UNL     1      -8.742  13.212  67.342  1.00  0.00    -0.195 NA 
HETATM   13  N   UNL     1      -7.075  14.549  68.395  1.00  0.00    -0.103 NA 
HETATM   14  C   UNL     1      -7.690  13.371  68.173  1.00  0.00    -0.143 A  
HETATM   15  C   UNL     1      -7.503  15.598  67.670  1.00  0.00    -0.164 A  
BRANCH  11  16
HETATM   16  N   UNL     1     -10.232  13.965  65.832  1.00  0.00    -0.306 N  
HETATM   17  H   UNL     1     -10.231  14.196  64.839  1.00  0.00     0.000 HD 
BRANCH  16  18
HETATM   18  S   UNL     1     -11.556  13.201  66.516  1.00  0.00    -0.375 S  
HETATM   19  O   UNL     1     -11.795  13.768  67.831  1.00  0.00    -0.345 OA 
HETATM   20  O   UNL     1     -12.599  13.227  65.508  1.00  0.00    -0.474 OA 
BRANCH  18  21
HETATM   21  C   UNL     1     -11.088  11.505  66.758  1.00  0.00    -0.302 A  
HETATM   22  C   UNL     1     -10.367   8.816  67.219  1.00  0.00    -0.360 A  
HETATM   23  C   UNL     1     -11.393  10.898  67.975  1.00  0.00    -0.382 A  
HETATM   24  C   UNL     1     -11.032   9.571  68.199  1.00  0.00    -0.144 A  
HETATM   25  C   UNL     1     -10.131   9.434  65.972  1.00  0.00    -0.302 A  
HETATM   26  C   UNL     1     -10.492  10.769  65.737  1.00  0.00    -0.256 A  
BRANCH  22  27
HETATM   27  C   UNL     1      -9.872   7.384  67.502  1.00  0.00    -0.203 C  
HETATM   28  C   UNL     1     -10.832   6.292  66.972  1.00  0.00    -0.458 C  
HETATM   29  C   UNL     1      -9.751   7.176  69.027  1.00  0.00    -0.150 C  
HETATM   30  C   UNL     1      -8.498   7.141  66.848  1.00  0.00    -0.123 C  
ENDBRANCH  22  27
ENDBRANCH  18  21
ENDBRANCH  16  18
ENDBRANCH  11  16
BRANCH  14  31
HETATM   31  C   UNL     1      -7.123  12.154  68.809  1.00  0.00    -0.110 A  
HETATM   32  N   UNL     1      -7.683  10.960  68.499  1.00  0.00    -0.111 NA 
HETATM   33  N   UNL     1      -6.132  12.309  69.722  1.00  0.00    -0.133 NA 
HETATM   34  C   UNL     1      -5.695  11.194  70.329  1.00  0.00    -0.128 A  
HETATM   35  C   UNL     1      -7.211   9.883  69.149  1.00  0.00    -0.072 A  
HETATM   36  C   UNL     1      -6.205   9.941  70.082  1.00  0.00    -0.073 A  
ENDBRANCH  14  31
BRANCH  15  37
HETATM   37  O   UNL     1      -6.950  16.839  67.923  1.00  0.00    -0.138 OA 
BRANCH  37  38
HETATM   38  C   UNL     1      -6.789  17.186  69.305  1.00  0.00    -0.209 C  
BRANCH  38  39
HETATM   39  C   UNL     1      -6.062  18.520  69.438  1.00  0.00    -0.259 C  
HETATM   40  O   UNL     1      -6.966  19.606  69.260  1.00  0.00    -0.341 OA 
HETATM   41  H   UNL     1      -6.513  20.438  69.343  1.00  0.00     0.000 HD 
ENDBRANCH  38  39
ENDBRANCH  37  38
ENDBRANCH  15  37
ENDBRANCH   9  10
ENDBRANCH   8   9
ENDBRANCH   2   3
TORSDOF 11
ENDMDL
MODEL       52
REMARK 921   NORMALIZED FREE ENERGY PREDICTED BY IDOCK:   -5.58 KCAL/MOL
REMARK 922        TOTAL FREE ENERGY PREDICTED BY IDOCK:  -11.62 KCAL/MOL
REMARK 923 INTER-LIGAND FREE ENERGY PREDICTED BY IDOCK:   -9.17 KCAL/MOL
REMARK 924 INTRA-LIGAND FREE ENERGY PREDICTED BY IDOCK:   -2.46 KCAL/MOL
REMARK 927      BINDING AFFINITY PREDICTED BY RF-SCORE:    0.00 PKD
ROOT
HETATM    1  C   UNL     1     -10.491   8.070  66.870  1.00  0.00    -0.317 C  
HETATM    2  O   UNL     1     -10.618   9.396  67.383  1.00  0.00    -0.265 OA 
ENDROOT
BRANCH   2   3
HETATM    3  C   UNL     1     -10.847   9.529  68.730  1.00  0.00    -0.142 A  
HETATM    4  C   UNL     1     -10.441   8.564  69.668  1.00  0.00    -0.221 A  
HETATM    5  C   UNL     1     -10.745   8.700  71.026  1.00  0.00    -0.284 A  
HETATM    6  C   UNL     1     -11.441   9.814  71.475  1.00  0.00    -0.393 A  
HETATM    7  C   UNL     1     -11.835  10.787  70.564  1.00  0.00    -0.453 A  
HETATM    8  C   UNL     1     -11.546  10.662  69.196  1.00  0.00    -0.271 A  
BRANCH   8   9
HETATM    9  O   UNL     1     -12.087  11.702  68.469  1.00  0.00    -0.491 OA 
BRANCH   9  10
HETATM   10  C   UNL     1     -11.435  12.882  68.308  1.00  0.00    -0.311 A  
HETATM   11  C   UNL     1     -10.293  13.111  67.574  1.00  0.00    -0.225 A  
HETATM   12  N   UNL     1      -9.745  14.318  67.382  1.00  0.00    -0.231 NA 
HETATM   13  N   UNL     1     -11.417  15.238  68.807  1.00  0.00    -0.312 NA 
HETATM   14  C   UNL     1     -10.363  15.361  67.977  1.00  0.00    -0.249 A  
HETATM   15  C   UNL     1     -11.914  14.000  68.972  1.00  0.00    -0.357 A  
BRANCH  11  16
HETATM   16  N   UNL     1      -9.523  12.130  66.904  1.00  0.00    -0.204 N  
HETATM   17  H   UNL     1      -9.894  11.668  66.073  1.00  0.00     0.000 HD 
BRANCH  16  18
HETATM   18  S   UNL     1      -8.002  11.730  67.479  1.00  0.00    -0.158 S  
HETATM   19  O   UNL     1      -7.048  12.714  66.998  1.00  0.00    -0.076 OA 
HETATM   20  O   UNL     1      -8.159  11.499  68.902  1.00  0.00    -0.123 OA 
BRANCH  18  21
HETATM   21  C   UNL     1      -7.573  10.179  66.728  1.00  0.00    -0.105 A  
HETATM   22  C   UNL     1      -6.924   7.738  65.468  1.00  0.00    -0.053 A  
HETATM   23  C   UNL     1      -7.803  10.013  65.364  1.00  0.00    -0.136 A  
HETATM   24  C   UNL     1      -7.485   8.805  64.747  1.00  0.00    -0.100 A  
HETATM   25  C   UNL     1      -6.638   7.957  66.833  1.00  0.00    -0.059 A  
HETATM   26  C   UNL     1      -6.954   9.170  67.463  1.00  0.00    -0.078 A  
BRANCH  22  27
HETATM   27  C   UNL     1      -6.670   6.367  64.813  1.00  0.00    -0.039 C  
HETATM   28  C   UNL     1      -5.420   6.350  63.901  1.00  0.00    -0.018 C  
HETATM   29  C   UNL     1      -7.877   5.991  63.928  1.00  0.00    -0.116 C  
HETATM   30  C   UNL     1      -6.468   5.278  65.884  1.00  0.00    -0.040 C  
ENDBRANCH  22  27
ENDBRANCH  18  21
ENDBRANCH  16  18
ENDBRANCH  11  16
BRANCH  14  31
HETATM   31  C   UNL     1      -9.908  16.729  67.618  1.00  0.00    -0.261 A  
HETATM   32  N   UNL     1      -8.936  16.846  66.682  1.00  0.00    -0.237 NA 
HETATM   33  N   UNL     1     -10.429  17.778  68.302  1.00  0.00    -0.377 NA 
HETATM   34  C   UNL     1      -9.941  18.993  68.002  1.00  0.00    -0.368 A  
HETATM   35  C   UNL     1      -8.481  18.086  66.434  1.00  0.00    -0.235 A  
HETATM   36  C   UNL     1      -8.954  19.208  67.070  1.00  0.00    -0.327 A  
ENDBRANCH  14  31
BRANCH  15  37
HETATM   37  O   UNL     1     -12.946  13.822  69.876  1.00  0.00     0.054 OA 
BRANCH  37  38
HETATM   38  C   UNL     1     -12.734  14.360  71.187  1.00  0.00    -0.352 C  
BRANCH  38  39
HETATM   39  C   UNL     1     -13.992  14.210  72.035  1.00  0.00    -0.513 C  
HETATM   40  O   UNL     1     -14.022  12.936  72.671  1.00  0.00    -0.727 OA 
HETATM   41  H   UNL     1     -14.806  12.842  73.199  1.00  0.00     0.000 HD 
ENDBRANCH  38  39
ENDBRANCH  37  38
ENDBRANCH  15  37
ENDBRANCH   9  10
ENDBRANCH   8   9
ENDBRANCH   2   3
TORSDOF 11
ENDMDL
MODEL       53
REMARK 921   NORMALIZED FREE ENERGY PREDICTED BY IDOCK:   -5.57 KCAL/MOL
REMARK 922        TOTAL FREE ENERGY PREDICTED BY IDOCK:  -11.62 KCAL/MOL
REMARK 923 INTER-LIGAND FREE ENERGY PREDICTED BY IDOCK:   -9.94 KCAL/MOL
REMARK 924 INTRA-LIGAND FREE ENERGY PREDICTED BY IDOCK:   -1.68 KCAL/MOL
REMARK 927      BINDING AFFINITY PREDICTED BY RF-SCORE:    0.00 PKD
ROOT
HETATM    1  C   UNL     1     -10.004  16.200  65.760  1.00  0.00    -0.340 C  
HETATM    2  O   UNL     1     -10.509  14.963  66.264  1.00  0.00    -0.284 OA 
ENDROOT
BRANCH   2   3
HETATM    3  C   UNL     1     -10.976  14.055  65.346  1.00  0.00    -0.321 A  
HETATM    4  C   UNL     1     -11.890  14.400  64.335  1.00  0.00    -0.433 A  
HETATM    5  C   UNL     1     -12.393  13.437  63.455  1.00  0.00    -0.343 A  
HETATM    6  C   UNL     1     -11.975  12.118  63.554  1.00  0.00    -0.619 A  
HETATM    7  C   UNL     1     -11.059  11.762  64.536  1.00  0.00    -0.376 A  
HETATM    8  C   UNL     1     -10.550  12.714  65.434  1.00  0.00    -0.282 A  
BRANCH   8   9
HETATM    9  O   UNL     1      -9.712  12.133  66.364  1.00  0.00    -0.220 OA 
BRANCH   9  10
HETATM   10  C   UNL     1     -10.157  11.208  67.253  1.00  0.00    -0.188 A  
HETATM   11  C   UNL     1     -10.259   9.848  67.062  1.00  0.00    -0.233 A  
HETATM   12  N   UNL     1     -10.624   8.976  68.010  1.00  0.00    -0.216 NA 
HETATM   13  N   UNL     1     -10.969  10.814  69.485  1.00  0.00    -0.251 NA 
HETATM   14  C   UNL     1     -10.926   9.493  69.220  1.00  0.00    -0.145 A  
HETATM   15  C   UNL     1     -10.607  11.641  68.489  1.00  0.00    -0.215 A  
BRANCH  11  16
HETATM   16  N   UNL     1      -9.993   9.154  65.857  1.00  0.00    -0.416 N  
HETATM   17  H   UNL     1     -10.699   9.116  65.122  1.00  0.00     0.000 HD 
BRANCH  16  18
HETATM   18  S   UNL     1      -8.515   8.396  65.643  1.00  0.00    -0.171 S  
HETATM   19  O   UNL     1      -8.368   8.047  64.241  1.00  0.00    -0.110 OA 
HETATM   20  O   UNL     1      -7.532   9.241  66.293  1.00  0.00    -0.094 OA 
BRANCH  18  21
HETATM   21  C   UNL     1      -8.596   6.872  66.552  1.00  0.00    -0.129 A  
HETATM   22  C   UNL     1      -8.654   4.467  68.027  1.00  0.00    -0.111 A  
HETATM   23  C   UNL     1      -7.610   6.609  67.500  1.00  0.00    -0.105 A  
HETATM   24  C   UNL     1      -7.640   5.419  68.224  1.00  0.00    -0.081 A  
HETATM   25  C   UNL     1      -9.678   4.788  67.110  1.00  0.00    -0.207 A  
HETATM   26  C   UNL     1      -9.656   5.985  66.378  1.00  0.00    -0.168 A  
BRANCH  22  27
HETATM   27  C   UNL     1      -8.632   3.105  68.748  1.00  0.00    -0.117 C  
HETATM   28  C   UNL     1      -7.201   2.576  69.007  1.00  0.00    -0.044 C  
HETATM   29  C   UNL     1      -9.350   2.053  67.877  1.00  0.00    -0.214 C  
HETATM   30  C   UNL     1      -9.338   3.198  70.115  1.00  0.00    -0.238 C  
ENDBRANCH  22  27
ENDBRANCH  18  21
ENDBRANCH  16  18
ENDBRANCH  11  16
BRANCH  14  31
HETATM   31  C   UNL     1     -11.131   8.545  70.345  1.00  0.00    -0.231 A  
HETATM   32  N   UNL     1     -10.744   7.259  70.166  1.00  0.00    -0.239 NA 
HETATM   33  N   UNL     1     -11.766   8.995  71.455  1.00  0.00    -0.319 NA 
HETATM   34  C   UNL     1     -12.000   8.092  72.422  1.00  0.00    -0.350 A  
HETATM   35  C   UNL     1     -11.016   6.401  71.163  1.00  0.00    -0.275 A  
HETATM   36  C   UNL     1     -11.646   6.766  72.327  1.00  0.00    -0.311 A  
ENDBRANCH  14  31
BRANCH  15  37
HETATM   37  O   UNL     1     -10.712  13.004  68.698  1.00  0.00    -0.247 OA 
BRANCH  37  38
HETATM   38  C   UNL     1     -11.887  13.446  69.390  1.00  0.00    -0.335 C  
BRANCH  38  39
HETATM   39  C   UNL     1     -11.805  14.941  69.680  1.00  0.00    -0.318 C  
HETATM   40  O   UNL     1     -13.023  15.411  70.248  1.00  0.00    -0.644 OA 
HETATM   41  H   UNL     1     -12.972  16.343  70.429  1.00  0.00     0.000 HD 
ENDBRANCH  38  39
ENDBRANCH  37  38
ENDBRANCH  15  37
ENDBRANCH   9  10
ENDBRANCH   8   9
ENDBRANCH   2   3
TORSDOF 11
ENDMDL
MODEL       54
REMARK 921   NORMALIZED FREE ENERGY PREDICTED BY IDOCK:   -5.51 KCAL/MOL
REMARK 922        TOTAL FREE ENERGY PREDICTED BY IDOCK:  -11.52 KCAL/MOL
REMARK 923 INTER-LIGAND FREE ENERGY PREDICTED BY IDOCK:   -8.83 KCAL/MOL
REMARK 924 INTRA-LIGAND FREE ENERGY PREDICTED BY IDOCK:   -2.70 KCAL/MOL
REMARK 927      BINDING AFFINITY PREDICTED BY RF-SCORE:    0.00 PKD
ROOT
HETATM    1  C   UNL     1     -12.147  11.597  69.120  1.00  0.00    -0.251 C  
HETATM    2  O   UNL     1     -11.929  11.531  67.710  1.00  0.00    -0.623 OA 
ENDROOT
BRANCH   2   3
HETATM    3  C   UNL     1     -11.505  12.678  67.086  1.00  0.00    -0.346 A  
HETATM    4  C   UNL     1     -12.196  13.897  67.188  1.00  0.00    -0.353 A  
HETATM    5  C   UNL     1     -11.771  15.031  66.489  1.00  0.00    -0.126 A  
HETATM    6  C   UNL     1     -10.635  14.973  65.693  1.00  0.00    -0.360 A  
HETATM    7  C   UNL     1      -9.929  13.780  65.594  1.00  0.00    -0.275 A  
HETATM    8  C   UNL     1     -10.346  12.630  66.283  1.00  0.00    -0.252 A  
BRANCH   8   9
HETATM    9  O   UNL     1      -9.543  11.547  65.989  1.00  0.00    -0.215 OA 
BRANCH   9  10
HETATM   10  C   UNL     1      -9.092  10.705  66.953  1.00  0.00    -0.155 A  
HETATM   11  C   UNL     1      -8.693  11.034  68.229  1.00  0.00    -0.144 A  
HETATM   12  N   UNL     1      -8.341  10.144  69.166  1.00  0.00    -0.142 NA 
HETATM   13  N   UNL     1      -8.631   8.418  67.551  1.00  0.00    -0.128 NA 
HETATM   14  C   UNL     1      -8.367   8.845  68.802  1.00  0.00    -0.123 A  
HETATM   15  C   UNL     1      -8.964   9.359  66.651  1.00  0.00    -0.146 A  
BRANCH  11  16
HETATM   16  N   UNL     1      -8.598  12.343  68.760  1.00  0.00    -0.365 N  
HETATM   17  H   UNL     1      -9.365  12.729  69.311  1.00  0.00     0.000 HD 
BRANCH  16  18
HETATM   18  S   UNL     1      -7.223  13.256  68.480  1.00  0.00    -0.114 S  
HETATM   19  O   UNL     1      -6.412  13.261  69.686  1.00  0.00    -0.112 OA 
HETATM   20  O   UNL     1      -6.669  12.775  67.230  1.00  0.00    -0.158 OA 
BRANCH  18  21
HETATM   21  C   UNL     1      -7.771  14.924  68.217  1.00  0.00    -0.113 A  
HETATM   22  C   UNL     1      -8.703  17.563  67.848  1.00  0.00    -0.247 A  
HETATM   23  C   UNL     1      -8.808  15.417  69.006  1.00  0.00    -0.231 A  
HETATM   24  C   UNL     1      -9.268  16.719  68.818  1.00  0.00    -0.260 A  
HETATM   25  C   UNL     1      -7.609  17.062  67.109  1.00  0.00    -0.205 A  
HETATM   26  C   UNL     1      -7.139  15.753  67.292  1.00  0.00    -0.245 A  
BRANCH  22  27
HETATM   27  C   UNL     1      -9.277  18.964  67.565  1.00  0.00    -0.319 C  
HETATM   28  C   UNL     1     -10.453  18.949  66.558  1.00  0.00    -0.500 C  
HETATM   29  C   UNL     1      -8.175  19.857  66.957  1.00  0.00    -0.356 C  
HETATM   30  C   UNL     1      -9.797  19.614  68.863  1.00  0.00    -0.498 C  
ENDBRANCH  22  27
ENDBRANCH  18  21
ENDBRANCH  16  18
ENDBRANCH  11  16
BRANCH  14  31
HETATM   31  C   UNL     1      -8.185   7.825  69.867  1.00  0.00    -0.125 A  
HETATM   32  N   UNL     1      -8.338   6.523  69.527  1.00  0.00    -0.129 NA 
HETATM   33  N   UNL     1      -7.956   8.253  71.133  1.00  0.00    -0.093 NA 
HETATM   34  C   UNL     1      -7.870   7.306  72.081  1.00  0.00    -0.090 A  
HETATM   35  C   UNL     1      -8.253   5.623  70.521  1.00  0.00    -0.116 A  
HETATM   36  C   UNL     1      -8.015   5.961  71.831  1.00  0.00    -0.107 A  
ENDBRANCH  14  31
BRANCH  15  37
HETATM   37  O   UNL     1      -9.167   8.969  65.340  1.00  0.00    -0.220 OA 
BRANCH  37  38
HETATM   38  C   UNL     1      -7.989   8.838  64.533  1.00  0.00    -0.141 C  
BRANCH  38  39
HETATM   39  C   UNL     1      -7.556   7.377  64.456  1.00  0.00    -0.110 C  
HETATM   40  O   UNL     1      -8.608   6.517  64.880  1.00  0.00    -0.332 OA 
HETATM   41  H   UNL     1      -8.338   5.607  64.832  1.00  0.00     0.000 HD 
ENDBRANCH  38  39
ENDBRANCH  37  38
ENDBRANCH  15  37
ENDBRANCH   9  10
ENDBRANCH   8   9
ENDBRANCH   2   3
TORSDOF 11
ENDMDL
MODEL       55
REMARK 921   NORMALIZED FREE ENERGY PREDICTED BY IDOCK:   -5.51 KCAL/MOL
REMARK 922        TOTAL FREE ENERGY PREDICTED BY IDOCK:  -11.52 KCAL/MOL
REMARK 923 INTER-LIGAND FREE ENERGY PREDICTED BY IDOCK:   -9.69 KCAL/MOL
REMARK 924 INTRA-LIGAND FREE ENERGY PREDICTED BY IDOCK:   -1.83 KCAL/MOL
REMARK 927      BINDING AFFINITY PREDICTED BY RF-SCORE:    0.00 PKD
ROOT
HETATM    1  C   UNL     1     -11.637  15.884  70.428  1.00  0.00    -0.371 C  
HETATM    2  O   UNL     1     -11.221  15.448  69.133  1.00  0.00    -0.251 OA 
ENDROOT
BRANCH   2   3
HETATM    3  C   UNL     1     -10.031  14.769  69.053  1.00  0.00    -0.218 A  
HETATM    4  C   UNL     1      -8.799  15.353  69.398  1.00  0.00    -0.251 A  
HETATM    5  C   UNL     1      -7.598  14.653  69.245  1.00  0.00    -0.113 A  
HETATM    6  C   UNL     1      -7.607  13.351  68.766  1.00  0.00    -0.047 A  
HETATM    7  C   UNL     1      -8.817  12.752  68.435  1.00  0.00    -0.117 A  
HETATM    8  C   UNL     1     -10.032  13.442  68.574  1.00  0.00    -0.193 A  
BRANCH   8   9
HETATM    9  O   UNL     1     -11.096  12.687  68.126  1.00  0.00    -0.223 OA 
BRANCH   9  10
HETATM   10  C   UNL     1     -10.940  11.405  67.706  1.00  0.00    -0.247 A  
HETATM   11  C   UNL     1     -10.449  10.978  66.492  1.00  0.00    -0.257 A  
HETATM   12  N   UNL     1     -10.237   9.696  66.170  1.00  0.00    -0.245 NA 
HETATM   13  N   UNL     1     -11.142   9.076  68.283  1.00  0.00     0.103 NA 
HETATM   14  C   UNL     1     -10.552   8.779  67.109  1.00  0.00    -0.233 A  
HETATM   15  C   UNL     1     -11.343  10.379  68.545  1.00  0.00    -0.220 A  
BRANCH  11  16
HETATM   16  N   UNL     1     -10.086  11.807  65.403  1.00  0.00    -0.246 N  
HETATM   17  H   UNL     1      -9.121  11.823  65.072  1.00  0.00     0.000 HD 
BRANCH  16  18
HETATM   18  S   UNL     1     -11.245  12.762  64.661  1.00  0.00    -0.339 S  
HETATM   19  O   UNL     1     -11.071  12.673  63.222  1.00  0.00    -0.411 OA 
HETATM   20  O   UNL     1     -12.511  12.399  65.267  1.00  0.00    -0.611 OA 
BRANCH  18  21
HETATM   21  C   UNL     1     -10.888  14.438  65.127  1.00  0.00    -0.386 A  
HETATM   22  C   UNL     1     -10.252  17.078  65.896  1.00  0.00    -0.311 A  
HETATM   23  C   UNL     1      -9.623  14.734  65.630  1.00  0.00    -0.235 A  
HETATM   24  C   UNL     1      -9.315  16.038  66.013  1.00  0.00    -0.380 A  
HETATM   25  C   UNL     1     -11.502  16.764  65.319  1.00  0.00     0.574 A  
HETATM   26  C   UNL     1     -11.821  15.454  64.931  1.00  0.00    -0.095 A  
BRANCH  22  27
HETATM   27  C   UNL     1      -9.951  18.497  66.415  1.00  0.00    -0.399 C  
HETATM   28  C   UNL     1     -10.385  18.713  67.885  1.00  0.00    -0.442 C  
HETATM   29  C   UNL     1     -10.721  19.529  65.563  1.00  0.00    -0.300 C  
HETATM   30  C   UNL     1      -8.442  18.800  66.335  1.00  0.00    -0.296 C  
ENDBRANCH  22  27
ENDBRANCH  18  21
ENDBRANCH  16  18
ENDBRANCH  11  16
BRANCH  14  31
HETATM   31  C   UNL     1     -10.138   7.373  66.867  1.00  0.00    -0.257 A  
HETATM   32  N   UNL     1     -10.844   6.393  67.482  1.00  0.00    -0.316 NA 
HETATM   33  N   UNL     1      -9.033   7.149  66.115  1.00  0.00    -0.158 NA 
HETATM   34  C   UNL     1      -8.647   5.869  65.979  1.00  0.00    -0.142 A  
HETATM   35  C   UNL     1     -10.402   5.135  67.318  1.00  0.00    -0.168 A  
HETATM   36  C   UNL     1      -9.299   4.811  66.568  1.00  0.00    -0.145 A  
ENDBRANCH  14  31
BRANCH  15  37
HETATM   37  O   UNL     1     -12.015  10.719  69.704  1.00  0.00    -0.300 OA 
BRANCH  37  38
HETATM   38  C   UNL     1     -11.596  10.042  70.896  1.00  0.00    -0.378 C  
BRANCH  38  39
HETATM   39  C   UNL     1     -12.791   9.778  71.807  1.00  0.00    -0.434 C  
HETATM   40  O   UNL     1     -13.362  11.003  72.256  1.00  0.00    -0.633 OA 
HETATM   41  H   UNL     1     -14.106  10.839  72.824  1.00  0.00     0.000 HD 
ENDBRANCH  38  39
ENDBRANCH  37  38
ENDBRANCH  15  37
ENDBRANCH   9  10
ENDBRANCH   8   9
ENDBRANCH   2   3
TORSDOF 11
ENDMDL
MODEL       56
REMARK 921   NORMALIZED FREE ENERGY PREDICTED BY IDOCK:   -5.47 KCAL/MOL
REMARK 922        TOTAL FREE ENERGY PREDICTED BY IDOCK:  -11.45 KCAL/MOL
REMARK 923 INTER-LIGAND FREE ENERGY PREDICTED BY IDOCK:   -9.34 KCAL/MOL
REMARK 924 INTRA-LIGAND FREE ENERGY PREDICTED BY IDOCK:   -2.11 KCAL/MOL
REMARK 927      BINDING AFFINITY PREDICTED BY RF-SCORE:    0.00 PKD
ROOT
HETATM    1  C   UNL     1     -11.719  12.078  69.173  1.00  0.00    -0.330 C  
HETATM    2  O   UNL     1     -11.240  10.745  69.352  1.00  0.00    -0.233 OA 
ENDROOT
BRANCH   2   3
HETATM    3  C   UNL     1     -11.824   9.996  70.344  1.00  0.00    -0.262 A  
HETATM    4  C   UNL     1     -12.932  10.446  71.082  1.00  0.00    -0.506 A  
HETATM    5  C   UNL     1     -13.464   9.684  72.128  1.00  0.00    -0.516 A  
HETATM    6  C   UNL     1     -12.913   8.449  72.438  1.00  0.00    -0.297 A  
HETATM    7  C   UNL     1     -11.827   7.980  71.707  1.00  0.00    -0.339 A  
HETATM    8  C   UNL     1     -11.276   8.736  70.660  1.00  0.00    -0.257 A  
BRANCH   8   9
HETATM    9  O   UNL     1     -10.169   8.115  70.119  1.00  0.00    -0.193 OA 
BRANCH   9  10
HETATM   10  C   UNL     1     -10.266   7.266  69.064  1.00  0.00    -0.197 A  
HETATM   11  C   UNL     1     -10.384   7.598  67.733  1.00  0.00    -0.219 A  
HETATM   12  N   UNL     1     -10.387   6.712  66.728  1.00  0.00    -0.221 NA 
HETATM   13  N   UNL     1     -10.282   4.967  68.345  1.00  0.00    -0.080 NA 
HETATM   14  C   UNL     1     -10.288   5.411  67.073  1.00  0.00    -0.248 A  
HETATM   15  C   UNL     1     -10.295   5.903  69.310  1.00  0.00    -0.246 A  
BRANCH  11  16
HETATM   16  N   UNL     1     -10.510   8.908  67.210  1.00  0.00    -0.282 N  
HETATM   17  H   UNL     1     -11.361   9.445  67.374  1.00  0.00     0.000 HD 
BRANCH  16  18
HETATM   18  S   UNL     1      -9.256   9.572  66.320  1.00  0.00    -0.187 S  
HETATM   19  O   UNL     1      -8.005   9.312  67.010  1.00  0.00    -0.101 OA 
HETATM   20  O   UNL     1      -9.446   9.117  64.956  1.00  0.00    -0.158 OA 
BRANCH  18  21
HETATM   21  C   UNL     1      -9.504  11.330  66.338  1.00  0.00    -0.200 A  
HETATM   22  C   UNL     1      -9.958  14.116  66.315  1.00  0.00    -0.315 A  
HETATM   23  C   UNL     1     -10.619  11.852  65.685  1.00  0.00    -0.311 A  
HETATM   24  C   UNL     1     -10.837  13.228  65.672  1.00  0.00    -0.291 A  
HETATM   25  C   UNL     1      -8.875  13.556  67.027  1.00  0.00    -0.219 A  
HETATM   26  C   UNL     1      -8.648  12.172  67.045  1.00  0.00    -0.191 A  
BRANCH  22  27
HETATM   27  C   UNL     1     -10.138  15.643  66.214  1.00  0.00    -0.316 C  
HETATM   28  C   UNL     1     -10.861  16.253  67.439  1.00  0.00    -0.242 C  
HETATM   29  C   UNL     1     -10.994  15.977  64.974  1.00  0.00    -0.393 C  
HETATM   30  C   UNL     1      -8.773  16.348  66.092  1.00  0.00    -0.347 C  
ENDBRANCH  22  27
ENDBRANCH  18  21
ENDBRANCH  16  18
ENDBRANCH  11  16
BRANCH  14  31
HETATM   31  C   UNL     1     -10.081   4.422  65.984  1.00  0.00    -0.239 A  
HETATM   32  N   UNL     1     -10.931   4.456  64.930  1.00  0.00    -0.145 NA 
HETATM   33  N   UNL     1      -9.108   3.490  66.141  1.00  0.00    -0.149 NA 
HETATM   34  C   UNL     1      -8.999   2.567  65.170  1.00  0.00    -0.133 A  
HETATM   35  C   UNL     1     -10.779   3.500  63.998  1.00  0.00    -0.212 A  
HETATM   36  C   UNL     1      -9.817   2.521  64.067  1.00  0.00    -0.137 A  
ENDBRANCH  14  31
BRANCH  15  37
HETATM   37  O   UNL     1     -10.368   5.486  70.627  1.00  0.00    -0.228 OA 
BRANCH  37  38
HETATM   38  C   UNL     1      -9.282   4.673  71.091  1.00  0.00    -0.139 C  
BRANCH  38  39
HETATM   39  C   UNL     1      -9.806   3.502  71.915  1.00  0.00    -0.167 C  
HETATM   40  O   UNL     1      -9.291   3.550  73.242  1.00  0.00    -0.100 OA 
HETATM   41  H   UNL     1      -9.617   2.821  73.756  1.00  0.00     0.000 HD 
ENDBRANCH  38  39
ENDBRANCH  37  38
ENDBRANCH  15  37
ENDBRANCH   9  10
ENDBRANCH   8   9
ENDBRANCH   2   3
TORSDOF 11
ENDMDL
MODEL       57
REMARK 921   NORMALIZED FREE ENERGY PREDICTED BY IDOCK:   -5.47 KCAL/MOL
REMARK 922        TOTAL FREE ENERGY PREDICTED BY IDOCK:  -11.45 KCAL/MOL
REMARK 923 INTER-LIGAND FREE ENERGY PREDICTED BY IDOCK:   -8.54 KCAL/MOL
REMARK 924 INTRA-LIGAND FREE ENERGY PREDICTED BY IDOCK:   -2.91 KCAL/MOL
REMARK 927      BINDING AFFINITY PREDICTED BY RF-SCORE:    0.00 PKD
ROOT
HETATM    1  C   UNL     1      -6.604   8.935  70.436  1.00  0.00    -0.045 C  
HETATM    2  O   UNL     1      -7.263   9.597  69.356  1.00  0.00    -0.063 OA 
ENDROOT
BRANCH   2   3
HETATM    3  C   UNL     1      -8.538  10.052  69.583  1.00  0.00    -0.184 A  
HETATM    4  C   UNL     1      -9.392   9.473  70.537  1.00  0.00    -0.296 A  
HETATM    5  C   UNL     1     -10.707   9.921  70.700  1.00  0.00    -0.372 A  
HETATM    6  C   UNL     1     -11.185  10.970  69.928  1.00  0.00    -0.327 A  
HETATM    7  C   UNL     1     -10.349  11.567  68.991  1.00  0.00    -0.143 A  
HETATM    8  C   UNL     1      -9.029  11.124  68.809  1.00  0.00    -0.131 A  
BRANCH   8   9
HETATM    9  O   UNL     1      -8.404  11.808  67.786  1.00  0.00    -0.132 OA 
BRANCH   9  10
HETATM   10  C   UNL     1      -8.689  13.107  67.512  1.00  0.00    -0.201 A  
HETATM   11  C   UNL     1      -9.257  13.613  66.364  1.00  0.00    -0.122 A  
HETATM   12  N   UNL     1      -9.595  14.897  66.189  1.00  0.00    -0.297 NA 
HETATM   13  N   UNL     1      -8.677  15.371  68.335  1.00  0.00    -0.166 NA 
HETATM   14  C   UNL     1      -9.331  15.734  67.214  1.00  0.00    -0.211 A  
HETATM   15  C   UNL     1      -8.350  14.071  68.448  1.00  0.00    -0.162 A  
BRANCH  11  16
HETATM   16  N   UNL     1      -9.582  12.875  65.201  1.00  0.00    -0.482 N  
HETATM   17  H   UNL     1      -9.012  12.967  64.360  1.00  0.00     0.000 HD 
BRANCH  16  18
HETATM   18  S   UNL     1     -10.906  11.849  65.210  1.00  0.00    -0.302 S  
HETATM   19  O   UNL     1     -11.819  12.274  66.256  1.00  0.00    -0.517 OA 
HETATM   20  O   UNL     1     -11.359  11.767  63.834  1.00  0.00    -0.378 OA 
BRANCH  18  21
HETATM   21  C   UNL     1     -10.297  10.246  65.669  1.00  0.00    -0.162 A  
HETATM   22  C   UNL     1      -9.386   7.693  66.455  1.00  0.00    -0.241 A  
HETATM   23  C   UNL     1     -11.025   9.497  66.592  1.00  0.00     0.192 A  
HETATM   24  C   UNL     1     -10.569   8.239  66.980  1.00  0.00    -0.328 A  
HETATM   25  C   UNL     1      -8.705   8.443  65.472  1.00  0.00    -0.196 A  
HETATM   26  C   UNL     1      -9.156   9.711  65.075  1.00  0.00    -0.284 A  
BRANCH  22  27
HETATM   27  C   UNL     1      -8.824   6.350  66.960  1.00  0.00    -0.115 C  
HETATM   28  C   UNL     1      -8.897   5.223  65.903  1.00  0.00    -0.145 C  
HETATM   29  C   UNL     1      -9.645   5.877  68.179  1.00  0.00    -0.130 C  
HETATM   30  C   UNL     1      -7.346   6.495  67.371  1.00  0.00    -0.091 C  
ENDBRANCH  22  27
ENDBRANCH  18  21
ENDBRANCH  16  18
ENDBRANCH  11  16
BRANCH  14  31
HETATM   31  C   UNL     1      -9.877  17.114  67.138  1.00  0.00    -0.271 A  
HETATM   32  N   UNL     1     -10.189  17.602  65.914  1.00  0.00    -0.569 NA 
HETATM   33  N   UNL     1      -9.956  17.837  68.282  1.00  0.00    -0.334 NA 
HETATM   34  C   UNL     1     -10.385  19.104  68.164  1.00  0.00    -0.376 A  
HETATM   35  C   UNL     1     -10.601  18.880  65.859  1.00  0.00    -0.373 A  
HETATM   36  C   UNL     1     -10.721  19.686  66.964  1.00  0.00    -0.575 A  
ENDBRANCH  14  31
BRANCH  15  37
HETATM   37  O   UNL     1      -7.611  13.674  69.547  1.00  0.00     0.243 OA 
BRANCH  37  38
HETATM   38  C   UNL     1      -6.211  13.977  69.507  1.00  0.00    -0.117 C  
BRANCH  38  39
HETATM   39  C   UNL     1      -5.386  12.727  69.796  1.00  0.00    -0.084 C  
HETATM   40  O   UNL     1      -5.472  11.806  68.714  1.00  0.00    -0.049 OA 
HETATM   41  H   UNL     1      -4.958  11.027  68.894  1.00  0.00     0.000 HD 
ENDBRANCH  38  39
ENDBRANCH  37  38
ENDBRANCH  15  37
ENDBRANCH   9  10
ENDBRANCH   8   9
ENDBRANCH   2   3
TORSDOF 11
ENDMDL
MODEL       58
REMARK 921   NORMALIZED FREE ENERGY PREDICTED BY IDOCK:   -5.43 KCAL/MOL
REMARK 922        TOTAL FREE ENERGY PREDICTED BY IDOCK:  -11.38 KCAL/MOL
REMARK 923 INTER-LIGAND FREE ENERGY PREDICTED BY IDOCK:   -8.09 KCAL/MOL
REMARK 924 INTRA-LIGAND FREE ENERGY PREDICTED BY IDOCK:   -3.28 KCAL/MOL
REMARK 927      BINDING AFFINITY PREDICTED BY RF-SCORE:    0.00 PKD
ROOT
HETATM    1  C   UNL     1      -8.204   8.102  74.010  1.00  0.00    -0.253 C  
HETATM    2  O   UNL     1      -7.992   8.646  72.707  1.00  0.00    -0.370 OA 
ENDROOT
BRANCH   2   3
HETATM    3  C   UNL     1      -7.655   7.767  71.707  1.00  0.00    -0.085 A  
HETATM    4  C   UNL     1      -7.585   6.378  71.910  1.00  0.00    -0.095 A  
HETATM    5  C   UNL     1      -7.179   5.516  70.886  1.00  0.00    -0.078 A  
HETATM    6  C   UNL     1      -6.857   6.025  69.635  1.00  0.00    -0.065 A  
HETATM    7  C   UNL     1      -6.938   7.394  69.412  1.00  0.00    -0.061 A  
HETATM    8  C   UNL     1      -7.336   8.274  70.431  1.00  0.00    -0.055 A  
BRANCH   8   9
HETATM    9  O   UNL     1      -7.280   9.588  70.013  1.00  0.00    -0.072 OA 
BRANCH   9  10
HETATM   10  C   UNL     1      -8.290  10.162  69.310  1.00  0.00    -0.158 A  
HETATM   11  C   UNL     1      -9.588  10.360  69.726  1.00  0.00    -0.026 A  
HETATM   12  N   UNL     1     -10.518  11.013  69.018  1.00  0.00    -0.212 NA 
HETATM   13  N   UNL     1      -8.930  11.247  67.258  1.00  0.00    -0.148 NA 
HETATM   14  C   UNL     1     -10.137  11.481  67.810  1.00  0.00    -0.182 A  
HETATM   15  C   UNL     1      -8.044  10.573  68.011  1.00  0.00    -0.111 A  
BRANCH  11  16
HETATM   16  N   UNL     1     -10.146   9.923  70.951  1.00  0.00    -0.311 N  
HETATM   17  H   UNL     1      -9.830  10.329  71.831  1.00  0.00     0.000 HD 
BRANCH  16  18
HETATM   18  S   UNL     1     -11.327   8.735  70.950  1.00  0.00    -0.281 S  
HETATM   19  O   UNL     1     -11.302   8.052  72.232  1.00  0.00    -0.299 OA 
HETATM   20  O   UNL     1     -12.542   9.378  70.488  1.00  0.00    -0.026 OA 
BRANCH  18  21
HETATM   21  C   UNL     1     -10.846   7.549  69.720  1.00  0.00    -0.225 A  
HETATM   22  C   UNL     1     -10.079   5.608  67.819  1.00  0.00    -0.209 A  
HETATM   23  C   UNL     1     -10.747   6.209  70.089  1.00  0.00    -0.366 A  
HETATM   24  C   UNL     1     -10.364   5.255  69.149  1.00  0.00    -0.264 A  
HETATM   25  C   UNL     1     -10.253   6.961  67.455  1.00  0.00    -0.249 A  
HETATM   26  C   UNL     1     -10.639   7.929  68.395  1.00  0.00    -0.154 A  
BRANCH  22  27
HETATM   27  C   UNL     1      -9.554   4.574  66.805  1.00  0.00    -0.206 C  
HETATM   28  C   UNL     1     -10.486   4.391  65.584  1.00  0.00    -0.224 C  
HETATM   29  C   UNL     1      -9.436   3.197  67.492  1.00  0.00    -0.189 C  
HETATM   30  C   UNL     1      -8.171   4.991  66.265  1.00  0.00    -0.108 C  
ENDBRANCH  22  27
ENDBRANCH  18  21
ENDBRANCH  16  18
ENDBRANCH  11  16
BRANCH  14  31
HETATM   31  C   UNL     1     -11.074  12.383  67.092  1.00  0.00    -0.280 A  
HETATM   32  N   UNL     1     -11.650  11.921  65.957  1.00  0.00    -0.433 NA 
HETATM   33  N   UNL     1     -11.238  13.644  67.563  1.00  0.00    -0.284 NA 
HETATM   34  C   UNL     1     -12.035  14.455  66.846  1.00  0.00    -0.399 A  
HETATM   35  C   UNL     1     -12.427  12.782  65.278  1.00  0.00    -0.465 A  
HETATM   36  C   UNL     1     -12.659  14.074  65.682  1.00  0.00    -0.542 A  
ENDBRANCH  14  31
BRANCH  15  37
HETATM   37  O   UNL     1      -6.822  10.247  67.450  1.00  0.00    -0.075 OA 
BRANCH  37  38
HETATM   38  C   UNL     1      -6.852   9.270  66.402  1.00  0.00    -0.083 C  
BRANCH  38  39
HETATM   39  C   UNL     1      -6.375   9.882  65.089  1.00  0.00    -0.102 C  
HETATM   40  O   UNL     1      -7.378  10.727  64.534  1.00  0.00    -0.350 OA 
HETATM   41  H   UNL     1      -7.081  11.108  63.716  1.00  0.00     0.000 HD 
ENDBRANCH  38  39
ENDBRANCH  37  38
ENDBRANCH  15  37
ENDBRANCH   9  10
ENDBRANCH   8   9
ENDBRANCH   2   3
TORSDOF 11
ENDMDL
MODEL       59
REMARK 921   NORMALIZED FREE ENERGY PREDICTED BY IDOCK:   -5.40 KCAL/MOL
REMARK 922        TOTAL FREE ENERGY PREDICTED BY IDOCK:  -11.34 KCAL/MOL
REMARK 923 INTER-LIGAND FREE ENERGY PREDICTED BY IDOCK:  -10.27 KCAL/MOL
REMARK 924 INTRA-LIGAND FREE ENERGY PREDICTED BY IDOCK:   -1.07 KCAL/MOL
REMARK 927      BINDING AFFINITY PREDICTED BY RF-SCORE:    0.00 PKD
ROOT
HETATM    1  C   UNL     1      -9.289   6.102  71.591  1.00  0.00    -0.148 C  
HETATM    2  O   UNL     1      -9.961   6.683  70.473  1.00  0.00    -0.179 OA 
ENDROOT
BRANCH   2   3
HETATM    3  C   UNL     1      -9.187   7.075  69.409  1.00  0.00    -0.147 A  
HETATM    4  C   UNL     1      -7.848   6.675  69.257  1.00  0.00    -0.110 A  
HETATM    5  C   UNL     1      -7.069   7.143  68.194  1.00  0.00    -0.085 A  
HETATM    6  C   UNL     1      -7.620   8.000  67.252  1.00  0.00    -0.097 A  
HETATM    7  C   UNL     1      -8.947   8.392  67.377  1.00  0.00    -0.143 A  
HETATM    8  C   UNL     1      -9.742   7.939  68.442  1.00  0.00    -0.160 A  
BRANCH   8   9
HETATM    9  O   UNL     1     -11.000   8.504  68.409  1.00  0.00     0.008 OA 
BRANCH   9  10
HETATM   10  C   UNL     1     -11.269   9.693  69.007  1.00  0.00     0.011 A  
HETATM   11  C   UNL     1     -11.072  10.952  68.486  1.00  0.00    -0.256 A  
HETATM   12  N   UNL     1     -11.440  12.089  69.092  1.00  0.00    -0.277 NA 
HETATM   13  N   UNL     1     -12.162  10.792  70.955  1.00  0.00    -0.357 NA 
HETATM   14  C   UNL     1     -12.023  11.964  70.302  1.00  0.00    -0.330 A  
HETATM   15  C   UNL     1     -11.760   9.688  70.302  1.00  0.00    -0.155 A  
BRANCH  11  16
HETATM   16  N   UNL     1     -10.466  11.254  67.242  1.00  0.00    -0.204 N  
HETATM   17  H   UNL     1     -10.978  11.101  66.373  1.00  0.00     0.000 HD 
BRANCH  16  18
HETATM   18  S   UNL     1      -8.906  11.862  67.202  1.00  0.00    -0.187 S  
HETATM   19  O   UNL     1      -8.264  11.584  68.475  1.00  0.00    -0.145 OA 
HETATM   20  O   UNL     1      -8.319  11.379  65.967  1.00  0.00    -0.129 OA 
BRANCH  18  21
HETATM   21  C   UNL     1      -9.057  13.626  67.070  1.00  0.00    -0.248 A  
HETATM   22  C   UNL     1      -9.228  16.438  66.895  1.00  0.00    -0.237 A  
HETATM   23  C   UNL     1      -7.973  14.417  67.444  1.00  0.00    -0.220 A  
HETATM   24  C   UNL     1      -8.063  15.805  67.360  1.00  0.00    -0.193 A  
HETATM   25  C   UNL     1     -10.286  15.611  66.458  1.00  0.00    -0.291 A  
HETATM   26  C   UNL     1     -10.204  14.213  66.539  1.00  0.00    -0.278 A  
BRANCH  22  27
HETATM   27  C   UNL     1      -9.369  17.972  66.901  1.00  0.00    -0.276 C  
HETATM   28  C   UNL     1     -10.534  18.480  66.018  1.00  0.00    -0.433 C  
HETATM   29  C   UNL     1      -8.075  18.607  66.349  1.00  0.00    -0.300 C  
HETATM   30  C   UNL     1      -9.619  18.493  68.330  1.00  0.00    -0.383 C  
ENDBRANCH  22  27
ENDBRANCH  18  21
ENDBRANCH  16  18
ENDBRANCH  11  16
BRANCH  14  31
HETATM   31  C   UNL     1     -12.628  13.178  70.907  1.00  0.00    -0.295 A  
HETATM   32  N   UNL     1     -13.457  13.011  71.965  1.00  0.00    -0.506 NA 
HETATM   33  N   UNL     1     -12.385  14.376  70.320  1.00  0.00    -0.332 NA 
HETATM   34  C   UNL     1     -13.008  15.442  70.850  1.00  0.00    -0.478 A  
HETATM   35  C   UNL     1     -14.059  14.113  72.443  1.00  0.00    -0.472 A  
HETATM   36  C   UNL     1     -13.868  15.368  71.920  1.00  0.00    -0.619 A  
ENDBRANCH  14  31
BRANCH  15  37
HETATM   37  O   UNL     1     -11.815   8.477  70.967  1.00  0.00    -0.284 OA 
BRANCH  37  38
HETATM   38  C   UNL     1     -12.340   8.514  72.301  1.00  0.00    -0.387 C  
BRANCH  38  39
HETATM   39  C   UNL     1     -13.857   8.358  72.282  1.00  0.00    -0.290 C  
HETATM   40  O   UNL     1     -14.334   8.245  70.945  1.00  0.00    -0.653 OA 
HETATM   41  H   UNL     1     -15.279   8.147  70.933  1.00  0.00     0.000 HD 
ENDBRANCH  38  39
ENDBRANCH  37  38
ENDBRANCH  15  37
ENDBRANCH   9  10
ENDBRANCH   8   9
ENDBRANCH   2   3
TORSDOF 11
ENDMDL
MODEL       60
REMARK 921   NORMALIZED FREE ENERGY PREDICTED BY IDOCK:   -5.40 KCAL/MOL
REMARK 922        TOTAL FREE ENERGY PREDICTED BY IDOCK:  -11.33 KCAL/MOL
REMARK 923 INTER-LIGAND FREE ENERGY PREDICTED BY IDOCK:   -9.31 KCAL/MOL
REMARK 924 INTRA-LIGAND FREE ENERGY PREDICTED BY IDOCK:   -2.02 KCAL/MOL
REMARK 927      BINDING AFFINITY PREDICTED BY RF-SCORE:    0.00 PKD
ROOT
HETATM    1  C   UNL     1     -13.472   9.418  72.205  1.00  0.00    -0.471 C  
HETATM    2  O   UNL     1     -12.736   9.013  71.050  1.00  0.00    -0.229 OA 
ENDROOT
BRANCH   2   3
HETATM    3  C   UNL     1     -11.374   8.896  71.184  1.00  0.00    -0.291 A  
HETATM    4  C   UNL     1     -10.762   8.457  72.371  1.00  0.00    -0.405 A  
HETATM    5  C   UNL     1      -9.370   8.409  72.493  1.00  0.00    -0.346 A  
HETATM    6  C   UNL     1      -8.564   8.777  71.425  1.00  0.00    -0.254 A  
HETATM    7  C   UNL     1      -9.152   9.197  70.237  1.00  0.00    -0.247 A  
HETATM    8  C   UNL     1     -10.548   9.259  70.099  1.00  0.00    -0.231 A  
BRANCH   8   9
HETATM    9  O   UNL     1     -10.911   9.765  68.868  1.00  0.00    -0.212 OA 
BRANCH   9  10
HETATM   10  C   UNL     1     -10.142   9.588  67.764  1.00  0.00    -0.198 A  
HETATM   11  C   UNL     1      -9.284  10.498  67.189  1.00  0.00    -0.143 A  
HETATM   12  N   UNL     1      -8.484  10.233  66.148  1.00  0.00    -0.137 NA 
HETATM   13  N   UNL     1      -9.443   8.055  66.043  1.00  0.00    -0.112 NA 
HETATM   14  C   UNL     1      -8.560   8.987  65.634  1.00  0.00    -0.166 A  
HETATM   15  C   UNL     1     -10.229   8.385  67.082  1.00  0.00    -0.292 A  
BRANCH  11  16
HETATM   16  N   UNL     1      -9.098  11.841  67.599  1.00  0.00    -0.171 N  
HETATM   17  H   UNL     1      -8.320  12.086  68.212  1.00  0.00     0.000 HD 
BRANCH  16  18
HETATM   18  S   UNL     1     -10.159  13.025  67.074  1.00  0.00    -0.247 S  
HETATM   19  O   UNL     1      -9.392  14.129  66.525  1.00  0.00    -0.279 OA 
HETATM   20  O   UNL     1     -11.147  12.346  66.258  1.00  0.00    -0.277 OA 
BRANCH  18  21
HETATM   21  C   UNL     1     -10.987  13.635  68.521  1.00  0.00    -0.267 A  
HETATM   22  C   UNL     1     -12.250  14.663  70.826  1.00  0.00    -0.394 A  
HETATM   23  C   UNL     1     -10.562  14.842  69.072  1.00  0.00    -0.245 A  
HETATM   24  C   UNL     1     -11.185  15.344  70.213  1.00  0.00    -0.328 A  
HETATM   25  C   UNL     1     -12.705  13.478  70.209  1.00  0.00    -0.118 A  
HETATM   26  C   UNL     1     -12.084  12.966  69.060  1.00  0.00    -0.198 A  
BRANCH  22  27
HETATM   27  C   UNL     1     -12.871  15.160  72.146  1.00  0.00    -0.426 C  
HETATM   28  C   UNL     1     -14.377  15.494  72.023  1.00  0.00    -0.600 C  
HETATM   29  C   UNL     1     -12.158  16.455  72.592  1.00  0.00    -0.554 C  
HETATM   30  C   UNL     1     -12.728  14.096  73.253  1.00  0.00    -0.098 C  
ENDBRANCH  22  27
ENDBRANCH  18  21
ENDBRANCH  16  18
ENDBRANCH  11  16
BRANCH  14  31
HETATM   31  C   UNL     1      -7.547   8.596  64.620  1.00  0.00    -0.111 A  
HETATM   32  N   UNL     1      -6.245   8.851  64.897  1.00  0.00    -0.064 NA 
HETATM   33  N   UNL     1      -7.981   8.081  63.444  1.00  0.00    -0.148 NA 
HETATM   34  C   UNL     1      -7.042   7.807  62.523  1.00  0.00    -0.082 A  
HETATM   35  C   UNL     1      -5.354   8.567  63.933  1.00  0.00    -0.056 A  
HETATM   36  C   UNL     1      -5.699   8.035  62.714  1.00  0.00    -0.068 A  
ENDBRANCH  14  31
BRANCH  15  37
HETATM   37  O   UNL     1     -11.200   7.485  67.481  1.00  0.00    -0.003 OA 
BRANCH  37  38
HETATM   38  C   UNL     1     -10.913   6.101  67.240  1.00  0.00    -0.326 C  
BRANCH  38  39
HETATM   39  C   UNL     1     -10.448   5.421  68.524  1.00  0.00    -0.122 C  
HETATM   40  O   UNL     1     -11.237   5.845  69.631  1.00  0.00    -0.395 OA 
HETATM   41  H   UNL     1     -10.947   5.422  70.431  1.00  0.00     0.000 HD 
ENDBRANCH  38  39
ENDBRANCH  37  38
ENDBRANCH  15  37
ENDBRANCH   9  10
ENDBRANCH   8   9
ENDBRANCH   2   3
TORSDOF 11
ENDMDL
MODEL       61
REMARK 921   NORMALIZED FREE ENERGY PREDICTED BY IDOCK:   -5.39 KCAL/MOL
REMARK 922        TOTAL FREE ENERGY PREDICTED BY IDOCK:  -11.32 KCAL/MOL
REMARK 923 INTER-LIGAND FREE ENERGY PREDICTED BY IDOCK:   -8.99 KCAL/MOL
REMARK 924 INTRA-LIGAND FREE ENERGY PREDICTED BY IDOCK:   -2.33 KCAL/MOL
REMARK 927      BINDING AFFINITY PREDICTED BY RF-SCORE:    0.00 PKD
ROOT
HETATM    1  C   UNL     1      -9.598   7.814  66.120  1.00  0.00    -0.034 C  
HETATM    2  O   UNL     1     -10.064   9.163  66.093  1.00  0.00    -0.290 OA 
ENDROOT
BRANCH   2   3
HETATM    3  C   UNL     1     -10.361   9.748  67.300  1.00  0.00    -0.248 A  
HETATM    4  C   UNL     1     -10.595   9.003  68.468  1.00  0.00    -0.196 A  
HETATM    5  C   UNL     1     -10.957   9.627  69.666  1.00  0.00    -0.253 A  
HETATM    6  C   UNL     1     -11.069  11.009  69.724  1.00  0.00    -0.303 A  
HETATM    7  C   UNL     1     -10.824  11.764  68.583  1.00  0.00    -0.259 A  
HETATM    8  C   UNL     1     -10.468  11.153  67.370  1.00  0.00    -0.220 A  
BRANCH   8   9
HETATM    9  O   UNL     1     -10.340  12.081  66.356  1.00  0.00    -0.210 OA 
BRANCH   9  10
HETATM   10  C   UNL     1      -9.900  13.344  66.590  1.00  0.00    -0.278 A  
HETATM   11  C   UNL     1      -8.599  13.753  66.775  1.00  0.00    -0.035 A  
HETATM   12  N   UNL     1      -8.219  15.030  66.915  1.00  0.00    -0.210 NA 
HETATM   13  N   UNL     1     -10.514  15.660  66.829  1.00  0.00    -0.292 NA 
HETATM   14  C   UNL     1      -9.201  15.956  66.890  1.00  0.00    -0.226 A  
HETATM   15  C   UNL     1     -10.834  14.360  66.704  1.00  0.00    -0.304 A  
BRANCH  11  16
HETATM   16  N   UNL     1      -7.462  12.912  66.838  1.00  0.00    -0.364 N  
HETATM   17  H   UNL     1      -7.130  12.436  65.999  1.00  0.00     0.000 HD 
BRANCH  16  18
HETATM   18  S   UNL     1      -6.665  12.699  68.295  1.00  0.00    -0.093 S  
HETATM   19  O   UNL     1      -5.241  12.890  68.081  1.00  0.00    -0.070 OA 
HETATM   20  O   UNL     1      -7.374  13.514  69.263  1.00  0.00     0.005 OA 
BRANCH  18  21
HETATM   21  C   UNL     1      -6.899  10.999  68.753  1.00  0.00    -0.073 A  
HETATM   22  C   UNL     1      -7.281   8.320  69.554  1.00  0.00    -0.061 A  
HETATM   23  C   UNL     1      -7.297  10.709  70.056  1.00  0.00     0.013 A  
HETATM   24  C   UNL     1      -7.481   9.385  70.449  1.00  0.00    -0.141 A  
HETATM   25  C   UNL     1      -6.944   8.645  68.222  1.00  0.00    -0.073 A  
HETATM   26  C   UNL     1      -6.757   9.975  67.818  1.00  0.00    -0.071 A  
BRANCH  22  27
HETATM   27  C   UNL     1      -7.380   6.852  70.013  1.00  0.00    -0.082 C  
HETATM   28  C   UNL     1      -6.037   6.285  70.534  1.00  0.00    -0.034 C  
HETATM   29  C   UNL     1      -7.808   5.971  68.821  1.00  0.00    -0.100 C  
HETATM   30  C   UNL     1      -8.410   6.703  71.150  1.00  0.00    -0.125 C  
ENDBRANCH  22  27
ENDBRANCH  18  21
ENDBRANCH  16  18
ENDBRANCH  11  16
BRANCH  14  31
HETATM   31  C   UNL     1      -8.801  17.385  66.834  1.00  0.00    -0.242 A  
HETATM   32  N   UNL     1      -9.562  18.281  67.508  1.00  0.00    -0.276 NA 
HETATM   33  N   UNL     1      -7.750  17.727  66.049  1.00  0.00    -0.500 NA 
HETATM   34  C   UNL     1      -7.464  19.037  65.965  1.00  0.00    -0.254 A  
HETATM   35  C   UNL     1      -9.233  19.577  67.375  1.00  0.00    -0.315 A  
HETATM   36  C   UNL     1      -8.181  20.017  66.610  1.00  0.00    -0.355 A  
ENDBRANCH  14  31
BRANCH  15  37
HETATM   37  O   UNL     1     -12.172  14.010  66.716  1.00  0.00    -0.439 OA 
BRANCH  37  38
HETATM   38  C   UNL     1     -12.740  13.651  65.450  1.00  0.00    -0.453 C  
BRANCH  38  39
HETATM   39  C   UNL     1     -12.379  14.686  64.390  1.00  0.00    -0.398 C  
HETATM   40  O   UNL     1     -12.534  14.143  63.083  1.00  0.00    -1.126 OA 
HETATM   41  H   UNL     1     -12.309  14.788  62.422  1.00  0.00     0.000 HD 
ENDBRANCH  38  39
ENDBRANCH  37  38
ENDBRANCH  15  37
ENDBRANCH   9  10
ENDBRANCH   8   9
ENDBRANCH   2   3
TORSDOF 11
ENDMDL
MODEL       62
REMARK 921   NORMALIZED FREE ENERGY PREDICTED BY IDOCK:   -5.38 KCAL/MOL
REMARK 922        TOTAL FREE ENERGY PREDICTED BY IDOCK:  -11.30 KCAL/MOL
REMARK 923 INTER-LIGAND FREE ENERGY PREDICTED BY IDOCK:  -10.69 KCAL/MOL
REMARK 924 INTRA-LIGAND FREE ENERGY PREDICTED BY IDOCK:   -0.60 KCAL/MOL
REMARK 927      BINDING AFFINITY PREDICTED BY RF-SCORE:    0.00 PKD
ROOT
HETATM    1  C   UNL     1     -12.455  13.546  70.797  1.00  0.00    -0.353 C  
HETATM    2  O   UNL     1     -11.898  12.394  70.163  1.00  0.00    -0.324 OA 
ENDROOT
BRANCH   2   3
HETATM    3  C   UNL     1     -12.096  11.183  70.778  1.00  0.00    -0.357 A  
HETATM    4  C   UNL     1     -13.246  10.893  71.533  1.00  0.00    -0.420 A  
HETATM    5  C   UNL     1     -13.387   9.671  72.197  1.00  0.00    -0.545 A  
HETATM    6  C   UNL     1     -12.393   8.707  72.101  1.00  0.00    -0.452 A  
HETATM    7  C   UNL     1     -11.257   8.969  71.344  1.00  0.00    -0.394 A  
HETATM    8  C   UNL     1     -11.095  10.194  70.677  1.00  0.00    -0.322 A  
BRANCH   8   9
HETATM    9  O   UNL     1      -9.869  10.267  70.046  1.00  0.00    -0.191 OA 
BRANCH   9  10
HETATM   10  C   UNL     1      -9.706   9.895  68.751  1.00  0.00    -0.160 A  
HETATM   11  C   UNL     1     -10.155  10.556  67.630  1.00  0.00    -0.179 A  
HETATM   12  N   UNL     1      -9.885  10.184  66.372  1.00  0.00    -0.210 NA 
HETATM   13  N   UNL     1      -8.742   8.285  67.242  1.00  0.00    -0.123 NA 
HETATM   14  C   UNL     1      -9.138   9.070  66.221  1.00  0.00    -0.179 A  
HETATM   15  C   UNL     1      -9.055   8.703  68.481  1.00  0.00    -0.138 A  
BRANCH  11  16
HETATM   16  N   UNL     1     -10.956  11.724  67.616  1.00  0.00    -0.219 N  
HETATM   17  H   UNL     1     -11.393  12.055  68.476  1.00  0.00     0.000 HD 
BRANCH  16  18
HETATM   18  S   UNL     1     -11.184  12.560  66.183  1.00  0.00    -0.339 S  
HETATM   19  O   UNL     1     -10.272  12.030  65.184  1.00  0.00    -0.262 OA 
HETATM   20  O   UNL     1     -12.613  12.559  65.941  1.00  0.00    -0.514 OA 
BRANCH  18  21
HETATM   21  C   UNL     1     -10.694  14.237  66.496  1.00  0.00    -0.297 A  
HETATM   22  C   UNL     1      -9.967  16.907  67.055  1.00  0.00    -0.279 A  
HETATM   23  C   UNL     1     -11.182  14.871  67.637  1.00  0.00    -0.330 A  
HETATM   24  C   UNL     1     -10.824  16.191  67.907  1.00  0.00    -0.332 A  
HETATM   25  C   UNL     1      -9.433  16.220  65.943  1.00  0.00    -0.318 A  
HETATM   26  C   UNL     1      -9.788  14.891  65.664  1.00  0.00    -0.372 A  
BRANCH  22  27
HETATM   27  C   UNL     1      -9.654  18.397  67.293  1.00  0.00    -0.292 C  
HETATM   28  C   UNL     1     -10.429  19.342  66.344  1.00  0.00    -0.563 C  
HETATM   29  C   UNL     1      -8.151  18.649  67.050  1.00  0.00    -0.259 C  
HETATM   30  C   UNL     1     -10.010  18.806  68.736  1.00  0.00    -0.442 C  
ENDBRANCH  22  27
ENDBRANCH  18  21
ENDBRANCH  16  18
ENDBRANCH  11  16
BRANCH  14  31
HETATM   31  C   UNL     1      -8.648   8.746  64.857  1.00  0.00    -0.150 A  
HETATM   32  N   UNL     1      -8.905   9.634  63.866  1.00  0.00    -0.224 NA 
HETATM   33  N   UNL     1      -8.044   7.549  64.659  1.00  0.00    -0.128 NA 
HETATM   34  C   UNL     1      -7.680   7.259  63.399  1.00  0.00    -0.124 A  
HETATM   35  C   UNL     1      -8.528   9.283  62.626  1.00  0.00    -0.209 A  
HETATM   36  C   UNL     1      -7.902   8.096  62.331  1.00  0.00    -0.138 A  
ENDBRANCH  14  31
BRANCH  15  37
HETATM   37  O   UNL     1      -8.733   7.885  69.549  1.00  0.00    -0.133 OA 
BRANCH  37  38
HETATM   38  C   UNL     1      -8.511   6.504  69.240  1.00  0.00    -0.127 C  
BRANCH  38  39
HETATM   39  C   UNL     1      -8.497   5.668  70.516  1.00  0.00    -0.121 C  
HETATM   40  O   UNL     1      -9.822   5.325  70.907  1.00  0.00    -0.173 OA 
HETATM   41  H   UNL     1      -9.814   4.804  71.702  1.00  0.00     0.000 HD 
ENDBRANCH  38  39
ENDBRANCH  37  38
ENDBRANCH  15  37
ENDBRANCH   9  10
ENDBRANCH   8   9
ENDBRANCH   2   3
TORSDOF 11
ENDMDL
MODEL       63
REMARK 921   NORMALIZED FREE ENERGY PREDICTED BY IDOCK:   -5.35 KCAL/MOL
REMARK 922        TOTAL FREE ENERGY PREDICTED BY IDOCK:  -11.26 KCAL/MOL
REMARK 923 INTER-LIGAND FREE ENERGY PREDICTED BY IDOCK:   -9.09 KCAL/MOL
REMARK 924 INTRA-LIGAND FREE ENERGY PREDICTED BY IDOCK:   -2.16 KCAL/MOL
REMARK 927      BINDING AFFINITY PREDICTED BY RF-SCORE:    0.00 PKD
ROOT
HETATM    1  C   UNL     1     -12.365  10.555  70.578  1.00  0.00    -0.343 C  
HETATM    2  O   UNL     1     -11.114   9.941  70.267  1.00  0.00    -0.262 OA 
ENDROOT
BRANCH   2   3
HETATM    3  C   UNL     1     -11.145   8.637  69.837  1.00  0.00    -0.116 A  
HETATM    4  C   UNL     1     -11.512   7.570  70.675  1.00  0.00    -0.291 A  
HETATM    5  C   UNL     1     -11.473   6.247  70.223  1.00  0.00    -0.428 A  
HETATM    6  C   UNL     1     -11.089   5.968  68.919  1.00  0.00    -0.349 A  
HETATM    7  C   UNL     1     -10.739   7.012  68.071  1.00  0.00    -0.252 A  
HETATM    8  C   UNL     1     -10.765   8.346  68.510  1.00  0.00    -0.021 A  
BRANCH   8   9
HETATM    9  O   UNL     1     -10.317   9.208  67.531  1.00  0.00    -0.228 OA 
BRANCH   9  10
HETATM   10  C   UNL     1      -9.482  10.242  67.811  1.00  0.00    -0.148 A  
HETATM   11  C   UNL     1      -9.807  11.577  67.899  1.00  0.00    -0.185 A  
HETATM   12  N   UNL     1      -8.953  12.541  68.267  1.00  0.00    -0.195 NA 
HETATM   13  N   UNL     1      -7.236  10.895  68.383  1.00  0.00    -0.082 NA 
HETATM   14  C   UNL     1      -7.691  12.153  68.545  1.00  0.00    -0.119 A  
HETATM   15  C   UNL     1      -8.136   9.974  67.998  1.00  0.00    -0.112 A  
BRANCH  11  16
HETATM   16  N   UNL     1     -11.075  12.145  67.629  1.00  0.00    -0.251 N  
HETATM   17  H   UNL     1     -11.847  12.008  68.282  1.00  0.00     0.000 HD 
BRANCH  16  18
HETATM   18  S   UNL     1     -11.305  13.042  66.234  1.00  0.00    -0.332 S  
HETATM   19  O   UNL     1     -10.488  12.475  65.175  1.00  0.00    -0.280 OA 
HETATM   20  O   UNL     1     -12.740  13.161  66.065  1.00  0.00    -0.385 OA 
BRANCH  18  21
HETATM   21  C   UNL     1     -10.669  14.665  66.569  1.00  0.00    -0.312 A  
HETATM   22  C   UNL     1      -9.717  17.258  67.152  1.00  0.00    -0.259 A  
HETATM   23  C   UNL     1     -11.258  15.414  67.585  1.00  0.00    -0.311 A  
HETATM   24  C   UNL     1     -10.788  16.695  67.868  1.00  0.00    -0.321 A  
HETATM   25  C   UNL     1      -9.094  16.452  66.175  1.00  0.00    -0.362 A  
HETATM   26  C   UNL     1      -9.561  15.161  65.884  1.00  0.00    -0.373 A  
BRANCH  22  27
HETATM   27  C   UNL     1      -9.264  18.711  67.390  1.00  0.00    -0.292 C  
HETATM   28  C   UNL     1      -9.663  19.254  68.783  1.00  0.00    -0.510 C  
HETATM   29  C   UNL     1      -9.926  19.632  66.342  1.00  0.00    -0.556 C  
HETATM   30  C   UNL     1      -7.732  18.832  67.274  1.00  0.00    -0.241 C  
ENDBRANCH  22  27
ENDBRANCH  18  21
ENDBRANCH  16  18
ENDBRANCH  11  16
BRANCH  14  31
HETATM   31  C   UNL     1      -6.778  13.156  69.152  1.00  0.00    -0.089 A  
HETATM   32  N   UNL     1      -6.258  12.879  70.372  1.00  0.00    -0.030 NA 
HETATM   33  N   UNL     1      -6.578  14.324  68.493  1.00  0.00    -0.088 NA 
HETATM   34  C   UNL     1      -5.806  15.236  69.107  1.00  0.00    -0.099 A  
HETATM   35  C   UNL     1      -5.504  13.835  70.940  1.00  0.00    -0.174 A  
HETATM   36  C   UNL     1      -5.239  15.045  70.345  1.00  0.00    -0.119 A  
ENDBRANCH  14  31
BRANCH  15  37
HETATM   37  O   UNL     1      -7.691   8.689  67.746  1.00  0.00    -0.100 OA 
BRANCH  37  38
HETATM   38  C   UNL     1      -6.878   8.521  66.578  1.00  0.00    -0.071 C  
BRANCH  38  39
HETATM   39  C   UNL     1      -7.475   7.459  65.661  1.00  0.00    -0.084 C  
HETATM   40  O   UNL     1      -8.769   7.849  65.214  1.00  0.00    -0.324 OA 
HETATM   41  H   UNL     1      -9.142   7.187  64.643  1.00  0.00     0.000 HD 
ENDBRANCH  38  39
ENDBRANCH  37  38
ENDBRANCH  15  37
ENDBRANCH   9  10
ENDBRANCH   8   9
ENDBRANCH   2   3
TORSDOF 11
ENDMDL
MODEL       64
REMARK 921   NORMALIZED FREE ENERGY PREDICTED BY IDOCK:   -5.32 KCAL/MOL
REMARK 922        TOTAL FREE ENERGY PREDICTED BY IDOCK:  -11.21 KCAL/MOL
REMARK 923 INTER-LIGAND FREE ENERGY PREDICTED BY IDOCK:  -10.16 KCAL/MOL
REMARK 924 INTRA-LIGAND FREE ENERGY PREDICTED BY IDOCK:   -1.05 KCAL/MOL
REMARK 927      BINDING AFFINITY PREDICTED BY RF-SCORE:    0.00 PKD
ROOT
HETATM    1  C   UNL     1     -13.077  10.401  70.372  1.00  0.00    -0.056 C  
HETATM    2  O   UNL     1     -12.516  10.923  69.167  1.00  0.00    -0.409 OA 
ENDROOT
BRANCH   2   3
HETATM    3  C   UNL     1     -11.180  10.695  68.947  1.00  0.00    -0.275 A  
HETATM    4  C   UNL     1     -10.347  10.084  69.900  1.00  0.00    -0.315 A  
HETATM    5  C   UNL     1      -8.978   9.923  69.668  1.00  0.00    -0.232 A  
HETATM    6  C   UNL     1      -8.420  10.349  68.471  1.00  0.00    -0.129 A  
HETATM    7  C   UNL     1      -9.232  10.940  67.509  1.00  0.00    -0.153 A  
HETATM    8  C   UNL     1     -10.607  11.117  67.729  1.00  0.00    -0.209 A  
BRANCH   8   9
HETATM    9  O   UNL     1     -11.205  11.782  66.678  1.00  0.00    -0.301 OA 
BRANCH   9  10
HETATM   10  C   UNL     1     -11.039  13.116  66.485  1.00  0.00    -0.294 A  
HETATM   11  C   UNL     1     -11.522  14.139  67.270  1.00  0.00    -0.350 A  
HETATM   12  N   UNL     1     -11.250  15.436  67.076  1.00  0.00    -0.279 NA 
HETATM   13  N   UNL     1     -10.031  14.826  65.123  1.00  0.00    -0.318 NA 
HETATM   14  C   UNL     1     -10.464  15.734  66.020  1.00  0.00    -0.338 A  
HETATM   15  C   UNL     1     -10.348  13.542  65.363  1.00  0.00    -0.319 A  
BRANCH  11  16
HETATM   16  N   UNL     1     -12.364  13.996  68.399  1.00  0.00    -0.504 N  
HETATM   17  H   UNL     1     -13.236  13.472  68.325  1.00  0.00     0.000 HD 
BRANCH  16  18
HETATM   18  S   UNL     1     -11.924  14.691  69.858  1.00  0.00    -0.347 S  
HETATM   19  O   UNL     1     -12.855  15.763  70.164  1.00  0.00    -0.293 OA 
HETATM   20  O   UNL     1     -11.744  13.593  70.788  1.00  0.00    -0.176 OA 
BRANCH  18  21
HETATM   21  C   UNL     1     -10.335  15.440  69.600  1.00  0.00    -0.277 A  
HETATM   22  C   UNL     1      -7.776  16.559  69.194  1.00  0.00    -0.205 A  
HETATM   23  C   UNL     1      -9.228  14.611  69.431  1.00  0.00     0.113 A  
HETATM   24  C   UNL     1      -7.966  15.168  69.234  1.00  0.00    -0.213 A  
HETATM   25  C   UNL     1      -8.924  17.375  69.299  1.00  0.00     0.198 A  
HETATM   26  C   UNL     1     -10.199  16.823  69.497  1.00  0.00    -0.166 A  
BRANCH  22  27
HETATM   27  C   UNL     1      -6.370  17.178  69.083  1.00  0.00    -0.220 C  
HETATM   28  C   UNL     1      -5.620  16.761  67.796  1.00  0.00    -0.143 C  
HETATM   29  C   UNL     1      -5.509  16.711  70.277  1.00  0.00    -0.204 C  
HETATM   30  C   UNL     1      -6.448  18.718  69.087  1.00  0.00    -0.297 C  
ENDBRANCH  22  27
ENDBRANCH  18  21
ENDBRANCH  16  18
ENDBRANCH  11  16
BRANCH  14  31
HETATM   31  C   UNL     1      -9.974  17.131  65.896  1.00  0.00    -0.194 A  
HETATM   32  N   UNL     1      -8.636  17.339  65.954  1.00  0.00    -0.538 NA 
HETATM   33  N   UNL     1     -10.890  18.127  65.813  1.00  0.00    -0.266 NA 
HETATM   34  C   UNL     1     -10.412  19.382  65.776  1.00  0.00    -0.392 A  
HETATM   35  C   UNL     1      -8.220  18.616  65.925  1.00  0.00     0.081 A  
HETATM   36  C   UNL     1      -9.073  19.689  65.833  1.00  0.00    -0.140 A  
ENDBRANCH  14  31
BRANCH  15  37
HETATM   37  O   UNL     1      -9.988  12.591  64.426  1.00  0.00    -0.265 OA 
BRANCH  37  38
HETATM   38  C   UNL     1     -11.055  11.796  63.894  1.00  0.00    -0.408 C  
BRANCH  38  39
HETATM   39  C   UNL     1     -12.251  12.674  63.542  1.00  0.00    -0.547 C  
HETATM   40  O   UNL     1     -13.389  12.308  64.315  1.00  0.00    -0.777 OA 
HETATM   41  H   UNL     1     -14.135  12.855  64.097  1.00  0.00     0.000 HD 
ENDBRANCH  38  39
ENDBRANCH  37  38
ENDBRANCH  15  37
ENDBRANCH   9  10
ENDBRANCH   8   9
ENDBRANCH   2   3
TORSDOF 11
ENDMDL
MODEL       65
REMARK 921   NORMALIZED FREE ENERGY PREDICTED BY IDOCK:   -5.30 KCAL/MOL
REMARK 922        TOTAL FREE ENERGY PREDICTED BY IDOCK:  -11.16 KCAL/MOL
REMARK 923 INTER-LIGAND FREE ENERGY PREDICTED BY IDOCK:   -8.59 KCAL/MOL
REMARK 924 INTRA-LIGAND FREE ENERGY PREDICTED BY IDOCK:   -2.57 KCAL/MOL
REMARK 927      BINDING AFFINITY PREDICTED BY RF-SCORE:    0.00 PKD
ROOT
HETATM    1  C   UNL     1      -8.387   4.865  63.607  1.00  0.00    -0.126 C  
HETATM    2  O   UNL     1      -8.586   5.262  64.964  1.00  0.00    -0.146 OA 
ENDROOT
BRANCH   2   3
HETATM    3  C   UNL     1      -8.699   4.264  65.900  1.00  0.00    -0.115 A  
HETATM    4  C   UNL     1      -9.238   3.001  65.601  1.00  0.00    -0.129 A  
HETATM    5  C   UNL     1      -9.397   2.028  66.592  1.00  0.00     0.084 A  
HETATM    6  C   UNL     1      -8.998   2.291  67.895  1.00  0.00    -0.195 A  
HETATM    7  C   UNL     1      -8.446   3.528  68.206  1.00  0.00    -0.106 A  
HETATM    8  C   UNL     1      -8.288   4.520  67.225  1.00  0.00    -0.104 A  
BRANCH   8   9
HETATM    9  O   UNL     1      -7.787   5.687  67.764  1.00  0.00    -0.096 OA 
BRANCH   9  10
HETATM   10  C   UNL     1      -8.592   6.615  68.342  1.00  0.00    -0.124 A  
HETATM   11  C   UNL     1      -9.426   7.508  67.708  1.00  0.00    -0.141 A  
HETATM   12  N   UNL     1     -10.264   8.341  68.338  1.00  0.00    -0.205 NA 
HETATM   13  N   UNL     1      -9.403   7.543  70.411  1.00  0.00    -0.161 NA 
HETATM   14  C   UNL     1     -10.256   8.295  69.687  1.00  0.00    -0.209 A  
HETATM   15  C   UNL     1      -8.576   6.739  69.722  1.00  0.00    -0.141 A  
BRANCH  11  16
HETATM   16  N   UNL     1      -9.543   7.689  66.309  1.00  0.00    -0.396 N  
HETATM   17  H   UNL     1     -10.241   7.164  65.781  1.00  0.00     0.000 HD 
BRANCH  16  18
HETATM   18  S   UNL     1      -8.531   8.766  65.521  1.00  0.00    -0.174 S  
HETATM   19  O   UNL     1      -7.300   8.890  66.281  1.00  0.00    -0.085 OA 
HETATM   20  O   UNL     1      -8.494   8.343  64.135  1.00  0.00    -0.120 OA 
BRANCH  18  21
HETATM   21  C   UNL     1      -9.338  10.347  65.577  1.00  0.00    -0.197 A  
HETATM   22  C   UNL     1     -10.582  12.875  65.733  1.00  0.00    -0.293 A  
HETATM   23  C   UNL     1      -8.942  11.263  66.550  1.00  0.00    -0.189 A  
HETATM   24  C   UNL     1      -9.561  12.508  66.626  1.00  0.00    -0.239 A  
HETATM   25  C   UNL     1     -10.917  11.956  64.716  1.00  0.00    -0.366 A  
HETATM   26  C   UNL     1     -10.298  10.700  64.632  1.00  0.00    -0.353 A  
BRANCH  22  27
HETATM   27  C   UNL     1     -11.341  14.208  65.881  1.00  0.00    -0.323 C  
HETATM   28  C   UNL     1     -11.343  14.751  67.330  1.00  0.00    -0.366 C  
HETATM   29  C   UNL     1     -12.817  14.005  65.475  1.00  0.00    -0.453 C  
HETATM   30  C   UNL     1     -10.715  15.296  64.986  1.00  0.00    -0.461 C  
ENDBRANCH  22  27
ENDBRANCH  18  21
ENDBRANCH  16  18
ENDBRANCH  11  16
BRANCH  14  31
HETATM   31  C   UNL     1     -11.312   9.049  70.411  1.00  0.00    -0.210 A  
HETATM   32  N   UNL     1     -11.327  10.398  70.280  1.00  0.00    -0.307 NA 
HETATM   33  N   UNL     1     -12.150   8.360  71.224  1.00  0.00    -0.291 NA 
HETATM   34  C   UNL     1     -13.044   9.084  71.918  1.00  0.00    -0.400 A  
HETATM   35  C   UNL     1     -12.236  11.067  71.008  1.00  0.00    -0.351 A  
HETATM   36  C   UNL     1     -13.131  10.454  71.851  1.00  0.00    -0.563 A  
ENDBRANCH  14  31
BRANCH  15  37
HETATM   37  O   UNL     1      -7.634   6.010  70.425  1.00  0.00    -0.090 OA 
BRANCH  37  38
HETATM   38  C   UNL     1      -8.036   5.545  71.720  1.00  0.00    -0.114 C  
BRANCH  38  39
HETATM   39  C   UNL     1      -9.158   4.520  71.594  1.00  0.00    -0.131 C  
HETATM   40  O   UNL     1     -10.387   5.058  72.072  1.00  0.00    -0.205 OA 
HETATM   41  H   UNL     1     -11.087   4.420  71.994  1.00  0.00     0.000 HD 
ENDBRANCH  38  39
ENDBRANCH  37  38
ENDBRANCH  15  37
ENDBRANCH   9  10
ENDBRANCH   8   9
ENDBRANCH   2   3
TORSDOF 11
ENDMDL
MODEL       66
REMARK 921   NORMALIZED FREE ENERGY PREDICTED BY IDOCK:   -5.28 KCAL/MOL
REMARK 922        TOTAL FREE ENERGY PREDICTED BY IDOCK:  -11.13 KCAL/MOL
REMARK 923 INTER-LIGAND FREE ENERGY PREDICTED BY IDOCK:   -9.39 KCAL/MOL
REMARK 924 INTRA-LIGAND FREE ENERGY PREDICTED BY IDOCK:   -1.74 KCAL/MOL
REMARK 927      BINDING AFFINITY PREDICTED BY RF-SCORE:    0.00 PKD
ROOT
HETATM    1  C   UNL     1      -8.397   9.054  63.879  1.00  0.00    -0.176 C  
HETATM    2  O   UNL     1      -8.273   8.857  65.288  1.00  0.00    -0.121 OA 
ENDROOT
BRANCH   2   3
HETATM    3  C   UNL     1      -9.012   7.843  65.847  1.00  0.00    -0.123 A  
HETATM    4  C   UNL     1      -8.762   6.486  65.580  1.00  0.00    -0.063 A  
HETATM    5  C   UNL     1      -9.573   5.481  66.117  1.00  0.00    -0.158 A  
HETATM    6  C   UNL     1     -10.633   5.812  66.949  1.00  0.00    -0.377 A  
HETATM    7  C   UNL     1     -10.884   7.148  67.238  1.00  0.00    -0.382 A  
HETATM    8  C   UNL     1     -10.085   8.171  66.701  1.00  0.00    -0.273 A  
BRANCH   8   9
HETATM    9  O   UNL     1     -10.553   9.418  67.062  1.00  0.00    -0.251 OA 
BRANCH   9  10
HETATM   10  C   UNL     1      -9.716  10.471  67.252  1.00  0.00    -0.169 A  
HETATM   11  C   UNL     1      -9.594  11.592  66.463  1.00  0.00    -0.209 A  
HETATM   12  N   UNL     1      -8.811  12.640  66.752  1.00  0.00    -0.199 NA 
HETATM   13  N   UNL     1      -8.045  11.461  68.675  1.00  0.00    -0.147 NA 
HETATM   14  C   UNL     1      -8.089  12.555  67.889  1.00  0.00    -0.163 A  
HETATM   15  C   UNL     1      -8.841  10.436  68.325  1.00  0.00    -0.135 A  
BRANCH  11  16
HETATM   16  N   UNL     1     -10.268  11.828  65.241  1.00  0.00    -0.256 N  
HETATM   17  H   UNL     1      -9.937  11.390  64.381  1.00  0.00     0.000 HD 
BRANCH  16  18
HETATM   18  S   UNL     1     -11.610  12.829  65.211  1.00  0.00    -0.364 S  
HETATM   19  O   UNL     1     -11.998  13.049  63.829  1.00  0.00    -0.448 OA 
HETATM   20  O   UNL     1     -12.556  12.261  66.153  1.00  0.00    -0.263 OA 
BRANCH  18  21
HETATM   21  C   UNL     1     -11.084  14.396  65.859  1.00  0.00    -0.319 A  
HETATM   22  C   UNL     1     -10.293  16.875  66.953  1.00  0.00    -0.304 A  
HETATM   23  C   UNL     1     -11.476  14.748  67.149  1.00  0.00    -0.375 A  
HETATM   24  C   UNL     1     -11.086  15.975  67.684  1.00  0.00    -0.243 A  
HETATM   25  C   UNL     1      -9.853  16.464  65.676  1.00  0.00    -0.222 A  
HETATM   26  C   UNL     1     -10.240  15.231  65.130  1.00  0.00    -0.374 A  
BRANCH  22  27
HETATM   27  C   UNL     1      -9.949  18.274  67.499  1.00  0.00    -0.345 C  
HETATM   28  C   UNL     1     -10.145  18.395  69.029  1.00  0.00    -0.274 C  
HETATM   29  C   UNL     1     -10.874  19.321  66.843  1.00  0.00    -0.479 C  
HETATM   30  C   UNL     1      -8.481  18.634  67.196  1.00  0.00    -0.272 C  
ENDBRANCH  22  27
ENDBRANCH  18  21
ENDBRANCH  16  18
ENDBRANCH  11  16
BRANCH  14  31
HETATM   31  C   UNL     1      -7.374  13.775  68.345  1.00  0.00    -0.117 A  
HETATM   32  N   UNL     1      -8.074  14.686  69.064  1.00  0.00    -0.140 NA 
HETATM   33  N   UNL     1      -6.088  13.950  67.952  1.00  0.00    -0.144 NA 
HETATM   34  C   UNL     1      -5.498  15.099  68.322  1.00  0.00    -0.120 A  
HETATM   35  C   UNL     1      -7.433  15.819  69.394  1.00  0.00    -0.216 A  
HETATM   36  C   UNL     1      -6.129  16.081  69.048  1.00  0.00    -0.128 A  
ENDBRANCH  14  31
BRANCH  15  37
HETATM   37  O   UNL     1      -8.767   9.268  69.062  1.00  0.00    -0.130 OA 
BRANCH  37  38
HETATM   38  C   UNL     1      -9.055   9.387  70.461  1.00  0.00    -0.256 C  
BRANCH  38  39
HETATM   39  C   UNL     1     -10.555   9.261  70.709  1.00  0.00    -0.285 C  
HETATM   40  O   UNL     1     -11.167  10.546  70.751  1.00  0.00    -0.375 OA 
HETATM   41  H   UNL     1     -12.102  10.468  70.906  1.00  0.00     0.000 HD 
ENDBRANCH  38  39
ENDBRANCH  37  38
ENDBRANCH  15  37
ENDBRANCH   9  10
ENDBRANCH   8   9
ENDBRANCH   2   3
TORSDOF 11
ENDMDL
MODEL       67
REMARK 921   NORMALIZED FREE ENERGY PREDICTED BY IDOCK:   -5.27 KCAL/MOL
REMARK 922        TOTAL FREE ENERGY PREDICTED BY IDOCK:  -11.12 KCAL/MOL
REMARK 923 INTER-LIGAND FREE ENERGY PREDICTED BY IDOCK:   -9.55 KCAL/MOL
REMARK 924 INTRA-LIGAND FREE ENERGY PREDICTED BY IDOCK:   -1.57 KCAL/MOL
REMARK 927      BINDING AFFINITY PREDICTED BY RF-SCORE:    0.00 PKD
ROOT
HETATM    1  C   UNL     1     -10.423  14.910  67.957  1.00  0.00    -0.246 C  
HETATM    2  O   UNL     1     -11.680  14.234  67.979  1.00  0.00    -0.315 OA 
ENDROOT
BRANCH   2   3
HETATM    3  C   UNL     1     -12.058  13.651  69.163  1.00  0.00    -0.319 A  
HETATM    4  C   UNL     1     -12.248  14.386  70.345  1.00  0.00    -0.404 A  
HETATM    5  C   UNL     1     -12.573  13.753  71.548  1.00  0.00    -0.405 A  
HETATM    6  C   UNL     1     -12.737  12.375  71.587  1.00  0.00    -0.299 A  
HETATM    7  C   UNL     1     -12.571  11.633  70.424  1.00  0.00    -0.213 A  
HETATM    8  C   UNL     1     -12.236  12.252  69.209  1.00  0.00    -0.044 A  
BRANCH   8   9
HETATM    9  O   UNL     1     -12.053  11.324  68.204  1.00  0.00    -0.635 OA 
BRANCH   9  10
HETATM   10  C   UNL     1     -10.876  11.210  67.537  1.00  0.00    -0.254 A  
HETATM   11  C   UNL     1      -9.636  10.943  68.072  1.00  0.00    -0.162 A  
HETATM   12  N   UNL     1      -8.524  10.756  67.350  1.00  0.00    -0.119 NA 
HETATM   13  N   UNL     1      -9.789  11.229  65.388  1.00  0.00    -0.226 NA 
HETATM   14  C   UNL     1      -8.652  10.861  66.010  1.00  0.00    -0.177 A  
HETATM   15  C   UNL     1     -10.868  11.418  66.167  1.00  0.00    -0.255 A  
BRANCH  11  16
HETATM   16  N   UNL     1      -9.333  10.816  69.449  1.00  0.00    -0.415 N  
HETATM   17  H   UNL     1      -9.786  11.425  70.131  1.00  0.00     0.000 HD 
BRANCH  16  18
HETATM   18  S   UNL     1      -8.229   9.663  69.955  1.00  0.00    -0.187 S  
HETATM   19  O   UNL     1      -6.894  10.105  69.593  1.00  0.00    -0.062 OA 
HETATM   20  O   UNL     1      -8.554   9.376  71.339  1.00  0.00    -0.292 OA 
BRANCH  18  21
HETATM   21  C   UNL     1      -8.565   8.197  69.011  1.00  0.00    -0.133 A  
HETATM   22  C   UNL     1      -9.025   5.867  67.486  1.00  0.00    -0.107 A  
HETATM   23  C   UNL     1      -7.503   7.555  68.378  1.00  0.00    -0.108 A  
HETATM   24  C   UNL     1      -7.735   6.407  67.622  1.00  0.00    -0.102 A  
HETATM   25  C   UNL     1     -10.071   6.497  68.193  1.00  0.00    -0.170 A  
HETATM   26  C   UNL     1      -9.847   7.653  68.956  1.00  0.00    -0.168 A  
BRANCH  22  27
HETATM   27  C   UNL     1      -9.301   4.661  66.567  1.00  0.00    -0.151 C  
HETATM   28  C   UNL     1      -9.363   3.316  67.329  1.00  0.00    -0.229 C  
HETATM   29  C   UNL     1      -8.165   4.538  65.529  1.00  0.00    -0.110 C  
HETATM   30  C   UNL     1     -10.644   4.831  65.831  1.00  0.00    -0.290 C  
ENDBRANCH  22  27
ENDBRANCH  18  21
ENDBRANCH  16  18
ENDBRANCH  11  16
BRANCH  14  31
HETATM   31  C   UNL     1      -7.493  10.457  65.172  1.00  0.00    -0.093 A  
HETATM   32  N   UNL     1      -6.268  10.447  65.751  1.00  0.00    -0.112 NA 
HETATM   33  N   UNL     1      -7.710  10.200  63.859  1.00  0.00    -0.152 NA 
HETATM   34  C   UNL     1      -6.629   9.910  63.116  1.00  0.00    -0.126 A  
HETATM   35  C   UNL     1      -5.225  10.161  64.954  1.00  0.00    -0.085 A  
HETATM   36  C   UNL     1      -5.348   9.879  63.616  1.00  0.00    -0.092 A  
ENDBRANCH  14  31
BRANCH  15  37
HETATM   37  O   UNL     1     -12.033  11.871  65.575  1.00  0.00    -0.399 OA 
BRANCH  37  38
HETATM   38  C   UNL     1     -11.942  13.123  64.884  1.00  0.00    -0.388 C  
BRANCH  38  39
HETATM   39  C   UNL     1     -12.026  12.908  63.377  1.00  0.00    -0.537 C  
HETATM   40  O   UNL     1     -12.269  11.537  63.077  1.00  0.00    -0.968 OA 
HETATM   41  H   UNL     1     -12.322  11.403  62.137  1.00  0.00     0.000 HD 
ENDBRANCH  38  39
ENDBRANCH  37  38
ENDBRANCH  15  37
ENDBRANCH   9  10
ENDBRANCH   8   9
ENDBRANCH   2   3
TORSDOF 11
ENDMDL
MODEL       68
REMARK 921   NORMALIZED FREE ENERGY PREDICTED BY IDOCK:   -5.26 KCAL/MOL
REMARK 922        TOTAL FREE ENERGY PREDICTED BY IDOCK:  -11.10 KCAL/MOL
REMARK 923 INTER-LIGAND FREE ENERGY PREDICTED BY IDOCK:   -9.66 KCAL/MOL
REMARK 924 INTRA-LIGAND FREE ENERGY PREDICTED BY IDOCK:   -1.44 KCAL/MOL
REMARK 927      BINDING AFFINITY PREDICTED BY RF-SCORE:    0.00 PKD
ROOT
HETATM    1  C   UNL     1      -8.918   9.788  62.342  1.00  0.00    -0.274 C  
HETATM    2  O   UNL     1      -7.872   9.558  63.287  1.00  0.00    -0.126 OA 
ENDROOT
BRANCH   2   3
HETATM    3  C   UNL     1      -8.152   8.728  64.344  1.00  0.00    -0.155 A  
HETATM    4  C   UNL     1      -8.177   7.328  64.225  1.00  0.00     0.025 A  
HETATM    5  C   UNL     1      -8.527   6.515  65.307  1.00  0.00    -0.091 A  
HETATM    6  C   UNL     1      -8.836   7.084  66.534  1.00  0.00    -0.151 A  
HETATM    7  C   UNL     1      -8.801   8.467  66.676  1.00  0.00    -0.164 A  
HETATM    8  C   UNL     1      -8.459   9.299  65.597  1.00  0.00    -0.139 A  
BRANCH   8   9
HETATM    9  O   UNL     1      -8.553  10.632  65.940  1.00  0.00    -0.161 OA 
BRANCH   9  10
HETATM   10  C   UNL     1      -9.434  11.073  66.874  1.00  0.00    -0.177 A  
HETATM   11  C   UNL     1     -10.777  11.325  66.702  1.00  0.00    -0.272 A  
HETATM   12  N   UNL     1     -11.614  11.675  67.687  1.00  0.00    -0.508 NA 
HETATM   13  N   UNL     1      -9.757  11.693  69.178  1.00  0.00     0.096 NA 
HETATM   14  C   UNL     1     -11.075  11.803  68.918  1.00  0.00    -0.243 A  
HETATM   15  C   UNL     1      -8.965  11.354  68.147  1.00  0.00    -0.169 A  
BRANCH  11  16
HETATM   16  N   UNL     1     -11.489  11.248  65.481  1.00  0.00     0.089 N  
HETATM   17  H   UNL     1     -11.651  10.343  65.038  1.00  0.00     0.000 HD 
BRANCH  16  18
HETATM   18  S   UNL     1     -12.064  12.648  64.764  1.00  0.00    -0.455 S  
HETATM   19  O   UNL     1     -11.610  12.687  63.385  1.00  0.00    -0.490 OA 
HETATM   20  O   UNL     1     -13.480  12.703  65.068  1.00  0.00    -0.503 OA 
BRANCH  18  21
HETATM   21  C   UNL     1     -11.282  14.002  65.607  1.00  0.00    -0.310 A  
HETATM   22  C   UNL     1     -10.104  16.159  66.994  1.00  0.00    -0.270 A  
HETATM   23  C   UNL     1     -11.892  14.516  66.749  1.00  0.00    -0.390 A  
HETATM   24  C   UNL     1     -11.309  15.584  67.429  1.00  0.00    -0.203 A  
HETATM   25  C   UNL     1      -9.472  15.575  65.874  1.00  0.00    -0.377 A  
HETATM   26  C   UNL     1     -10.052  14.500  65.184  1.00  0.00    -0.361 A  
BRANCH  22  27
HETATM   27  C   UNL     1      -9.512  17.405  67.679  1.00  0.00    -0.251 C  
HETATM   28  C   UNL     1     -10.210  17.754  69.016  1.00  0.00    -0.290 C  
HETATM   29  C   UNL     1      -9.679  18.628  66.752  1.00  0.00    -0.348 C  
HETATM   30  C   UNL     1      -8.015  17.202  67.986  1.00  0.00    -0.212 C  
ENDBRANCH  22  27
ENDBRANCH  18  21
ENDBRANCH  16  18
ENDBRANCH  11  16
BRANCH  14  31
HETATM   31  C   UNL     1     -12.003  11.986  70.063  1.00  0.00    -0.324 A  
HETATM   32  N   UNL     1     -12.253  13.251  70.478  1.00  0.00    -0.364 NA 
HETATM   33  N   UNL     1     -12.484  10.879  70.682  1.00  0.00    -0.350 NA 
HETATM   34  C   UNL     1     -13.261  11.083  71.759  1.00  0.00    -0.400 A  
HETATM   35  C   UNL     1     -13.027  13.390  71.567  1.00  0.00    -0.341 A  
HETATM   36  C   UNL     1     -13.567  12.329  72.253  1.00  0.00    -0.299 A  
ENDBRANCH  14  31
BRANCH  15  37
HETATM   37  O   UNL     1      -7.599  11.307  68.357  1.00  0.00    -0.105 OA 
BRANCH  37  38
HETATM   38  C   UNL     1      -7.170  10.659  69.562  1.00  0.00    -0.140 C  
BRANCH  38  39
HETATM   39  C   UNL     1      -5.918  11.334  70.112  1.00  0.00    -0.141 C  
HETATM   40  O   UNL     1      -5.643  10.883  71.435  1.00  0.00    -0.317 OA 
HETATM   41  H   UNL     1      -4.863  11.303  71.778  1.00  0.00     0.000 HD 
ENDBRANCH  38  39
ENDBRANCH  37  38
ENDBRANCH  15  37
ENDBRANCH   9  10
ENDBRANCH   8   9
ENDBRANCH   2   3
TORSDOF 11
ENDMDL
MODEL       69
REMARK 921   NORMALIZED FREE ENERGY PREDICTED BY IDOCK:   -5.25 KCAL/MOL
REMARK 922        TOTAL FREE ENERGY PREDICTED BY IDOCK:  -11.09 KCAL/MOL
REMARK 923 INTER-LIGAND FREE ENERGY PREDICTED BY IDOCK:   -8.67 KCAL/MOL
REMARK 924 INTRA-LIGAND FREE ENERGY PREDICTED BY IDOCK:   -2.42 KCAL/MOL
REMARK 927      BINDING AFFINITY PREDICTED BY RF-SCORE:    0.00 PKD
ROOT
HETATM    1  C   UNL     1     -10.686   5.506  67.230  1.00  0.00    -0.159 C  
HETATM    2  O   UNL     1     -10.215   6.835  67.455  1.00  0.00    -0.156 OA 
ENDROOT
BRANCH   2   3
HETATM    3  C   UNL     1      -9.443   7.403  66.472  1.00  0.00    -0.172 A  
HETATM    4  C   UNL     1      -8.426   6.699  65.805  1.00  0.00    -0.150 A  
HETATM    5  C   UNL     1      -7.616   7.325  64.852  1.00  0.00    -0.102 A  
HETATM    6  C   UNL     1      -7.823   8.659  64.533  1.00  0.00    -0.132 A  
HETATM    7  C   UNL     1      -8.835   9.367  65.170  1.00  0.00    -0.233 A  
HETATM    8  C   UNL     1      -9.652   8.756  66.135  1.00  0.00    -0.253 A  
BRANCH   8   9
HETATM    9  O   UNL     1     -10.542   9.656  66.686  1.00  0.00    -0.189 OA 
BRANCH   9  10
HETATM   10  C   UNL     1     -10.167  10.913  67.037  1.00  0.00    -0.214 A  
HETATM   11  C   UNL     1      -9.579  11.309  68.217  1.00  0.00    -0.193 A  
HETATM   12  N   UNL     1      -9.151  12.553  68.469  1.00  0.00    -0.120 NA 
HETATM   13  N   UNL     1     -10.004  13.214  66.346  1.00  0.00    -0.276 NA 
HETATM   14  C   UNL     1      -9.340  13.464  67.492  1.00  0.00    -0.218 A  
HETATM   15  C   UNL     1     -10.422  11.951  66.155  1.00  0.00    -0.237 A  
BRANCH  11  16
HETATM   16  N   UNL     1      -9.324  10.484  69.339  1.00  0.00    -0.363 N  
HETATM   17  H   UNL     1     -10.040  10.357  70.054  1.00  0.00     0.000 HD 
BRANCH  16  18
HETATM   18  S   UNL     1      -7.842   9.718  69.488  1.00  0.00    -0.146 S  
HETATM   19  O   UNL     1      -7.184   9.718  68.193  1.00  0.00    -0.078 OA 
HETATM   20  O   UNL     1      -7.193  10.320  70.637  1.00  0.00    -0.306 OA 
BRANCH  18  21
HETATM   21  C   UNL     1      -8.190   8.025  69.895  1.00  0.00    -0.119 A  
HETATM   22  C   UNL     1      -8.803   5.359  70.588  1.00  0.00    -0.145 A  
HETATM   23  C   UNL     1      -9.324   7.743  70.654  1.00  0.00    -0.162 A  
HETATM   24  C   UNL     1      -9.621   6.425  70.998  1.00  0.00    -0.188 A  
HETATM   25  C   UNL     1      -7.699   5.666  69.763  1.00  0.00    -0.079 A  
HETATM   26  C   UNL     1      -7.393   6.989  69.412  1.00  0.00    -0.091 A  
BRANCH  22  27
HETATM   27  C   UNL     1      -9.068   3.914  71.054  1.00  0.00    -0.184 C  
HETATM   28  C   UNL     1     -10.264   3.799  72.030  1.00  0.00    -0.157 C  
HETATM   29  C   UNL     1      -7.827   3.380  71.800  1.00  0.00    -0.058 C  
HETATM   30  C   UNL     1      -9.370   2.998  69.852  1.00  0.00    -0.221 C  
ENDBRANCH  22  27
ENDBRANCH  18  21
ENDBRANCH  16  18
ENDBRANCH  11  16
BRANCH  14  31
HETATM   31  C   UNL     1      -8.696  14.794  67.652  1.00  0.00    -0.178 A  
HETATM   32  N   UNL     1      -8.666  15.615  66.575  1.00  0.00    -0.285 NA 
HETATM   33  N   UNL     1      -8.105  15.081  68.838  1.00  0.00    -0.165 NA 
HETATM   34  C   UNL     1      -7.470  16.262  68.922  1.00  0.00    -0.209 A  
HETATM   35  C   UNL     1      -8.005  16.776  66.717  1.00  0.00    -0.240 A  
HETATM   36  C   UNL     1      -7.384  17.157  67.882  1.00  0.00    -0.185 A  
ENDBRANCH  14  31
BRANCH  15  37
HETATM   37  O   UNL     1     -11.174  11.672  65.029  1.00  0.00    -0.283 OA 
BRANCH  37  38
HETATM   38  C   UNL     1     -12.294  12.533  64.790  1.00  0.00    -0.474 C  
BRANCH  38  39
HETATM   39  C   UNL     1     -12.249  13.086  63.369  1.00  0.00    -0.472 C  
HETATM   40  O   UNL     1     -12.508  14.486  63.366  1.00  0.00    -1.080 OA 
HETATM   41  H   UNL     1     -12.479  14.831  62.481  1.00  0.00     0.000 HD 
ENDBRANCH  38  39
ENDBRANCH  37  38
ENDBRANCH  15  37
ENDBRANCH   9  10
ENDBRANCH   8   9
ENDBRANCH   2   3
TORSDOF 11
ENDMDL
MODEL       70
REMARK 921   NORMALIZED FREE ENERGY PREDICTED BY IDOCK:   -5.24 KCAL/MOL
REMARK 922        TOTAL FREE ENERGY PREDICTED BY IDOCK:  -11.07 KCAL/MOL
REMARK 923 INTER-LIGAND FREE ENERGY PREDICTED BY IDOCK:   -9.68 KCAL/MOL
REMARK 924 INTRA-LIGAND FREE ENERGY PREDICTED BY IDOCK:   -1.38 KCAL/MOL
REMARK 927      BINDING AFFINITY PREDICTED BY RF-SCORE:    0.00 PKD
ROOT
HETATM    1  C   UNL     1      -8.267   7.437  62.358  1.00  0.00    -0.084 C  
HETATM    2  O   UNL     1      -8.428   8.835  62.597  1.00  0.00    -0.199 OA 
ENDROOT
BRANCH   2   3
HETATM    3  C   UNL     1      -7.562   9.424  63.484  1.00  0.00    -0.115 A  
HETATM    4  C   UNL     1      -6.182   9.531  63.240  1.00  0.00    -0.099 A  
HETATM    5  C   UNL     1      -5.318  10.081  64.192  1.00  0.00    -0.097 A  
HETATM    6  C   UNL     1      -5.820  10.556  65.395  1.00  0.00    -0.134 A  
HETATM    7  C   UNL     1      -7.185  10.474  65.647  1.00  0.00    -0.124 A  
HETATM    8  C   UNL     1      -8.065   9.917  64.706  1.00  0.00    -0.151 A  
BRANCH   8   9
HETATM    9  O   UNL     1      -9.358   9.875  65.187  1.00  0.00    -0.218 OA 
BRANCH   9  10
HETATM   10  C   UNL     1      -9.634   9.546  66.475  1.00  0.00    -0.201 A  
HETATM   11  C   UNL     1      -9.883  10.407  67.521  1.00  0.00    -0.172 A  
HETATM   12  N   UNL     1     -10.236  10.019  68.753  1.00  0.00    -0.177 NA 
HETATM   13  N   UNL     1      -9.997   7.757  68.046  1.00  0.00    -0.168 NA 
HETATM   14  C   UNL     1     -10.327   8.689  68.962  1.00  0.00    -0.213 A  
HETATM   15  C   UNL     1      -9.635   8.208  66.832  1.00  0.00    -0.208 A  
BRANCH  11  16
HETATM   16  N   UNL     1      -9.817  11.820  67.470  1.00  0.00    -0.184 N  
HETATM   17  H   UNL     1      -8.949  12.301  67.704  1.00  0.00     0.000 HD 
BRANCH  16  18
HETATM   18  S   UNL     1     -11.171  12.700  67.026  1.00  0.00    -0.319 S  
HETATM   19  O   UNL     1     -11.545  12.329  65.672  1.00  0.00    -0.359 OA 
HETATM   20  O   UNL     1     -12.120  12.552  68.112  1.00  0.00    -0.307 OA 
BRANCH  18  21
HETATM   21  C   UNL     1     -10.671  14.403  66.979  1.00  0.00    -0.285 A  
HETATM   22  C   UNL     1      -9.898  17.118  66.980  1.00  0.00    -0.276 A  
HETATM   23  C   UNL     1     -10.686  15.134  68.165  1.00  0.00    -0.254 A  
HETATM   24  C   UNL     1     -10.307  16.475  68.161  1.00  0.00    -0.296 A  
HETATM   25  C   UNL     1      -9.827  16.337  65.807  1.00  0.00    -0.332 A  
HETATM   26  C   UNL     1     -10.206  14.986  65.802  1.00  0.00    -0.361 A  
BRANCH  22  27
HETATM   27  C   UNL     1      -9.581  18.625  66.952  1.00  0.00    -0.324 C  
HETATM   28  C   UNL     1      -9.928  19.346  68.277  1.00  0.00    -0.516 C  
HETATM   29  C   UNL     1     -10.411  19.302  65.840  1.00  0.00    -0.534 C  
HETATM   30  C   UNL     1      -8.082  18.864  66.681  1.00  0.00    -0.290 C  
ENDBRANCH  22  27
ENDBRANCH  18  21
ENDBRANCH  16  18
ENDBRANCH  11  16
BRANCH  14  31
HETATM   31  C   UNL     1     -10.914   8.230  70.248  1.00  0.00    -0.232 A  
HETATM   32  N   UNL     1     -10.482   8.823  71.387  1.00  0.00    -0.257 NA 
HETATM   33  N   UNL     1     -11.786   7.192  70.221  1.00  0.00    -0.228 NA 
HETATM   34  C   UNL     1     -12.239   6.757  71.409  1.00  0.00    -0.363 A  
HETATM   35  C   UNL     1     -10.962   8.336  72.543  1.00  0.00    -0.354 A  
HETATM   36  C   UNL     1     -11.854   7.294  72.614  1.00  0.00    -0.135 A  
ENDBRANCH  14  31
BRANCH  15  37
HETATM   37  O   UNL     1      -9.215   7.287  65.890  1.00  0.00    -0.087 OA 
BRANCH  37  38
HETATM   38  C   UNL     1      -8.661   6.069  66.403  1.00  0.00    -0.133 C  
BRANCH  38  39
HETATM   39  C   UNL     1      -9.692   4.947  66.340  1.00  0.00    -0.189 C  
HETATM   40  O   UNL     1     -10.976   5.461  66.002  1.00  0.00    -0.712 OA 
HETATM   41  H   UNL     1     -11.619   4.762  65.963  1.00  0.00     0.000 HD 
ENDBRANCH  38  39
ENDBRANCH  37  38
ENDBRANCH  15  37
ENDBRANCH   9  10
ENDBRANCH   8   9
ENDBRANCH   2   3
TORSDOF 11
ENDMDL
MODEL       71
REMARK 921   NORMALIZED FREE ENERGY PREDICTED BY IDOCK:   -5.24 KCAL/MOL
REMARK 922        TOTAL FREE ENERGY PREDICTED BY IDOCK:  -11.07 KCAL/MOL
REMARK 923 INTER-LIGAND FREE ENERGY PREDICTED BY IDOCK:   -8.87 KCAL/MOL
REMARK 924 INTRA-LIGAND FREE ENERGY PREDICTED BY IDOCK:   -2.20 KCAL/MOL
REMARK 927      BINDING AFFINITY PREDICTED BY RF-SCORE:    0.00 PKD
ROOT
HETATM    1  C   UNL     1     -13.418   8.756  72.443  1.00  0.00    -0.401 C  
HETATM    2  O   UNL     1     -12.621   7.601  72.181  1.00  0.00    -0.271 OA 
ENDROOT
BRANCH   2   3
HETATM    3  C   UNL     1     -11.267   7.789  72.048  1.00  0.00    -0.278 A  
HETATM    4  C   UNL     1     -10.418   7.994  73.148  1.00  0.00    -0.252 A  
HETATM    5  C   UNL     1      -9.053   8.244  72.974  1.00  0.00    -0.319 A  
HETATM    6  C   UNL     1      -8.509   8.272  71.697  1.00  0.00    -0.193 A  
HETATM    7  C   UNL     1      -9.331   8.055  70.598  1.00  0.00    -0.162 A  
HETATM    8  C   UNL     1     -10.705   7.811  70.755  1.00  0.00    -0.226 A  
BRANCH   8   9
HETATM    9  O   UNL     1     -11.339   7.692  69.535  1.00  0.00    -0.005 OA 
BRANCH   9  10
HETATM   10  C   UNL     1     -10.665   7.353  68.406  1.00  0.00    -0.096 A  
HETATM   11  C   UNL     1     -10.385   8.162  67.326  1.00  0.00    -0.303 A  
HETATM   12  N   UNL     1      -9.638   7.793  66.278  1.00  0.00    -0.155 NA 
HETATM   13  N   UNL     1      -9.460   5.623  67.242  1.00  0.00    -0.113 NA 
HETATM   14  C   UNL     1      -9.156   6.533  66.295  1.00  0.00    -0.148 A  
HETATM   15  C   UNL     1     -10.226   6.047  68.262  1.00  0.00    -0.181 A  
BRANCH  11  16
HETATM   16  N   UNL     1     -10.824   9.496  67.150  1.00  0.00    -0.262 N  
HETATM   17  H   UNL     1     -11.745   9.684  66.753  1.00  0.00     0.000 HD 
BRANCH  16  18
HETATM   18  S   UNL     1      -9.827  10.765  67.595  1.00  0.00    -0.173 S  
HETATM   19  O   UNL     1      -8.685  10.231  68.315  1.00  0.00    -0.121 OA 
HETATM   20  O   UNL     1      -9.629  11.559  66.397  1.00  0.00    -0.198 OA 
BRANCH  18  21
HETATM   21  C   UNL     1     -10.752  11.752  68.745  1.00  0.00    -0.221 A  
HETATM   22  C   UNL     1     -12.194  13.387  70.538  1.00  0.00    -0.425 A  
HETATM   23  C   UNL     1     -10.780  13.134  68.564  1.00  0.00    -0.277 A  
HETATM   24  C   UNL     1     -11.490  13.937  69.454  1.00  0.00    -0.334 A  
HETATM   25  C   UNL     1     -12.205  11.980  70.658  1.00  0.00    -0.409 A  
HETATM   26  C   UNL     1     -11.494  11.163  69.767  1.00  0.00    -0.388 A  
BRANCH  22  27
HETATM   27  C   UNL     1     -12.891  14.278  71.584  1.00  0.00    -0.424 C  
HETATM   28  C   UNL     1     -11.898  15.031  72.502  1.00  0.00    -0.420 C  
HETATM   29  C   UNL     1     -13.774  13.402  72.498  1.00  0.00    -0.636 C  
HETATM   30  C   UNL     1     -13.772  15.340  70.896  1.00  0.00    -0.363 C  
ENDBRANCH  22  27
ENDBRANCH  18  21
ENDBRANCH  16  18
ENDBRANCH  11  16
BRANCH  14  31
HETATM   31  C   UNL     1      -8.160   6.160  65.258  1.00  0.00    -0.132 A  
HETATM   32  N   UNL     1      -8.262   4.930  64.699  1.00  0.00    -0.118 NA 
HETATM   33  N   UNL     1      -7.159   7.032  64.987  1.00  0.00    -0.061 NA 
HETATM   34  C   UNL     1      -6.235   6.630  64.098  1.00  0.00    -0.035 A  
HETATM   35  C   UNL     1      -7.302   4.580  63.826  1.00  0.00    -0.054 A  
HETATM   36  C   UNL     1      -6.255   5.401  63.482  1.00  0.00    -0.022 A  
ENDBRANCH  14  31
BRANCH  15  37
HETATM   37  O   UNL     1     -10.622   5.124  69.212  1.00  0.00    -0.192 OA 
BRANCH  37  38
HETATM   38  C   UNL     1      -9.652   4.130  69.568  1.00  0.00    -0.204 C  
BRANCH  38  39
HETATM   39  C   UNL     1      -8.982   4.488  70.890  1.00  0.00    -0.119 C  
HETATM   40  O   UNL     1      -9.930   4.487  71.952  1.00  0.00    -0.177 OA 
HETATM   41  H   UNL     1      -9.513   4.710  72.776  1.00  0.00     0.000 HD 
ENDBRANCH  38  39
ENDBRANCH  37  38
ENDBRANCH  15  37
ENDBRANCH   9  10
ENDBRANCH   8   9
ENDBRANCH   2   3
TORSDOF 11
ENDMDL
MODEL       72
REMARK 921   NORMALIZED FREE ENERGY PREDICTED BY IDOCK:   -5.24 KCAL/MOL
REMARK 922        TOTAL FREE ENERGY PREDICTED BY IDOCK:  -11.06 KCAL/MOL
REMARK 923 INTER-LIGAND FREE ENERGY PREDICTED BY IDOCK:  -10.47 KCAL/MOL
REMARK 924 INTRA-LIGAND FREE ENERGY PREDICTED BY IDOCK:   -0.59 KCAL/MOL
REMARK 927      BINDING AFFINITY PREDICTED BY RF-SCORE:    0.00 PKD
ROOT
HETATM    1  C   UNL     1     -10.736  16.298  69.036  1.00  0.00    -0.300 C  
HETATM    2  O   UNL     1     -12.039  15.714  69.012  1.00  0.00    -0.337 OA 
ENDROOT
BRANCH   2   3
HETATM    3  C   UNL     1     -12.222  14.558  69.730  1.00  0.00    -0.312 A  
HETATM    4  C   UNL     1     -12.985  14.509  70.909  1.00  0.00    -0.424 A  
HETATM    5  C   UNL     1     -13.100  13.328  71.649  1.00  0.00    -0.453 A  
HETATM    6  C   UNL     1     -12.474  12.170  71.213  1.00  0.00    -0.290 A  
HETATM    7  C   UNL     1     -11.729  12.195  70.040  1.00  0.00    -0.330 A  
HETATM    8  C   UNL     1     -11.596  13.373  69.288  1.00  0.00    -0.310 A  
BRANCH   8   9
HETATM    9  O   UNL     1     -10.762  13.189  68.204  1.00  0.00    -0.229 OA 
BRANCH   9  10
HETATM   10  C   UNL     1     -10.424  11.952  67.761  1.00  0.00    -0.202 A  
HETATM   11  C   UNL     1      -9.403  11.150  68.221  1.00  0.00    -0.176 A  
HETATM   12  N   UNL     1      -9.175   9.899  67.800  1.00  0.00    -0.131 NA 
HETATM   13  N   UNL     1     -10.960  10.159  66.245  1.00  0.00     0.138 NA 
HETATM   14  C   UNL     1     -10.003   9.424  66.846  1.00  0.00    -0.229 A  
HETATM   15  C   UNL     1     -11.132  11.412  66.699  1.00  0.00    -0.271 A  
BRANCH  11  16
HETATM   16  N   UNL     1      -8.447  11.501  69.203  1.00  0.00    -0.370 N  
HETATM   17  H   UNL     1      -8.468  12.427  69.631  1.00  0.00     0.000 HD 
BRANCH  16  18
HETATM   18  S   UNL     1      -7.279  10.392  69.661  1.00  0.00    -0.155 S  
HETATM   19  O   UNL     1      -6.601   9.910  68.470  1.00  0.00    -0.054 OA 
HETATM   20  O   UNL     1      -6.523  11.020  70.727  1.00  0.00    -0.316 OA 
BRANCH  18  21
HETATM   21  C   UNL     1      -8.145   9.009  70.361  1.00  0.00    -0.143 A  
HETATM   22  C   UNL     1      -9.567   6.862  71.516  1.00  0.00    -0.162 A  
HETATM   23  C   UNL     1      -9.263   9.257  71.155  1.00  0.00    -0.225 A  
HETATM   24  C   UNL     1      -9.960   8.194  71.727  1.00  0.00    -0.264 A  
HETATM   25  C   UNL     1      -8.473   6.636  70.653  1.00  0.00    -0.138 A  
HETATM   26  C   UNL     1      -7.766   7.700  70.073  1.00  0.00    -0.092 A  
BRANCH  22  27
HETATM   27  C   UNL     1     -10.270   5.692  72.231  1.00  0.00    -0.241 C  
HETATM   28  C   UNL     1      -9.829   5.524  73.705  1.00  0.00    -0.174 C  
HETATM   29  C   UNL     1      -9.931   4.371  71.507  1.00  0.00    -0.250 C  
HETATM   30  C   UNL     1     -11.799   5.890  72.232  1.00  0.00    -0.266 C  
ENDBRANCH  22  27
ENDBRANCH  18  21
ENDBRANCH  16  18
ENDBRANCH  11  16
BRANCH  14  31
HETATM   31  C   UNL     1      -9.911   7.981  66.506  1.00  0.00    -0.219 A  
HETATM   32  N   UNL     1     -10.874   7.157  66.986  1.00  0.00    -0.362 NA 
HETATM   33  N   UNL     1      -8.830   7.554  65.808  1.00  0.00    -0.133 NA 
HETATM   34  C   UNL     1      -8.744   6.232  65.583  1.00  0.00    -0.114 A  
HETATM   35  C   UNL     1     -10.726   5.845  66.739  1.00  0.00    -0.299 A  
HETATM   36  C   UNL     1      -9.670   5.321  66.033  1.00  0.00    -0.159 A  
ENDBRANCH  14  31
BRANCH  15  37
HETATM   37  O   UNL     1     -12.051  12.222  66.057  1.00  0.00    -0.623 OA 
BRANCH  37  38
HETATM   38  C   UNL     1     -11.872  12.379  64.644  1.00  0.00    -0.380 C  
BRANCH  38  39
HETATM   39  C   UNL     1     -12.121  13.827  64.233  1.00  0.00    -0.440 C  
HETATM   40  O   UNL     1     -12.418  13.911  62.843  1.00  0.00    -1.034 OA 
HETATM   41  H   UNL     1     -12.574  14.813  62.586  1.00  0.00     0.000 HD 
ENDBRANCH  38  39
ENDBRANCH  37  38
ENDBRANCH  15  37
ENDBRANCH   9  10
ENDBRANCH   8   9
ENDBRANCH   2   3
TORSDOF 11
ENDMDL
MODEL       73
REMARK 921   NORMALIZED FREE ENERGY PREDICTED BY IDOCK:   -5.22 KCAL/MOL
REMARK 922        TOTAL FREE ENERGY PREDICTED BY IDOCK:  -11.03 KCAL/MOL
REMARK 923 INTER-LIGAND FREE ENERGY PREDICTED BY IDOCK:   -8.49 KCAL/MOL
REMARK 924 INTRA-LIGAND FREE ENERGY PREDICTED BY IDOCK:   -2.54 KCAL/MOL
REMARK 927      BINDING AFFINITY PREDICTED BY RF-SCORE:    0.00 PKD
ROOT
HETATM    1  C   UNL     1     -11.713  14.648  68.043  1.00  0.00    -0.342 C  
HETATM    2  O   UNL     1     -10.793  13.618  67.677  1.00  0.00    -0.252 OA 
ENDROOT
BRANCH   2   3
HETATM    3  C   UNL     1     -10.971  13.024  66.452  1.00  0.00    -0.281 A  
HETATM    4  C   UNL     1     -12.187  13.082  65.750  1.00  0.00    -0.511 A  
HETATM    5  C   UNL     1     -12.354  12.413  64.533  1.00  0.00    -0.519 A  
HETATM    6  C   UNL     1     -11.301  11.693  63.985  1.00  0.00    -0.428 A  
HETATM    7  C   UNL     1     -10.086  11.638  64.657  1.00  0.00    -0.305 A  
HETATM    8  C   UNL     1      -9.904  12.297  65.884  1.00  0.00    -0.251 A  
BRANCH   8   9
HETATM    9  O   UNL     1      -8.650  12.054  66.406  1.00  0.00    -0.145 OA 
BRANCH   9  10
HETATM   10  C   UNL     1      -8.330  10.869  66.984  1.00  0.00    -0.132 A  
HETATM   11  C   UNL     1      -8.751  10.396  68.207  1.00  0.00    -0.128 A  
HETATM   12  N   UNL     1      -8.470   9.177  68.685  1.00  0.00    -0.126 NA 
HETATM   13  N   UNL     1      -7.146   8.785  66.744  1.00  0.00    -0.080 NA 
HETATM   14  C   UNL     1      -7.705   8.386  67.904  1.00  0.00    -0.103 A  
HETATM   15  C   UNL     1      -7.453  10.024  66.323  1.00  0.00    -0.106 A  
BRANCH  11  16
HETATM   16  N   UNL     1      -9.543  11.101  69.145  1.00  0.00    -0.408 N  
HETATM   17  H   UNL     1      -9.183  11.949  69.584  1.00  0.00     0.000 HD 
BRANCH  16  18
HETATM   18  S   UNL     1     -11.072  10.539  69.531  1.00  0.00    -0.287 S  
HETATM   19  O   UNL     1     -11.701  11.483  70.439  1.00  0.00    -0.320 OA 
HETATM   20  O   UNL     1     -11.707  10.204  68.271  1.00  0.00    -0.178 OA 
BRANCH  18  21
HETATM   21  C   UNL     1     -10.839   9.027  70.432  1.00  0.00    -0.246 A  
HETATM   22  C   UNL     1     -10.509   6.585  71.809  1.00  0.00    -0.239 A  
HETATM   23  C   UNL     1     -11.235   7.831  69.838  1.00  0.00    -0.070 A  
HETATM   24  C   UNL     1     -11.074   6.627  70.523  1.00  0.00    -0.359 A  
HETATM   25  C   UNL     1     -10.054   7.803  72.359  1.00  0.00    -0.284 A  
HETATM   26  C   UNL     1     -10.212   9.019  71.677  1.00  0.00    -0.418 A  
BRANCH  22  27
HETATM   27  C   UNL     1     -10.427   5.272  72.610  1.00  0.00    -0.265 C  
HETATM   28  C   UNL     1      -9.810   4.104  71.803  1.00  0.00    -0.252 C  
HETATM   29  C   UNL     1     -11.848   4.833  73.022  1.00  0.00    -0.095 C  
HETATM   30  C   UNL     1      -9.567   5.456  73.876  1.00  0.00    -0.142 C  
ENDBRANCH  22  27
ENDBRANCH  18  21
ENDBRANCH  16  18
ENDBRANCH  11  16
BRANCH  14  31
HETATM   31  C   UNL     1      -7.548   6.964  68.304  1.00  0.00    -0.107 A  
HETATM   32  N   UNL     1      -7.708   6.017  67.348  1.00  0.00    -0.096 NA 
HETATM   33  N   UNL     1      -7.333   6.686  69.614  1.00  0.00    -0.081 NA 
HETATM   34  C   UNL     1      -7.270   5.386  69.950  1.00  0.00    -0.064 A  
HETATM   35  C   UNL     1      -7.646   4.736  67.748  1.00  0.00    -0.082 A  
HETATM   36  C   UNL     1      -7.424   4.358  69.050  1.00  0.00    -0.056 A  
ENDBRANCH  14  31
BRANCH  15  37
HETATM   37  O   UNL     1      -6.838  10.498  65.178  1.00  0.00    -0.112 OA 
BRANCH  37  38
HETATM   38  C   UNL     1      -6.564   9.525  64.163  1.00  0.00    -0.101 C  
BRANCH  38  39
HETATM   39  C   UNL     1      -7.785   9.325  63.271  1.00  0.00    -0.116 C  
HETATM   40  O   UNL     1      -8.584   8.247  63.746  1.00  0.00    -0.400 OA 
HETATM   41  H   UNL     1      -9.345   8.122  63.191  1.00  0.00     0.000 HD 
ENDBRANCH  38  39
ENDBRANCH  37  38
ENDBRANCH  15  37
ENDBRANCH   9  10
ENDBRANCH   8   9
ENDBRANCH   2   3
TORSDOF 11
ENDMDL
MODEL       74
REMARK 921   NORMALIZED FREE ENERGY PREDICTED BY IDOCK:   -5.21 KCAL/MOL
REMARK 922        TOTAL FREE ENERGY PREDICTED BY IDOCK:  -11.02 KCAL/MOL
REMARK 923 INTER-LIGAND FREE ENERGY PREDICTED BY IDOCK:  -10.35 KCAL/MOL
REMARK 924 INTRA-LIGAND FREE ENERGY PREDICTED BY IDOCK:   -0.66 KCAL/MOL
REMARK 927      BINDING AFFINITY PREDICTED BY RF-SCORE:    0.00 PKD
ROOT
HETATM    1  C   UNL     1      -9.133  15.429  66.983  1.00  0.00    -0.227 C  
HETATM    2  O   UNL     1     -10.346  14.709  67.205  1.00  0.00    -0.253 OA 
ENDROOT
BRANCH   2   3
HETATM    3  C   UNL     1     -10.882  14.756  68.469  1.00  0.00    -0.252 A  
HETATM    4  C   UNL     1     -10.873  15.922  69.254  1.00  0.00    -0.276 A  
HETATM    5  C   UNL     1     -11.371  15.919  70.560  1.00  0.00    -0.409 A  
HETATM    6  C   UNL     1     -11.908  14.758  71.098  1.00  0.00    -0.387 A  
HETATM    7  C   UNL     1     -11.941  13.600  70.330  1.00  0.00    -0.397 A  
HETATM    8  C   UNL     1     -11.437  13.583  69.019  1.00  0.00    -0.303 A  
BRANCH   8   9
HETATM    9  O   UNL     1     -11.508  12.319  68.469  1.00  0.00    -0.253 OA 
BRANCH   9  10
HETATM   10  C   UNL     1     -10.625  11.896  67.528  1.00  0.00    -0.219 A  
HETATM   11  C   UNL     1      -9.280  11.656  67.693  1.00  0.00    -0.178 A  
HETATM   12  N   UNL     1      -8.478  11.154  66.745  1.00  0.00    -0.147 NA 
HETATM   13  N   UNL     1     -10.325  11.195  65.243  1.00  0.00    -0.268 NA 
HETATM   14  C   UNL     1      -9.048  10.894  65.550  1.00  0.00    -0.201 A  
HETATM   15  C   UNL     1     -11.077  11.711  66.231  1.00  0.00    -0.290 A  
BRANCH  11  16
HETATM   16  N   UNL     1      -8.532  11.886  68.873  1.00  0.00    -0.368 N  
HETATM   17  H   UNL     1      -8.648  12.757  69.391  1.00  0.00     0.000 HD 
BRANCH  16  18
HETATM   18  S   UNL     1      -7.456  10.723  69.416  1.00  0.00    -0.094 S  
HETATM   19  O   UNL     1      -6.858  10.067  68.267  1.00  0.00    -0.062 OA 
HETATM   20  O   UNL     1      -6.617  11.381  70.400  1.00  0.00    -0.218 OA 
BRANCH  18  21
HETATM   21  C   UNL     1      -8.423   9.502  70.268  1.00  0.00    -0.207 A  
HETATM   22  C   UNL     1      -9.898   7.543  71.665  1.00  0.00    -0.185 A  
HETATM   23  C   UNL     1      -7.867   8.866  71.375  1.00  0.00    -0.141 A  
HETATM   24  C   UNL     1      -8.597   7.896  72.060  1.00  0.00    -0.173 A  
HETATM   25  C   UNL     1     -10.463   8.251  70.583  1.00  0.00    -0.224 A  
HETATM   26  C   UNL     1      -9.736   9.228  69.888  1.00  0.00    -0.220 A  
BRANCH  22  27
HETATM   27  C   UNL     1     -10.667   6.399  72.354  1.00  0.00    -0.255 C  
HETATM   28  C   UNL     1     -10.350   5.006  71.757  1.00  0.00    -0.268 C  
HETATM   29  C   UNL     1     -12.184   6.626  72.184  1.00  0.00    -0.269 C  
HETATM   30  C   UNL     1     -10.328   6.339  73.857  1.00  0.00    -0.318 C  
ENDBRANCH  22  27
ENDBRANCH  18  21
ENDBRANCH  16  18
ENDBRANCH  11  16
BRANCH  14  31
HETATM   31  C   UNL     1      -8.244  10.148  64.548  1.00  0.00    -0.162 A  
HETATM   32  N   UNL     1      -6.894  10.191  64.664  1.00  0.00    -0.130 NA 
HETATM   33  N   UNL     1      -8.896   9.535  63.530  1.00  0.00    -0.229 NA 
HETATM   34  C   UNL     1      -8.132   8.933  62.603  1.00  0.00    -0.164 A  
HETATM   35  C   UNL     1      -6.185   9.581  63.700  1.00  0.00    -0.098 A  
HETATM   36  C   UNL     1      -6.757   8.928  62.635  1.00  0.00    -0.094 A  
ENDBRANCH  14  31
BRANCH  15  37
HETATM   37  O   UNL     1     -12.369  12.104  65.935  1.00  0.00    -0.561 OA 
BRANCH  37  38
HETATM   38  C   UNL     1     -12.563  12.711  64.651  1.00  0.00    -0.440 C  
BRANCH  38  39
HETATM   39  C   UNL     1     -12.392  14.224  64.746  1.00  0.00    -0.426 C  
HETATM   40  O   UNL     1     -12.603  14.835  63.477  1.00  0.00    -0.990 OA 
HETATM   41  H   UNL     1     -12.496  15.777  63.536  1.00  0.00     0.000 HD 
ENDBRANCH  38  39
ENDBRANCH  37  38
ENDBRANCH  15  37
ENDBRANCH   9  10
ENDBRANCH   8   9
ENDBRANCH   2   3
TORSDOF 11
ENDMDL
MODEL       75
REMARK 921   NORMALIZED FREE ENERGY PREDICTED BY IDOCK:   -5.20 KCAL/MOL
REMARK 922        TOTAL FREE ENERGY PREDICTED BY IDOCK:  -11.00 KCAL/MOL
REMARK 923 INTER-LIGAND FREE ENERGY PREDICTED BY IDOCK:  -10.35 KCAL/MOL
REMARK 924 INTRA-LIGAND FREE ENERGY PREDICTED BY IDOCK:   -0.65 KCAL/MOL
REMARK 927      BINDING AFFINITY PREDICTED BY RF-SCORE:    0.00 PKD
ROOT
HETATM    1  C   UNL     1      -5.515  15.024  70.585  1.00  0.00    -0.137 C  
HETATM    2  O   UNL     1      -6.285  15.375  69.435  1.00  0.00    -0.114 OA 
ENDROOT
BRANCH   2   3
HETATM    3  C   UNL     1      -6.423  16.712  69.156  1.00  0.00    -0.200 A  
HETATM    4  C   UNL     1      -5.330  17.595  69.115  1.00  0.00    -0.178 A  
HETATM    5  C   UNL     1      -5.512  18.963  68.888  1.00  0.00    -0.202 A  
HETATM    6  C   UNL     1      -6.786  19.469  68.676  1.00  0.00    -0.343 A  
HETATM    7  C   UNL     1      -7.877  18.608  68.696  1.00  0.00    -0.349 A  
HETATM    8  C   UNL     1      -7.714  17.234  68.930  1.00  0.00    -0.221 A  
BRANCH   8   9
HETATM    9  O   UNL     1      -8.929  16.581  68.975  1.00  0.00    -0.257 OA 
BRANCH   9  10
HETATM   10  C   UNL     1      -9.346  15.771  67.969  1.00  0.00    -0.197 A  
HETATM   11  C   UNL     1      -9.124  14.418  67.839  1.00  0.00    -0.187 A  
HETATM   12  N   UNL     1      -9.638  13.656  66.866  1.00  0.00    -0.254 NA 
HETATM   13  N   UNL     1     -10.595  15.619  65.915  1.00  0.00    -0.329 NA 
HETATM   14  C   UNL     1     -10.405  14.285  65.950  1.00  0.00    -0.314 A  
HETATM   15  C   UNL     1     -10.042  16.333  66.911  1.00  0.00    -0.278 A  
BRANCH  11  16
HETATM   16  N   UNL     1      -8.338  13.618  68.702  1.00  0.00    -0.309 N  
HETATM   17  H   UNL     1      -8.060  13.971  69.618  1.00  0.00     0.000 HD 
BRANCH  16  18
HETATM   18  S   UNL     1      -7.863  12.087  68.214  1.00  0.00    -0.151 S  
HETATM   19  O   UNL     1      -8.240  11.903  66.824  1.00  0.00    -0.170 OA 
HETATM   20  O   UNL     1      -6.478  11.948  68.620  1.00  0.00    -0.054 OA 
BRANCH  18  21
HETATM   21  C   UNL     1      -8.819  10.936  69.170  1.00  0.00    -0.037 A  
HETATM   22  C   UNL     1     -10.272   9.073  70.713  1.00  0.00    -0.305 A  
HETATM   23  C   UNL     1      -8.151  10.072  70.035  1.00  0.00    -0.154 A  
HETATM   24  C   UNL     1      -8.872   9.151  70.792  1.00  0.00    -0.291 A  
HETATM   25  C   UNL     1     -10.929  10.004  69.881  1.00  0.00    -0.339 A  
HETATM   26  C   UNL     1     -10.212  10.935  69.115  1.00  0.00    -0.215 A  
BRANCH  22  27
HETATM   27  C   UNL     1     -11.063   7.986  71.468  1.00  0.00    -0.290 C  
HETATM   28  C   UNL     1     -12.384   8.509  72.080  1.00  0.00    -0.444 C  
HETATM   29  C   UNL     1     -10.208   7.449  72.636  1.00  0.00    -0.274 C  
HETATM   30  C   UNL     1     -11.425   6.820  70.527  1.00  0.00    -0.413 C  
ENDBRANCH  22  27
ENDBRANCH  18  21
ENDBRANCH  16  18
ENDBRANCH  11  16
BRANCH  14  31
HETATM   31  C   UNL     1     -11.156  13.445  64.983  1.00  0.00    -0.319 A  
HETATM   32  N   UNL     1     -12.492  13.313  65.165  1.00  0.00    -0.499 NA 
HETATM   33  N   UNL     1     -10.456  12.791  64.022  1.00  0.00    -0.420 NA 
HETATM   34  C   UNL     1     -11.159  11.983  63.212  1.00  0.00    -0.320 A  
HETATM   35  C   UNL     1     -13.138  12.482  64.330  1.00  0.00     0.007 A  
HETATM   36  C   UNL     1     -12.515  11.785  63.323  1.00  0.00    -0.411 A  
ENDBRANCH  14  31
BRANCH  15  37
HETATM   37  O   UNL     1     -10.150  17.711  66.867  1.00  0.00    -0.305 OA 
BRANCH  37  38
HETATM   38  C   UNL     1     -10.472  18.277  65.591  1.00  0.00    -0.095 C  
BRANCH  38  39
HETATM   39  C   UNL     1     -10.707  19.779  65.717  1.00  0.00    -0.370 C  
HETATM   40  O   UNL     1      -9.469  20.476  65.809  1.00  0.00    -0.614 OA 
HETATM   41  H   UNL     1      -9.615  21.412  65.888  1.00  0.00     0.000 HD 
ENDBRANCH  38  39
ENDBRANCH  37  38
ENDBRANCH  15  37
ENDBRANCH   9  10
ENDBRANCH   8   9
ENDBRANCH   2   3
TORSDOF 11
ENDMDL
MODEL       76
REMARK 921   NORMALIZED FREE ENERGY PREDICTED BY IDOCK:   -5.18 KCAL/MOL
REMARK 922        TOTAL FREE ENERGY PREDICTED BY IDOCK:  -10.98 KCAL/MOL
REMARK 923 INTER-LIGAND FREE ENERGY PREDICTED BY IDOCK:   -8.79 KCAL/MOL
REMARK 924 INTRA-LIGAND FREE ENERGY PREDICTED BY IDOCK:   -2.18 KCAL/MOL
REMARK 927      BINDING AFFINITY PREDICTED BY RF-SCORE:    0.00 PKD
ROOT
HETATM    1  C   UNL     1      -9.327  10.490  62.835  1.00  0.00    -0.326 C  
HETATM    2  O   UNL     1      -8.802  10.565  64.160  1.00  0.00    -0.184 OA 
ENDROOT
BRANCH   2   3
HETATM    3  C   UNL     1      -8.550   9.379  64.804  1.00  0.00    -0.180 A  
HETATM    4  C   UNL     1      -8.053   8.245  64.139  1.00  0.00    -0.136 A  
HETATM    5  C   UNL     1      -7.866   7.033  64.813  1.00  0.00    -0.126 A  
HETATM    6  C   UNL     1      -8.151   6.940  66.168  1.00  0.00    -0.115 A  
HETATM    7  C   UNL     1      -8.628   8.055  66.846  1.00  0.00    -0.130 A  
HETATM    8  C   UNL     1      -8.829   9.277  66.183  1.00  0.00    -0.155 A  
BRANCH   8   9
HETATM    9  O   UNL     1      -9.369  10.226  67.028  1.00  0.00    -0.151 OA 
BRANCH   9  10
HETATM   10  C   UNL     1      -8.730  11.392  67.299  1.00  0.00    -0.148 A  
HETATM   11  C   UNL     1      -8.927  12.613  66.693  1.00  0.00    -0.164 A  
HETATM   12  N   UNL     1      -8.325  13.750  67.066  1.00  0.00    -0.141 NA 
HETATM   13  N   UNL     1      -7.104  12.502  68.687  1.00  0.00    -0.096 NA 
HETATM   14  C   UNL     1      -7.457  13.661  68.096  1.00  0.00    -0.125 A  
HETATM   15  C   UNL     1      -7.731  11.393  68.259  1.00  0.00    -0.124 A  
BRANCH  11  16
HETATM   16  N   UNL     1      -9.787  12.870  65.599  1.00  0.00    -0.409 N  
HETATM   17  H   UNL     1      -9.401  13.152  64.698  1.00  0.00     0.000 HD 
BRANCH  16  18
HETATM   18  S   UNL     1     -11.444  12.709  65.788  1.00  0.00    -0.378 S  
HETATM   19  O   UNL     1     -12.108  13.647  64.900  1.00  0.00    -0.362 OA 
HETATM   20  O   UNL     1     -11.723  11.290  65.693  1.00  0.00    -0.017 OA 
BRANCH  18  21
HETATM   21  C   UNL     1     -11.811  13.218  67.449  1.00  0.00    -0.366 A  
HETATM   22  C   UNL     1     -12.396  13.950  70.112  1.00  0.00    -0.400 A  
HETATM   23  C   UNL     1     -11.808  12.254  68.456  1.00  0.00    -0.359 A  
HETATM   24  C   UNL     1     -12.101  12.619  69.769  1.00  0.00    -0.301 A  
HETATM   25  C   UNL     1     -12.325  14.916  69.085  1.00  0.00    -0.098 A  
HETATM   26  C   UNL     1     -12.031  14.558  67.761  1.00  0.00    -0.345 A  
BRANCH  22  27
HETATM   27  C   UNL     1     -12.823  14.338  71.540  1.00  0.00    -0.419 C  
HETATM   28  C   UNL     1     -13.420  13.155  72.340  1.00  0.00    -0.643 C  
HETATM   29  C   UNL     1     -13.912  15.430  71.471  1.00  0.00    -0.601 C  
HETATM   30  C   UNL     1     -11.621  14.872  72.345  1.00  0.00    -0.245 C  
ENDBRANCH  22  27
ENDBRANCH  18  21
ENDBRANCH  16  18
ENDBRANCH  11  16
BRANCH  14  31
HETATM   31  C   UNL     1      -6.933  14.928  68.668  1.00  0.00    -0.108 A  
HETATM   32  N   UNL     1      -6.231  14.855  69.825  1.00  0.00    -0.132 NA 
HETATM   33  N   UNL     1      -7.251  16.092  68.050  1.00  0.00    -0.125 NA 
HETATM   34  C   UNL     1      -6.822  17.221  68.637  1.00  0.00    -0.207 A  
HETATM   35  C   UNL     1      -5.839  16.019  70.370  1.00  0.00    -0.061 A  
HETATM   36  C   UNL     1      -6.107  17.245  69.812  1.00  0.00    -0.231 A  
ENDBRANCH  14  31
BRANCH  15  37
HETATM   37  O   UNL     1      -7.341  10.175  68.786  1.00  0.00    -0.077 OA 
BRANCH  37  38
HETATM   38  C   UNL     1      -7.493  10.026  70.204  1.00  0.00    -0.166 C  
BRANCH  38  39
HETATM   39  C   UNL     1      -6.134  10.088  70.895  1.00  0.00    -0.069 C  
HETATM   40  O   UNL     1      -5.792  11.434  71.210  1.00  0.00    -0.372 OA 
HETATM   41  H   UNL     1      -4.946  11.473  71.641  1.00  0.00     0.000 HD 
ENDBRANCH  38  39
ENDBRANCH  37  38
ENDBRANCH  15  37
ENDBRANCH   9  10
ENDBRANCH   8   9
ENDBRANCH   2   3
TORSDOF 11
ENDMDL
MODEL       77
REMARK 921   NORMALIZED FREE ENERGY PREDICTED BY IDOCK:   -5.16 KCAL/MOL
REMARK 922        TOTAL FREE ENERGY PREDICTED BY IDOCK:  -10.93 KCAL/MOL
REMARK 923 INTER-LIGAND FREE ENERGY PREDICTED BY IDOCK:   -9.59 KCAL/MOL
REMARK 924 INTRA-LIGAND FREE ENERGY PREDICTED BY IDOCK:   -1.34 KCAL/MOL
REMARK 927      BINDING AFFINITY PREDICTED BY RF-SCORE:    0.00 PKD
ROOT
HETATM    1  C   UNL     1     -10.105  18.222  66.095  1.00  0.00    -0.346 C  
HETATM    2  O   UNL     1      -9.501  17.318  67.020  1.00  0.00    -0.248 OA 
ENDROOT
BRANCH   2   3
HETATM    3  C   UNL     1      -8.440  17.788  67.755  1.00  0.00    -0.236 A  
HETATM    4  C   UNL     1      -8.524  18.938  68.558  1.00  0.00    -0.384 A  
HETATM    5  C   UNL     1      -7.407  19.425  69.245  1.00  0.00    -0.308 A  
HETATM    6  C   UNL     1      -6.193  18.759  69.160  1.00  0.00    -0.271 A  
HETATM    7  C   UNL     1      -6.096  17.610  68.384  1.00  0.00    -0.175 A  
HETATM    8  C   UNL     1      -7.204  17.112  67.681  1.00  0.00    -0.157 A  
BRANCH   8   9
HETATM    9  O   UNL     1      -6.868  16.007  66.925  1.00  0.00    -0.220 OA 
BRANCH   9  10
HETATM   10  C   UNL     1      -7.299  14.760  67.245  1.00  0.00    -0.114 A  
HETATM   11  C   UNL     1      -8.447  14.137  66.812  1.00  0.00     0.000 A  
HETATM   12  N   UNL     1      -8.774  12.869  67.094  1.00  0.00    -0.202 NA 
HETATM   13  N   UNL     1      -6.818  12.729  68.446  1.00  0.00    -0.083 NA 
HETATM   14  C   UNL     1      -7.911  12.185  67.874  1.00  0.00    -0.147 A  
HETATM   15  C   UNL     1      -6.550  14.009  68.137  1.00  0.00    -0.124 A  
BRANCH  11  16
HETATM   16  N   UNL     1      -9.454  14.716  66.003  1.00  0.00    -0.450 N  
HETATM   17  H   UNL     1      -9.241  15.527  65.422  1.00  0.00     0.000 HD 
BRANCH  16  18
HETATM   18  S   UNL     1     -10.998  14.067  66.003  1.00  0.00    -0.302 S  
HETATM   19  O   UNL     1     -11.858  14.904  65.186  1.00  0.00    -0.335 OA 
HETATM   20  O   UNL     1     -10.841  12.659  65.693  1.00  0.00    -0.266 OA 
BRANCH  18  21
HETATM   21  C   UNL     1     -11.592  14.184  67.673  1.00  0.00    -0.365 A  
HETATM   22  C   UNL     1     -12.527  14.449  70.322  1.00  0.00    -0.413 A  
HETATM   23  C   UNL     1     -11.816  15.449  68.212  1.00  0.00    -0.225 A  
HETATM   24  C   UNL     1     -12.274  15.575  69.522  1.00  0.00    -0.264 A  
HETATM   25  C   UNL     1     -12.358  13.179  69.729  1.00  0.00    -0.164 A  
HETATM   26  C   UNL     1     -11.897  13.042  68.411  1.00  0.00    -0.370 A  
BRANCH  22  27
HETATM   27  C   UNL     1     -12.931  14.586  71.803  1.00  0.00    -0.413 C  
HETATM   28  C   UNL     1     -13.395  13.251  72.434  1.00  0.00    -0.616 C  
HETATM   29  C   UNL     1     -14.112  15.574  71.922  1.00  0.00    -0.586 C  
HETATM   30  C   UNL     1     -11.750  15.104  72.647  1.00  0.00    -0.465 C  
ENDBRANCH  22  27
ENDBRANCH  18  21
ENDBRANCH  16  18
ENDBRANCH  11  16
BRANCH  14  31
HETATM   31  C   UNL     1      -8.133  10.725  68.035  1.00  0.00    -0.114 A  
HETATM   32  N   UNL     1      -9.293  10.207  67.564  1.00  0.00    -0.150 NA 
HETATM   33  N   UNL     1      -7.206  10.006  68.714  1.00  0.00    -0.074 NA 
HETATM   34  C   UNL     1      -7.476   8.704  68.904  1.00  0.00    -0.090 A  
HETATM   35  C   UNL     1      -9.512   8.902  67.796  1.00  0.00    -0.141 A  
HETATM   36  C   UNL     1      -8.627   8.093  68.465  1.00  0.00    -0.130 A  
ENDBRANCH  14  31
BRANCH  15  37
HETATM   37  O   UNL     1      -5.482  14.625  68.763  1.00  0.00    -0.083 OA 
BRANCH  37  38
HETATM   38  C   UNL     1      -5.153  14.139  70.070  1.00  0.00    -0.089 C  
BRANCH  38  39
HETATM   39  C   UNL     1      -6.222  14.551  71.077  1.00  0.00     0.017 C  
HETATM   40  O   UNL     1      -6.091  13.807  72.283  1.00  0.00    -0.493 OA 
HETATM   41  H   UNL     1      -6.757  14.063  72.911  1.00  0.00     0.000 HD 
ENDBRANCH  38  39
ENDBRANCH  37  38
ENDBRANCH  15  37
ENDBRANCH   9  10
ENDBRANCH   8   9
ENDBRANCH   2   3
TORSDOF 11
ENDMDL
MODEL       78
REMARK 921   NORMALIZED FREE ENERGY PREDICTED BY IDOCK:   -5.14 KCAL/MOL
REMARK 922        TOTAL FREE ENERGY PREDICTED BY IDOCK:  -10.90 KCAL/MOL
REMARK 923 INTER-LIGAND FREE ENERGY PREDICTED BY IDOCK:   -8.81 KCAL/MOL
REMARK 924 INTRA-LIGAND FREE ENERGY PREDICTED BY IDOCK:   -2.09 KCAL/MOL
REMARK 927      BINDING AFFINITY PREDICTED BY RF-SCORE:    0.00 PKD
ROOT
HETATM    1  C   UNL     1     -12.045  14.622  64.238  1.00  0.00    -0.415 C  
HETATM    2  O   UNL     1     -11.636  13.776  65.312  1.00  0.00    -0.308 OA 
ENDROOT
BRANCH   2   3
HETATM    3  C   UNL     1     -10.713  14.282  66.194  1.00  0.00    -0.295 A  
HETATM    4  C   UNL     1      -9.560  14.969  65.775  1.00  0.00    -0.327 A  
HETATM    5  C   UNL     1      -8.609  15.417  66.696  1.00  0.00    -0.318 A  
HETATM    6  C   UNL     1      -8.803  15.208  68.054  1.00  0.00    -0.170 A  
HETATM    7  C   UNL     1      -9.945  14.546  68.488  1.00  0.00    -0.238 A  
HETATM    8  C   UNL     1     -10.907  14.082  67.576  1.00  0.00    -0.270 A  
BRANCH   8   9
HETATM    9  O   UNL     1     -11.920  13.397  68.216  1.00  0.00    -0.345 OA 
BRANCH   9  10
HETATM   10  C   UNL     1     -11.696  12.227  68.867  1.00  0.00    -0.328 A  
HETATM   11  C   UNL     1     -11.316  11.024  68.315  1.00  0.00    -0.299 A  
HETATM   12  N   UNL     1     -11.024   9.925  69.022  1.00  0.00    -0.215 NA 
HETATM   13  N   UNL     1     -11.610  11.113  71.001  1.00  0.00     0.126 NA 
HETATM   14  C   UNL     1     -11.139  10.024  70.363  1.00  0.00    -0.327 A  
HETATM   15  C   UNL     1     -11.900  12.181  70.237  1.00  0.00    -0.254 A  
BRANCH  11  16
HETATM   16  N   UNL     1     -11.163  10.753  66.934  1.00  0.00    -0.139 N  
HETATM   17  H   UNL     1     -11.984  10.659  66.337  1.00  0.00     0.000 HD 
BRANCH  16  18
HETATM   18  S   UNL     1      -9.628  10.588  66.283  1.00  0.00    -0.195 S  
HETATM   19  O   UNL     1      -9.615  11.188  64.961  1.00  0.00    -0.222 OA 
HETATM   20  O   UNL     1      -8.708  11.050  67.304  1.00  0.00    -0.128 OA 
BRANCH  18  21
HETATM   21  C   UNL     1      -9.359   8.847  66.067  1.00  0.00    -0.242 A  
HETATM   22  C   UNL     1      -8.874   6.095  65.670  1.00  0.00    -0.102 A  
HETATM   23  C   UNL     1      -8.285   8.432  65.281  1.00  0.00    -0.151 A  
HETATM   24  C   UNL     1      -8.052   7.072  65.085  1.00  0.00    -0.124 A  
HETATM   25  C   UNL     1      -9.912   6.541  66.516  1.00  0.00    -0.154 A  
HETATM   26  C   UNL     1     -10.154   7.908  66.720  1.00  0.00    -0.352 A  
BRANCH  22  27
HETATM   27  C   UNL     1      -8.683   4.596  65.370  1.00  0.00    -0.134 C  
HETATM   28  C   UNL     1      -7.233   4.235  64.966  1.00  0.00    -0.071 C  
HETATM   29  C   UNL     1      -9.592   4.189  64.190  1.00  0.00    -0.148 C  
HETATM   30  C   UNL     1      -9.040   3.741  66.602  1.00  0.00    -0.167 C  
ENDBRANCH  22  27
ENDBRANCH  18  21
ENDBRANCH  16  18
ENDBRANCH  11  16
BRANCH  14  31
HETATM   31  C   UNL     1     -10.627   8.897  71.185  1.00  0.00    -0.265 A  
HETATM   32  N   UNL     1     -10.698   9.016  72.533  1.00  0.00     0.136 NA 
HETATM   33  N   UNL     1     -10.046   7.850  70.549  1.00  0.00    -0.192 NA 
HETATM   34  C   UNL     1      -9.530   6.885  71.328  1.00  0.00    -0.165 A  
HETATM   35  C   UNL     1     -10.154   8.024  73.258  1.00  0.00    -0.155 A  
HETATM   36  C   UNL     1      -9.552   6.921  72.702  1.00  0.00    -0.163 A  
ENDBRANCH  14  31
BRANCH  15  37
HETATM   37  O   UNL     1     -12.458  13.290  70.845  1.00  0.00    -0.362 OA 
BRANCH  37  38
HETATM   38  C   UNL     1     -13.099  13.061  72.106  1.00  0.00    -0.360 C  
BRANCH  38  39
HETATM   39  C   UNL     1     -13.462  14.386  72.768  1.00  0.00    -0.485 C  
HETATM   40  O   UNL     1     -12.493  14.741  73.749  1.00  0.00    -0.486 OA 
HETATM   41  H   UNL     1     -12.719  15.566  74.162  1.00  0.00     0.000 HD 
ENDBRANCH  38  39
ENDBRANCH  37  38
ENDBRANCH  15  37
ENDBRANCH   9  10
ENDBRANCH   8   9
ENDBRANCH   2   3
TORSDOF 11
ENDMDL
MODEL       79
REMARK 921   NORMALIZED FREE ENERGY PREDICTED BY IDOCK:   -5.11 KCAL/MOL
REMARK 922        TOTAL FREE ENERGY PREDICTED BY IDOCK:  -10.86 KCAL/MOL
REMARK 923 INTER-LIGAND FREE ENERGY PREDICTED BY IDOCK:   -8.22 KCAL/MOL
REMARK 924 INTRA-LIGAND FREE ENERGY PREDICTED BY IDOCK:   -2.64 KCAL/MOL
REMARK 927      BINDING AFFINITY PREDICTED BY RF-SCORE:    0.00 PKD
ROOT
HETATM    1  C   UNL     1      -8.181   7.843  73.325  1.00  0.00    -0.182 C  
HETATM    2  O   UNL     1      -9.077   7.308  72.350  1.00  0.00    -0.130 OA 
ENDROOT
BRANCH   2   3
HETATM    3  C   UNL     1     -10.239   8.001  72.119  1.00  0.00    -0.244 A  
HETATM    4  C   UNL     1     -11.346   7.936  72.982  1.00  0.00    -0.298 A  
HETATM    5  C   UNL     1     -12.538   8.605  72.685  1.00  0.00    -0.277 A  
HETATM    6  C   UNL     1     -12.637   9.370  71.531  1.00  0.00    -0.447 A  
HETATM    7  C   UNL     1     -11.546   9.459  70.673  1.00  0.00    -0.330 A  
HETATM    8  C   UNL     1     -10.345   8.787  70.952  1.00  0.00    -0.223 A  
BRANCH   8   9
HETATM    9  O   UNL     1      -9.424   8.958  69.939  1.00  0.00    -0.161 OA 
BRANCH   9  10
HETATM   10  C   UNL     1      -9.751   9.558  68.766  1.00  0.00    -0.159 A  
HETATM   11  C   UNL     1     -10.480   9.021  67.728  1.00  0.00    -0.245 A  
HETATM   12  N   UNL     1     -10.844   9.695  66.630  1.00  0.00    -0.020 NA 
HETATM   13  N   UNL     1      -9.630  11.573  67.452  1.00  0.00    -0.168 NA 
HETATM   14  C   UNL     1     -10.440  10.981  66.552  1.00  0.00    -0.257 A  
HETATM   15  C   UNL     1      -9.286  10.840  68.525  1.00  0.00    -0.174 A  
BRANCH  11  16
HETATM   16  N   UNL     1     -10.965   7.693  67.651  1.00  0.00    -0.521 N  
HETATM   17  H   UNL     1     -11.934   7.487  67.895  1.00  0.00     0.000 HD 
BRANCH  16  18
HETATM   18  S   UNL     1      -9.942   6.461  67.160  1.00  0.00    -0.171 S  
HETATM   19  O   UNL     1     -10.681   5.559  66.294  1.00  0.00    -0.245 OA 
HETATM   20  O   UNL     1      -8.735   7.108  66.682  1.00  0.00    -0.118 OA 
BRANCH  18  21
HETATM   21  C   UNL     1      -9.517   5.547  68.622  1.00  0.00    -0.129 A  
HETATM   22  C   UNL     1      -8.768   4.086  70.917  1.00  0.00    -0.118 A  
HETATM   23  C   UNL     1      -8.185   5.192  68.821  1.00  0.00    -0.085 A  
HETATM   24  C   UNL     1      -7.820   4.467  69.953  1.00  0.00    -0.053 A  
HETATM   25  C   UNL     1     -10.099   4.518  70.726  1.00  0.00    -0.233 A  
HETATM   26  C   UNL     1     -10.475   5.248  69.589  1.00  0.00    -0.320 A  
BRANCH  22  27
HETATM   27  C   UNL     1      -8.387   3.195  72.115  1.00  0.00    -0.077 C  
HETATM   28  C   UNL     1      -7.229   3.776  72.962  1.00  0.00    -0.059 C  
HETATM   29  C   UNL     1      -7.921   1.816  71.601  1.00  0.00    -0.041 C  
HETATM   30  C   UNL     1      -9.591   3.004  73.059  1.00  0.00    -0.144 C  
ENDBRANCH  22  27
ENDBRANCH  18  21
ENDBRANCH  16  18
ENDBRANCH  11  16
BRANCH  14  31
HETATM   31  C   UNL     1     -10.997  11.814  65.455  1.00  0.00    -0.290 A  
HETATM   32  N   UNL     1     -11.879  12.788  65.788  1.00  0.00    -0.411 NA 
HETATM   33  N   UNL     1     -10.658  11.506  64.179  1.00  0.00    -0.333 NA 
HETATM   34  C   UNL     1     -11.238  12.235  63.211  1.00  0.00    -0.324 A  
HETATM   35  C   UNL     1     -12.434  13.473  64.775  1.00  0.00    -0.355 A  
HETATM   36  C   UNL     1     -12.146  13.238  63.453  1.00  0.00    -0.508 A  
ENDBRANCH  14  31
BRANCH  15  37
HETATM   37  O   UNL     1      -8.395  11.385  69.432  1.00  0.00     0.153 OA 
BRANCH  37  38
HETATM   38  C   UNL     1      -7.052  11.565  68.965  1.00  0.00    -0.115 C  
BRANCH  38  39
HETATM   39  C   UNL     1      -6.061  10.923  69.931  1.00  0.00    -0.105 C  
HETATM   40  O   UNL     1      -6.732  10.053  70.836  1.00  0.00    -0.301 OA 
HETATM   41  H   UNL     1      -6.116   9.653  71.438  1.00  0.00     0.000 HD 
ENDBRANCH  38  39
ENDBRANCH  37  38
ENDBRANCH  15  37
ENDBRANCH   9  10
ENDBRANCH   8   9
ENDBRANCH   2   3
TORSDOF 11
ENDMDL
MODEL       80
REMARK 921   NORMALIZED FREE ENERGY PREDICTED BY IDOCK:   -5.08 KCAL/MOL
REMARK 922        TOTAL FREE ENERGY PREDICTED BY IDOCK:  -10.80 KCAL/MOL
REMARK 923 INTER-LIGAND FREE ENERGY PREDICTED BY IDOCK:   -7.85 KCAL/MOL
REMARK 924 INTRA-LIGAND FREE ENERGY PREDICTED BY IDOCK:   -2.96 KCAL/MOL
REMARK 927      BINDING AFFINITY PREDICTED BY RF-SCORE:    0.00 PKD
ROOT
HETATM    1  C   UNL     1      -7.420   6.115  64.618  1.00  0.00    -0.085 C  
HETATM    2  O   UNL     1      -8.569   6.321  65.439  1.00  0.00    -0.147 OA 
ENDROOT
BRANCH   2   3
HETATM    3  C   UNL     1      -8.707   5.512  66.540  1.00  0.00    -0.119 A  
HETATM    4  C   UNL     1      -9.214   4.204  66.462  1.00  0.00    -0.163 A  
HETATM    5  C   UNL     1      -9.399   3.429  67.611  1.00  0.00    -0.246 A  
HETATM    6  C   UNL     1      -9.060   3.939  68.857  1.00  0.00    -0.196 A  
HETATM    7  C   UNL     1      -8.542   5.225  68.952  1.00  0.00    -0.091 A  
HETATM    8  C   UNL     1      -8.357   6.020  67.809  1.00  0.00    -0.112 A  
BRANCH   8   9
HETATM    9  O   UNL     1      -7.897   7.278  68.139  1.00  0.00    -0.114 OA 
BRANCH   9  10
HETATM   10  C   UNL     1      -8.722   8.239  68.628  1.00  0.00    -0.133 A  
HETATM   11  C   UNL     1      -9.642   8.985  67.926  1.00  0.00    -0.147 A  
HETATM   12  N   UNL     1     -10.492   9.859  68.482  1.00  0.00    -0.196 NA 
HETATM   13  N   UNL     1      -9.470   9.421  70.588  1.00  0.00    -0.266 NA 
HETATM   14  C   UNL     1     -10.405  10.013  69.820  1.00  0.00    -0.255 A  
HETATM   15  C   UNL     1      -8.636   8.566  69.971  1.00  0.00    -0.134 A  
BRANCH  11  16
HETATM   16  N   UNL     1      -9.848   8.951  66.526  1.00  0.00    -0.253 N  
HETATM   17  H   UNL     1     -10.511   8.288  66.122  1.00  0.00     0.000 HD 
BRANCH  16  18
HETATM   18  S   UNL     1      -9.000  10.000  65.534  1.00  0.00    -0.188 S  
HETATM   19  O   UNL     1      -7.578   9.808  65.758  1.00  0.00    -0.101 OA 
HETATM   20  O   UNL     1      -9.558   9.837  64.206  1.00  0.00    -0.236 OA 
BRANCH  18  21
HETATM   21  C   UNL     1      -9.396  11.642  66.084  1.00  0.00    -0.224 A  
HETATM   22  C   UNL     1      -9.959  14.251  67.000  1.00  0.00    -0.258 A  
HETATM   23  C   UNL     1      -8.457  12.332  66.847  1.00  0.00    -0.159 A  
HETATM   24  C   UNL     1      -8.741  13.619  67.301  1.00  0.00    -0.223 A  
HETATM   25  C   UNL     1     -10.863  13.556  66.169  1.00  0.00    -0.284 A  
HETATM   26  C   UNL     1     -10.586  12.260  65.707  1.00  0.00    -0.289 A  
BRANCH  22  27
HETATM   27  C   UNL     1     -10.319  15.629  67.588  1.00  0.00    -0.275 C  
HETATM   28  C   UNL     1      -9.299  16.128  68.640  1.00  0.00    -0.222 C  
HETATM   29  C   UNL     1     -11.688  15.543  68.295  1.00  0.00    -0.287 C  
HETATM   30  C   UNL     1     -10.388  16.696  66.478  1.00  0.00    -0.300 C  
ENDBRANCH  22  27
ENDBRANCH  18  21
ENDBRANCH  16  18
ENDBRANCH  11  16
BRANCH  14  31
HETATM   31  C   UNL     1     -11.462  10.812  70.493  1.00  0.00    -0.275 A  
HETATM   32  N   UNL     1     -11.545  12.130  70.193  1.00  0.00    -0.196 NA 
HETATM   33  N   UNL     1     -12.231  10.200  71.427  1.00  0.00    -0.383 NA 
HETATM   34  C   UNL     1     -13.127  10.971  72.067  1.00  0.00    -0.344 A  
HETATM   35  C   UNL     1     -12.451  12.851  70.874  1.00  0.00    -0.296 A  
HETATM   36  C   UNL     1     -13.279  12.317  71.831  1.00  0.00    -0.481 A  
ENDBRANCH  14  31
BRANCH  15  37
HETATM   37  O   UNL     1      -7.614   7.998  70.710  1.00  0.00    -0.073 OA 
BRANCH  37  38
HETATM   38  C   UNL     1      -6.477   8.835  70.959  1.00  0.00    -0.056 C  
BRANCH  38  39
HETATM   39  C   UNL     1      -5.186   8.090  70.634  1.00  0.00    -0.023 C  
HETATM   40  O   UNL     1      -5.322   7.354  69.423  1.00  0.00    -0.015 OA 
HETATM   41  H   UNL     1      -4.518   6.889  69.220  1.00  0.00     0.000 HD 
ENDBRANCH  38  39
ENDBRANCH  37  38
ENDBRANCH  15  37
ENDBRANCH   9  10
ENDBRANCH   8   9
ENDBRANCH   2   3
TORSDOF 11
ENDMDL
MODEL       81
REMARK 921   NORMALIZED FREE ENERGY PREDICTED BY IDOCK:   -5.06 KCAL/MOL
REMARK 922        TOTAL FREE ENERGY PREDICTED BY IDOCK:  -10.78 KCAL/MOL
REMARK 923 INTER-LIGAND FREE ENERGY PREDICTED BY IDOCK:   -8.91 KCAL/MOL
REMARK 924 INTRA-LIGAND FREE ENERGY PREDICTED BY IDOCK:   -1.88 KCAL/MOL
REMARK 927      BINDING AFFINITY PREDICTED BY RF-SCORE:    0.00 PKD
ROOT
HETATM    1  C   UNL     1     -10.324  11.316  63.412  1.00  0.00    -0.391 C  
HETATM    2  O   UNL     1     -10.223  10.544  64.609  1.00  0.00    -0.345 OA 
ENDROOT
BRANCH   2   3
HETATM    3  C   UNL     1      -8.961  10.199  65.029  1.00  0.00    -0.195 A  
HETATM    4  C   UNL     1      -7.798  10.775  64.490  1.00  0.00     0.219 A  
HETATM    5  C   UNL     1      -6.527  10.356  64.895  1.00  0.00    -0.072 A  
HETATM    6  C   UNL     1      -6.396   9.370  65.863  1.00  0.00    -0.068 A  
HETATM    7  C   UNL     1      -7.535   8.801  66.420  1.00  0.00    -0.087 A  
HETATM    8  C   UNL     1      -8.819   9.204  66.018  1.00  0.00    -0.168 A  
BRANCH   8   9
HETATM    9  O   UNL     1      -9.800   8.464  66.647  1.00  0.00    -0.228 OA 
BRANCH   9  10
HETATM   10  C   UNL     1      -9.724   8.144  67.964  1.00  0.00    -0.161 A  
HETATM   11  C   UNL     1      -9.740   9.009  69.036  1.00  0.00    -0.167 A  
HETATM   12  N   UNL     1      -9.751   8.625  70.319  1.00  0.00    -0.170 NA 
HETATM   13  N   UNL     1      -9.593   6.365  69.582  1.00  0.00    -0.146 NA 
HETATM   14  C   UNL     1      -9.723   7.295  70.549  1.00  0.00    -0.176 A  
HETATM   15  C   UNL     1      -9.572   6.813  68.314  1.00  0.00    -0.127 A  
BRANCH  11  16
HETATM   16  N   UNL     1      -9.755  10.422  68.965  1.00  0.00    -0.197 N  
HETATM   17  H   UNL     1      -8.880  10.945  68.968  1.00  0.00     0.000 HD 
BRANCH  16  18
HETATM   18  S   UNL     1     -11.217  11.235  68.876  1.00  0.00    -0.282 S  
HETATM   19  O   UNL     1     -11.970  10.720  67.745  1.00  0.00    -0.470 OA 
HETATM   20  O   UNL     1     -11.783  11.190  70.210  1.00  0.00    -0.311 OA 
BRANCH  18  21
HETATM   21  C   UNL     1     -10.830  12.929  68.514  1.00  0.00    -0.257 A  
HETATM   22  C   UNL     1     -10.170  15.599  67.880  1.00  0.00    -0.239 A  
HETATM   23  C   UNL     1     -10.113  13.216  67.354  1.00  0.00    -0.229 A  
HETATM   24  C   UNL     1      -9.786  14.535  67.047  1.00  0.00    -0.247 A  
HETATM   25  C   UNL     1     -10.953  15.288  69.012  1.00  0.00    -0.254 A  
HETATM   26  C   UNL     1     -11.288  13.963  69.329  1.00  0.00    -0.321 A  
BRANCH  22  27
HETATM   27  C   UNL     1      -9.719  17.045  67.598  1.00  0.00    -0.257 C  
HETATM   28  C   UNL     1      -8.192  17.178  67.386  1.00  0.00    -0.197 C  
HETATM   29  C   UNL     1     -10.085  17.939  68.803  1.00  0.00    -0.384 C  
HETATM   30  C   UNL     1     -10.406  17.596  66.333  1.00  0.00    -0.345 C  
ENDBRANCH  22  27
ENDBRANCH  18  21
ENDBRANCH  16  18
ENDBRANCH  11  16
BRANCH  14  31
HETATM   31  C   UNL     1      -9.943   6.831  71.943  1.00  0.00    -0.176 A  
HETATM   32  N   UNL     1     -10.675   5.706  72.126  1.00  0.00    -0.226 NA 
HETATM   33  N   UNL     1      -9.470   7.597  72.956  1.00  0.00    -0.201 NA 
HETATM   34  C   UNL     1      -9.751   7.184  74.204  1.00  0.00    -0.223 A  
HETATM   35  C   UNL     1     -10.933   5.351  73.395  1.00  0.00    -0.297 A  
HETATM   36  C   UNL     1     -10.489   6.059  74.485  1.00  0.00    -0.121 A  
ENDBRANCH  14  31
BRANCH  15  37
HETATM   37  O   UNL     1      -9.363   5.897  67.300  1.00  0.00    -0.113 OA 
BRANCH  37  38
HETATM   38  C   UNL     1     -10.500   5.116  66.911  1.00  0.00    -0.223 C  
BRANCH  38  39
HETATM   39  C   UNL     1     -10.428   4.771  65.427  1.00  0.00    -0.072 C  
HETATM   40  O   UNL     1     -11.734   4.594  64.887  1.00  0.00    -0.984 OA 
HETATM   41  H   UNL     1     -11.689   4.379  63.963  1.00  0.00     0.000 HD 
ENDBRANCH  38  39
ENDBRANCH  37  38
ENDBRANCH  15  37
ENDBRANCH   9  10
ENDBRANCH   8   9
ENDBRANCH   2   3
TORSDOF 11
ENDMDL
MODEL       82
REMARK 921   NORMALIZED FREE ENERGY PREDICTED BY IDOCK:   -5.02 KCAL/MOL
REMARK 922        TOTAL FREE ENERGY PREDICTED BY IDOCK:  -10.70 KCAL/MOL
REMARK 923 INTER-LIGAND FREE ENERGY PREDICTED BY IDOCK:  -10.33 KCAL/MOL
REMARK 924 INTRA-LIGAND FREE ENERGY PREDICTED BY IDOCK:   -0.37 KCAL/MOL
REMARK 927      BINDING AFFINITY PREDICTED BY RF-SCORE:    0.00 PKD
ROOT
HETATM    1  C   UNL     1     -13.623  12.841  72.282  1.00  0.00    -0.465 C  
HETATM    2  O   UNL     1     -12.743  12.514  71.206  1.00  0.00    -0.363 OA 
ENDROOT
BRANCH   2   3
HETATM    3  C   UNL     1     -12.215  13.559  70.488  1.00  0.00    -0.361 A  
HETATM    4  C   UNL     1     -12.022  14.838  71.038  1.00  0.00    -0.389 A  
HETATM    5  C   UNL     1     -11.540  15.896  70.262  1.00  0.00    -0.365 A  
HETATM    6  C   UNL     1     -11.221  15.690  68.927  1.00  0.00    -0.311 A  
HETATM    7  C   UNL     1     -11.389  14.427  68.370  1.00  0.00    -0.312 A  
HETATM    8  C   UNL     1     -11.879  13.356  69.133  1.00  0.00    -0.336 A  
BRANCH   8   9
HETATM    9  O   UNL     1     -12.030  12.218  68.367  1.00  0.00    -0.326 OA 
BRANCH   9  10
HETATM   10  C   UNL     1     -11.051  11.776  67.538  1.00  0.00    -0.272 A  
HETATM   11  C   UNL     1      -9.845  11.215  67.895  1.00  0.00    -0.174 A  
HETATM   12  N   UNL     1      -8.955  10.716  67.028  1.00  0.00    -0.137 NA 
HETATM   13  N   UNL     1     -10.374  11.428  65.253  1.00  0.00    -0.270 NA 
HETATM   14  C   UNL     1      -9.277  10.799  65.720  1.00  0.00    -0.189 A  
HETATM   15  C   UNL     1     -11.223  11.921  66.171  1.00  0.00    -0.333 A  
BRANCH  11  16
HETATM   16  N   UNL     1      -9.355  11.065  69.215  1.00  0.00    -0.409 N  
HETATM   17  H   UNL     1      -9.787  11.580  69.983  1.00  0.00     0.000 HD 
BRANCH  16  18
HETATM   18  S   UNL     1      -8.064  10.041  69.512  1.00  0.00    -0.171 S  
HETATM   19  O   UNL     1      -7.595   9.502  68.248  1.00  0.00    -0.078 OA 
HETATM   20  O   UNL     1      -7.158  10.777  70.373  1.00  0.00    -0.202 OA 
BRANCH  18  21
HETATM   21  C   UNL     1      -8.708   8.679  70.451  1.00  0.00    -0.155 A  
HETATM   22  C   UNL     1      -9.751   6.564  72.002  1.00  0.00    -0.156 A  
HETATM   23  C   UNL     1      -9.385   8.950  71.639  1.00  0.00    -0.328 A  
HETATM   24  C   UNL     1      -9.895   7.903  72.403  1.00  0.00    -0.287 A  
HETATM   25  C   UNL     1      -9.122   6.322  70.762  1.00  0.00    -0.150 A  
HETATM   26  C   UNL     1      -8.606   7.370  69.985  1.00  0.00    -0.140 A  
BRANCH  22  27
HETATM   27  C   UNL     1     -10.220   5.400  72.896  1.00  0.00    -0.217 C  
HETATM   28  C   UNL     1      -9.728   5.518  74.358  1.00  0.00    -0.194 C  
HETATM   29  C   UNL     1      -9.664   4.071  72.340  1.00  0.00    -0.210 C  
HETATM   30  C   UNL     1     -11.759   5.327  72.937  1.00  0.00    -0.228 C  
ENDBRANCH  22  27
ENDBRANCH  18  21
ENDBRANCH  16  18
ENDBRANCH  11  16
BRANCH  14  31
HETATM   31  C   UNL     1      -8.417  10.075  64.749  1.00  0.00    -0.173 A  
HETATM   32  N   UNL     1      -9.027   9.420  63.732  1.00  0.00    -0.180 NA 
HETATM   33  N   UNL     1      -7.081  10.041  64.976  1.00  0.00    -0.131 NA 
HETATM   34  C   UNL     1      -6.344   9.315  64.119  1.00  0.00    -0.086 A  
HETATM   35  C   UNL     1      -8.238   8.703  62.915  1.00  0.00    -0.184 A  
HETATM   36  C   UNL     1      -6.875   8.616  63.061  1.00  0.00    -0.090 A  
ENDBRANCH  14  31
BRANCH  15  37
HETATM   37  O   UNL     1     -12.319  12.640  65.731  1.00  0.00    -0.594 OA 
BRANCH  37  38
HETATM   38  C   UNL     1     -12.166  13.317  64.477  1.00  0.00    -0.400 C  
BRANCH  38  39
HETATM   39  C   UNL     1     -12.857  12.540  63.362  1.00  0.00    -0.048 C  
HETATM   40  O   UNL     1     -12.041  11.460  62.920  1.00  0.00    -0.919 OA 
HETATM   41  H   UNL     1     -12.471  10.975  62.226  1.00  0.00     0.000 HD 
ENDBRANCH  38  39
ENDBRANCH  37  38
ENDBRANCH  15  37
ENDBRANCH   9  10
ENDBRANCH   8   9
ENDBRANCH   2   3
TORSDOF 11
ENDMDL
MODEL       83
REMARK 921   NORMALIZED FREE ENERGY PREDICTED BY IDOCK:   -5.01 KCAL/MOL
REMARK 922        TOTAL FREE ENERGY PREDICTED BY IDOCK:  -10.69 KCAL/MOL
REMARK 923 INTER-LIGAND FREE ENERGY PREDICTED BY IDOCK:   -8.33 KCAL/MOL
REMARK 924 INTRA-LIGAND FREE ENERGY PREDICTED BY IDOCK:   -2.36 KCAL/MOL
REMARK 927      BINDING AFFINITY PREDICTED BY RF-SCORE:    0.00 PKD
ROOT
HETATM    1  C   UNL     1      -6.554   5.914  72.349  1.00  0.00    -0.067 C  
HETATM    2  O   UNL     1      -7.459   4.965  71.785  1.00  0.00    -0.082 OA 
ENDROOT
BRANCH   2   3
HETATM    3  C   UNL     1      -8.721   4.903  72.323  1.00  0.00    -0.124 A  
HETATM    4  C   UNL     1      -8.991   4.283  73.555  1.00  0.00    -0.092 A  
HETATM    5  C   UNL     1     -10.297   4.183  74.045  1.00  0.00    -0.259 A  
HETATM    6  C   UNL     1     -11.353   4.722  73.324  1.00  0.00    -0.408 A  
HETATM    7  C   UNL     1     -11.103   5.354  72.112  1.00  0.00    -0.234 A  
HETATM    8  C   UNL     1      -9.799   5.456  71.601  1.00  0.00    -0.172 A  
BRANCH   8   9
HETATM    9  O   UNL     1      -9.790   6.059  70.360  1.00  0.00    -0.172 OA 
BRANCH   9  10
HETATM   10  C   UNL     1      -9.152   7.237  70.139  1.00  0.00    -0.148 A  
HETATM   11  C   UNL     1      -9.441   8.460  70.700  1.00  0.00    -0.167 A  
HETATM   12  N   UNL     1      -8.718   9.571  70.508  1.00  0.00    -0.229 NA 
HETATM   13  N   UNL     1      -7.343   8.345  68.998  1.00  0.00    -0.086 NA 
HETATM   14  C   UNL     1      -7.652   9.461  69.688  1.00  0.00    -0.095 A  
HETATM   15  C   UNL     1      -8.114   7.266  69.222  1.00  0.00    -0.124 A  
BRANCH  11  16
HETATM   16  N   UNL     1     -10.525   8.744  71.565  1.00  0.00    -0.274 N  
HETATM   17  H   UNL     1     -10.377   8.789  72.574  1.00  0.00     0.000 HD 
BRANCH  16  18
HETATM   18  S   UNL     1     -12.051   9.007  70.928  1.00  0.00    -0.135 S  
HETATM   19  O   UNL     1     -12.031   8.675  69.515  1.00  0.00     0.772 OA 
HETATM   20  O   UNL     1     -12.979   8.341  71.821  1.00  0.00    -0.327 OA 
BRANCH  18  21
HETATM   21  C   UNL     1     -12.352  10.753  71.048  1.00  0.00    -0.404 A  
HETATM   22  C   UNL     1     -12.782  13.540  71.176  1.00  0.00    -0.425 A  
HETATM   23  C   UNL     1     -11.841  11.586  70.054  1.00  0.00    -0.435 A  
HETATM   24  C   UNL     1     -12.053  12.962  70.123  1.00  0.00    -0.373 A  
HETATM   25  C   UNL     1     -13.345  12.667  72.132  1.00  0.00    -0.570 A  
HETATM   26  C   UNL     1     -13.138  11.281  72.070  1.00  0.00    -0.431 A  
BRANCH  22  27
HETATM   27  C   UNL     1     -12.927  15.068  71.312  1.00  0.00    -0.448 C  
HETATM   28  C   UNL     1     -12.071  15.661  72.458  1.00  0.00    -0.563 C  
HETATM   29  C   UNL     1     -14.398  15.417  71.622  1.00  0.00    -0.615 C  
HETATM   30  C   UNL     1     -12.501  15.776  70.011  1.00  0.00    -0.178 C  
ENDBRANCH  22  27
ENDBRANCH  18  21
ENDBRANCH  16  18
ENDBRANCH  11  16
BRANCH  14  31
HETATM   31  C   UNL     1      -6.713  10.611  69.617  1.00  0.00    -0.116 A  
HETATM   32  N   UNL     1      -6.374  11.222  70.777  1.00  0.00    -0.240 NA 
HETATM   33  N   UNL     1      -6.312  11.036  68.394  1.00  0.00    -0.052 NA 
HETATM   34  C   UNL     1      -5.523  12.123  68.364  1.00  0.00    -0.054 A  
HETATM   35  C   UNL     1      -5.593  12.311  70.682  1.00  0.00    -0.161 A  
HETATM   36  C   UNL     1      -5.131  12.810  69.489  1.00  0.00    -0.072 A  
ENDBRANCH  14  31
BRANCH  15  37
HETATM   37  O   UNL     1      -7.878   6.126  68.476  1.00  0.00    -0.101 OA 
BRANCH  37  38
HETATM   38  C   UNL     1      -7.822   6.303  67.055  1.00  0.00    -0.104 C  
BRANCH  38  39
HETATM   39  C   UNL     1      -9.225   6.271  66.458  1.00  0.00    -0.154 C  
HETATM   40  O   UNL     1      -9.641   7.578  66.078  1.00  0.00    -0.417 OA 
HETATM   41  H   UNL     1     -10.515   7.559  65.706  1.00  0.00     0.000 HD 
ENDBRANCH  38  39
ENDBRANCH  37  38
ENDBRANCH  15  37
ENDBRANCH   9  10
ENDBRANCH   8   9
ENDBRANCH   2   3
TORSDOF 11
ENDMDL
MODEL       84
REMARK 921   NORMALIZED FREE ENERGY PREDICTED BY IDOCK:   -5.00 KCAL/MOL
REMARK 922        TOTAL FREE ENERGY PREDICTED BY IDOCK:  -10.67 KCAL/MOL
REMARK 923 INTER-LIGAND FREE ENERGY PREDICTED BY IDOCK:   -8.91 KCAL/MOL
REMARK 924 INTRA-LIGAND FREE ENERGY PREDICTED BY IDOCK:   -1.76 KCAL/MOL
REMARK 927      BINDING AFFINITY PREDICTED BY RF-SCORE:    0.00 PKD
ROOT
HETATM    1  C   UNL     1     -11.011   6.656  72.135  1.00  0.00    -0.245 C  
HETATM    2  O   UNL     1      -9.954   7.040  71.256  1.00  0.00    -0.189 OA 
ENDROOT
BRANCH   2   3
HETATM    3  C   UNL     1     -10.215   7.009  69.909  1.00  0.00    -0.201 A  
HETATM    4  C   UNL     1     -10.520   5.822  69.221  1.00  0.00    -0.358 A  
HETATM    5  C   UNL     1     -10.720   5.817  67.837  1.00  0.00    -0.295 A  
HETATM    6  C   UNL     1     -10.642   7.001  67.119  1.00  0.00    -0.412 A  
HETATM    7  C   UNL     1     -10.359   8.188  67.784  1.00  0.00    -0.295 A  
HETATM    8  C   UNL     1     -10.147   8.210  69.172  1.00  0.00    -0.202 A  
BRANCH   8   9
HETATM    9  O   UNL     1      -9.815   9.476  69.612  1.00  0.00    -0.181 OA 
BRANCH   9  10
HETATM   10  C   UNL     1      -9.991  10.575  68.835  1.00  0.00    -0.204 A  
HETATM   11  C   UNL     1      -9.054  11.191  68.036  1.00  0.00    -0.153 A  
HETATM   12  N   UNL     1      -9.313  12.224  67.223  1.00  0.00    -0.180 NA 
HETATM   13  N   UNL     1     -11.549  12.231  68.043  1.00  0.00    -0.329 NA 
HETATM   14  C   UNL     1     -10.582  12.684  67.220  1.00  0.00    -0.228 A  
HETATM   15  C   UNL     1     -11.225  11.204  68.847  1.00  0.00    -0.256 A  
BRANCH  11  16
HETATM   16  N   UNL     1      -7.686  10.841  67.934  1.00  0.00    -0.098 N  
HETATM   17  H   UNL     1      -7.397  10.082  67.317  1.00  0.00     0.000 HD 
BRANCH  16  18
HETATM   18  S   UNL     1      -6.545  11.676  68.831  1.00  0.00    -0.087 S  
HETATM   19  O   UNL     1      -6.734  11.363  70.236  1.00  0.00    -0.160 OA 
HETATM   20  O   UNL     1      -5.268  11.421  68.192  1.00  0.00    -0.043 OA 
BRANCH  18  21
HETATM   21  C   UNL     1      -6.910  13.401  68.629  1.00  0.00    -0.098 A  
HETATM   22  C   UNL     1      -7.535  16.142  68.373  1.00  0.00    -0.153 A  
HETATM   23  C   UNL     1      -7.597  14.060  69.646  1.00  0.00     0.400 A  
HETATM   24  C   UNL     1      -7.906  15.413  69.514  1.00  0.00    -0.204 A  
HETATM   25  C   UNL     1      -6.781  15.468  67.388  1.00  0.00    -0.200 A  
HETATM   26  C   UNL     1      -6.464  14.106  67.513  1.00  0.00    -0.066 A  
BRANCH  22  27
HETATM   27  C   UNL     1      -7.967  17.608  68.176  1.00  0.00    -0.256 C  
HETATM   28  C   UNL     1      -7.945  18.057  66.696  1.00  0.00    -0.278 C  
HETATM   29  C   UNL     1      -6.998  18.534  68.942  1.00  0.00    -0.302 C  
HETATM   30  C   UNL     1      -9.400  17.830  68.699  1.00  0.00    -0.275 C  
ENDBRANCH  22  27
ENDBRANCH  18  21
ENDBRANCH  16  18
ENDBRANCH  11  16
BRANCH  14  31
HETATM   31  C   UNL     1     -10.952  13.684  66.186  1.00  0.00    -0.284 A  
HETATM   32  N   UNL     1     -10.317  14.881  66.209  1.00  0.00    -0.283 NA 
HETATM   33  N   UNL     1     -11.958  13.378  65.329  1.00  0.00    -0.359 NA 
HETATM   34  C   UNL     1     -12.314  14.335  64.456  1.00  0.00    -0.410 A  
HETATM   35  C   UNL     1     -10.727  15.800  65.319  1.00  0.00    -0.428 A  
HETATM   36  C   UNL     1     -11.730  15.578  64.407  1.00  0.00    -0.243 A  
ENDBRANCH  14  31
BRANCH  15  37
HETATM   37  O   UNL     1     -12.167  10.763  69.758  1.00  0.00    -0.323 OA 
BRANCH  37  38
HETATM   38  C   UNL     1     -12.524  11.689  70.792  1.00  0.00    -0.330 C  
BRANCH  38  39
HETATM   39  C   UNL     1     -13.318  10.984  71.888  1.00  0.00    -0.318 C  
HETATM   40  O   UNL     1     -12.849   9.652  72.072  1.00  0.00    -0.390 OA 
HETATM   41  H   UNL     1     -13.343   9.213  72.754  1.00  0.00     0.000 HD 
ENDBRANCH  38  39
ENDBRANCH  37  38
ENDBRANCH  15  37
ENDBRANCH   9  10
ENDBRANCH   8   9
ENDBRANCH   2   3
TORSDOF 11
ENDMDL
MODEL       85
REMARK 921   NORMALIZED FREE ENERGY PREDICTED BY IDOCK:   -4.93 KCAL/MOL
REMARK 922        TOTAL FREE ENERGY PREDICTED BY IDOCK:  -10.56 KCAL/MOL
REMARK 923 INTER-LIGAND FREE ENERGY PREDICTED BY IDOCK:   -9.92 KCAL/MOL
REMARK 924 INTRA-LIGAND FREE ENERGY PREDICTED BY IDOCK:   -0.65 KCAL/MOL
REMARK 927      BINDING AFFINITY PREDICTED BY RF-SCORE:    0.00 PKD
ROOT
HETATM    1  C   UNL     1     -10.942  16.226  69.764  1.00  0.00    -0.354 C  
HETATM    2  O   UNL     1     -10.860  16.340  68.343  1.00  0.00    -0.301 OA 
ENDROOT
BRANCH   2   3
HETATM    3  C   UNL     1     -10.255  17.464  67.838  1.00  0.00    -0.348 A  
HETATM    4  C   UNL     1     -10.579  18.761  68.272  1.00  0.00    -0.214 A  
HETATM    5  C   UNL     1      -9.988  19.888  67.692  1.00  0.00    -0.553 A  
HETATM    6  C   UNL     1      -9.046  19.738  66.684  1.00  0.00    -0.452 A  
HETATM    7  C   UNL     1      -8.700  18.463  66.253  1.00  0.00    -0.209 A  
HETATM    8  C   UNL     1      -9.290  17.320  66.819  1.00  0.00    -0.259 A  
BRANCH   8   9
HETATM    9  O   UNL     1      -8.853  16.168  66.198  1.00  0.00    -0.315 OA 
BRANCH   9  10
HETATM   10  C   UNL     1      -8.565  15.041  66.898  1.00  0.00    -0.249 A  
HETATM   11  C   UNL     1      -9.149  13.801  66.761  1.00  0.00    -0.221 A  
HETATM   12  N   UNL     1      -8.760  12.703  67.422  1.00  0.00    -0.181 NA 
HETATM   13  N   UNL     1      -7.168  14.040  68.585  1.00  0.00    -0.109 NA 
HETATM   14  C   UNL     1      -7.737  12.854  68.289  1.00  0.00    -0.137 A  
HETATM   15  C   UNL     1      -7.611  15.108  67.900  1.00  0.00    -0.139 A  
BRANCH  11  16
HETATM   16  N   UNL     1     -10.234  13.481  65.909  1.00  0.00    -0.296 N  
HETATM   17  H   UNL     1     -10.110  13.493  64.897  1.00  0.00     0.000 HD 
BRANCH  16  18
HETATM   18  S   UNL     1     -11.721  13.084  66.569  1.00  0.00    -0.396 S  
HETATM   19  O   UNL     1     -12.237  14.237  67.286  1.00  0.00    -0.393 OA 
HETATM   20  O   UNL     1     -12.491  12.488  65.495  1.00  0.00    -0.646 OA 
BRANCH  18  21
HETATM   21  C   UNL     1     -11.414  11.817  67.775  1.00  0.00    -0.311 A  
HETATM   22  C   UNL     1     -10.914   9.752  69.632  1.00  0.00    -0.269 A  
HETATM   23  C   UNL     1     -10.975  10.570  67.333  1.00  0.00    -0.352 A  
HETATM   24  C   UNL     1     -10.733   9.552  68.254  1.00  0.00    -0.241 A  
HETATM   25  C   UNL     1     -11.293  11.043  70.058  1.00  0.00    -0.358 A  
HETATM   26  C   UNL     1     -11.538  12.074  69.139  1.00  0.00    -0.370 A  
BRANCH  22  27
HETATM   27  C   UNL     1     -10.750   8.599  70.642  1.00  0.00    -0.259 C  
HETATM   28  C   UNL     1     -11.868   8.562  71.712  1.00  0.00    -0.395 C  
HETATM   29  C   UNL     1      -9.412   8.764  71.394  1.00  0.00    -0.330 C  
HETATM   30  C   UNL     1     -10.762   7.236  69.922  1.00  0.00    -0.257 C  
ENDBRANCH  22  27
ENDBRANCH  18  21
ENDBRANCH  16  18
ENDBRANCH  11  16
BRANCH  14  31
HETATM   31  C   UNL     1      -7.146  11.627  68.881  1.00  0.00    -0.115 A  
HETATM   32  N   UNL     1      -6.541  11.736  70.089  1.00  0.00    -0.073 NA 
HETATM   33  N   UNL     1      -7.171  10.485  68.150  1.00  0.00    -0.085 NA 
HETATM   34  C   UNL     1      -6.562   9.414  68.686  1.00  0.00    -0.053 A  
HETATM   35  C   UNL     1      -5.940  10.634  70.567  1.00  0.00    -0.121 A  
HETATM   36  C   UNL     1      -5.921   9.432  69.902  1.00  0.00    -0.036 A  
ENDBRANCH  14  31
BRANCH  15  37
HETATM   37  O   UNL     1      -7.107  16.353  68.230  1.00  0.00    -0.135 OA 
BRANCH  37  38
HETATM   38  C   UNL     1      -5.691  16.424  68.436  1.00  0.00    -0.106 C  
BRANCH  38  39
HETATM   39  C   UNL     1      -5.130  17.714  67.847  1.00  0.00    -0.132 C  
HETATM   40  O   UNL     1      -5.297  17.736  66.433  1.00  0.00    -0.148 OA 
HETATM   41  H   UNL     1      -4.948  18.540  66.065  1.00  0.00     0.000 HD 
ENDBRANCH  38  39
ENDBRANCH  37  38
ENDBRANCH  15  37
ENDBRANCH   9  10
ENDBRANCH   8   9
ENDBRANCH   2   3
TORSDOF 11
ENDMDL
MODEL       86
REMARK 921   NORMALIZED FREE ENERGY PREDICTED BY IDOCK:   -4.92 KCAL/MOL
REMARK 922        TOTAL FREE ENERGY PREDICTED BY IDOCK:  -10.55 KCAL/MOL
REMARK 923 INTER-LIGAND FREE ENERGY PREDICTED BY IDOCK:  -10.00 KCAL/MOL
REMARK 924 INTRA-LIGAND FREE ENERGY PREDICTED BY IDOCK:   -0.55 KCAL/MOL
REMARK 927      BINDING AFFINITY PREDICTED BY RF-SCORE:    0.00 PKD
ROOT
HETATM    1  C   UNL     1      -7.047  19.674  65.445  1.00  0.00    -0.194 C  
HETATM    2  O   UNL     1      -7.713  18.412  65.501  1.00  0.00    -0.484 OA 
ENDROOT
BRANCH   2   3
HETATM    3  C   UNL     1      -7.108  17.416  66.228  1.00  0.00    -0.295 A  
HETATM    4  C   UNL     1      -5.739  17.431  66.545  1.00  0.00    -0.241 A  
HETATM    5  C   UNL     1      -5.143  16.370  67.234  1.00  0.00    -0.111 A  
HETATM    6  C   UNL     1      -5.909  15.286  67.639  1.00  0.00    -0.094 A  
HETATM    7  C   UNL     1      -7.268  15.261  67.350  1.00  0.00    -0.235 A  
HETATM    8  C   UNL     1      -7.881  16.314  66.652  1.00  0.00    -0.275 A  
BRANCH   8   9
HETATM    9  O   UNL     1      -9.215  16.053  66.415  1.00  0.00    -0.250 OA 
BRANCH   9  10
HETATM   10  C   UNL     1     -10.084  15.781  67.422  1.00  0.00    -0.246 A  
HETATM   11  C   UNL     1     -10.443  14.542  67.904  1.00  0.00    -0.242 A  
HETATM   12  N   UNL     1     -11.240  14.342  68.961  1.00  0.00    -0.251 NA 
HETATM   13  N   UNL     1     -11.533  16.701  69.112  1.00  0.00    -0.074 NA 
HETATM   14  C   UNL     1     -11.726  15.447  69.565  1.00  0.00    -0.346 A  
HETATM   15  C   UNL     1     -10.736  16.837  68.038  1.00  0.00    -0.355 A  
BRANCH  11  16
HETATM   16  N   UNL     1     -10.032  13.294  67.378  1.00  0.00    -0.230 N  
HETATM   17  H   UNL     1      -9.041  13.099  67.237  1.00  0.00     0.000 HD 
BRANCH  16  18
HETATM   18  S   UNL     1     -11.179  12.137  66.988  1.00  0.00    -0.334 S  
HETATM   19  O   UNL     1     -11.866  11.733  68.202  1.00  0.00    -0.451 OA 
HETATM   20  O   UNL     1     -11.929  12.677  65.870  1.00  0.00    -0.427 OA 
BRANCH  18  21
HETATM   21  C   UNL     1     -10.285  10.721  66.400  1.00  0.00    -0.240 A  
HETATM   22  C   UNL     1      -8.872   8.435  65.536  1.00  0.00    -0.172 A  
HETATM   23  C   UNL     1     -10.202   9.598  67.221  1.00  0.00    -0.292 A  
HETATM   24  C   UNL     1      -9.500   8.473  66.792  1.00  0.00    -0.253 A  
HETATM   25  C   UNL     1      -9.030   9.559  64.697  1.00  0.00    -0.266 A  
HETATM   26  C   UNL     1      -9.735  10.696  65.120  1.00  0.00    -0.327 A  
BRANCH  22  27
HETATM   27  C   UNL     1      -8.008   7.235  65.103  1.00  0.00    -0.128 C  
HETATM   28  C   UNL     1      -7.228   6.591  66.275  1.00  0.00    -0.072 C  
HETATM   29  C   UNL     1      -6.961   7.704  64.070  1.00  0.00    -0.062 C  
HETATM   30  C   UNL     1      -8.880   6.131  64.474  1.00  0.00     0.377 C  
ENDBRANCH  22  27
ENDBRANCH  18  21
ENDBRANCH  16  18
ENDBRANCH  11  16
BRANCH  14  31
HETATM   31  C   UNL     1     -12.440  15.271  70.857  1.00  0.00    -0.388 A  
HETATM   32  N   UNL     1     -12.106  16.095  71.879  1.00  0.00    -0.496 NA 
HETATM   33  N   UNL     1     -13.323  14.249  70.968  1.00  0.00    -0.313 NA 
HETATM   34  C   UNL     1     -13.894  14.076  72.172  1.00  0.00    -0.532 A  
HETATM   35  C   UNL     1     -12.701  15.864  73.061  1.00  0.00    -0.507 A  
HETATM   36  C   UNL     1     -13.615  14.859  73.267  1.00  0.00    -0.051 A  
ENDBRANCH  14  31
BRANCH  15  37
HETATM   37  O   UNL     1     -10.575  18.100  67.497  1.00  0.00    -0.402 OA 
BRANCH  37  38
HETATM   38  C   UNL     1      -9.944  19.071  68.341  1.00  0.00    -0.408 C  
BRANCH  38  39
HETATM   39  C   UNL     1      -8.761  18.451  69.076  1.00  0.00    -0.032 C  
HETATM   40  O   UNL     1      -7.534  19.004  68.612  1.00  0.00    -0.301 OA 
HETATM   41  H   UNL     1      -6.796  18.618  69.070  1.00  0.00     0.000 HD 
ENDBRANCH  38  39
ENDBRANCH  37  38
ENDBRANCH  15  37
ENDBRANCH   9  10
ENDBRANCH   8   9
ENDBRANCH   2   3
TORSDOF 11
ENDMDL
MODEL       87
REMARK 921   NORMALIZED FREE ENERGY PREDICTED BY IDOCK:   -4.87 KCAL/MOL
REMARK 922        TOTAL FREE ENERGY PREDICTED BY IDOCK:  -10.46 KCAL/MOL
REMARK 923 INTER-LIGAND FREE ENERGY PREDICTED BY IDOCK:   -8.86 KCAL/MOL
REMARK 924 INTRA-LIGAND FREE ENERGY PREDICTED BY IDOCK:   -1.60 KCAL/MOL
REMARK 927      BINDING AFFINITY PREDICTED BY RF-SCORE:    0.00 PKD
ROOT
HETATM    1  C   UNL     1     -11.211  15.273  68.039  1.00  0.00    -0.326 C  
HETATM    2  O   UNL     1     -11.547  13.886  68.095  1.00  0.00    -0.295 OA 
ENDROOT
BRANCH   2   3
HETATM    3  C   UNL     1     -12.020  13.403  69.290  1.00  0.00    -0.317 A  
HETATM    4  C   UNL     1     -12.157  14.208  70.433  1.00  0.00    -0.417 A  
HETATM    5  C   UNL     1     -12.584  13.669  71.652  1.00  0.00    -0.343 A  
HETATM    6  C   UNL     1     -12.903  12.322  71.743  1.00  0.00    -0.359 A  
HETATM    7  C   UNL     1     -12.790  11.514  70.617  1.00  0.00    -0.151 A  
HETATM    8  C   UNL     1     -12.355  12.036  69.389  1.00  0.00     0.045 A  
BRANCH   8   9
HETATM    9  O   UNL     1     -12.252  11.049  68.429  1.00  0.00    -0.586 OA 
BRANCH   9  10
HETATM   10  C   UNL     1     -11.145  10.272  68.316  1.00  0.00    -0.254 A  
HETATM   11  C   UNL     1     -10.867   9.110  69.000  1.00  0.00    -0.090 A  
HETATM   12  N   UNL     1      -9.795   8.338  68.779  1.00  0.00    -0.169 NA 
HETATM   13  N   UNL     1      -9.047   9.938  67.181  1.00  0.00    -0.138 NA 
HETATM   14  C   UNL     1      -8.934   8.763  67.831  1.00  0.00    -0.140 A  
HETATM   15  C   UNL     1     -10.137  10.676  67.456  1.00  0.00    -0.184 A  
BRANCH  11  16
HETATM   16  N   UNL     1     -11.657   8.539  70.027  1.00  0.00    -0.451 N  
HETATM   17  H   UNL     1     -12.579   8.158  69.813  1.00  0.00     0.000 HD 
BRANCH  16  18
HETATM   18  S   UNL     1     -11.074   8.494  71.597  1.00  0.00    -0.316 S  
HETATM   19  O   UNL     1      -9.829   9.238  71.654  1.00  0.00    -0.278 OA 
HETATM   20  O   UNL     1     -12.187   8.865  72.449  1.00  0.00    -0.358 OA 
BRANCH  18  21
HETATM   21  C   UNL     1     -10.681   6.796  71.937  1.00  0.00    -0.223 A  
HETATM   22  C   UNL     1     -10.117   4.095  72.530  1.00  0.00    -0.233 A  
HETATM   23  C   UNL     1     -11.555   6.057  72.732  1.00  0.00    -0.200 A  
HETATM   24  C   UNL     1     -11.271   4.724  73.025  1.00  0.00    -0.344 A  
HETATM   25  C   UNL     1      -9.284   4.846  71.672  1.00  0.00    -0.179 A  
HETATM   26  C   UNL     1      -9.563   6.187  71.371  1.00  0.00    -0.177 A  
BRANCH  22  27
HETATM   27  C   UNL     1      -9.746   2.656  72.938  1.00  0.00    -0.170 C  
HETATM   28  C   UNL     1      -8.230   2.464  73.185  1.00  0.00    -0.065 C  
HETATM   29  C   UNL     1     -10.143   1.684  71.806  1.00  0.00    -0.205 C  
HETATM   30  C   UNL     1     -10.474   2.250  74.234  1.00  0.00    -0.197 C  
ENDBRANCH  22  27
ENDBRANCH  18  21
ENDBRANCH  16  18
ENDBRANCH  11  16
BRANCH  14  31
HETATM   31  C   UNL     1      -7.850   7.835  67.416  1.00  0.00    -0.118 A  
HETATM   32  N   UNL     1      -6.880   8.320  66.605  1.00  0.00    -0.067 NA 
HETATM   33  N   UNL     1      -7.934   6.538  67.803  1.00  0.00    -0.113 NA 
HETATM   34  C   UNL     1      -6.976   5.712  67.348  1.00  0.00    -0.065 A  
HETATM   35  C   UNL     1      -5.957   7.443  66.174  1.00  0.00    -0.037 A  
HETATM   36  C   UNL     1      -5.955   6.114  66.519  1.00  0.00    -0.025 A  
ENDBRANCH  14  31
BRANCH  15  37
HETATM   37  O   UNL     1     -10.250  11.922  66.868  1.00  0.00    -0.205 OA 
BRANCH  37  38
HETATM   38  C   UNL     1      -9.965  11.984  65.464  1.00  0.00    -0.241 C  
BRANCH  38  39
HETATM   39  C   UNL     1     -11.185  12.481  64.694  1.00  0.00    -0.312 C  
HETATM   40  O   UNL     1     -12.297  12.649  65.567  1.00  0.00    -0.563 OA 
HETATM   41  H   UNL     1     -13.057  12.959  65.088  1.00  0.00     0.000 HD 
ENDBRANCH  38  39
ENDBRANCH  37  38
ENDBRANCH  15  37
ENDBRANCH   9  10
ENDBRANCH   8   9
ENDBRANCH   2   3
TORSDOF 11
ENDMDL
MODEL       88
REMARK 921   NORMALIZED FREE ENERGY PREDICTED BY IDOCK:   -4.83 KCAL/MOL
REMARK 922        TOTAL FREE ENERGY PREDICTED BY IDOCK:  -10.39 KCAL/MOL
REMARK 923 INTER-LIGAND FREE ENERGY PREDICTED BY IDOCK:   -9.44 KCAL/MOL
REMARK 924 INTRA-LIGAND FREE ENERGY PREDICTED BY IDOCK:   -0.95 KCAL/MOL
REMARK 927      BINDING AFFINITY PREDICTED BY RF-SCORE:    0.00 PKD
ROOT
HETATM    1  C   UNL     1      -5.978  15.460  69.256  1.00  0.00    -0.110 C  
HETATM    2  O   UNL     1      -7.348  15.223  69.580  1.00  0.00    -0.201 OA 
ENDROOT
BRANCH   2   3
HETATM    3  C   UNL     1      -8.284  16.030  68.981  1.00  0.00    -0.235 A  
HETATM    4  C   UNL     1      -8.110  17.418  68.838  1.00  0.00    -0.183 A  
HETATM    5  C   UNL     1      -9.110  18.219  68.279  1.00  0.00    -0.318 A  
HETATM    6  C   UNL     1     -10.292  17.646  67.830  1.00  0.00    -0.371 A  
HETATM    7  C   UNL     1     -10.474  16.273  67.947  1.00  0.00    -0.295 A  
HETATM    8  C   UNL     1      -9.484  15.454  68.514  1.00  0.00    -0.202 A  
BRANCH   8   9
HETATM    9  O   UNL     1      -9.900  14.141  68.594  1.00  0.00    -0.225 OA 
BRANCH   9  10
HETATM   10  C   UNL     1      -9.380  13.174  67.796  1.00  0.00    -0.206 A  
HETATM   11  C   UNL     1      -8.325  12.335  68.080  1.00  0.00    -0.165 A  
HETATM   12  N   UNL     1      -7.914  11.339  67.284  1.00  0.00    -0.134 NA 
HETATM   13  N   UNL     1      -9.553  12.013  65.693  1.00  0.00    -0.224 NA 
HETATM   14  C   UNL     1      -8.583  11.182  66.122  1.00  0.00    -0.172 A  
HETATM   15  C   UNL     1      -9.912  13.003  66.528  1.00  0.00    -0.262 A  
BRANCH  11  16
HETATM   16  N   UNL     1      -7.518  12.376  69.242  1.00  0.00    -0.323 N  
HETATM   17  H   UNL     1      -7.534  13.197  69.847  1.00  0.00     0.000 HD 
BRANCH  16  18
HETATM   18  S   UNL     1      -6.537  11.073  69.620  1.00  0.00    -0.139 S  
HETATM   19  O   UNL     1      -5.658  10.808  68.495  1.00  0.00    -0.041 OA 
HETATM   20  O   UNL     1      -5.982  11.355  70.930  1.00  0.00    -0.353 OA 
BRANCH  18  21
HETATM   21  C   UNL     1      -7.610   9.667  69.784  1.00  0.00    -0.123 A  
HETATM   22  C   UNL     1      -9.367   7.479  70.082  1.00  0.00    -0.157 A  
HETATM   23  C   UNL     1      -8.891   9.864  70.294  1.00  0.00    -0.078 A  
HETATM   24  C   UNL     1      -9.754   8.780  70.443  1.00  0.00    -0.209 A  
HETATM   25  C   UNL     1      -8.088   7.318  69.505  1.00  0.00    -0.129 A  
HETATM   26  C   UNL     1      -7.213   8.404  69.351  1.00  0.00    -0.059 A  
BRANCH  22  27
HETATM   27  C   UNL     1     -10.278   6.264  70.344  1.00  0.00    -0.248 C  
HETATM   28  C   UNL     1      -9.663   5.243  71.331  1.00  0.00    -0.219 C  
HETATM   29  C   UNL     1     -10.527   5.515  69.018  1.00  0.00    -0.296 C  
HETATM   30  C   UNL     1     -11.630   6.712  70.934  1.00  0.00    -0.416 C  
ENDBRANCH  22  27
ENDBRANCH  18  21
ENDBRANCH  16  18
ENDBRANCH  11  16
BRANCH  14  31
HETATM   31  C   UNL     1      -8.292   9.968  65.317  1.00  0.00    -0.154 A  
HETATM   32  N   UNL     1      -8.022  10.134  64.000  1.00  0.00    -0.156 NA 
HETATM   33  N   UNL     1      -8.393   8.758  65.920  1.00  0.00    -0.120 NA 
HETATM   34  C   UNL     1      -8.195   7.680  65.143  1.00  0.00    -0.128 A  
HETATM   35  C   UNL     1      -7.846   9.019  63.272  1.00  0.00    -0.135 A  
HETATM   36  C   UNL     1      -7.920   7.752  63.798  1.00  0.00    -0.101 A  
ENDBRANCH  14  31
BRANCH  15  37
HETATM   37  O   UNL     1     -10.849  13.922  66.092  1.00  0.00    -0.288 OA 
BRANCH  37  38
HETATM   38  C   UNL     1     -10.810  14.246  64.696  1.00  0.00    -0.368 C  
BRANCH  38  39
HETATM   39  C   UNL     1     -11.963  15.176  64.332  1.00  0.00    -0.310 C  
HETATM   40  O   UNL     1     -11.477  16.361  63.710  1.00  0.00    -1.590 OA 
HETATM   41  H   UNL     1     -12.195  16.940  63.483  1.00  0.00     0.000 HD 
ENDBRANCH  38  39
ENDBRANCH  37  38
ENDBRANCH  15  37
ENDBRANCH   9  10
ENDBRANCH   8   9
ENDBRANCH   2   3
TORSDOF 11
ENDMDL
MODEL       89
REMARK 921   NORMALIZED FREE ENERGY PREDICTED BY IDOCK:   -4.82 KCAL/MOL
REMARK 922        TOTAL FREE ENERGY PREDICTED BY IDOCK:  -10.38 KCAL/MOL
REMARK 923 INTER-LIGAND FREE ENERGY PREDICTED BY IDOCK:   -8.32 KCAL/MOL
REMARK 924 INTRA-LIGAND FREE ENERGY PREDICTED BY IDOCK:   -2.06 KCAL/MOL
REMARK 927      BINDING AFFINITY PREDICTED BY RF-SCORE:    0.00 PKD
ROOT
HETATM    1  C   UNL     1     -11.794  15.503  69.546  1.00  0.00    -0.372 C  
HETATM    2  O   UNL     1     -11.823  14.421  68.615  1.00  0.00    -0.319 OA 
ENDROOT
BRANCH   2   3
HETATM    3  C   UNL     1     -11.728  13.150  69.126  1.00  0.00    -0.325 A  
HETATM    4  C   UNL     1     -12.622  12.651  70.089  1.00  0.00     0.031 A  
HETATM    5  C   UNL     1     -12.460  11.373  70.634  1.00  0.00    -0.419 A  
HETATM    6  C   UNL     1     -11.416  10.563  70.210  1.00  0.00    -0.416 A  
HETATM    7  C   UNL     1     -10.532  11.034  69.246  1.00  0.00    -0.210 A  
HETATM    8  C   UNL     1     -10.675  12.317  68.694  1.00  0.00    -0.233 A  
BRANCH   8   9
HETATM    9  O   UNL     1      -9.654  12.603  67.811  1.00  0.00    -0.185 OA 
BRANCH   9  10
HETATM   10  C   UNL     1      -9.129  11.657  66.990  1.00  0.00    -0.179 A  
HETATM   11  C   UNL     1      -7.907  11.034  67.110  1.00  0.00    -0.135 A  
HETATM   12  N   UNL     1      -7.482  10.043  66.316  1.00  0.00    -0.103 NA 
HETATM   13  N   UNL     1      -9.485  10.278  65.049  1.00  0.00    -0.232 NA 
HETATM   14  C   UNL     1      -8.318   9.663  65.327  1.00  0.00    -0.134 A  
HETATM   15  C   UNL     1      -9.852  11.275  65.872  1.00  0.00    -0.232 A  
BRANCH  11  16
HETATM   16  N   UNL     1      -6.916  11.323  68.078  1.00  0.00    -0.067 N  
HETATM   17  H   UNL     1      -6.671  12.291  68.286  1.00  0.00     0.000 HD 
BRANCH  16  18
HETATM   18  S   UNL     1      -6.148  10.071  68.882  1.00  0.00    -0.039 S  
HETATM   19  O   UNL     1      -5.485   9.226  67.904  1.00  0.00    -0.034 OA 
HETATM   20  O   UNL     1      -5.386  10.687  69.951  1.00  0.00    -0.038 OA 
BRANCH  18  21
HETATM   21  C   UNL     1      -7.427   9.094  69.631  1.00  0.00    -0.078 A  
HETATM   22  C   UNL     1      -9.472   7.503  70.752  1.00  0.00    -0.163 A  
HETATM   23  C   UNL     1      -7.970   8.037  68.903  1.00  0.00    -0.118 A  
HETATM   24  C   UNL     1      -8.982   7.256  69.459  1.00  0.00    -0.144 A  
HETATM   25  C   UNL     1      -8.857   8.536  71.493  1.00  0.00    -0.260 A  
HETATM   26  C   UNL     1      -7.838   9.326  70.942  1.00  0.00    -0.148 A  
BRANCH  22  27
HETATM   27  C   UNL     1     -10.661   6.711  71.329  1.00  0.00    -0.256 C  
HETATM   28  C   UNL     1     -10.410   5.184  71.376  1.00  0.00    -0.273 C  
HETATM   29  C   UNL     1     -11.904   6.935  70.442  1.00  0.00    -0.351 C  
HETATM   30  C   UNL     1     -10.976   7.167  72.767  1.00  0.00    -0.346 C  
ENDBRANCH  22  27
ENDBRANCH  18  21
ENDBRANCH  16  18
ENDBRANCH  11  16
BRANCH  14  31
HETATM   31  C   UNL     1      -7.972   8.437  64.563  1.00  0.00    -0.146 A  
HETATM   32  N   UNL     1      -8.380   7.245  65.062  1.00  0.00    -0.096 NA 
HETATM   33  N   UNL     1      -7.201   8.567  63.455  1.00  0.00    -0.093 NA 
HETATM   34  C   UNL     1      -6.847   7.431  62.832  1.00  0.00    -0.066 A  
HETATM   35  C   UNL     1      -7.985   6.144  64.401  1.00  0.00    -0.121 A  
HETATM   36  C   UNL     1      -7.211   6.179  63.266  1.00  0.00    -0.056 A  
ENDBRANCH  14  31
BRANCH  15  37
HETATM   37  O   UNL     1     -11.003  11.981  65.574  1.00  0.00    -0.282 OA 
BRANCH  37  38
HETATM   38  C   UNL     1     -11.483  11.863  64.229  1.00  0.00    -0.346 C  
BRANCH  38  39
HETATM   39  C   UNL     1     -12.760  12.677  64.045  1.00  0.00    -0.269 C  
HETATM   40  O   UNL     1     -12.478  13.918  63.406  1.00  0.00    -1.068 OA 
HETATM   41  H   UNL     1     -13.273  14.425  63.291  1.00  0.00     0.000 HD 
ENDBRANCH  38  39
ENDBRANCH  37  38
ENDBRANCH  15  37
ENDBRANCH   9  10
ENDBRANCH   8   9
ENDBRANCH   2   3
TORSDOF 11
ENDMDL
MODEL       90
REMARK 921   NORMALIZED FREE ENERGY PREDICTED BY IDOCK:   -4.80 KCAL/MOL
REMARK 922        TOTAL FREE ENERGY PREDICTED BY IDOCK:  -10.35 KCAL/MOL
REMARK 923 INTER-LIGAND FREE ENERGY PREDICTED BY IDOCK:   -8.97 KCAL/MOL
REMARK 924 INTRA-LIGAND FREE ENERGY PREDICTED BY IDOCK:   -1.38 KCAL/MOL
REMARK 927      BINDING AFFINITY PREDICTED BY RF-SCORE:    0.00 PKD
ROOT
HETATM    1  C   UNL     1     -11.064  15.420  66.882  1.00  0.00    -0.256 C  
HETATM    2  O   UNL     1     -11.629  14.109  66.852  1.00  0.00    -0.351 OA 
ENDROOT
BRANCH   2   3
HETATM    3  C   UNL     1     -11.448  13.374  65.706  1.00  0.00    -0.320 A  
HETATM    4  C   UNL     1     -12.161  13.627  64.522  1.00  0.00    -0.459 A  
HETATM    5  C   UNL     1     -11.997  12.820  63.391  1.00  0.00    -0.613 A  
HETATM    6  C   UNL     1     -11.102  11.760  63.417  1.00  0.00    -0.448 A  
HETATM    7  C   UNL     1     -10.376  11.505  64.575  1.00  0.00    -0.354 A  
HETATM    8  C   UNL     1     -10.534  12.300  65.721  1.00  0.00    -0.255 A  
BRANCH   8   9
HETATM    9  O   UNL     1      -9.771  11.830  66.771  1.00  0.00    -0.192 OA 
BRANCH   9  10
HETATM   10  C   UNL     1     -10.178  10.792  67.546  1.00  0.00    -0.196 A  
HETATM   11  C   UNL     1     -10.199   9.457  67.210  1.00  0.00    -0.246 A  
HETATM   12  N   UNL     1     -10.530   8.469  68.052  1.00  0.00    -0.215 NA 
HETATM   13  N   UNL     1     -11.008  10.117  69.704  1.00  0.00    -0.248 NA 
HETATM   14  C   UNL     1     -10.883   8.837  69.302  1.00  0.00    -0.077 A  
HETATM   15  C   UNL     1     -10.675  11.065  68.810  1.00  0.00    -0.203 A  
BRANCH  11  16
HETATM   16  N   UNL     1      -9.871   8.911  65.946  1.00  0.00    -0.452 N  
HETATM   17  H   UNL     1     -10.582   8.844  65.217  1.00  0.00     0.000 HD 
BRANCH  16  18
HETATM   18  S   UNL     1      -8.312   8.376  65.649  1.00  0.00    -0.162 S  
HETATM   19  O   UNL     1      -7.818   9.020  64.446  1.00  0.00    -0.112 OA 
HETATM   20  O   UNL     1      -7.594   8.518  66.901  1.00  0.00    -0.089 OA 
BRANCH  18  21
HETATM   21  C   UNL     1      -8.435   6.640  65.297  1.00  0.00    -0.073 A  
HETATM   22  C   UNL     1      -8.568   3.887  64.689  1.00  0.00    -0.110 A  
HETATM   23  C   UNL     1      -7.424   6.039  64.551  1.00  0.00    -0.081 A  
HETATM   24  C   UNL     1      -7.495   4.680  64.250  1.00  0.00    -0.071 A  
HETATM   25  C   UNL     1      -9.544   4.506  65.500  1.00  0.00    -0.190 A  
HETATM   26  C   UNL     1      -9.480   5.873  65.809  1.00  0.00     0.034 A  
BRANCH  22  27
HETATM   27  C   UNL     1      -8.704   2.411  64.269  1.00  0.00    -0.097 C  
HETATM   28  C   UNL     1     -10.074   2.083  63.627  1.00  0.00    -0.133 C  
HETATM   29  C   UNL     1      -8.564   1.509  65.514  1.00  0.00    -0.108 C  
HETATM   30  C   UNL     1      -7.617   2.031  63.244  1.00  0.00    -0.054 C  
ENDBRANCH  22  27
ENDBRANCH  18  21
ENDBRANCH  16  18
ENDBRANCH  11  16
BRANCH  14  31
HETATM   31  C   UNL     1     -11.054   7.764  70.315  1.00  0.00    -0.234 A  
HETATM   32  N   UNL     1     -11.823   8.035  71.398  1.00  0.00    -0.289 NA 
HETATM   33  N   UNL     1     -10.370   6.606  70.145  1.00  0.00    -0.197 NA 
HETATM   34  C   UNL     1     -10.492   5.688  71.119  1.00  0.00    -0.241 A  
HETATM   35  C   UNL     1     -11.895   7.083  72.342  1.00  0.00    -0.176 A  
HETATM   36  C   UNL     1     -11.246   5.876  72.253  1.00  0.00    -0.343 A  
ENDBRANCH  14  31
BRANCH  15  37
HETATM   37  O   UNL     1     -10.863  12.390  69.159  1.00  0.00    -0.197 OA 
BRANCH  37  38
HETATM   38  C   UNL     1     -11.929  12.653  70.080  1.00  0.00    -0.306 C  
BRANCH  38  39
HETATM   39  C   UNL     1     -12.180  14.154  70.190  1.00  0.00    -0.351 C  
HETATM   40  O   UNL     1     -11.491  14.698  71.311  1.00  0.00    -0.502 OA 
HETATM   41  H   UNL     1     -11.647  15.633  71.380  1.00  0.00     0.000 HD 
ENDBRANCH  38  39
ENDBRANCH  37  38
ENDBRANCH  15  37
ENDBRANCH   9  10
ENDBRANCH   8   9
ENDBRANCH   2   3
TORSDOF 11
ENDMDL
MODEL       91
REMARK 921   NORMALIZED FREE ENERGY PREDICTED BY IDOCK:   -4.79 KCAL/MOL
REMARK 922        TOTAL FREE ENERGY PREDICTED BY IDOCK:  -10.33 KCAL/MOL
REMARK 923 INTER-LIGAND FREE ENERGY PREDICTED BY IDOCK:   -9.00 KCAL/MOL
REMARK 924 INTRA-LIGAND FREE ENERGY PREDICTED BY IDOCK:   -1.33 KCAL/MOL
REMARK 927      BINDING AFFINITY PREDICTED BY RF-SCORE:    0.00 PKD
ROOT
HETATM    1  C   UNL     1     -13.247  13.729  71.976  1.00  0.00    -0.432 C  
HETATM    2  O   UNL     1     -12.749  13.180  70.756  1.00  0.00    -0.273 OA 
ENDROOT
BRANCH   2   3
HETATM    3  C   UNL     1     -12.041  14.020  69.932  1.00  0.00    -0.345 A  
HETATM    4  C   UNL     1     -12.093  15.420  70.050  1.00  0.00    -0.388 A  
HETATM    5  C   UNL     1     -11.408  16.248  69.155  1.00  0.00    -0.291 A  
HETATM    6  C   UNL     1     -10.642  15.693  68.141  1.00  0.00    -0.274 A  
HETATM    7  C   UNL     1     -10.565  14.310  68.019  1.00  0.00    -0.238 A  
HETATM    8  C   UNL     1     -11.252  13.464  68.904  1.00  0.00    -0.276 A  
BRANCH   8   9
HETATM    9  O   UNL     1     -11.091  12.137  68.560  1.00  0.00    -0.219 OA 
BRANCH   9  10
HETATM   10  C   UNL     1     -10.252  11.750  67.566  1.00  0.00    -0.195 A  
HETATM   11  C   UNL     1      -8.892  11.552  67.652  1.00  0.00    -0.152 A  
HETATM   12  N   UNL     1      -8.131  11.083  66.654  1.00  0.00    -0.150 NA 
HETATM   13  N   UNL     1     -10.063  11.077  65.262  1.00  0.00    -0.259 NA 
HETATM   14  C   UNL     1      -8.761  10.814  65.492  1.00  0.00    -0.187 A  
HETATM   15  C   UNL     1     -10.772  11.560  66.296  1.00  0.00    -0.272 A  
BRANCH  11  16
HETATM   16  N   UNL     1      -8.085  11.797  68.788  1.00  0.00    -0.313 N  
HETATM   17  H   UNL     1      -8.242  12.628  69.358  1.00  0.00     0.000 HD 
BRANCH  16  18
HETATM   18  S   UNL     1      -6.871  10.717  69.195  1.00  0.00    -0.096 S  
HETATM   19  O   UNL     1      -5.789  10.848  68.235  1.00  0.00    -0.043 OA 
HETATM   20  O   UNL     1      -6.619  10.911  70.610  1.00  0.00    -0.319 OA 
BRANCH  18  21
HETATM   21  C   UNL     1      -7.555   9.091  68.990  1.00  0.00    -0.078 A  
HETATM   22  C   UNL     1      -8.694   6.523  68.721  1.00  0.00    -0.123 A  
HETATM   23  C   UNL     1      -8.716   8.765  69.687  1.00  0.00    -0.136 A  
HETATM   24  C   UNL     1      -9.273   7.494  69.554  1.00  0.00    -0.146 A  
HETATM   25  C   UNL     1      -7.557   6.902  67.975  1.00  0.00    -0.108 A  
HETATM   26  C   UNL     1      -6.990   8.179  68.102  1.00  0.00    -0.077 A  
BRANCH  22  27
HETATM   27  C   UNL     1      -9.245   5.086  68.654  1.00  0.00    -0.158 C  
HETATM   28  C   UNL     1     -10.101   4.704  69.886  1.00  0.00    -0.257 C  
HETATM   29  C   UNL     1      -8.069   4.088  68.596  1.00  0.00    -0.078 C  
HETATM   30  C   UNL     1     -10.131   4.898  67.407  1.00  0.00    -0.196 C  
ENDBRANCH  22  27
ENDBRANCH  18  21
ENDBRANCH  16  18
ENDBRANCH  11  16
BRANCH  14  31
HETATM   31  C   UNL     1      -7.993  10.102  64.438  1.00  0.00    -0.153 A  
HETATM   32  N   UNL     1      -6.646  10.040  64.572  1.00  0.00    -0.125 NA 
HETATM   33  N   UNL     1      -8.668   9.627  63.363  1.00  0.00    -0.212 NA 
HETATM   34  C   UNL     1      -7.931   9.054  62.396  1.00  0.00    -0.131 A  
HETATM   35  C   UNL     1      -5.964   9.467  63.566  1.00  0.00    -0.090 A  
HETATM   36  C   UNL     1      -6.561   8.949  62.443  1.00  0.00    -0.094 A  
ENDBRANCH  14  31
BRANCH  15  37
HETATM   37  O   UNL     1     -12.091  11.914  66.078  1.00  0.00    -0.500 OA 
BRANCH  37  38
HETATM   38  C   UNL     1     -12.337  12.764  64.951  1.00  0.00    -0.490 C  
BRANCH  38  39
HETATM   39  C   UNL     1     -12.967  11.969  63.812  1.00  0.00    -0.206 C  
HETATM   40  O   UNL     1     -11.963  11.422  62.964  1.00  0.00    -0.918 OA 
HETATM   41  H   UNL     1     -12.356  10.926  62.254  1.00  0.00     0.000 HD 
ENDBRANCH  38  39
ENDBRANCH  37  38
ENDBRANCH  15  37
ENDBRANCH   9  10
ENDBRANCH   8   9
ENDBRANCH   2   3
TORSDOF 11
ENDMDL
MODEL       92
REMARK 921   NORMALIZED FREE ENERGY PREDICTED BY IDOCK:   -4.78 KCAL/MOL
REMARK 922        TOTAL FREE ENERGY PREDICTED BY IDOCK:  -10.31 KCAL/MOL
REMARK 923 INTER-LIGAND FREE ENERGY PREDICTED BY IDOCK:   -8.98 KCAL/MOL
REMARK 924 INTRA-LIGAND FREE ENERGY PREDICTED BY IDOCK:   -1.33 KCAL/MOL
REMARK 927      BINDING AFFINITY PREDICTED BY RF-SCORE:    0.00 PKD
ROOT
HETATM    1  C   UNL     1      -6.483   9.418  69.533  1.00  0.00    -0.043 C  
HETATM    2  O   UNL     1      -7.275   8.260  69.801  1.00  0.00    -0.058 OA 
ENDROOT
BRANCH   2   3
HETATM    3  C   UNL     1      -7.887   8.189  71.028  1.00  0.00    -0.090 A  
HETATM    4  C   UNL     1      -7.197   8.402  72.234  1.00  0.00    -0.119 A  
HETATM    5  C   UNL     1      -7.837   8.261  73.469  1.00  0.00    -0.206 A  
HETATM    6  C   UNL     1      -9.183   7.927  73.521  1.00  0.00    -0.340 A  
HETATM    7  C   UNL     1      -9.886   7.730  72.338  1.00  0.00    -0.264 A  
HETATM    8  C   UNL     1      -9.257   7.859  71.090  1.00  0.00    -0.147 A  
BRANCH   8   9
HETATM    9  O   UNL     1     -10.119   7.554  70.056  1.00  0.00    -0.194 OA 
BRANCH   9  10
HETATM   10  C   UNL     1     -10.068   8.201  68.864  1.00  0.00    -0.202 A  
HETATM   11  C   UNL     1     -10.136   9.559  68.648  1.00  0.00    -0.181 A  
HETATM   12  N   UNL     1      -9.991  10.144  67.451  1.00  0.00    -0.186 NA 
HETATM   13  N   UNL     1      -9.815   7.976  66.480  1.00  0.00    -0.236 NA 
HETATM   14  C   UNL     1      -9.787   9.321  66.401  1.00  0.00    -0.277 A  
HETATM   15  C   UNL     1      -9.979   7.448  67.705  1.00  0.00    -0.167 A  
BRANCH  11  16
HETATM   16  N   UNL     1     -10.357  10.550  69.635  1.00  0.00    -0.347 N  
HETATM   17  H   UNL     1      -9.716  10.639  70.423  1.00  0.00     0.000 HD 
BRANCH  16  18
HETATM   18  S   UNL     1     -11.675  11.575  69.503  1.00  0.00    -0.373 S  
HETATM   19  O   UNL     1     -12.536  11.095  68.437  1.00  0.00    -0.390 OA 
HETATM   20  O   UNL     1     -12.196  11.733  70.848  1.00  0.00    -0.362 OA 
BRANCH  18  21
HETATM   21  C   UNL     1     -11.037  13.150  68.987  1.00  0.00    -0.234 A  
HETATM   22  C   UNL     1     -10.095  15.684  68.176  1.00  0.00    -0.222 A  
HETATM   23  C   UNL     1     -11.866  14.266  69.078  1.00  0.00    -0.370 A  
HETATM   24  C   UNL     1     -11.398  15.515  68.673  1.00  0.00    -0.348 A  
HETATM   25  C   UNL     1      -9.254  14.550  68.158  1.00  0.00    -0.195 A  
HETATM   26  C   UNL     1      -9.717  13.289  68.564  1.00  0.00    -0.146 A  
BRANCH  22  27
HETATM   27  C   UNL     1      -9.611  17.040  67.629  1.00  0.00    -0.249 C  
HETATM   28  C   UNL     1      -9.394  17.037  66.097  1.00  0.00    -0.245 C  
HETATM   29  C   UNL     1      -8.255  17.398  68.274  1.00  0.00    -0.247 C  
HETATM   30  C   UNL     1     -10.631  18.152  67.943  1.00  0.00    -0.389 C  
ENDBRANCH  22  27
ENDBRANCH  18  21
ENDBRANCH  16  18
ENDBRANCH  11  16
BRANCH  14  31
HETATM   31  C   UNL     1      -9.417   9.939  65.101  1.00  0.00    -0.275 A  
HETATM   32  N   UNL     1     -10.353  10.687  64.469  1.00  0.00    -0.339 NA 
HETATM   33  N   UNL     1      -8.197   9.657  64.580  1.00  0.00    -0.139 NA 
HETATM   34  C   UNL     1      -7.926  10.174  63.370  1.00  0.00    -0.160 A  
HETATM   35  C   UNL     1     -10.028  11.166  63.257  1.00  0.00    -0.379 A  
HETATM   36  C   UNL     1      -8.815  10.941  62.653  1.00  0.00    -0.333 A  
ENDBRANCH  14  31
BRANCH  15  37
HETATM   37  O   UNL     1     -10.091   6.074  67.817  1.00  0.00    -0.132 OA 
BRANCH  37  38
HETATM   38  C   UNL     1      -8.924   5.317  67.471  1.00  0.00    -0.108 C  
BRANCH  38  39
HETATM   39  C   UNL     1      -9.284   3.851  67.254  1.00  0.00    -0.176 C  
HETATM   40  O   UNL     1      -9.715   3.253  68.472  1.00  0.00    -0.112 OA 
HETATM   41  H   UNL     1      -9.940   2.339  68.336  1.00  0.00     0.000 HD 
ENDBRANCH  38  39
ENDBRANCH  37  38
ENDBRANCH  15  37
ENDBRANCH   9  10
ENDBRANCH   8   9
ENDBRANCH   2   3
TORSDOF 11
ENDMDL
MODEL       93
REMARK 921   NORMALIZED FREE ENERGY PREDICTED BY IDOCK:   -4.75 KCAL/MOL
REMARK 922        TOTAL FREE ENERGY PREDICTED BY IDOCK:  -10.27 KCAL/MOL
REMARK 923 INTER-LIGAND FREE ENERGY PREDICTED BY IDOCK:   -8.93 KCAL/MOL
REMARK 924 INTRA-LIGAND FREE ENERGY PREDICTED BY IDOCK:   -1.35 KCAL/MOL
REMARK 927      BINDING AFFINITY PREDICTED BY RF-SCORE:    0.00 PKD
ROOT
HETATM    1  C   UNL     1     -13.348   8.598  72.289  1.00  0.00    -0.375 C  
HETATM    2  O   UNL     1     -12.560   8.622  71.098  1.00  0.00    -0.260 OA 
ENDROOT
BRANCH   2   3
HETATM    3  C   UNL     1     -11.197   8.550  71.246  1.00  0.00    -0.265 A  
HETATM    4  C   UNL     1     -10.583   8.183  72.456  1.00  0.00    -0.411 A  
HETATM    5  C   UNL     1      -9.191   8.179  72.591  1.00  0.00    -0.332 A  
HETATM    6  C   UNL     1      -8.388   8.520  71.512  1.00  0.00    -0.210 A  
HETATM    7  C   UNL     1      -8.977   8.869  70.303  1.00  0.00    -0.201 A  
HETATM    8  C   UNL     1     -10.373   8.886  70.152  1.00  0.00    -0.206 A  
BRANCH   8   9
HETATM    9  O   UNL     1     -10.740   9.326  68.897  1.00  0.00    -0.215 OA 
BRANCH   9  10
HETATM   10  C   UNL     1     -10.078   8.936  67.778  1.00  0.00    -0.210 A  
HETATM   11  C   UNL     1      -9.469   9.743  66.844  1.00  0.00    -0.160 A  
HETATM   12  N   UNL     1      -8.754   9.293  65.804  1.00  0.00    -0.147 NA 
HETATM   13  N   UNL     1      -9.304   7.072  66.463  1.00  0.00    -0.165 NA 
HETATM   14  C   UNL     1      -8.657   7.953  65.676  1.00  0.00    -0.138 A  
HETATM   15  C   UNL     1     -10.018   7.584  67.481  1.00  0.00    -0.174 A  
BRANCH  11  16
HETATM   16  N   UNL     1      -9.487  11.159  66.829  1.00  0.00    -0.181 N  
HETATM   17  H   UNL     1      -8.710  11.685  67.228  1.00  0.00     0.000 HD 
BRANCH  16  18
HETATM   18  S   UNL     1     -10.789  11.966  66.153  1.00  0.00    -0.303 S  
HETATM   19  O   UNL     1     -10.829  11.681  64.730  1.00  0.00    -0.297 OA 
HETATM   20  O   UNL     1     -11.932  11.659  66.992  1.00  0.00    -0.593 OA 
BRANCH  18  21
HETATM   21  C   UNL     1     -10.450  13.701  66.326  1.00  0.00    -0.291 A  
HETATM   22  C   UNL     1      -9.851  16.440  66.650  1.00  0.00    -0.272 A  
HETATM   23  C   UNL     1      -9.318  14.090  67.040  1.00  0.00    -0.256 A  
HETATM   24  C   UNL     1      -9.028  15.443  67.201  1.00  0.00    -0.236 A  
HETATM   25  C   UNL     1     -10.952  16.018  65.875  1.00  0.00    -0.115 A  
HETATM   26  C   UNL     1     -11.252  14.657  65.707  1.00  0.00    -0.336 A  
BRANCH  22  27
HETATM   27  C   UNL     1      -9.593  17.935  66.915  1.00  0.00    -0.300 C  
HETATM   28  C   UNL     1      -8.133  18.362  66.629  1.00  0.00    -0.282 C  
HETATM   29  C   UNL     1      -9.869  18.247  68.402  1.00  0.00    -0.386 C  
HETATM   30  C   UNL     1     -10.506  18.813  66.036  1.00  0.00    -0.483 C  
ENDBRANCH  22  27
ENDBRANCH  18  21
ENDBRANCH  16  18
ENDBRANCH  11  16
BRANCH  14  31
HETATM   31  C   UNL     1      -7.707   7.423  64.664  1.00  0.00    -0.118 A  
HETATM   32  N   UNL     1      -6.966   6.340  65.000  1.00  0.00    -0.051 NA 
HETATM   33  N   UNL     1      -7.574   8.096  63.494  1.00  0.00    -0.128 NA 
HETATM   34  C   UNL     1      -6.653   7.630  62.634  1.00  0.00    -0.071 A  
HETATM   35  C   UNL     1      -6.054   5.929  64.103  1.00  0.00    -0.025 A  
HETATM   36  C   UNL     1      -5.854   6.541  62.890  1.00  0.00    -0.031 A  
ENDBRANCH  14  31
BRANCH  15  37
HETATM   37  O   UNL     1     -10.758   6.717  68.264  1.00  0.00    -0.216 OA 
BRANCH  37  38
HETATM   38  C   UNL     1     -10.265   5.374  68.354  1.00  0.00    -0.163 C  
BRANCH  38  39
HETATM   39  C   UNL     1      -9.500   5.174  69.658  1.00  0.00    -0.143 C  
HETATM   40  O   UNL     1      -9.574   3.817  70.083  1.00  0.00    -0.181 OA 
HETATM   41  H   UNL     1      -9.098   3.692  70.895  1.00  0.00     0.000 HD 
ENDBRANCH  38  39
ENDBRANCH  37  38
ENDBRANCH  15  37
ENDBRANCH   9  10
ENDBRANCH   8   9
ENDBRANCH   2   3
TORSDOF 11
ENDMDL
MODEL       94
REMARK 921   NORMALIZED FREE ENERGY PREDICTED BY IDOCK:   -4.75 KCAL/MOL
REMARK 922        TOTAL FREE ENERGY PREDICTED BY IDOCK:  -10.26 KCAL/MOL
REMARK 923 INTER-LIGAND FREE ENERGY PREDICTED BY IDOCK:   -9.20 KCAL/MOL
REMARK 924 INTRA-LIGAND FREE ENERGY PREDICTED BY IDOCK:   -1.06 KCAL/MOL
REMARK 927      BINDING AFFINITY PREDICTED BY RF-SCORE:    0.00 PKD
ROOT
HETATM    1  C   UNL     1      -6.812   9.476  70.504  1.00  0.00    -0.112 C  
HETATM    2  O   UNL     1      -8.038   9.669  69.798  1.00  0.00    -0.119 OA 
ENDROOT
BRANCH   2   3
HETATM    3  C   UNL     1      -9.202   9.416  70.481  1.00  0.00    -0.259 A  
HETATM    4  C   UNL     1      -9.225   8.760  71.724  1.00  0.00    -0.332 A  
HETATM    5  C   UNL     1     -10.433   8.462  72.363  1.00  0.00    -0.402 A  
HETATM    6  C   UNL     1     -11.637   8.834  71.783  1.00  0.00    -0.416 A  
HETATM    7  C   UNL     1     -11.633   9.498  70.563  1.00  0.00    -0.316 A  
HETATM    8  C   UNL     1     -10.430   9.798  69.903  1.00  0.00    -0.261 A  
BRANCH   8   9
HETATM    9  O   UNL     1     -10.661  10.396  68.681  1.00  0.00    -0.193 OA 
BRANCH   9  10
HETATM   10  C   UNL     1      -9.915  10.102  67.585  1.00  0.00    -0.181 A  
HETATM   11  C   UNL     1      -9.208  10.981  66.796  1.00  0.00    -0.161 A  
HETATM   12  N   UNL     1      -8.417  10.617  65.778  1.00  0.00    -0.175 NA 
HETATM   13  N   UNL     1      -9.079   8.359  66.148  1.00  0.00    -0.179 NA 
HETATM   14  C   UNL     1      -8.344   9.295  65.516  1.00  0.00    -0.133 A  
HETATM   15  C   UNL     1      -9.865   8.787  67.152  1.00  0.00    -0.207 A  
BRANCH  11  16
HETATM   16  N   UNL     1      -9.188  12.390  66.930  1.00  0.00    -0.203 N  
HETATM   17  H   UNL     1      -8.404  12.850  67.394  1.00  0.00     0.000 HD 
BRANCH  16  18
HETATM   18  S   UNL     1     -10.457  13.300  66.326  1.00  0.00    -0.292 S  
HETATM   19  O   UNL     1     -10.479  13.170  64.880  1.00  0.00    -0.318 OA 
HETATM   20  O   UNL     1     -11.622  12.936  67.110  1.00  0.00    -0.322 OA 
BRANCH  18  21
HETATM   21  C   UNL     1     -10.077  14.996  66.689  1.00  0.00    -0.261 A  
HETATM   22  C   UNL     1      -9.414  17.689  67.213  1.00  0.00    -0.257 A  
HETATM   23  C   UNL     1      -9.128  15.648  65.905  1.00  0.00    -0.277 A  
HETATM   24  C   UNL     1      -8.801  16.977  66.170  1.00  0.00    -0.251 A  
HETATM   25  C   UNL     1     -10.421  17.027  67.948  1.00  0.00    -0.354 A  
HETATM   26  C   UNL     1     -10.757  15.690  67.689  1.00  0.00    -0.302 A  
BRANCH  22  27
HETATM   27  C   UNL     1      -8.979  19.123  67.576  1.00  0.00    -0.332 C  
HETATM   28  C   UNL     1      -9.008  20.091  66.369  1.00  0.00    -0.408 C  
HETATM   29  C   UNL     1      -7.528  19.100  68.100  1.00  0.00    -0.316 C  
HETATM   30  C   UNL     1      -9.901  19.716  68.660  1.00  0.00    -0.519 C  
ENDBRANCH  22  27
ENDBRANCH  18  21
ENDBRANCH  16  18
ENDBRANCH  11  16
BRANCH  14  31
HETATM   31  C   UNL     1      -7.325   8.841  64.536  1.00  0.00    -0.102 A  
HETATM   32  N   UNL     1      -6.311   9.689  64.240  1.00  0.00    -0.099 NA 
HETATM   33  N   UNL     1      -7.506   7.641  63.931  1.00  0.00    -0.100 NA 
HETATM   34  C   UNL     1      -6.604   7.296  62.997  1.00  0.00    -0.053 A  
HETATM   35  C   UNL     1      -5.448   9.293  63.289  1.00  0.00    -0.068 A  
HETATM   36  C   UNL     1      -5.546   8.093  62.629  1.00  0.00    -0.069 A  
ENDBRANCH  14  31
BRANCH  15  37
HETATM   37  O   UNL     1     -10.692   7.869  67.774  1.00  0.00    -0.206 OA 
BRANCH  37  38
HETATM   38  C   UNL     1     -10.176   6.537  67.893  1.00  0.00    -0.168 C  
BRANCH  38  39
HETATM   39  C   UNL     1     -10.677   5.885  69.177  1.00  0.00    -0.324 C  
HETATM   40  O   UNL     1      -9.678   5.036  69.734  1.00  0.00    -0.158 OA 
HETATM   41  H   UNL     1      -9.990   4.629  70.534  1.00  0.00     0.000 HD 
ENDBRANCH  38  39
ENDBRANCH  37  38
ENDBRANCH  15  37
ENDBRANCH   9  10
ENDBRANCH   8   9
ENDBRANCH   2   3
TORSDOF 11
ENDMDL
MODEL       95
REMARK 921   NORMALIZED FREE ENERGY PREDICTED BY IDOCK:   -4.74 KCAL/MOL
REMARK 922        TOTAL FREE ENERGY PREDICTED BY IDOCK:  -10.26 KCAL/MOL
REMARK 923 INTER-LIGAND FREE ENERGY PREDICTED BY IDOCK:   -7.64 KCAL/MOL
REMARK 924 INTRA-LIGAND FREE ENERGY PREDICTED BY IDOCK:   -2.62 KCAL/MOL
REMARK 927      BINDING AFFINITY PREDICTED BY RF-SCORE:    0.00 PKD
ROOT
HETATM    1  C   UNL     1     -10.468  10.986  64.622  1.00  0.00    -0.329 C  
HETATM    2  O   UNL     1     -10.182   9.887  65.488  1.00  0.00    -0.273 OA 
ENDROOT
BRANCH   2   3
HETATM    3  C   UNL     1      -8.895   9.410  65.493  1.00  0.00    -0.184 A  
HETATM    4  C   UNL     1      -7.795  10.189  65.092  1.00  0.00    -0.140 A  
HETATM    5  C   UNL     1      -6.505   9.653  65.050  1.00  0.00    -0.090 A  
HETATM    6  C   UNL     1      -6.286   8.336  65.429  1.00  0.00    -0.045 A  
HETATM    7  C   UNL     1      -7.358   7.556  65.844  1.00  0.00    -0.074 A  
HETATM    8  C   UNL     1      -8.662   8.075  65.885  1.00  0.00    -0.157 A  
BRANCH   8   9
HETATM    9  O   UNL     1      -9.578   7.113  66.259  1.00  0.00    -0.139 OA 
BRANCH   9  10
HETATM   10  C   UNL     1      -9.661   6.660  67.536  1.00  0.00    -0.127 A  
HETATM   11  C   UNL     1     -10.147   7.338  68.632  1.00  0.00    -0.176 A  
HETATM   12  N   UNL     1     -10.285   6.804  69.853  1.00  0.00    -0.187 NA 
HETATM   13  N   UNL     1      -9.302   4.799  69.022  1.00  0.00    -0.124 NA 
HETATM   14  C   UNL     1      -9.895   5.519  69.995  1.00  0.00    -0.198 A  
HETATM   15  C   UNL     1      -9.178   5.394  67.823  1.00  0.00    -0.109 A  
BRANCH  11  16
HETATM   16  N   UNL     1     -10.583   8.684  68.652  1.00  0.00    -0.367 N  
HETATM   17  H   UNL     1     -11.449   8.949  68.185  1.00  0.00     0.000 HD 
BRANCH  16  18
HETATM   18  S   UNL     1      -9.670   9.842  69.447  1.00  0.00    -0.215 S  
HETATM   19  O   UNL     1     -10.203  10.018  70.787  1.00  0.00    -0.172 OA 
HETATM   20  O   UNL     1      -8.284   9.460  69.257  1.00  0.00    -0.101 OA 
BRANCH  18  21
HETATM   21  C   UNL     1      -9.929  11.369  68.580  1.00  0.00    -0.201 A  
HETATM   22  C   UNL     1     -10.418  13.783  67.202  1.00  0.00    -0.272 A  
HETATM   23  C   UNL     1     -11.235  11.813  68.389  1.00  0.00    -0.307 A  
HETATM   24  C   UNL     1     -11.473  13.004  67.704  1.00  0.00    -0.369 A  
HETATM   25  C   UNL     1      -9.102  13.346  67.468  1.00  0.00    -0.215 A  
HETATM   26  C   UNL     1      -8.854  12.149  68.157  1.00  0.00    -0.187 A  
BRANCH  22  27
HETATM   27  C   UNL     1     -10.679  15.043  66.354  1.00  0.00    -0.322 C  
HETATM   28  C   UNL     1     -11.650  14.793  65.175  1.00  0.00    -0.358 C  
HETATM   29  C   UNL     1      -9.349  15.536  65.745  1.00  0.00    -0.292 C  
HETATM   30  C   UNL     1     -11.289  16.166  67.217  1.00  0.00     0.111 C  
ENDBRANCH  22  27
ENDBRANCH  18  21
ENDBRANCH  16  18
ENDBRANCH  11  16
BRANCH  14  31
HETATM   31  C   UNL     1     -10.224   4.835  71.272  1.00  0.00    -0.158 A  
HETATM   32  N   UNL     1     -10.760   5.581  72.268  1.00  0.00    -0.223 NA 
HETATM   33  N   UNL     1      -9.897   3.526  71.401  1.00  0.00    -0.171 NA 
HETATM   34  C   UNL     1     -10.142   2.960  72.595  1.00  0.00    -0.159 A  
HETATM   35  C   UNL     1     -10.971   4.962  73.442  1.00  0.00    -0.325 A  
HETATM   36  C   UNL     1     -10.680   3.638  73.663  1.00  0.00    -0.307 A  
ENDBRANCH  14  31
BRANCH  15  37
HETATM   37  O   UNL     1      -8.506   4.716  66.822  1.00  0.00    -0.106 OA 
BRANCH  37  38
HETATM   38  C   UNL     1      -8.759   3.308  66.736  1.00  0.00    -0.125 C  
BRANCH  38  39
HETATM   39  C   UNL     1      -8.577   2.820  65.303  1.00  0.00    -0.107 C  
HETATM   40  O   UNL     1      -9.835   2.501  64.716  1.00  0.00    -0.336 OA 
HETATM   41  H   UNL     1      -9.722   2.197  63.823  1.00  0.00     0.000 HD 
ENDBRANCH  38  39
ENDBRANCH  37  38
ENDBRANCH  15  37
ENDBRANCH   9  10
ENDBRANCH   8   9
ENDBRANCH   2   3
TORSDOF 11
ENDMDL
MODEL       96
REMARK 921   NORMALIZED FREE ENERGY PREDICTED BY IDOCK:   -4.72 KCAL/MOL
REMARK 922        TOTAL FREE ENERGY PREDICTED BY IDOCK:  -10.22 KCAL/MOL
REMARK 923 INTER-LIGAND FREE ENERGY PREDICTED BY IDOCK:   -7.60 KCAL/MOL
REMARK 924 INTRA-LIGAND FREE ENERGY PREDICTED BY IDOCK:   -2.62 KCAL/MOL
REMARK 927      BINDING AFFINITY PREDICTED BY RF-SCORE:    0.00 PKD
ROOT
HETATM    1  C   UNL     1     -12.449   9.802  71.182  1.00  0.00    -0.350 C  
HETATM    2  O   UNL     1     -11.039   9.605  71.294  1.00  0.00    -0.346 OA 
ENDROOT
BRANCH   2   3
HETATM    3  C   UNL     1     -10.607   8.357  71.670  1.00  0.00    -0.258 A  
HETATM    4  C   UNL     1     -11.248   7.601  72.666  1.00  0.00    -0.419 A  
HETATM    5  C   UNL     1     -10.746   6.359  73.069  1.00  0.00    -0.286 A  
HETATM    6  C   UNL     1      -9.608   5.841  72.468  1.00  0.00    -0.168 A  
HETATM    7  C   UNL     1      -8.970   6.568  71.469  1.00  0.00    -0.140 A  
HETATM    8  C   UNL     1      -9.456   7.820  71.058  1.00  0.00    -0.155 A  
BRANCH   8   9
HETATM    9  O   UNL     1      -8.635   8.392  70.108  1.00  0.00    -0.125 OA 
BRANCH   9  10
HETATM   10  C   UNL     1      -9.118   9.220  69.147  1.00  0.00    -0.145 A  
HETATM   11  C   UNL     1     -10.066   8.928  68.193  1.00  0.00    -0.189 A  
HETATM   12  N   UNL     1     -10.567   9.816  67.325  1.00  0.00    -0.264 NA 
HETATM   13  N   UNL     1      -9.069  11.440  68.215  1.00  0.00    -0.173 NA 
HETATM   14  C   UNL     1     -10.077  11.072  67.399  1.00  0.00    -0.186 A  
HETATM   15  C   UNL     1      -8.598  10.501  69.053  1.00  0.00    -0.157 A  
BRANCH  11  16
HETATM   16  N   UNL     1     -10.668   7.664  67.976  1.00  0.00    -0.422 N  
HETATM   17  H   UNL     1     -11.543   7.428  68.443  1.00  0.00     0.000 HD 
BRANCH  16  18
HETATM   18  S   UNL     1      -9.937   6.560  66.952  1.00  0.00    -0.177 S  
HETATM   19  O   UNL     1     -10.959   5.692  66.395  1.00  0.00    -0.218 OA 
HETATM   20  O   UNL     1      -9.078   7.332  66.075  1.00  0.00    -0.153 OA 
BRANCH  18  21
HETATM   21  C   UNL     1      -8.892   5.546  67.969  1.00  0.00    -0.105 A  
HETATM   22  C   UNL     1      -7.295   3.895  69.609  1.00  0.00    -0.049 A  
HETATM   23  C   UNL     1      -9.456   4.450  68.619  1.00  0.00    -0.219 A  
HETATM   24  C   UNL     1      -8.665   3.640  69.431  1.00  0.00    -0.131 A  
HETATM   25  C   UNL     1      -6.735   4.970  68.886  1.00  0.00    -0.050 A  
HETATM   26  C   UNL     1      -7.524   5.791  68.066  1.00  0.00    -0.077 A  
BRANCH  22  27
HETATM   27  C   UNL     1      -6.442   3.066  70.588  1.00  0.00    -0.027 C  
HETATM   28  C   UNL     1      -7.274   2.065  71.425  1.00  0.00    -0.032 C  
HETATM   29  C   UNL     1      -5.741   4.013  71.586  1.00  0.00    -0.008 C  
HETATM   30  C   UNL     1      -5.376   2.251  69.829  1.00  0.00    -0.012 C  
ENDBRANCH  22  27
ENDBRANCH  18  21
ENDBRANCH  16  18
ENDBRANCH  11  16
BRANCH  14  31
HETATM   31  C   UNL     1     -10.752  12.126  66.599  1.00  0.00    -0.246 A  
HETATM   32  N   UNL     1     -11.938  12.599  67.051  1.00  0.00    -0.491 NA 
HETATM   33  N   UNL     1     -10.189  12.497  65.422  1.00  0.00    -0.281 NA 
HETATM   34  C   UNL     1     -10.866  13.399  64.691  1.00  0.00    -0.392 A  
HETATM   35  C   UNL     1     -12.572  13.490  66.270  1.00  0.00    -0.239 A  
HETATM   36  C   UNL     1     -12.076  13.932  65.068  1.00  0.00    -0.422 A  
ENDBRANCH  14  31
BRANCH  15  37
HETATM   37  O   UNL     1      -7.514  10.818  69.851  1.00  0.00    -0.098 OA 
BRANCH  37  38
HETATM   38  C   UNL     1      -6.236  10.364  69.387  1.00  0.00    -0.049 C  
BRANCH  38  39
HETATM   39  C   UNL     1      -5.376   9.905  70.559  1.00  0.00    -0.044 C  
HETATM   40  O   UNL     1      -6.113   9.960  71.776  1.00  0.00    -0.300 OA 
HETATM   41  H   UNL     1      -5.577   9.673  72.507  1.00  0.00     0.000 HD 
ENDBRANCH  38  39
ENDBRANCH  37  38
ENDBRANCH  15  37
ENDBRANCH   9  10
ENDBRANCH   8   9
ENDBRANCH   2   3
TORSDOF 11
ENDMDL
MODEL       97
REMARK 921   NORMALIZED FREE ENERGY PREDICTED BY IDOCK:   -4.72 KCAL/MOL
REMARK 922        TOTAL FREE ENERGY PREDICTED BY IDOCK:  -10.22 KCAL/MOL
REMARK 923 INTER-LIGAND FREE ENERGY PREDICTED BY IDOCK:   -8.83 KCAL/MOL
REMARK 924 INTRA-LIGAND FREE ENERGY PREDICTED BY IDOCK:   -1.38 KCAL/MOL
REMARK 927      BINDING AFFINITY PREDICTED BY RF-SCORE:    0.00 PKD
ROOT
HETATM    1  C   UNL     1     -12.692  15.373  70.800  1.00  0.00    -0.459 C  
HETATM    2  O   UNL     1     -12.326  14.355  69.868  1.00  0.00    -0.326 OA 
ENDROOT
BRANCH   2   3
HETATM    3  C   UNL     1     -12.330  13.059  70.320  1.00  0.00    -0.241 A  
HETATM    4  C   UNL     1     -13.236  12.596  71.290  1.00  0.00    -0.119 A  
HETATM    5  C   UNL     1     -13.173  11.286  71.774  1.00  0.00    -0.480 A  
HETATM    6  C   UNL     1     -12.218  10.408  71.281  1.00  0.00    -0.491 A  
HETATM    7  C   UNL     1     -11.324  10.843  70.310  1.00  0.00    -0.342 A  
HETATM    8  C   UNL     1     -11.368  12.157  69.818  1.00  0.00    -0.100 A  
BRANCH   8   9
HETATM    9  O   UNL     1     -10.352  12.393  68.915  1.00  0.00    -0.167 OA 
BRANCH   9  10
HETATM   10  C   UNL     1      -9.790  11.392  68.190  1.00  0.00    -0.191 A  
HETATM   11  C   UNL     1      -8.556  10.813  68.382  1.00  0.00    -0.141 A  
HETATM   12  N   UNL     1      -8.093   9.767  67.686  1.00  0.00    -0.113 NA 
HETATM   13  N   UNL     1     -10.079   9.837  66.374  1.00  0.00    -0.245 NA 
HETATM   14  C   UNL     1      -8.903   9.280  66.723  1.00  0.00    -0.127 A  
HETATM   15  C   UNL     1     -10.484  10.894  67.099  1.00  0.00    -0.237 A  
BRANCH  11  16
HETATM   16  N   UNL     1      -7.589  11.213  69.336  1.00  0.00    -0.342 N  
HETATM   17  H   UNL     1      -7.669  10.907  70.306  1.00  0.00     0.000 HD 
BRANCH  16  18
HETATM   18  S   UNL     1      -6.312  12.190  68.867  1.00  0.00    -0.090 S  
HETATM   19  O   UNL     1      -5.388  12.317  69.980  1.00  0.00    -0.080 OA 
HETATM   20  O   UNL     1      -5.854  11.669  67.593  1.00  0.00    -0.048 OA 
BRANCH  18  21
HETATM   21  C   UNL     1      -6.995  13.802  68.572  1.00  0.00    -0.103 A  
HETATM   22  C   UNL     1      -8.100  16.342  68.031  1.00  0.00    -0.159 A  
HETATM   23  C   UNL     1      -7.695  14.022  67.388  1.00  0.00    -0.177 A  
HETATM   24  C   UNL     1      -8.235  15.279  67.122  1.00  0.00    -0.250 A  
HETATM   25  C   UNL     1      -7.447  16.073  69.253  1.00  0.00    -0.228 A  
HETATM   26  C   UNL     1      -6.899  14.811  69.528  1.00  0.00    -0.169 A  
BRANCH  22  27
HETATM   27  C   UNL     1      -8.604  17.759  67.694  1.00  0.00    -0.230 C  
HETATM   28  C   UNL     1      -7.945  18.861  68.558  1.00  0.00    -0.382 C  
HETATM   29  C   UNL     1     -10.125  17.836  67.951  1.00  0.00    -0.342 C  
HETATM   30  C   UNL     1      -8.321  18.104  66.219  1.00  0.00    -0.228 C  
ENDBRANCH  22  27
ENDBRANCH  18  21
ENDBRANCH  16  18
ENDBRANCH  11  16
BRANCH  14  31
HETATM   31  C   UNL     1      -8.514   8.000  66.076  1.00  0.00    -0.136 A  
HETATM   32  N   UNL     1      -9.256   6.901  66.354  1.00  0.00    -0.163 NA 
HETATM   33  N   UNL     1      -7.396   7.982  65.309  1.00  0.00    -0.068 NA 
HETATM   34  C   UNL     1      -7.034   6.793  64.801  1.00  0.00    -0.055 A  
HETATM   35  C   UNL     1      -8.837   5.739  65.826  1.00  0.00    -0.146 A  
HETATM   36  C   UNL     1      -7.723   5.625  65.031  1.00  0.00    -0.094 A  
ENDBRANCH  14  31
BRANCH  15  37
HETATM   37  O   UNL     1     -11.647  11.540  66.723  1.00  0.00    -0.492 OA 
BRANCH  37  38
HETATM   38  C   UNL     1     -11.482  12.819  66.096  1.00  0.00    -0.351 C  
BRANCH  38  39
HETATM   39  C   UNL     1     -10.915  12.654  64.689  1.00  0.00    -0.313 C  
HETATM   40  O   UNL     1     -11.851  11.992  63.844  1.00  0.00    -0.410 OA 
HETATM   41  H   UNL     1     -11.498  11.889  62.968  1.00  0.00     0.000 HD 
ENDBRANCH  38  39
ENDBRANCH  37  38
ENDBRANCH  15  37
ENDBRANCH   9  10
ENDBRANCH   8   9
ENDBRANCH   2   3
TORSDOF 11
ENDMDL
MODEL       98
REMARK 921   NORMALIZED FREE ENERGY PREDICTED BY IDOCK:   -4.72 KCAL/MOL
REMARK 922        TOTAL FREE ENERGY PREDICTED BY IDOCK:  -10.21 KCAL/MOL
REMARK 923 INTER-LIGAND FREE ENERGY PREDICTED BY IDOCK:   -9.15 KCAL/MOL
REMARK 924 INTRA-LIGAND FREE ENERGY PREDICTED BY IDOCK:   -1.06 KCAL/MOL
REMARK 927      BINDING AFFINITY PREDICTED BY RF-SCORE:    0.00 PKD
ROOT
HETATM    1  C   UNL     1     -11.209   6.512  72.826  1.00  0.00    -0.224 C  
HETATM    2  O   UNL     1     -10.618   7.543  72.034  1.00  0.00    -0.204 OA 
ENDROOT
BRANCH   2   3
HETATM    3  C   UNL     1     -11.370   8.670  71.809  1.00  0.00    -0.323 A  
HETATM    4  C   UNL     1     -12.672   8.827  72.313  1.00  0.00    -0.466 A  
HETATM    5  C   UNL     1     -13.433   9.961  72.013  1.00  0.00    -0.478 A  
HETATM    6  C   UNL     1     -12.899  10.969  71.223  1.00  0.00    -0.528 A  
HETATM    7  C   UNL     1     -11.606  10.838  70.729  1.00  0.00    -0.322 A  
HETATM    8  C   UNL     1     -10.831   9.703  71.013  1.00  0.00    -0.342 A  
BRANCH   8   9
HETATM    9  O   UNL     1      -9.611   9.750  70.370  1.00  0.00    -0.252 OA 
BRANCH   9  10
HETATM   10  C   UNL     1      -9.514   9.768  69.016  1.00  0.00    -0.173 A  
HETATM   11  C   UNL     1      -9.291  10.860  68.208  1.00  0.00    -0.168 A  
HETATM   12  N   UNL     1      -9.118  10.799  66.882  1.00  0.00    -0.148 NA 
HETATM   13  N   UNL     1      -9.516   8.454  66.997  1.00  0.00    -0.163 NA 
HETATM   14  C   UNL     1      -9.191   9.574  66.321  1.00  0.00    -0.172 A  
HETATM   15  C   UNL     1      -9.693   8.581  68.324  1.00  0.00    -0.155 A  
BRANCH  11  16
HETATM   16  N   UNL     1      -9.201  12.207  68.636  1.00  0.00    -0.386 N  
HETATM   17  H   UNL     1      -9.997  12.654  69.091  1.00  0.00     0.000 HD 
BRANCH  16  18
HETATM   18  S   UNL     1      -7.783  13.064  68.393  1.00  0.00    -0.125 S  
HETATM   19  O   UNL     1      -7.026  13.075  69.632  1.00  0.00     0.082 OA 
HETATM   20  O   UNL     1      -7.194  12.528  67.181  1.00  0.00    -0.136 OA 
BRANCH  18  21
HETATM   21  C   UNL     1      -8.260  14.741  68.060  1.00  0.00    -0.142 A  
HETATM   22  C   UNL     1      -8.981  17.431  67.597  1.00  0.00    -0.233 A  
HETATM   23  C   UNL     1      -7.744  15.753  68.868  1.00  0.00    -0.186 A  
HETATM   24  C   UNL     1      -8.106  17.079  68.638  1.00  0.00    -0.254 A  
HETATM   25  C   UNL     1      -9.435  16.395  66.752  1.00  0.00    -0.265 A  
HETATM   26  C   UNL     1      -9.076  15.057  66.975  1.00  0.00    -0.249 A  
BRANCH  22  27
HETATM   27  C   UNL     1      -9.466  18.881  67.407  1.00  0.00    -0.334 C  
HETATM   28  C   UNL     1      -8.313  19.879  67.143  1.00  0.00    -0.367 C  
HETATM   29  C   UNL     1     -10.185  19.353  68.689  1.00  0.00    -0.462 C  
HETATM   30  C   UNL     1     -10.438  18.981  66.215  1.00  0.00    -0.534 C  
ENDBRANCH  22  27
ENDBRANCH  18  21
ENDBRANCH  16  18
ENDBRANCH  11  16
BRANCH  14  31
HETATM   31  C   UNL     1      -8.801   9.443  64.894  1.00  0.00    -0.202 A  
HETATM   32  N   UNL     1      -8.466   8.210  64.442  1.00  0.00    -0.038 NA 
HETATM   33  N   UNL     1      -8.721  10.569  64.144  1.00  0.00    -0.182 NA 
HETATM   34  C   UNL     1      -8.294  10.420  62.879  1.00  0.00    -0.176 A  
HETATM   35  C   UNL     1      -8.035   8.127  63.172  1.00  0.00    -0.151 A  
HETATM   36  C   UNL     1      -7.930   9.211  62.335  1.00  0.00    -0.129 A  
ENDBRANCH  14  31
BRANCH  15  37
HETATM   37  O   UNL     1     -10.102   7.471  69.039  1.00  0.00    -0.181 OA 
BRANCH  37  38
HETATM   38  C   UNL     1     -11.093   6.647  68.412  1.00  0.00    -0.198 C  
BRANCH  38  39
HETATM   39  C   UNL     1     -10.524   5.265  68.108  1.00  0.00    -0.070 C  
HETATM   40  O   UNL     1      -9.520   5.345  67.101  1.00  0.00    -0.117 OA 
HETATM   41  H   UNL     1      -9.165   4.484  66.912  1.00  0.00     0.000 HD 
ENDBRANCH  38  39
ENDBRANCH  37  38
ENDBRANCH  15  37
ENDBRANCH   9  10
ENDBRANCH   8   9
ENDBRANCH   2   3
TORSDOF 11
ENDMDL
MODEL       99
REMARK 921   NORMALIZED FREE ENERGY PREDICTED BY IDOCK:   -4.72 KCAL/MOL
REMARK 922        TOTAL FREE ENERGY PREDICTED BY IDOCK:  -10.21 KCAL/MOL
REMARK 923 INTER-LIGAND FREE ENERGY PREDICTED BY IDOCK:   -8.48 KCAL/MOL
REMARK 924 INTRA-LIGAND FREE ENERGY PREDICTED BY IDOCK:   -1.74 KCAL/MOL
REMARK 927      BINDING AFFINITY PREDICTED BY RF-SCORE:    0.00 PKD
ROOT
HETATM    1  C   UNL     1     -12.998  11.606  71.669  1.00  0.00    -0.378 C  
HETATM    2  O   UNL     1     -12.383  11.196  70.447  1.00  0.00    -0.320 OA 
ENDROOT
BRANCH   2   3
HETATM    3  C   UNL     1     -11.446  10.195  70.521  1.00  0.00    -0.337 A  
HETATM    4  C   UNL     1     -11.291   9.383  71.658  1.00  0.00    -0.452 A  
HETATM    5  C   UNL     1     -10.286   8.413  71.724  1.00  0.00    -0.323 A  
HETATM    6  C   UNL     1      -9.432   8.221  70.647  1.00  0.00    -0.181 A  
HETATM    7  C   UNL     1      -9.582   9.003  69.507  1.00  0.00    -0.165 A  
HETATM    8  C   UNL     1     -10.580   9.987  69.427  1.00  0.00    -0.233 A  
BRANCH   8   9
HETATM    9  O   UNL     1     -10.505  10.686  68.240  1.00  0.00    -0.169 OA 
BRANCH   9  10
HETATM   10  C   UNL     1      -9.801  11.842  68.131  1.00  0.00    -0.192 A  
HETATM   11  C   UNL     1     -10.231  13.113  68.440  1.00  0.00    -0.247 A  
HETATM   12  N   UNL     1      -9.457  14.206  68.394  1.00  0.00    -0.211 NA 
HETATM   13  N   UNL     1      -7.687  12.846  67.562  1.00  0.00    -0.163 NA 
HETATM   14  C   UNL     1      -8.181  14.023  67.995  1.00  0.00    -0.155 A  
HETATM   15  C   UNL     1      -8.515  11.789  67.618  1.00  0.00    -0.149 A  
BRANCH  11  16
HETATM   16  N   UNL     1     -11.534  13.473  68.858  1.00  0.00    -0.283 N  
HETATM   17  H   UNL     1     -12.341  12.939  68.535  1.00  0.00     0.000 HD 
BRANCH  16  18
HETATM   18  S   UNL     1     -11.748  14.779  69.885  1.00  0.00    -0.325 S  
HETATM   19  O   UNL     1     -13.170  14.972  70.106  1.00  0.00    -0.092 OA 
HETATM   20  O   UNL     1     -10.858  14.555  71.008  1.00  0.00     0.233 OA 
BRANCH  18  21
HETATM   21  C   UNL     1     -11.158  16.207  69.011  1.00  0.00    -0.336 A  
HETATM   22  C   UNL     1     -10.243  18.445  67.554  1.00  0.00    -0.393 A  
HETATM   23  C   UNL     1     -11.394  16.293  67.640  1.00  0.00    -0.016 A  
HETATM   24  C   UNL     1     -10.936  17.398  66.924  1.00  0.00     0.135 A  
HETATM   25  C   UNL     1     -10.078  18.365  68.953  1.00  0.00    -0.352 A  
HETATM   26  C   UNL     1     -10.536  17.257  69.683  1.00  0.00     0.047 A  
BRANCH  22  27
HETATM   27  C   UNL     1      -9.645  19.614  66.749  1.00  0.00    -0.474 C  
HETATM   28  C   UNL     1      -9.572  20.934  67.554  1.00  0.00    -0.358 C  
HETATM   29  C   UNL     1     -10.527  19.890  65.512  1.00  0.00    -0.333 C  
HETATM   30  C   UNL     1      -8.213  19.283  66.285  1.00  0.00    -0.327 C  
ENDBRANCH  22  27
ENDBRANCH  18  21
ENDBRANCH  16  18
ENDBRANCH  11  16
BRANCH  14  31
HETATM   31  C   UNL     1      -7.244  15.169  68.130  1.00  0.00    -0.115 A  
HETATM   32  N   UNL     1      -7.275  15.877  69.285  1.00  0.00    -0.206 NA 
HETATM   33  N   UNL     1      -6.470  15.493  67.066  1.00  0.00    -0.239 NA 
HETATM   34  C   UNL     1      -5.689  16.579  67.199  1.00  0.00    -0.124 A  
HETATM   35  C   UNL     1      -6.482  16.958  69.354  1.00  0.00    -0.234 A  
HETATM   36  C   UNL     1      -5.657  17.359  68.331  1.00  0.00    -0.146 A  
ENDBRANCH  14  31
BRANCH  15  37
HETATM   37  O   UNL     1      -8.071  10.581  67.111  1.00  0.00    -0.117 OA 
BRANCH  37  38
HETATM   38  C   UNL     1      -7.840  10.539  65.697  1.00  0.00    -0.150 C  
BRANCH  38  39
HETATM   39  C   UNL     1      -9.106  10.112  64.963  1.00  0.00    -0.205 C  
HETATM   40  O   UNL     1      -9.831   9.152  65.725  1.00  0.00    -0.388 OA 
HETATM   41  H   UNL     1     -10.621   8.886  65.267  1.00  0.00     0.000 HD 
ENDBRANCH  38  39
ENDBRANCH  37  38
ENDBRANCH  15  37
ENDBRANCH   9  10
ENDBRANCH   8   9
ENDBRANCH   2   3
TORSDOF 11
ENDMDL
MODEL      100
REMARK 921   NORMALIZED FREE ENERGY PREDICTED BY IDOCK:   -4.69 KCAL/MOL
REMARK 922        TOTAL FREE ENERGY PREDICTED BY IDOCK:  -10.18 KCAL/MOL
REMARK 923 INTER-LIGAND FREE ENERGY PREDICTED BY IDOCK:   -8.64 KCAL/MOL
REMARK 924 INTRA-LIGAND FREE ENERGY PREDICTED BY IDOCK:   -1.53 KCAL/MOL
REMARK 927      BINDING AFFINITY PREDICTED BY RF-SCORE:    0.00 PKD
ROOT
HETATM    1  C   UNL     1      -9.467  18.831  67.774  1.00  0.00    -0.301 C  
HETATM    2  O   UNL     1      -9.445  17.434  68.069  1.00  0.00    -0.266 OA 
ENDROOT
BRANCH   2   3
HETATM    3  C   UNL     1      -9.764  16.572  67.049  1.00  0.00    -0.250 A  
HETATM    4  C   UNL     1     -10.438  16.987  65.888  1.00  0.00    -0.282 A  
HETATM    5  C   UNL     1     -10.803  16.071  64.896  1.00  0.00    -0.391 A  
HETATM    6  C   UNL     1     -10.481  14.729  65.035  1.00  0.00    -0.443 A  
HETATM    7  C   UNL     1      -9.799  14.303  66.169  1.00  0.00    -0.335 A  
HETATM    8  C   UNL     1      -9.433  15.207  67.179  1.00  0.00    -0.216 A  
BRANCH   8   9
HETATM    9  O   UNL     1      -8.829  14.562  68.239  1.00  0.00    -0.166 OA 
BRANCH   9  10
HETATM   10  C   UNL     1      -8.235  13.350  68.097  1.00  0.00    -0.160 A  
HETATM   11  C   UNL     1      -8.758  12.120  68.429  1.00  0.00    -0.141 A  
HETATM   12  N   UNL     1      -8.156  10.949  68.183  1.00  0.00    -0.114 NA 
HETATM   13  N   UNL     1      -6.291  12.156  67.323  1.00  0.00    -0.144 NA 
HETATM   14  C   UNL     1      -6.946  11.008  67.587  1.00  0.00    -0.083 A  
HETATM   15  C   UNL     1      -6.941  13.299  67.606  1.00  0.00    -0.160 A  
BRANCH  11  16
HETATM   16  N   UNL     1     -10.001  11.889  69.065  1.00  0.00    -0.416 N  
HETATM   17  H   UNL     1     -10.296  12.479  69.843  1.00  0.00     0.000 HD 
BRANCH  16  18
HETATM   18  S   UNL     1     -10.987  10.642  68.537  1.00  0.00    -0.269 S  
HETATM   19  O   UNL     1     -12.372  11.061  68.652  1.00  0.00    -0.539 OA 
HETATM   20  O   UNL     1     -10.454  10.224  67.255  1.00  0.00    -0.221 OA 
BRANCH  18  21
HETATM   21  C   UNL     1     -10.754   9.300  69.677  1.00  0.00    -0.230 A  
HETATM   22  C   UNL     1     -10.399   7.216  71.547  1.00  0.00    -0.218 A  
HETATM   23  C   UNL     1     -11.060   9.506  71.020  1.00  0.00    -0.433 A  
HETATM   24  C   UNL     1     -10.880   8.476  71.941  1.00  0.00    -0.392 A  
HETATM   25  C   UNL     1     -10.162   7.013  70.170  1.00  0.00    -0.206 A  
HETATM   26  C   UNL     1     -10.341   8.044  69.236  1.00  0.00    -0.224 A  
BRANCH  22  27
HETATM   27  C   UNL     1     -10.099   6.110  72.577  1.00  0.00    -0.197 C  
HETATM   28  C   UNL     1     -11.158   4.982  72.585  1.00  0.00    -0.265 C  
HETATM   29  C   UNL     1     -10.081   6.721  73.994  1.00  0.00    -0.389 C  
HETATM   30  C   UNL     1      -8.734   5.453  72.291  1.00  0.00    -0.129 C  
ENDBRANCH  22  27
ENDBRANCH  18  21
ENDBRANCH  16  18
ENDBRANCH  11  16
BRANCH  14  31
HETATM   31  C   UNL     1      -6.346   9.734  67.114  1.00  0.00    -0.068 A  
HETATM   32  N   UNL     1      -6.531   9.393  65.816  1.00  0.00    -0.067 NA 
HETATM   33  N   UNL     1      -5.719   8.945  68.020  1.00  0.00    -0.039 NA 
HETATM   34  C   UNL     1      -5.253   7.768  67.572  1.00  0.00    -0.031 A  
HETATM   35  C   UNL     1      -6.053   8.199  65.430  1.00  0.00    -0.045 A  
HETATM   36  C   UNL     1      -5.397   7.336  66.274  1.00  0.00    -0.024 A  
ENDBRANCH  14  31
BRANCH  15  37
HETATM   37  O   UNL     1      -6.272  14.496  67.421  1.00  0.00    -0.333 OA 
BRANCH  37  38
HETATM   38  C   UNL     1      -5.438  14.925  68.504  1.00  0.00    -0.101 C  
BRANCH  38  39
HETATM   39  C   UNL     1      -5.702  16.391  68.832  1.00  0.00    -0.127 C  
HETATM   40  O   UNL     1      -6.999  16.555  69.395  1.00  0.00    -0.225 OA 
HETATM   41  H   UNL     1      -7.164  17.468  69.599  1.00  0.00     0.000 HD 
ENDBRANCH  38  39
ENDBRANCH  37  38
ENDBRANCH  15  37
ENDBRANCH   9  10
ENDBRANCH   8   9
ENDBRANCH   2   3
TORSDOF 11
ENDMDL
MODEL      101
REMARK 921   NORMALIZED FREE ENERGY PREDICTED BY IDOCK:   -4.69 KCAL/MOL
REMARK 922        TOTAL FREE ENERGY PREDICTED BY IDOCK:  -10.17 KCAL/MOL
REMARK 923 INTER-LIGAND FREE ENERGY PREDICTED BY IDOCK:   -8.74 KCAL/MOL
REMARK 924 INTRA-LIGAND FREE ENERGY PREDICTED BY IDOCK:   -1.42 KCAL/MOL
REMARK 927      BINDING AFFINITY PREDICTED BY RF-SCORE:    0.00 PKD
ROOT
HETATM    1  C   UNL     1     -10.727  16.487  69.406  1.00  0.00    -0.330 C  
HETATM    2  O   UNL     1     -11.819  15.728  68.887  1.00  0.00    -0.393 OA 
ENDROOT
BRANCH   2   3
HETATM    3  C   UNL     1     -11.880  14.400  69.230  1.00  0.00    -0.325 A  
HETATM    4  C   UNL     1     -12.441  13.954  70.439  1.00  0.00    -0.404 A  
HETATM    5  C   UNL     1     -12.432  12.599  70.786  1.00  0.00    -0.357 A  
HETATM    6  C   UNL     1     -11.882  11.663  69.921  1.00  0.00    -0.434 A  
HETATM    7  C   UNL     1     -11.338  12.084  68.713  1.00  0.00    -0.331 A  
HETATM    8  C   UNL     1     -11.332  13.441  68.353  1.00  0.00    -0.294 A  
BRANCH   8   9
HETATM    9  O   UNL     1     -10.685  13.641  67.150  1.00  0.00    -0.273 OA 
BRANCH   9  10
HETATM   10  C   UNL     1     -10.126  12.617  66.457  1.00  0.00    -0.248 A  
HETATM   11  C   UNL     1      -8.787  12.316  66.348  1.00  0.00    -0.071 A  
HETATM   12  N   UNL     1      -8.302  11.237  65.720  1.00  0.00    -0.049 NA 
HETATM   13  N   UNL     1     -10.530  10.673  65.094  1.00  0.00    -0.250 NA 
HETATM   14  C   UNL     1      -9.207  10.417  65.146  1.00  0.00    -0.208 A  
HETATM   15  C   UNL     1     -10.955  11.778  65.730  1.00  0.00    -0.301 A  
BRANCH  11  16
HETATM   16  N   UNL     1      -7.716  13.076  66.878  1.00  0.00    -0.384 N  
HETATM   17  H   UNL     1      -7.253  13.779  66.302  1.00  0.00     0.000 HD 
BRANCH  16  18
HETATM   18  S   UNL     1      -7.213  12.817  68.454  1.00  0.00    -0.123 S  
HETATM   19  O   UNL     1      -5.790  13.096  68.541  1.00  0.00    -0.072 OA 
HETATM   20  O   UNL     1      -8.150  13.533  69.297  1.00  0.00     0.280 OA 
BRANCH  18  21
HETATM   21  C   UNL     1      -7.423  11.083  68.770  1.00  0.00    -0.116 A  
HETATM   22  C   UNL     1      -7.820   8.343  69.320  1.00  0.00    -0.104 A  
HETATM   23  C   UNL     1      -8.547  10.668  69.482  1.00  0.00     0.023 A  
HETATM   24  C   UNL     1      -8.737   9.314  69.755  1.00  0.00    -0.168 A  
HETATM   25  C   UNL     1      -6.727   8.783  68.543  1.00  0.00    -0.060 A  
HETATM   26  C   UNL     1      -6.528  10.144  68.263  1.00  0.00    -0.053 A  
BRANCH  22  27
HETATM   27  C   UNL     1      -7.971   6.860  69.710  1.00  0.00    -0.124 C  
HETATM   28  C   UNL     1      -8.085   5.917  68.488  1.00  0.00    -0.106 C  
HETATM   29  C   UNL     1      -9.260   6.677  70.540  1.00  0.00    -0.156 C  
HETATM   30  C   UNL     1      -6.762   6.387  70.541  1.00  0.00    -0.053 C  
ENDBRANCH  22  27
ENDBRANCH  18  21
ENDBRANCH  16  18
ENDBRANCH  11  16
BRANCH  14  31
HETATM   31  C   UNL     1      -8.725   9.112  64.625  1.00  0.00    -0.166 A  
HETATM   32  N   UNL     1      -8.496   8.120  65.519  1.00  0.00    -0.156 NA 
HETATM   33  N   UNL     1      -8.463   9.009  63.298  1.00  0.00    -0.195 NA 
HETATM   34  C   UNL     1      -7.959   7.837  62.875  1.00  0.00    -0.130 A  
HETATM   35  C   UNL     1      -7.981   6.977  65.036  1.00  0.00    -0.129 A  
HETATM   36  C   UNL     1      -7.691   6.777  63.708  1.00  0.00    -0.111 A  
ENDBRANCH  14  31
BRANCH  15  37
HETATM   37  O   UNL     1     -12.292  12.116  65.634  1.00  0.00    -0.560 OA 
BRANCH  37  38
HETATM   38  C   UNL     1     -12.604  13.215  64.769  1.00  0.00    -0.364 C  
BRANCH  38  39
HETATM   39  C   UNL     1     -12.155  12.914  63.342  1.00  0.00    -0.530 C  
HETATM   40  O   UNL     1     -12.606  11.627  62.934  1.00  0.00    -0.914 OA 
HETATM   41  H   UNL     1     -12.327  11.439  62.045  1.00  0.00     0.000 HD 
ENDBRANCH  38  39
ENDBRANCH  37  38
ENDBRANCH  15  37
ENDBRANCH   9  10
ENDBRANCH   8   9
ENDBRANCH   2   3
TORSDOF 11
ENDMDL
MODEL      102
REMARK 921   NORMALIZED FREE ENERGY PREDICTED BY IDOCK:   -4.65 KCAL/MOL
REMARK 922        TOTAL FREE ENERGY PREDICTED BY IDOCK:  -10.10 KCAL/MOL
REMARK 923 INTER-LIGAND FREE ENERGY PREDICTED BY IDOCK:   -8.15 KCAL/MOL
REMARK 924 INTRA-LIGAND FREE ENERGY PREDICTED BY IDOCK:   -1.95 KCAL/MOL
REMARK 927      BINDING AFFINITY PREDICTED BY RF-SCORE:    0.00 PKD
ROOT
HETATM    1  C   UNL     1     -10.381   6.919  69.163  1.00  0.00    -0.195 C  
HETATM    2  O   UNL     1     -10.176   8.310  69.413  1.00  0.00    -0.195 OA 
ENDROOT
BRANCH   2   3
HETATM    3  C   UNL     1     -11.035   8.923  70.292  1.00  0.00    -0.241 A  
HETATM    4  C   UNL     1     -11.345   8.382  71.552  1.00  0.00    -0.334 A  
HETATM    5  C   UNL     1     -12.271   9.000  72.398  1.00  0.00    -0.322 A  
HETATM    6  C   UNL     1     -12.887  10.182  72.010  1.00  0.00    -0.472 A  
HETATM    7  C   UNL     1     -12.580  10.740  70.775  1.00  0.00    -0.476 A  
HETATM    8  C   UNL     1     -11.658  10.129  69.910  1.00  0.00    -0.223 A  
BRANCH   8   9
HETATM    9  O   UNL     1     -11.557  10.813  68.716  1.00  0.00    -0.282 OA 
BRANCH   9  10
HETATM   10  C   UNL     1     -10.603  11.757  68.508  1.00  0.00    -0.217 A  
HETATM   11  C   UNL     1      -9.304  11.555  68.099  1.00  0.00    -0.185 A  
HETATM   12  N   UNL     1      -8.435  12.537  67.827  1.00  0.00    -0.159 NA 
HETATM   13  N   UNL     1     -10.093  14.111  68.496  1.00  0.00    -0.240 NA 
HETATM   14  C   UNL     1      -8.882  13.800  67.993  1.00  0.00    -0.182 A  
HETATM   15  C   UNL     1     -10.916  13.082  68.764  1.00  0.00    -0.258 A  
BRANCH  11  16
HETATM   16  N   UNL     1      -8.682  10.301  67.892  1.00  0.00    -0.122 N  
HETATM   17  H   UNL     1      -8.361   9.751  68.689  1.00  0.00     0.000 HD 
BRANCH  16  18
HETATM   18  S   UNL     1      -8.473   9.723  66.334  1.00  0.00    -0.124 S  
HETATM   19  O   UNL     1      -9.745   9.794  65.636  1.00  0.00    -0.251 OA 
HETATM   20  O   UNL     1      -7.310  10.407  65.804  1.00  0.00    -0.137 OA 
BRANCH  18  21
HETATM   21  C   UNL     1      -8.059   8.003  66.487  1.00  0.00    -0.103 A  
HETATM   22  C   UNL     1      -7.450   5.253  66.671  1.00  0.00    -0.087 A  
HETATM   23  C   UNL     1      -8.546   7.113  65.532  1.00  0.00    -0.093 A  
HETATM   24  C   UNL     1      -8.247   5.756  65.629  1.00  0.00    -0.128 A  
HETATM   25  C   UNL     1      -6.914   6.185  67.586  1.00  0.00    -0.069 A  
HETATM   26  C   UNL     1      -7.210   7.553  67.496  1.00  0.00    -0.090 A  
BRANCH  22  27
HETATM   27  C   UNL     1      -7.205   3.741  66.841  1.00  0.00    -0.064 C  
HETATM   28  C   UNL     1      -7.439   2.936  65.540  1.00  0.00    -0.072 C  
HETATM   29  C   UNL     1      -8.179   3.180  67.899  1.00  0.00    -0.087 C  
HETATM   30  C   UNL     1      -5.756   3.470  67.291  1.00  0.00    -0.022 C  
ENDBRANCH  22  27
ENDBRANCH  18  21
ENDBRANCH  16  18
ENDBRANCH  11  16
BRANCH  14  31
HETATM   31  C   UNL     1      -8.020  14.908  67.505  1.00  0.00    -0.178 A  
HETATM   32  N   UNL     1      -6.769  15.005  68.015  1.00  0.00    -0.129 NA 
HETATM   33  N   UNL     1      -8.556  15.805  66.642  1.00  0.00    -0.262 NA 
HETATM   34  C   UNL     1      -7.771  16.834  66.280  1.00  0.00    -0.275 A  
HETATM   35  C   UNL     1      -6.037  16.062  67.625  1.00  0.00    -0.156 A  
HETATM   36  C   UNL     1      -6.491  17.017  66.748  1.00  0.00    -0.258 A  
ENDBRANCH  14  31
BRANCH  15  37
HETATM   37  O   UNL     1     -12.137  13.356  69.353  1.00  0.00    -0.309 OA 
BRANCH  37  38
HETATM   38  C   UNL     1     -12.346  14.712  69.767  1.00  0.00    -0.262 C  
BRANCH  38  39
HETATM   39  C   UNL     1     -11.940  14.892  71.226  1.00  0.00    -0.340 C  
HETATM   40  O   UNL     1     -11.743  16.269  71.528  1.00  0.00    -0.548 OA 
HETATM   41  H   UNL     1     -11.490  16.382  72.437  1.00  0.00     0.000 HD 
ENDBRANCH  38  39
ENDBRANCH  37  38
ENDBRANCH  15  37
ENDBRANCH   9  10
ENDBRANCH   8   9
ENDBRANCH   2   3
TORSDOF 11
ENDMDL
MODEL      103
REMARK 921   NORMALIZED FREE ENERGY PREDICTED BY IDOCK:   -4.61 KCAL/MOL
REMARK 922        TOTAL FREE ENERGY PREDICTED BY IDOCK:  -10.04 KCAL/MOL
REMARK 923 INTER-LIGAND FREE ENERGY PREDICTED BY IDOCK:   -8.43 KCAL/MOL
REMARK 924 INTRA-LIGAND FREE ENERGY PREDICTED BY IDOCK:   -1.61 KCAL/MOL
REMARK 927      BINDING AFFINITY PREDICTED BY RF-SCORE:    0.00 PKD
ROOT
HETATM    1  C   UNL     1     -10.395   8.876  66.748  1.00  0.00    -0.247 C  
HETATM    2  O   UNL     1     -10.143  10.279  66.661  1.00  0.00    -0.206 OA 
ENDROOT
BRANCH   2   3
HETATM    3  C   UNL     1     -10.738  11.083  67.601  1.00  0.00    -0.238 A  
HETATM    4  C   UNL     1     -11.338  10.574  68.766  1.00  0.00    -0.310 A  
HETATM    5  C   UNL     1     -11.990  11.416  69.672  1.00  0.00    -0.416 A  
HETATM    6  C   UNL     1     -12.035  12.784  69.443  1.00  0.00    -0.321 A  
HETATM    7  C   UNL     1     -11.433  13.307  68.305  1.00  0.00    -0.351 A  
HETATM    8  C   UNL     1     -10.781  12.476  67.380  1.00  0.00    -0.229 A  
BRANCH   8   9
HETATM    9  O   UNL     1     -10.316  13.193  66.297  1.00  0.00    -0.276 OA 
BRANCH   9  10
HETATM   10  C   UNL     1      -9.601  14.337  66.447  1.00  0.00    -0.298 A  
HETATM   11  C   UNL     1      -8.341  14.470  66.988  1.00  0.00    -0.167 A  
HETATM   12  N   UNL     1      -7.651  15.617  67.028  1.00  0.00    -0.221 NA 
HETATM   13  N   UNL     1      -9.533  16.714  66.065  1.00  0.00    -0.446 NA 
HETATM   14  C   UNL     1      -8.262  16.705  66.515  1.00  0.00    -0.295 A  
HETATM   15  C   UNL     1     -10.180  15.536  66.063  1.00  0.00    -0.330 A  
BRANCH  11  16
HETATM   16  N   UNL     1      -7.574  13.435  67.574  1.00  0.00    -0.188 N  
HETATM   17  H   UNL     1      -7.657  12.478  67.230  1.00  0.00     0.000 HD 
BRANCH  16  18
HETATM   18  S   UNL     1      -6.530  13.786  68.836  1.00  0.00    -0.106 S  
HETATM   19  O   UNL     1      -5.230  14.126  68.285  1.00  0.00    -0.098 OA 
HETATM   20  O   UNL     1      -7.232  14.727  69.687  1.00  0.00    -0.169 OA 
BRANCH  18  21
HETATM   21  C   UNL     1      -6.328  12.280  69.755  1.00  0.00    -0.091 A  
HETATM   22  C   UNL     1      -6.066   9.855  71.175  1.00  0.00    -0.013 A  
HETATM   23  C   UNL     1      -7.077  11.166  69.381  1.00  0.00    -0.110 A  
HETATM   24  C   UNL     1      -6.947   9.972  70.087  1.00  0.00    -0.148 A  
HETATM   25  C   UNL     1      -5.270  10.977  71.490  1.00  0.00     0.006 A  
HETATM   26  C   UNL     1      -5.393  12.184  70.784  1.00  0.00    -0.155 A  
BRANCH  22  27
HETATM   27  C   UNL     1      -5.998   8.570  72.023  1.00  0.00    -0.060 C  
HETATM   28  C   UNL     1      -7.389   7.949  72.300  1.00  0.00    -0.100 C  
HETATM   29  C   UNL     1      -5.370   8.895  73.395  1.00  0.00    -0.091 C  
HETATM   30  C   UNL     1      -5.149   7.494  71.318  1.00  0.00    -0.027 C  
ENDBRANCH  22  27
ENDBRANCH  18  21
ENDBRANCH  16  18
ENDBRANCH  11  16
BRANCH  14  31
HETATM   31  C   UNL     1      -7.453  17.941  66.354  1.00  0.00    -0.273 A  
HETATM   32  N   UNL     1      -8.013  18.980  65.690  1.00  0.00    -0.380 NA 
HETATM   33  N   UNL     1      -6.175  17.934  66.807  1.00  0.00    -0.157 NA 
HETATM   34  C   UNL     1      -5.451  19.042  66.578  1.00  0.00    -0.153 A  
HETATM   35  C   UNL     1      -7.235  20.055  65.482  1.00  0.00    -0.282 A  
HETATM   36  C   UNL     1      -5.933  20.143  65.911  1.00  0.00    -0.202 A  
ENDBRANCH  14  31
BRANCH  15  37
HETATM   37  O   UNL     1     -11.509  15.519  65.682  1.00  0.00    -0.141 OA 
BRANCH  37  38
HETATM   38  C   UNL     1     -11.759  15.355  64.280  1.00  0.00    -0.206 C  
BRANCH  38  39
HETATM   39  C   UNL     1     -12.494  14.044  64.019  1.00  0.00    -0.190 C  
HETATM   40  O   UNL     1     -13.260  13.661  65.157  1.00  0.00    -0.739 OA 
HETATM   41  H   UNL     1     -13.718  12.844  64.995  1.00  0.00     0.000 HD 
ENDBRANCH  38  39
ENDBRANCH  37  38
ENDBRANCH  15  37
ENDBRANCH   9  10
ENDBRANCH   8   9
ENDBRANCH   2   3
TORSDOF 11
ENDMDL
MODEL      104
REMARK 921   NORMALIZED FREE ENERGY PREDICTED BY IDOCK:   -4.60 KCAL/MOL
REMARK 922        TOTAL FREE ENERGY PREDICTED BY IDOCK:  -10.02 KCAL/MOL
REMARK 923 INTER-LIGAND FREE ENERGY PREDICTED BY IDOCK:   -7.75 KCAL/MOL
REMARK 924 INTRA-LIGAND FREE ENERGY PREDICTED BY IDOCK:   -2.27 KCAL/MOL
REMARK 927      BINDING AFFINITY PREDICTED BY RF-SCORE:    0.00 PKD
ROOT
HETATM    1  C   UNL     1      -8.183   8.301  74.371  1.00  0.00    -0.143 C  
HETATM    2  O   UNL     1      -8.403   8.004  72.992  1.00  0.00    -0.152 OA 
ENDROOT
BRANCH   2   3
HETATM    3  C   UNL     1      -9.199   6.923  72.702  1.00  0.00    -0.135 A  
HETATM    4  C   UNL     1     -10.375   6.634  73.415  1.00  0.00    -0.296 A  
HETATM    5  C   UNL     1     -11.130   5.490  73.135  1.00  0.00    -0.337 A  
HETATM    6  C   UNL     1     -10.736   4.628  72.122  1.00  0.00    -0.111 A  
HETATM    7  C   UNL     1      -9.585   4.907  71.395  1.00  0.00    -0.226 A  
HETATM    8  C   UNL     1      -8.811   6.046  71.668  1.00  0.00    -0.139 A  
BRANCH   8   9
HETATM    9  O   UNL     1      -7.681   6.090  70.876  1.00  0.00    -0.094 OA 
BRANCH   9  10
HETATM   10  C   UNL     1      -7.720   6.537  69.595  1.00  0.00    -0.103 A  
HETATM   11  C   UNL     1      -8.151   7.768  69.152  1.00  0.00    -0.125 A  
HETATM   12  N   UNL     1      -8.083   8.182  67.880  1.00  0.00    -0.126 NA 
HETATM   13  N   UNL     1      -7.225   6.039  67.291  1.00  0.00    -0.074 NA 
HETATM   14  C   UNL     1      -7.571   7.306  66.989  1.00  0.00    -0.106 A  
HETATM   15  C   UNL     1      -7.330   5.677  68.581  1.00  0.00    -0.079 A  
BRANCH  11  16
HETATM   16  N   UNL     1      -8.721   8.787  69.952  1.00  0.00    -0.130 N  
HETATM   17  H   UNL     1      -8.126   9.365  70.546  1.00  0.00     0.000 HD 
BRANCH  16  18
HETATM   18  S   UNL     1     -10.376   9.042  69.921  1.00  0.00    -0.216 S  
HETATM   19  O   UNL     1     -11.027   7.824  69.473  1.00  0.00    -0.198 OA 
HETATM   20  O   UNL     1     -10.717   9.623  71.205  1.00  0.00    -0.329 OA 
BRANCH  18  21
HETATM   21  C   UNL     1     -10.671  10.276  68.679  1.00  0.00    -0.224 A  
HETATM   22  C   UNL     1     -11.116  12.187  66.650  1.00  0.00    -0.353 A  
HETATM   23  C   UNL     1     -10.549   9.915  67.339  1.00  0.00    -0.338 A  
HETATM   24  C   UNL     1     -10.766  10.862  66.340  1.00  0.00    -0.257 A  
HETATM   25  C   UNL     1     -11.299  12.509  68.012  1.00  0.00    -0.339 A  
HETATM   26  C   UNL     1     -11.084  11.562  69.024  1.00  0.00    -0.302 A  
BRANCH  22  27
HETATM   27  C   UNL     1     -11.252  13.261  65.554  1.00  0.00    -0.307 C  
HETATM   28  C   UNL     1     -10.304  14.467  65.761  1.00  0.00    -0.347 C  
HETATM   29  C   UNL     1     -12.693  13.816  65.557  1.00  0.00    -0.530 C  
HETATM   30  C   UNL     1     -10.941  12.669  64.165  1.00  0.00    -0.427 C  
ENDBRANCH  22  27
ENDBRANCH  18  21
ENDBRANCH  16  18
ENDBRANCH  11  16
BRANCH  14  31
HETATM   31  C   UNL     1      -7.289   7.802  65.618  1.00  0.00    -0.073 A  
HETATM   32  N   UNL     1      -8.296   8.413  64.947  1.00  0.00    -0.162 NA 
HETATM   33  N   UNL     1      -6.070   7.547  65.081  1.00  0.00    -0.038 NA 
HETATM   34  C   UNL     1      -5.876   7.945  63.813  1.00  0.00    -0.057 A  
HETATM   35  C   UNL     1      -8.045   8.777  63.679  1.00  0.00    -0.169 A  
HETATM   36  C   UNL     1      -6.839   8.568  63.055  1.00  0.00    -0.090 A  
ENDBRANCH  14  31
BRANCH  15  37
HETATM   37  O   UNL     1      -7.058   4.363  68.917  1.00  0.00    -0.050 OA 
BRANCH  37  38
HETATM   38  C   UNL     1      -7.528   3.368  67.999  1.00  0.00    -0.054 C  
BRANCH  38  39
HETATM   39  C   UNL     1      -8.871   2.811  68.458  1.00  0.00    -0.115 C  
HETATM   40  O   UNL     1      -9.543   2.166  67.380  1.00  0.00    -0.401 OA 
HETATM   41  H   UNL     1     -10.380   1.819  67.666  1.00  0.00     0.000 HD 
ENDBRANCH  38  39
ENDBRANCH  37  38
ENDBRANCH  15  37
ENDBRANCH   9  10
ENDBRANCH   8   9
ENDBRANCH   2   3
TORSDOF 11
ENDMDL
MODEL      105
REMARK 921   NORMALIZED FREE ENERGY PREDICTED BY IDOCK:   -4.59 KCAL/MOL
REMARK 922        TOTAL FREE ENERGY PREDICTED BY IDOCK:  -10.00 KCAL/MOL
REMARK 923 INTER-LIGAND FREE ENERGY PREDICTED BY IDOCK:   -8.14 KCAL/MOL
REMARK 924 INTRA-LIGAND FREE ENERGY PREDICTED BY IDOCK:   -1.86 KCAL/MOL
REMARK 927      BINDING AFFINITY PREDICTED BY RF-SCORE:    0.00 PKD
ROOT
HETATM    1  C   UNL     1      -5.730  13.905  71.417  1.00  0.00    -0.220 C  
HETATM    2  O   UNL     1      -5.847  14.251  70.037  1.00  0.00    -0.112 OA 
ENDROOT
BRANCH   2   3
HETATM    3  C   UNL     1      -6.225  15.538  69.742  1.00  0.00    -0.159 A  
HETATM    4  C   UNL     1      -5.322  16.615  69.750  1.00  0.00    -0.164 A  
HETATM    5  C   UNL     1      -5.753  17.923  69.506  1.00  0.00    -0.229 A  
HETATM    6  C   UNL     1      -7.089  18.175  69.227  1.00  0.00    -0.130 A  
HETATM    7  C   UNL     1      -7.993  17.119  69.198  1.00  0.00    -0.041 A  
HETATM    8  C   UNL     1      -7.579  15.801  69.449  1.00  0.00    -0.214 A  
BRANCH   8   9
HETATM    9  O   UNL     1      -8.647  14.926  69.437  1.00  0.00    -0.152 OA 
BRANCH   9  10
HETATM   10  C   UNL     1      -9.191  14.474  68.279  1.00  0.00    -0.201 A  
HETATM   11  C   UNL     1      -8.571  13.731  67.299  1.00  0.00    -0.212 A  
HETATM   12  N   UNL     1      -9.188  13.239  66.217  1.00  0.00    -0.123 NA 
HETATM   13  N   UNL     1     -11.181  14.331  66.929  1.00  0.00    -0.315 NA 
HETATM   14  C   UNL     1     -10.501  13.522  66.093  1.00  0.00    -0.296 A  
HETATM   15  C   UNL     1     -10.504  14.807  67.989  1.00  0.00    -0.246 A  
BRANCH  11  16
HETATM   16  N   UNL     1      -7.204  13.362  67.274  1.00  0.00    -0.351 N  
HETATM   17  H   UNL     1      -6.480  14.072  67.380  1.00  0.00     0.000 HD 
BRANCH  16  18
HETATM   18  S   UNL     1      -6.781  11.754  67.070  1.00  0.00    -0.113 S  
HETATM   19  O   UNL     1      -7.167  11.336  65.734  1.00  0.00     0.098 OA 
HETATM   20  O   UNL     1      -5.400  11.645  67.499  1.00  0.00    -0.052 OA 
BRANCH  18  21
HETATM   21  C   UNL     1      -7.772  10.824  68.213  1.00  0.00    -0.109 A  
HETATM   22  C   UNL     1      -9.410   9.356  69.981  1.00  0.00    -0.253 A  
HETATM   23  C   UNL     1      -9.074  10.490  67.846  1.00  0.00    -0.136 A  
HETATM   24  C   UNL     1      -9.881   9.768  68.723  1.00  0.00    -0.176 A  
HETATM   25  C   UNL     1      -8.066   9.648  70.299  1.00  0.00    -0.206 A  
HETATM   26  C   UNL     1      -7.247  10.374  69.422  1.00  0.00    -0.109 A  
BRANCH  22  27
HETATM   27  C   UNL     1     -10.331   8.651  70.995  1.00  0.00    -0.275 C  
HETATM   28  C   UNL     1      -9.609   8.263  72.308  1.00  0.00    -0.355 C  
HETATM   29  C   UNL     1     -10.870   7.343  70.375  1.00  0.00    -0.258 C  
HETATM   30  C   UNL     1     -11.519   9.556  71.377  1.00  0.00    -0.462 C  
ENDBRANCH  22  27
ENDBRANCH  18  21
ENDBRANCH  16  18
ENDBRANCH  11  16
BRANCH  14  31
HETATM   31  C   UNL     1     -11.260  12.824  65.023  1.00  0.00    -0.298 A  
HETATM   32  N   UNL     1     -10.553  12.147  64.087  1.00  0.00    -0.332 NA 
HETATM   33  N   UNL     1     -12.608  12.970  64.993  1.00  0.00    -0.607 NA 
HETATM   34  C   UNL     1     -13.253  12.386  63.969  1.00  0.00     0.175 A  
HETATM   35  C   UNL     1     -11.253  11.595  63.081  1.00  0.00    -0.086 A  
HETATM   36  C   UNL     1     -12.619  11.682  62.972  1.00  0.00     0.082 A  
ENDBRANCH  14  31
BRANCH  15  37
HETATM   37  O   UNL     1     -11.144  15.702  68.827  1.00  0.00    -0.269 OA 
BRANCH  37  38
HETATM   38  C   UNL     1     -12.116  15.143  69.720  1.00  0.00    -0.319 C  
BRANCH  38  39
HETATM   39  C   UNL     1     -11.731  15.423  71.169  1.00  0.00    -0.368 C  
HETATM   40  O   UNL     1     -11.893  16.804  71.476  1.00  0.00    -0.538 OA 
HETATM   41  H   UNL     1     -11.654  16.979  72.378  1.00  0.00     0.000 HD 
ENDBRANCH  38  39
ENDBRANCH  37  38
ENDBRANCH  15  37
ENDBRANCH   9  10
ENDBRANCH   8   9
ENDBRANCH   2   3
TORSDOF 11
ENDMDL
MODEL      106
REMARK 921   NORMALIZED FREE ENERGY PREDICTED BY IDOCK:   -4.57 KCAL/MOL
REMARK 922        TOTAL FREE ENERGY PREDICTED BY IDOCK:   -9.97 KCAL/MOL
REMARK 923 INTER-LIGAND FREE ENERGY PREDICTED BY IDOCK:   -7.97 KCAL/MOL
REMARK 924 INTRA-LIGAND FREE ENERGY PREDICTED BY IDOCK:   -2.00 KCAL/MOL
REMARK 927      BINDING AFFINITY PREDICTED BY RF-SCORE:    0.00 PKD
ROOT
HETATM    1  C   UNL     1      -8.316   7.416  74.550  1.00  0.00    -0.204 C  
HETATM    2  O   UNL     1      -8.418   7.706  73.156  1.00  0.00    -0.120 OA 
ENDROOT
BRANCH   2   3
HETATM    3  C   UNL     1      -7.317   8.253  72.546  1.00  0.00    -0.109 A  
HETATM    4  C   UNL     1      -6.225   8.764  73.269  1.00  0.00    -0.048 A  
HETATM    5  C   UNL     1      -5.146   9.372  72.618  1.00  0.00    -0.078 A  
HETATM    6  C   UNL     1      -5.128   9.459  71.233  1.00  0.00    -0.038 A  
HETATM    7  C   UNL     1      -6.192   8.944  70.501  1.00  0.00    -0.042 A  
HETATM    8  C   UNL     1      -7.287   8.338  71.138  1.00  0.00    -0.070 A  
BRANCH   8   9
HETATM    9  O   UNL     1      -8.254   7.961  70.229  1.00  0.00    -0.119 OA 
BRANCH   9  10
HETATM   10  C   UNL     1      -9.105   8.860  69.672  1.00  0.00    -0.151 A  
HETATM   11  C   UNL     1     -10.203   9.446  70.261  1.00  0.00    -0.247 A  
HETATM   12  N   UNL     1     -10.954  10.394  69.687  1.00  0.00    -0.258 NA 
HETATM   13  N   UNL     1      -9.618  10.183  67.726  1.00  0.00    -0.147 NA 
HETATM   14  C   UNL     1     -10.601  10.768  68.439  1.00  0.00    -0.197 A  
HETATM   15  C   UNL     1      -8.908   9.227  68.351  1.00  0.00    -0.129 A  
BRANCH  11  16
HETATM   16  N   UNL     1     -10.709   9.157  71.551  1.00  0.00    -0.345 N  
HETATM   17  H   UNL     1     -10.462   9.750  72.343  1.00  0.00     0.000 HD 
BRANCH  16  18
HETATM   18  S   UNL     1     -11.716   7.837  71.773  1.00  0.00    -0.299 S  
HETATM   19  O   UNL     1     -11.821   7.564  73.195  1.00  0.00    -0.035 OA 
HETATM   20  O   UNL     1     -12.907   8.104  70.990  1.00  0.00    -0.148 OA 
BRANCH  18  21
HETATM   21  C   UNL     1     -10.892   6.447  71.037  1.00  0.00    -0.262 A  
HETATM   22  C   UNL     1      -9.624   4.249  69.801  1.00  0.00    -0.279 A  
HETATM   23  C   UNL     1     -11.115   6.179  69.688  1.00  0.00    -0.489 A  
HETATM   24  C   UNL     1     -10.490   5.090  69.082  1.00  0.00    -0.087 A  
HETATM   25  C   UNL     1      -9.363   4.583  71.147  1.00  0.00    -0.212 A  
HETATM   26  C   UNL     1      -9.987   5.677  71.765  1.00  0.00    -0.222 A  
BRANCH  22  27
HETATM   27  C   UNL     1      -9.016   2.985  69.163  1.00  0.00    -0.178 C  
HETATM   28  C   UNL     1      -7.470   2.955  69.226  1.00  0.00    -0.044 C  
HETATM   29  C   UNL     1      -9.407   2.925  67.671  1.00  0.00    -0.234 C  
HETATM   30  C   UNL     1      -9.527   1.715  69.872  1.00  0.00    -0.134 C  
ENDBRANCH  22  27
ENDBRANCH  18  21
ENDBRANCH  16  18
ENDBRANCH  11  16
BRANCH  14  31
HETATM   31  C   UNL     1     -11.279  11.955  67.856  1.00  0.00    -0.263 A  
HETATM   32  N   UNL     1     -11.662  11.888  66.558  1.00  0.00    -0.562 NA 
HETATM   33  N   UNL     1     -11.403  13.065  68.624  1.00  0.00    -0.270 NA 
HETATM   34  C   UNL     1     -11.954  14.142  68.040  1.00  0.00    -0.337 A  
HETATM   35  C   UNL     1     -12.196  13.001  66.027  1.00  0.00    -0.399 A  
HETATM   36  C   UNL     1     -12.370  14.168  66.729  1.00  0.00    -0.333 A  
ENDBRANCH  14  31
BRANCH  15  37
HETATM   37  O   UNL     1      -7.942   8.551  67.628  1.00  0.00    -0.105 OA 
BRANCH  37  38
HETATM   38  C   UNL     1      -8.324   8.122  66.315  1.00  0.00    -0.119 C  
BRANCH  38  39
HETATM   39  C   UNL     1      -9.236   6.903  66.396  1.00  0.00    -0.152 C  
HETATM   40  O   UNL     1     -10.602   7.300  66.460  1.00  0.00    -0.505 OA 
HETATM   41  H   UNL     1     -11.171   6.541  66.510  1.00  0.00     0.000 HD 
ENDBRANCH  38  39
ENDBRANCH  37  38
ENDBRANCH  15  37
ENDBRANCH   9  10
ENDBRANCH   8   9
ENDBRANCH   2   3
TORSDOF 11
ENDMDL
MODEL      107
REMARK 921   NORMALIZED FREE ENERGY PREDICTED BY IDOCK:   -4.56 KCAL/MOL
REMARK 922        TOTAL FREE ENERGY PREDICTED BY IDOCK:   -9.95 KCAL/MOL
REMARK 923 INTER-LIGAND FREE ENERGY PREDICTED BY IDOCK:   -8.26 KCAL/MOL
REMARK 924 INTRA-LIGAND FREE ENERGY PREDICTED BY IDOCK:   -1.69 KCAL/MOL
REMARK 927      BINDING AFFINITY PREDICTED BY RF-SCORE:    0.00 PKD
ROOT
HETATM    1  C   UNL     1      -7.017  14.915  69.915  1.00  0.00    -0.143 C  
HETATM    2  O   UNL     1      -7.682  14.847  68.653  1.00  0.00    -0.113 OA 
ENDROOT
BRANCH   2   3
HETATM    3  C   UNL     1      -9.054  14.802  68.668  1.00  0.00    -0.186 A  
HETATM    4  C   UNL     1      -9.823  15.429  69.664  1.00  0.00    -0.263 A  
HETATM    5  C   UNL     1     -11.217  15.312  69.684  1.00  0.00    -0.289 A  
HETATM    6  C   UNL     1     -11.868  14.585  68.698  1.00  0.00    -0.355 A  
HETATM    7  C   UNL     1     -11.125  13.973  67.695  1.00  0.00    -0.298 A  
HETATM    8  C   UNL     1      -9.725  14.073  67.664  1.00  0.00    -0.228 A  
BRANCH   8   9
HETATM    9  O   UNL     1      -9.189  13.336  66.628  1.00  0.00    -0.250 OA 
BRANCH   9  10
HETATM   10  C   UNL     1      -9.188  11.979  66.638  1.00  0.00    -0.211 A  
HETATM   11  C   UNL     1      -8.766  11.152  67.655  1.00  0.00    -0.129 A  
HETATM   12  N   UNL     1      -8.873   9.817  67.639  1.00  0.00    -0.125 NA 
HETATM   13  N   UNL     1      -9.756   9.973  65.432  1.00  0.00    -0.282 NA 
HETATM   14  C   UNL     1      -9.415   9.270  66.530  1.00  0.00    -0.202 A  
HETATM   15  C   UNL     1      -9.613  11.308  65.503  1.00  0.00    -0.228 A  
BRANCH  11  16
HETATM   16  N   UNL     1      -8.168  11.564  68.870  1.00  0.00    -0.338 N  
HETATM   17  H   UNL     1      -8.619  12.274  69.447  1.00  0.00     0.000 HD 
BRANCH  16  18
HETATM   18  S   UNL     1      -6.717  10.884  69.355  1.00  0.00    -0.121 S  
HETATM   19  O   UNL     1      -5.812  10.856  68.220  1.00  0.00    -0.043 OA 
HETATM   20  O   UNL     1      -6.338  11.574  70.574  1.00  0.00    -0.286 OA 
BRANCH  18  21
HETATM   21  C   UNL     1      -7.070   9.197  69.782  1.00  0.00    -0.061 A  
HETATM   22  C   UNL     1      -7.664   6.541  70.527  1.00  0.00    -0.105 A  
HETATM   23  C   UNL     1      -7.848   8.945  70.910  1.00  0.00    -0.154 A  
HETATM   24  C   UNL     1      -8.136   7.631  71.276  1.00  0.00    -0.095 A  
HETATM   25  C   UNL     1      -6.936   6.826  69.351  1.00  0.00    -0.067 A  
HETATM   26  C   UNL     1      -6.642   8.145  68.975  1.00  0.00    -0.048 A  
BRANCH  22  27
HETATM   27  C   UNL     1      -7.891   5.088  70.988  1.00  0.00    -0.092 C  
HETATM   28  C   UNL     1      -8.799   4.979  72.236  1.00  0.00    -0.135 C  
HETATM   29  C   UNL     1      -6.535   4.451  71.361  1.00  0.00    -0.019 C  
HETATM   30  C   UNL     1      -8.550   4.256  69.870  1.00  0.00    -0.101 C  
ENDBRANCH  22  27
ENDBRANCH  18  21
ENDBRANCH  16  18
ENDBRANCH  11  16
BRANCH  14  31
HETATM   31  C   UNL     1      -9.738   7.820  66.563  1.00  0.00    -0.195 A  
HETATM   32  N   UNL     1     -10.895   7.444  67.158  1.00  0.00    -0.323 NA 
HETATM   33  N   UNL     1      -8.824   6.948  66.070  1.00  0.00    -0.155 NA 
HETATM   34  C   UNL     1      -9.117   5.642  66.183  1.00  0.00    -0.152 A  
HETATM   35  C   UNL     1     -11.127   6.124  67.251  1.00  0.00    -0.236 A  
HETATM   36  C   UNL     1     -10.265   5.167  66.774  1.00  0.00    -0.289 A  
ENDBRANCH  14  31
BRANCH  15  37
HETATM   37  O   UNL     1      -9.880  12.056  64.371  1.00  0.00    -0.233 OA 
BRANCH  37  38
HETATM   38  C   UNL     1     -11.260  12.346  64.119  1.00  0.00    -0.376 C  
BRANCH  38  39
HETATM   39  C   UNL     1     -11.506  13.851  64.164  1.00  0.00    -0.249 C  
HETATM   40  O   UNL     1     -12.595  14.208  63.320  1.00  0.00    -1.080 OA 
HETATM   41  H   UNL     1     -12.749  15.146  63.348  1.00  0.00     0.000 HD 
ENDBRANCH  38  39
ENDBRANCH  37  38
ENDBRANCH  15  37
ENDBRANCH   9  10
ENDBRANCH   8   9
ENDBRANCH   2   3
TORSDOF 11
ENDMDL
MODEL      108
REMARK 921   NORMALIZED FREE ENERGY PREDICTED BY IDOCK:   -4.55 KCAL/MOL
REMARK 922        TOTAL FREE ENERGY PREDICTED BY IDOCK:   -9.93 KCAL/MOL
REMARK 923 INTER-LIGAND FREE ENERGY PREDICTED BY IDOCK:   -8.50 KCAL/MOL
REMARK 924 INTRA-LIGAND FREE ENERGY PREDICTED BY IDOCK:   -1.43 KCAL/MOL
REMARK 927      BINDING AFFINITY PREDICTED BY RF-SCORE:    0.00 PKD
ROOT
HETATM    1  C   UNL     1      -6.949  14.963  68.375  1.00  0.00    -0.110 C  
HETATM    2  O   UNL     1      -8.086  14.150  68.668  1.00  0.00    -0.140 OA 
ENDROOT
BRANCH   2   3
HETATM    3  C   UNL     1      -9.324  14.701  68.451  1.00  0.00    -0.201 A  
HETATM    4  C   UNL     1      -9.520  16.080  68.266  1.00  0.00    -0.206 A  
HETATM    5  C   UNL     1     -10.802  16.616  68.109  1.00  0.00    -0.348 A  
HETATM    6  C   UNL     1     -11.910  15.781  68.110  1.00  0.00    -0.054 A  
HETATM    7  C   UNL     1     -11.735  14.412  68.274  1.00  0.00    -0.376 A  
HETATM    8  C   UNL     1     -10.455  13.858  68.442  1.00  0.00    -0.247 A  
BRANCH   8   9
HETATM    9  O   UNL     1     -10.519  12.496  68.655  1.00  0.00    -0.230 OA 
BRANCH   9  10
HETATM   10  C   UNL     1      -9.927  11.609  67.814  1.00  0.00    -0.181 A  
HETATM   11  C   UNL     1      -8.670  11.061  67.929  1.00  0.00    -0.133 A  
HETATM   12  N   UNL     1      -8.175  10.122  67.112  1.00  0.00    -0.120 NA 
HETATM   13  N   UNL     1     -10.178  10.266  65.831  1.00  0.00    -0.246 NA 
HETATM   14  C   UNL     1      -8.977   9.718  66.104  1.00  0.00    -0.152 A  
HETATM   15  C   UNL     1     -10.614  11.214  66.678  1.00  0.00    -0.264 A  
BRANCH  11  16
HETATM   16  N   UNL     1      -7.708  11.384  68.916  1.00  0.00    -0.218 N  
HETATM   17  H   UNL     1      -7.562  12.356  69.190  1.00  0.00     0.000 HD 
BRANCH  16  18
HETATM   18  S   UNL     1      -6.809  10.166  69.632  1.00  0.00    -0.104 S  
HETATM   19  O   UNL     1      -6.040   9.487  68.605  1.00  0.00    -0.043 OA 
HETATM   20  O   UNL     1      -6.138  10.775  70.764  1.00  0.00    -0.278 OA 
BRANCH  18  21
HETATM   21  C   UNL     1      -7.976   8.990  70.271  1.00  0.00    -0.121 A  
HETATM   22  C   UNL     1      -9.873   7.181  71.318  1.00  0.00    -0.178 A  
HETATM   23  C   UNL     1      -9.144   9.466  70.864  1.00  0.00    -0.220 A  
HETATM   24  C   UNL     1     -10.076   8.569  71.383  1.00  0.00    -0.302 A  
HETATM   25  C   UNL     1      -8.715   6.724  70.651  1.00  0.00    -0.143 A  
HETATM   26  C   UNL     1      -7.772   7.620  70.126  1.00  0.00    -0.091 A  
BRANCH  22  27
HETATM   27  C   UNL     1     -10.848   6.191  71.983  1.00  0.00    -0.292 C  
HETATM   28  C   UNL     1     -12.335   6.562  71.765  1.00  0.00    -0.340 C  
HETATM   29  C   UNL     1     -10.606   6.180  73.508  1.00  0.00    -0.283 C  
HETATM   30  C   UNL     1     -10.647   4.767  71.428  1.00  0.00    -0.048 C  
ENDBRANCH  22  27
ENDBRANCH  18  21
ENDBRANCH  16  18
ENDBRANCH  11  16
BRANCH  14  31
HETATM   31  C   UNL     1      -8.547   8.539  65.309  1.00  0.00    -0.165 A  
HETATM   32  N   UNL     1      -8.139   7.437  65.984  1.00  0.00    -0.117 NA 
HETATM   33  N   UNL     1      -8.509   8.655  63.959  1.00  0.00    -0.119 NA 
HETATM   34  C   UNL     1      -8.045   7.594  63.278  1.00  0.00    -0.051 A  
HETATM   35  C   UNL     1      -7.674   6.414  65.248  1.00  0.00    -0.098 A  
HETATM   36  C   UNL     1      -7.606   6.436  63.876  1.00  0.00    -0.099 A  
ENDBRANCH  14  31
BRANCH  15  37
HETATM   37  O   UNL     1     -11.806  11.854  66.387  1.00  0.00    -0.561 OA 
BRANCH  37  38
HETATM   38  C   UNL     1     -11.782  12.752  65.270  1.00  0.00    -0.368 C  
BRANCH  38  39
HETATM   39  C   UNL     1     -12.473  12.122  64.065  1.00  0.00    -0.440 C  
HETATM   40  O   UNL     1     -11.532  11.430  63.251  1.00  0.00    -0.812 OA 
HETATM   41  H   UNL     1     -11.962  11.038  62.500  1.00  0.00     0.000 HD 
ENDBRANCH  38  39
ENDBRANCH  37  38
ENDBRANCH  15  37
ENDBRANCH   9  10
ENDBRANCH   8   9
ENDBRANCH   2   3
TORSDOF 11
ENDMDL
MODEL      109
REMARK 921   NORMALIZED FREE ENERGY PREDICTED BY IDOCK:   -4.52 KCAL/MOL
REMARK 922        TOTAL FREE ENERGY PREDICTED BY IDOCK:   -9.89 KCAL/MOL
REMARK 923 INTER-LIGAND FREE ENERGY PREDICTED BY IDOCK:   -7.97 KCAL/MOL
REMARK 924 INTRA-LIGAND FREE ENERGY PREDICTED BY IDOCK:   -1.91 KCAL/MOL
REMARK 927      BINDING AFFINITY PREDICTED BY RF-SCORE:    0.00 PKD
ROOT
HETATM    1  C   UNL     1     -11.480  11.163  69.823  1.00  0.00    -0.312 C  
HETATM    2  O   UNL     1     -11.763  10.699  71.143  1.00  0.00    -0.305 OA 
ENDROOT
BRANCH   2   3
HETATM    3  C   UNL     1     -12.393   9.485  71.260  1.00  0.00    -0.345 A  
HETATM    4  C   UNL     1     -13.792   9.354  71.279  1.00  0.00    -0.183 A  
HETATM    5  C   UNL     1     -14.401   8.109  71.462  1.00  0.00    -0.534 A  
HETATM    6  C   UNL     1     -13.623   6.968  71.607  1.00  0.00    -0.346 A  
HETATM    7  C   UNL     1     -12.238   7.076  71.574  1.00  0.00    -0.407 A  
HETATM    8  C   UNL     1     -11.610   8.320  71.399  1.00  0.00    -0.280 A  
BRANCH   8   9
HETATM    9  O   UNL     1     -10.236   8.205  71.466  1.00  0.00    -0.192 OA 
BRANCH   9  10
HETATM   10  C   UNL     1      -9.568   7.203  70.839  1.00  0.00    -0.167 A  
HETATM   11  C   UNL     1      -9.335   7.074  69.488  1.00  0.00    -0.148 A  
HETATM   12  N   UNL     1      -8.592   6.105  68.937  1.00  0.00    -0.120 NA 
HETATM   13  N   UNL     1      -8.319   5.162  71.107  1.00  0.00    -0.118 NA 
HETATM   14  C   UNL     1      -8.063   5.197  69.784  1.00  0.00    -0.082 A  
HETATM   15  C   UNL     1      -9.084   6.152  71.599  1.00  0.00    -0.145 A  
BRANCH  11  16
HETATM   16  N   UNL     1      -9.826   7.929  68.472  1.00  0.00    -0.172 N  
HETATM   17  H   UNL     1     -10.825   8.122  68.404  1.00  0.00     0.000 HD 
BRANCH  16  18
HETATM   18  S   UNL     1      -8.760   8.624  67.383  1.00  0.00    -0.134 S  
HETATM   19  O   UNL     1      -7.493   8.857  68.054  1.00  0.00    -0.090 OA 
HETATM   20  O   UNL     1      -8.814   7.803  66.189  1.00  0.00    -0.151 OA 
BRANCH  18  21
HETATM   21  C   UNL     1      -9.430  10.215  66.969  1.00  0.00    -0.167 A  
HETATM   22  C   UNL     1     -10.441  12.779  66.358  1.00  0.00    -0.265 A  
HETATM   23  C   UNL     1      -8.765  11.355  67.418  1.00  0.00    -0.145 A  
HETATM   24  C   UNL     1      -9.270  12.618  67.118  1.00  0.00    -0.214 A  
HETATM   25  C   UNL     1     -11.056  11.610  65.859  1.00  0.00    -0.320 A  
HETATM   26  C   UNL     1     -10.555  10.334  66.156  1.00  0.00    -0.124 A  
BRANCH  22  27
HETATM   27  C   UNL     1     -11.059  14.169  66.114  1.00  0.00    -0.312 C  
HETATM   28  C   UNL     1     -10.017  15.234  65.696  1.00  0.00    -0.397 C  
HETATM   29  C   UNL     1     -11.719  14.672  67.416  1.00  0.00    -0.413 C  
HETATM   30  C   UNL     1     -12.122  14.106  64.999  1.00  0.00    -0.428 C  
ENDBRANCH  22  27
ENDBRANCH  18  21
ENDBRANCH  16  18
ENDBRANCH  11  16
BRANCH  14  31
HETATM   31  C   UNL     1      -7.070   4.237  69.236  1.00  0.00    -0.050 A  
HETATM   32  N   UNL     1      -6.771   3.145  69.980  1.00  0.00    -0.033 NA 
HETATM   33  N   UNL     1      -6.459   4.545  68.066  1.00  0.00    -0.037 NA 
HETATM   34  C   UNL     1      -5.514   3.690  67.639  1.00  0.00    -0.020 A  
HETATM   35  C   UNL     1      -5.809   2.335  69.507  1.00  0.00    -0.023 A  
HETATM   36  C   UNL     1      -5.142   2.560  68.327  1.00  0.00    -0.012 A  
ENDBRANCH  14  31
BRANCH  15  37
HETATM   37  O   UNL     1      -9.431   6.108  72.937  1.00  0.00    -0.150 OA 
BRANCH  37  38
HETATM   38  C   UNL     1      -8.369   5.813  73.854  1.00  0.00    -0.112 C  
BRANCH  38  39
HETATM   39  C   UNL     1      -7.759   7.102  74.395  1.00  0.00    -0.125 C  
HETATM   40  O   UNL     1      -8.686   8.179  74.295  1.00  0.00    -0.394 OA 
HETATM   41  H   UNL     1      -8.306   8.982  74.632  1.00  0.00     0.000 HD 
ENDBRANCH  38  39
ENDBRANCH  37  38
ENDBRANCH  15  37
ENDBRANCH   9  10
ENDBRANCH   8   9
ENDBRANCH   2   3
TORSDOF 11
ENDMDL
MODEL      110
REMARK 921   NORMALIZED FREE ENERGY PREDICTED BY IDOCK:   -4.51 KCAL/MOL
REMARK 922        TOTAL FREE ENERGY PREDICTED BY IDOCK:   -9.88 KCAL/MOL
REMARK 923 INTER-LIGAND FREE ENERGY PREDICTED BY IDOCK:   -7.91 KCAL/MOL
REMARK 924 INTRA-LIGAND FREE ENERGY PREDICTED BY IDOCK:   -1.96 KCAL/MOL
REMARK 927      BINDING AFFINITY PREDICTED BY RF-SCORE:    0.00 PKD
ROOT
HETATM    1  C   UNL     1      -5.461   6.389  69.623  1.00  0.00    -0.014 C  
HETATM    2  O   UNL     1      -6.849   6.412  69.953  1.00  0.00    -0.054 OA 
ENDROOT
BRANCH   2   3
HETATM    3  C   UNL     1      -7.201   6.998  71.144  1.00  0.00    -0.075 A  
HETATM    4  C   UNL     1      -6.362   6.990  72.271  1.00  0.00    -0.048 A  
HETATM    5  C   UNL     1      -6.776   7.542  73.488  1.00  0.00    -0.079 A  
HETATM    6  C   UNL     1      -8.028   8.132  73.593  1.00  0.00    -0.256 A  
HETATM    7  C   UNL     1      -8.865   8.164  72.484  1.00  0.00    -0.272 A  
HETATM    8  C   UNL     1      -8.468   7.608  71.258  1.00  0.00    -0.115 A  
BRANCH   8   9
HETATM    9  O   UNL     1      -9.475   7.689  70.317  1.00  0.00    -0.161 OA 
BRANCH   9  10
HETATM   10  C   UNL     1      -9.827   8.868  69.743  1.00  0.00    -0.180 A  
HETATM   11  C   UNL     1      -9.045   9.675  68.947  1.00  0.00    -0.144 A  
HETATM   12  N   UNL     1      -9.479  10.785  68.336  1.00  0.00    -0.166 NA 
HETATM   13  N   UNL     1     -11.589  10.472  69.395  1.00  0.00    -0.259 NA 
HETATM   14  C   UNL     1     -10.768  11.123  68.548  1.00  0.00    -0.201 A  
HETATM   15  C   UNL     1     -11.093   9.374  69.991  1.00  0.00    -0.221 A  
BRANCH  11  16
HETATM   16  N   UNL     1      -7.679   9.468  68.639  1.00  0.00    -0.080 N  
HETATM   17  H   UNL     1      -7.412   8.789  67.926  1.00  0.00     0.000 HD 
BRANCH  16  18
HETATM   18  S   UNL     1      -6.502  10.341  69.449  1.00  0.00    -0.061 S  
HETATM   19  O   UNL     1      -6.812  10.339  70.868  1.00  0.00    -0.339 OA 
HETATM   20  O   UNL     1      -5.229   9.830  68.979  1.00  0.00    -0.036 OA 
BRANCH  18  21
HETATM   21  C   UNL     1      -6.646  12.020  68.888  1.00  0.00    -0.089 A  
HETATM   22  C   UNL     1      -6.867  14.712  68.071  1.00  0.00    -0.152 A  
HETATM   23  C   UNL     1      -6.442  13.048  69.806  1.00  0.00    -0.005 A  
HETATM   24  C   UNL     1      -6.556  14.376  69.399  1.00  0.00    -0.137 A  
HETATM   25  C   UNL     1      -7.001  13.653  67.147  1.00  0.00     0.309 A  
HETATM   26  C   UNL     1      -6.888  12.313  67.548  1.00  0.00    -0.135 A  
BRANCH  22  27
HETATM   27  C   UNL     1      -7.098  16.174  67.643  1.00  0.00    -0.170 C  
HETATM   28  C   UNL     1      -7.478  17.102  68.822  1.00  0.00    -0.250 C  
HETATM   29  C   UNL     1      -8.262  16.234  66.631  1.00  0.00    -0.316 C  
HETATM   30  C   UNL     1      -5.830  16.760  66.991  1.00  0.00    -0.206 C  
ENDBRANCH  22  27
ENDBRANCH  18  21
ENDBRANCH  16  18
ENDBRANCH  11  16
BRANCH  14  31
HETATM   31  C   UNL     1     -11.337  12.223  67.727  1.00  0.00    -0.301 A  
HETATM   32  N   UNL     1     -11.833  11.909  66.506  1.00  0.00    -0.570 NA 
HETATM   33  N   UNL     1     -11.258  13.489  68.207  1.00  0.00    -0.260 NA 
HETATM   34  C   UNL     1     -11.716  14.465  67.406  1.00  0.00    -0.397 A  
HETATM   35  C   UNL     1     -12.265  12.930  65.747  1.00  0.00    -0.439 A  
HETATM   36  C   UNL     1     -12.232  14.242  66.151  1.00  0.00    -0.430 A  
ENDBRANCH  14  31
BRANCH  15  37
HETATM   37  O   UNL     1     -11.878   8.723  70.925  1.00  0.00    -0.282 OA 
BRANCH  37  38
HETATM   38  C   UNL     1     -12.717   9.557  71.733  1.00  0.00    -0.404 C  
BRANCH  38  39
HETATM   39  C   UNL     1     -14.080   8.905  71.937  1.00  0.00    -0.388 C  
HETATM   40  O   UNL     1     -13.934   7.534  72.294  1.00  0.00    -0.532 OA 
HETATM   41  H   UNL     1     -14.783   7.127  72.421  1.00  0.00     0.000 HD 
ENDBRANCH  38  39
ENDBRANCH  37  38
ENDBRANCH  15  37
ENDBRANCH   9  10
ENDBRANCH   8   9
ENDBRANCH   2   3
TORSDOF 11
ENDMDL
MODEL      111
REMARK 921   NORMALIZED FREE ENERGY PREDICTED BY IDOCK:   -4.51 KCAL/MOL
REMARK 922        TOTAL FREE ENERGY PREDICTED BY IDOCK:   -9.88 KCAL/MOL
REMARK 923 INTER-LIGAND FREE ENERGY PREDICTED BY IDOCK:   -6.28 KCAL/MOL
REMARK 924 INTRA-LIGAND FREE ENERGY PREDICTED BY IDOCK:   -3.60 KCAL/MOL
REMARK 927      BINDING AFFINITY PREDICTED BY RF-SCORE:    0.00 PKD
ROOT
HETATM    1  C   UNL     1      -6.717   6.190  70.658  1.00  0.00    -0.053 C  
HETATM    2  O   UNL     1      -7.991   6.077  71.293  1.00  0.00    -0.109 OA 
ENDROOT
BRANCH   2   3
HETATM    3  C   UNL     1      -8.916   7.054  71.022  1.00  0.00    -0.151 A  
HETATM    4  C   UNL     1      -8.791   8.371  71.498  1.00  0.00    -0.239 A  
HETATM    5  C   UNL     1      -9.783   9.326  71.256  1.00  0.00    -0.299 A  
HETATM    6  C   UNL     1     -10.907   8.990  70.515  1.00  0.00    -0.296 A  
HETATM    7  C   UNL     1     -11.040   7.697  70.022  1.00  0.00    -0.201 A  
HETATM    8  C   UNL     1     -10.058   6.723  70.262  1.00  0.00    -0.179 A  
BRANCH   8   9
HETATM    9  O   UNL     1     -10.423   5.498  69.741  1.00  0.00    -0.270 OA 
BRANCH   9  10
HETATM   10  C   UNL     1      -9.737   4.917  68.724  1.00  0.00    -0.165 A  
HETATM   11  C   UNL     1      -9.414   5.477  67.509  1.00  0.00    -0.117 A  
HETATM   12  N   UNL     1      -8.657   4.881  66.578  1.00  0.00    -0.110 NA 
HETATM   13  N   UNL     1      -8.560   2.954  67.975  1.00  0.00    -0.084 NA 
HETATM   14  C   UNL     1      -8.212   3.641  66.868  1.00  0.00    -0.095 A  
HETATM   15  C   UNL     1      -9.333   3.600  68.865  1.00  0.00    -0.167 A  
BRANCH  11  16
HETATM   16  N   UNL     1      -9.811   6.756  67.049  1.00  0.00    -0.157 N  
HETATM   17  H   UNL     1     -10.800   6.975  66.936  1.00  0.00     0.000 HD 
BRANCH  16  18
HETATM   18  S   UNL     1      -8.649   7.908  66.690  1.00  0.00    -0.141 S  
HETATM   19  O   UNL     1      -7.469   7.647  67.494  1.00  0.00    -0.099 OA 
HETATM   20  O   UNL     1      -8.553   7.944  65.243  1.00  0.00    -0.139 OA 
BRANCH  18  21
HETATM   21  C   UNL     1      -9.308   9.468  67.222  1.00  0.00    -0.134 A  
HETATM   22  C   UNL     1     -10.421  11.934  68.026  1.00  0.00    -0.228 A  
HETATM   23  C   UNL     1     -10.631   9.774  66.908  1.00  0.00    -0.243 A  
HETATM   24  C   UNL     1     -11.175  10.995  67.304  1.00  0.00    -0.330 A  
HETATM   25  C   UNL     1      -9.106  11.571  68.390  1.00  0.00    -0.185 A  
HETATM   26  C   UNL     1      -8.550  10.344  67.996  1.00  0.00    -0.123 A  
BRANCH  22  27
HETATM   27  C   UNL     1     -10.985  13.326  68.373  1.00  0.00    -0.289 C  
HETATM   28  C   UNL     1      -9.884  14.375  68.662  1.00  0.00    -0.231 C  
HETATM   29  C   UNL     1     -11.854  13.224  69.645  1.00  0.00    -0.391 C  
HETATM   30  C   UNL     1     -11.843  13.872  67.215  1.00  0.00    -0.442 C  
ENDBRANCH  22  27
ENDBRANCH  18  21
ENDBRANCH  16  18
ENDBRANCH  11  16
BRANCH  14  31
HETATM   31  C   UNL     1      -7.207   3.036  65.956  1.00  0.00    -0.070 A  
HETATM   32  N   UNL     1      -6.065   2.555  66.505  1.00  0.00    -0.023 NA 
HETATM   33  N   UNL     1      -7.447   3.071  64.623  1.00  0.00    -0.073 NA 
HETATM   34  C   UNL     1      -6.483   2.582  63.825  1.00  0.00    -0.029 A  
HETATM   35  C   UNL     1      -5.134   2.091  65.655  1.00  0.00    -0.005 A  
HETATM   36  C   UNL     1      -5.292   2.077  64.291  1.00  0.00    -0.008 A  
ENDBRANCH  14  31
BRANCH  15  37
HETATM   37  O   UNL     1      -9.775   2.903  69.976  1.00  0.00    -0.100 OA 
BRANCH  37  38
HETATM   38  C   UNL     1      -8.765   2.511  70.915  1.00  0.00    -0.064 C  
BRANCH  38  39
HETATM   39  C   UNL     1      -9.206   2.836  72.338  1.00  0.00    -0.090 C  
HETATM   40  O   UNL     1      -9.976   4.034  72.365  1.00  0.00    -0.151 OA 
HETATM   41  H   UNL     1     -10.251   4.237  73.252  1.00  0.00     0.000 HD 
ENDBRANCH  38  39
ENDBRANCH  37  38
ENDBRANCH  15  37
ENDBRANCH   9  10
ENDBRANCH   8   9
ENDBRANCH   2   3
TORSDOF 11
ENDMDL
MODEL      112
REMARK 921   NORMALIZED FREE ENERGY PREDICTED BY IDOCK:   -4.51 KCAL/MOL
REMARK 922        TOTAL FREE ENERGY PREDICTED BY IDOCK:   -9.87 KCAL/MOL
REMARK 923 INTER-LIGAND FREE ENERGY PREDICTED BY IDOCK:   -8.05 KCAL/MOL
REMARK 924 INTRA-LIGAND FREE ENERGY PREDICTED BY IDOCK:   -1.82 KCAL/MOL
REMARK 927      BINDING AFFINITY PREDICTED BY RF-SCORE:    0.00 PKD
ROOT
HETATM    1  C   UNL     1      -5.431   6.734  70.312  1.00  0.00    -0.019 C  
HETATM    2  O   UNL     1      -6.840   6.698  70.536  1.00  0.00    -0.059 OA 
ENDROOT
BRANCH   2   3
HETATM    3  C   UNL     1      -7.300   7.210  71.725  1.00  0.00    -0.084 A  
HETATM    4  C   UNL     1      -6.528   7.210  72.900  1.00  0.00    -0.063 A  
HETATM    5  C   UNL     1      -7.049   7.682  74.109  1.00  0.00    -0.132 A  
HETATM    6  C   UNL     1      -8.342   8.183  74.161  1.00  0.00    -0.286 A  
HETATM    7  C   UNL     1      -9.114   8.206  73.005  1.00  0.00    -0.344 A  
HETATM    8  C   UNL     1      -8.610   7.729  71.785  1.00  0.00    -0.116 A  
BRANCH   8   9
HETATM    9  O   UNL     1      -9.564   7.783  70.789  1.00  0.00    -0.165 OA 
BRANCH   9  10
HETATM   10  C   UNL     1      -9.916   8.952  70.195  1.00  0.00    -0.185 A  
HETATM   11  C   UNL     1      -9.096   9.823  69.515  1.00  0.00    -0.216 A  
HETATM   12  N   UNL     1      -9.521  10.920  68.874  1.00  0.00    -0.189 NA 
HETATM   13  N   UNL     1     -11.720  10.455  69.661  1.00  0.00    -0.237 NA 
HETATM   14  C   UNL     1     -10.845  11.175  68.932  1.00  0.00    -0.216 A  
HETATM   15  C   UNL     1     -11.232   9.375  70.294  1.00  0.00    -0.246 A  
BRANCH  11  16
HETATM   16  N   UNL     1      -7.692   9.706  69.373  1.00  0.00    -0.091 N  
HETATM   17  H   UNL     1      -7.094   9.689  70.199  1.00  0.00     0.000 HD 
BRANCH  16  18
HETATM   18  S   UNL     1      -7.017   9.597  67.845  1.00  0.00    -0.079 S  
HETATM   19  O   UNL     1      -7.609  10.619  66.999  1.00  0.00    -0.103 OA 
HETATM   20  O   UNL     1      -5.581   9.555  68.042  1.00  0.00    -0.040 OA 
BRANCH  18  21
HETATM   21  C   UNL     1      -7.514   8.025  67.187  1.00  0.00    -0.092 A  
HETATM   22  C   UNL     1      -8.378   5.551  66.139  1.00  0.00    -0.119 A  
HETATM   23  C   UNL     1      -8.834   7.865  66.769  1.00  0.00    -0.154 A  
HETATM   24  C   UNL     1      -9.257   6.640  66.256  1.00  0.00    -0.158 A  
HETATM   25  C   UNL     1      -7.031   5.760  66.505  1.00  0.00    -0.064 A  
HETATM   26  C   UNL     1      -6.596   6.990  67.022  1.00  0.00    -0.055 A  
BRANCH  22  27
HETATM   27  C   UNL     1      -8.868   4.166  65.672  1.00  0.00    -0.122 C  
HETATM   28  C   UNL     1     -10.359   4.156  65.258  1.00  0.00    -0.184 C  
HETATM   29  C   UNL     1      -8.714   3.152  66.826  1.00  0.00    -0.135 C  
HETATM   30  C   UNL     1      -8.054   3.679  64.458  1.00  0.00    -0.086 C  
ENDBRANCH  22  27
ENDBRANCH  18  21
ENDBRANCH  16  18
ENDBRANCH  11  16
BRANCH  14  31
HETATM   31  C   UNL     1     -11.378  12.259  68.066  1.00  0.00    -0.293 A  
HETATM   32  N   UNL     1     -11.650  11.958  66.774  1.00  0.00    -0.528 NA 
HETATM   33  N   UNL     1     -11.487  13.504  68.591  1.00  0.00    -0.285 NA 
HETATM   34  C   UNL     1     -11.903  14.473  67.758  1.00  0.00    -0.357 A  
HETATM   35  C   UNL     1     -12.050  12.971  65.988  1.00  0.00    -0.432 A  
HETATM   36  C   UNL     1     -12.198  14.263  66.432  1.00  0.00    -0.426 A  
ENDBRANCH  14  31
BRANCH  15  37
HETATM   37  O   UNL     1     -12.082   8.655  71.114  1.00  0.00    -0.291 OA 
BRANCH  37  38
HETATM   38  C   UNL     1     -13.142   9.398  71.729  1.00  0.00    -0.409 C  
BRANCH  38  39
HETATM   39  C   UNL     1     -14.411   8.555  71.805  1.00  0.00    -0.437 C  
HETATM   40  O   UNL     1     -14.090   7.178  71.968  1.00  0.00    -0.556 OA 
HETATM   41  H   UNL     1     -14.881   6.652  72.015  1.00  0.00     0.000 HD 
ENDBRANCH  38  39
ENDBRANCH  37  38
ENDBRANCH  15  37
ENDBRANCH   9  10
ENDBRANCH   8   9
ENDBRANCH   2   3
TORSDOF 11
ENDMDL
MODEL      113
REMARK 921   NORMALIZED FREE ENERGY PREDICTED BY IDOCK:   -4.48 KCAL/MOL
REMARK 922        TOTAL FREE ENERGY PREDICTED BY IDOCK:   -9.82 KCAL/MOL
REMARK 923 INTER-LIGAND FREE ENERGY PREDICTED BY IDOCK:   -9.10 KCAL/MOL
REMARK 924 INTRA-LIGAND FREE ENERGY PREDICTED BY IDOCK:   -0.72 KCAL/MOL
REMARK 927      BINDING AFFINITY PREDICTED BY RF-SCORE:    0.00 PKD
ROOT
HETATM    1  C   UNL     1      -9.884  14.998  65.715  1.00  0.00    -0.353 C  
HETATM    2  O   UNL     1     -10.529  13.775  66.073  1.00  0.00    -0.285 OA 
ENDROOT
BRANCH   2   3
HETATM    3  C   UNL     1     -10.995  13.665  67.359  1.00  0.00    -0.276 A  
HETATM    4  C   UNL     1     -10.852  14.690  68.309  1.00  0.00    -0.249 A  
HETATM    5  C   UNL     1     -11.284  14.522  69.629  1.00  0.00    -0.292 A  
HETATM    6  C   UNL     1     -11.887  13.333  70.017  1.00  0.00    -0.365 A  
HETATM    7  C   UNL     1     -12.052  12.314  69.086  1.00  0.00    -0.214 A  
HETATM    8  C   UNL     1     -11.618  12.464  67.760  1.00  0.00    -0.352 A  
BRANCH   8   9
HETATM    9  O   UNL     1     -11.818  11.310  67.030  1.00  0.00    -0.484 OA 
BRANCH   9  10
HETATM   10  C   UNL     1     -10.895  10.315  66.991  1.00  0.00    -0.181 A  
HETATM   11  C   UNL     1     -10.742   9.283  67.890  1.00  0.00    -0.188 A  
HETATM   12  N   UNL     1      -9.866   8.280  67.749  1.00  0.00    -0.162 NA 
HETATM   13  N   UNL     1      -9.064   9.337  65.770  1.00  0.00    -0.193 NA 
HETATM   14  C   UNL     1      -9.078   8.319  66.653  1.00  0.00    -0.166 A  
HETATM   15  C   UNL     1      -9.956  10.322  65.973  1.00  0.00    -0.245 A  
BRANCH  11  16
HETATM   16  N   UNL     1     -11.476   9.106  69.087  1.00  0.00    -0.260 N  
HETATM   17  H   UNL     1     -12.459   8.835  69.050  1.00  0.00     0.000 HD 
BRANCH  16  18
HETATM   18  S   UNL     1     -10.726   9.344  70.565  1.00  0.00    -0.301 S  
HETATM   19  O   UNL     1      -9.424   9.946  70.337  1.00  0.00    -0.205 OA 
HETATM   20  O   UNL     1     -11.700  10.009  71.408  1.00  0.00    -0.367 OA 
BRANCH  18  21
HETATM   21  C   UNL     1     -10.440   7.730  71.249  1.00  0.00    -0.206 A  
HETATM   22  C   UNL     1     -10.006   5.193  72.407  1.00  0.00    -0.225 A  
HETATM   23  C   UNL     1     -10.801   7.495  72.574  1.00  0.00    -0.349 A  
HETATM   24  C   UNL     1     -10.582   6.242  73.143  1.00  0.00    -0.273 A  
HETATM   25  C   UNL     1      -9.713   5.438  71.048  1.00  0.00    -0.235 A  
HETATM   26  C   UNL     1      -9.930   6.696  70.467  1.00  0.00    -0.197 A  
BRANCH  22  27
HETATM   27  C   UNL     1      -9.665   3.841  73.063  1.00  0.00    -0.173 C  
HETATM   28  C   UNL     1      -8.512   3.093  72.352  1.00  0.00    -0.083 C  
HETATM   29  C   UNL     1     -10.902   2.918  73.007  1.00  0.00    -0.185 C  
HETATM   30  C   UNL     1      -9.245   4.036  74.533  1.00  0.00    -0.118 C  
ENDBRANCH  22  27
ENDBRANCH  18  21
ENDBRANCH  16  18
ENDBRANCH  11  16
BRANCH  14  31
HETATM   31  C   UNL     1      -8.246   7.124  66.358  1.00  0.00    -0.120 A  
HETATM   32  N   UNL     1      -8.837   6.083  65.723  1.00  0.00    -0.155 NA 
HETATM   33  N   UNL     1      -6.968   7.105  66.811  1.00  0.00    -0.071 NA 
HETATM   34  C   UNL     1      -6.269   5.979  66.590  1.00  0.00    -0.030 A  
HETATM   35  C   UNL     1      -8.091   4.981  65.542  1.00  0.00    -0.115 A  
HETATM   36  C   UNL     1      -6.786   4.873  65.957  1.00  0.00    -0.058 A  
ENDBRANCH  14  31
BRANCH  15  37
HETATM   37  O   UNL     1      -9.921  11.421  65.133  1.00  0.00    -0.240 OA 
BRANCH  37  38
HETATM   38  C   UNL     1     -10.421  11.215  63.806  1.00  0.00    -0.381 C  
BRANCH  38  39
HETATM   39  C   UNL     1      -9.375  10.516  62.944  1.00  0.00    -0.326 C  
HETATM   40  O   UNL     1      -9.530   9.102  63.011  1.00  0.00    -0.421 OA 
HETATM   41  H   UNL     1      -8.879   8.666  62.474  1.00  0.00     0.000 HD 
ENDBRANCH  38  39
ENDBRANCH  37  38
ENDBRANCH  15  37
ENDBRANCH   9  10
ENDBRANCH   8   9
ENDBRANCH   2   3
TORSDOF 11
ENDMDL
MODEL      114
REMARK 921   NORMALIZED FREE ENERGY PREDICTED BY IDOCK:   -4.47 KCAL/MOL
REMARK 922        TOTAL FREE ENERGY PREDICTED BY IDOCK:   -9.80 KCAL/MOL
REMARK 923 INTER-LIGAND FREE ENERGY PREDICTED BY IDOCK:   -7.59 KCAL/MOL
REMARK 924 INTRA-LIGAND FREE ENERGY PREDICTED BY IDOCK:   -2.21 KCAL/MOL
REMARK 927      BINDING AFFINITY PREDICTED BY RF-SCORE:    0.00 PKD
ROOT
HETATM    1  C   UNL     1     -10.753   7.202  73.425  1.00  0.00    -0.368 C  
HETATM    2  O   UNL     1      -9.632   6.679  72.712  1.00  0.00    -0.146 OA 
ENDROOT
BRANCH   2   3
HETATM    3  C   UNL     1      -8.858   7.574  72.015  1.00  0.00    -0.117 A  
HETATM    4  C   UNL     1      -7.641   8.072  72.511  1.00  0.00    -0.144 A  
HETATM    5  C   UNL     1      -6.908   9.029  71.803  1.00  0.00     0.008 A  
HETATM    6  C   UNL     1      -7.366   9.490  70.577  1.00  0.00    -0.147 A  
HETATM    7  C   UNL     1      -8.559   8.996  70.063  1.00  0.00    -0.157 A  
HETATM    8  C   UNL     1      -9.312   8.040  70.764  1.00  0.00    -0.157 A  
BRANCH   8   9
HETATM    9  O   UNL     1     -10.488   7.743  70.105  1.00  0.00    -0.220 OA 
BRANCH   9  10
HETATM   10  C   UNL     1     -10.499   7.094  68.913  1.00  0.00    -0.207 A  
HETATM   11  C   UNL     1     -10.644   7.650  67.662  1.00  0.00    -0.224 A  
HETATM   12  N   UNL     1     -10.558   6.966  66.514  1.00  0.00    -0.087 NA 
HETATM   13  N   UNL     1     -10.289   4.973  67.791  1.00  0.00    -0.101 NA 
HETATM   14  C   UNL     1     -10.334   5.639  66.620  1.00  0.00    -0.256 A  
HETATM   15  C   UNL     1     -10.396   5.713  68.909  1.00  0.00    -0.225 A  
BRANCH  11  16
HETATM   16  N   UNL     1     -10.895   9.015  67.381  1.00  0.00    -0.432 N  
HETATM   17  H   UNL     1     -11.769   9.447  67.682  1.00  0.00     0.000 HD 
BRANCH  16  18
HETATM   18  S   UNL     1      -9.754   9.918  66.553  1.00  0.00    -0.218 S  
HETATM   19  O   UNL     1      -8.434   9.390  66.853  1.00  0.00    -0.125 OA 
HETATM   20  O   UNL     1     -10.217   9.989  65.180  1.00  0.00    -0.288 OA 
BRANCH  18  21
HETATM   21  C   UNL     1      -9.824  11.558  67.228  1.00  0.00    -0.190 A  
HETATM   22  C   UNL     1     -10.014  14.163  68.299  1.00  0.00    -0.241 A  
HETATM   23  C   UNL     1     -11.065  12.075  67.595  1.00  0.00    -0.319 A  
HETATM   24  C   UNL     1     -11.154  13.363  68.120  1.00  0.00    -0.284 A  
HETATM   25  C   UNL     1      -8.762  13.590  67.984  1.00  0.00    -0.181 A  
HETATM   26  C   UNL     1      -8.662  12.294  67.455  1.00  0.00    -0.177 A  
BRANCH  22  27
HETATM   27  C   UNL     1     -10.120  15.623  68.780  1.00  0.00    -0.211 C  
HETATM   28  C   UNL     1     -10.638  16.588  67.686  1.00  0.00    -0.321 C  
HETATM   29  C   UNL     1      -8.723  16.128  69.200  1.00  0.00    -0.235 C  
HETATM   30  C   UNL     1     -11.082  15.735  69.980  1.00  0.00    -0.348 C  
ENDBRANCH  22  27
ENDBRANCH  18  21
ENDBRANCH  16  18
ENDBRANCH  11  16
BRANCH  14  31
HETATM   31  C   UNL     1     -10.028   4.888  65.375  1.00  0.00    -0.024 A  
HETATM   32  N   UNL     1     -11.028   4.172  64.808  1.00  0.00    -0.199 NA 
HETATM   33  N   UNL     1      -8.750   4.893  64.920  1.00  0.00    -0.148 NA 
HETATM   34  C   UNL     1      -8.496   4.144  63.835  1.00  0.00    -0.100 A  
HETATM   35  C   UNL     1     -10.709   3.433  63.732  1.00  0.00    -0.244 A  
HETATM   36  C   UNL     1      -9.446   3.383  63.195  1.00  0.00    -0.099 A  
ENDBRANCH  14  31
BRANCH  15  37
HETATM   37  O   UNL     1     -10.432   5.058  70.127  1.00  0.00    -0.267 OA 
BRANCH  37  38
HETATM   38  C   UNL     1      -9.383   4.110  70.363  1.00  0.00    -0.155 C  
BRANCH  38  39
HETATM   39  C   UNL     1      -9.677   3.290  71.615  1.00  0.00    -0.164 C  
HETATM   40  O   UNL     1     -10.668   3.929  72.413  1.00  0.00    -0.067 OA 
HETATM   41  H   UNL     1     -10.852   3.419  73.193  1.00  0.00     0.000 HD 
ENDBRANCH  38  39
ENDBRANCH  37  38
ENDBRANCH  15  37
ENDBRANCH   9  10
ENDBRANCH   8   9
ENDBRANCH   2   3
TORSDOF 11
ENDMDL
MODEL      115
REMARK 921   NORMALIZED FREE ENERGY PREDICTED BY IDOCK:   -4.45 KCAL/MOL
REMARK 922        TOTAL FREE ENERGY PREDICTED BY IDOCK:   -9.78 KCAL/MOL
REMARK 923 INTER-LIGAND FREE ENERGY PREDICTED BY IDOCK:   -7.87 KCAL/MOL
REMARK 924 INTRA-LIGAND FREE ENERGY PREDICTED BY IDOCK:   -1.91 KCAL/MOL
REMARK 927      BINDING AFFINITY PREDICTED BY RF-SCORE:    0.00 PKD
ROOT
HETATM    1  C   UNL     1      -8.416   9.556  70.560  1.00  0.00    -0.169 C  
HETATM    2  O   UNL     1      -8.963   8.720  71.580  1.00  0.00    -0.205 OA 
ENDROOT
BRANCH   2   3
HETATM    3  C   UNL     1     -10.221   8.213  71.369  1.00  0.00    -0.198 A  
HETATM    4  C   UNL     1     -11.365   8.735  71.998  1.00  0.00    -0.441 A  
HETATM    5  C   UNL     1     -12.624   8.157  71.808  1.00  0.00    -0.360 A  
HETATM    6  C   UNL     1     -12.766   7.060  70.970  1.00  0.00    -0.300 A  
HETATM    7  C   UNL     1     -11.649   6.541  70.326  1.00  0.00    -0.473 A  
HETATM    8  C   UNL     1     -10.377   7.105  70.511  1.00  0.00    -0.202 A  
BRANCH   8   9
HETATM    9  O   UNL     1      -9.407   6.393  69.834  1.00  0.00    -0.150 OA 
BRANCH   9  10
HETATM   10  C   UNL     1      -9.657   5.793  68.642  1.00  0.00    -0.127 A  
HETATM   11  C   UNL     1     -10.082   6.394  67.478  1.00  0.00    -0.155 A  
HETATM   12  N   UNL     1     -10.227   5.759  66.308  1.00  0.00    -0.120 NA 
HETATM   13  N   UNL     1      -9.638   3.728  67.404  1.00  0.00    -0.192 NA 
HETATM   14  C   UNL     1      -9.951   4.438  66.302  1.00  0.00    -0.235 A  
HETATM   15  C   UNL     1      -9.521   4.418  68.552  1.00  0.00    -0.156 A  
BRANCH  11  16
HETATM   16  N   UNL     1     -10.423   7.759  67.322  1.00  0.00    -0.302 N  
HETATM   17  H   UNL     1     -11.360   8.083  67.563  1.00  0.00     0.000 HD 
BRANCH  16  18
HETATM   18  S   UNL     1      -9.284   8.839  66.739  1.00  0.00    -0.182 S  
HETATM   19  O   UNL     1      -7.992   8.512  67.316  1.00  0.00    -0.100 OA 
HETATM   20  O   UNL     1      -9.455   8.865  65.299  1.00  0.00    -0.130 OA 
BRANCH  18  21
HETATM   21  C   UNL     1      -9.742  10.437  67.362  1.00  0.00    -0.163 A  
HETATM   22  C   UNL     1     -10.539  12.948  68.376  1.00  0.00    -0.267 A  
HETATM   23  C   UNL     1     -10.918  10.552  68.101  1.00  0.00    -0.330 A  
HETATM   24  C   UNL     1     -11.310  11.794  68.596  1.00  0.00    -0.327 A  
HETATM   25  C   UNL     1      -9.319  12.792  67.685  1.00  0.00    -0.191 A  
HETATM   26  C   UNL     1      -8.916  11.545  67.182  1.00  0.00    -0.166 A  
BRANCH  22  27
HETATM   27  C   UNL     1     -11.022  14.338  68.831  1.00  0.00    -0.275 C  
HETATM   28  C   UNL     1     -11.793  14.307  70.173  1.00  0.00    -0.379 C  
HETATM   29  C   UNL     1     -11.985  14.918  67.773  1.00  0.00    -0.192 C  
HETATM   30  C   UNL     1      -9.831  15.299  69.012  1.00  0.00    -0.230 C  
ENDBRANCH  22  27
ENDBRANCH  18  21
ENDBRANCH  16  18
ENDBRANCH  11  16
BRANCH  14  31
HETATM   31  C   UNL     1      -9.900   3.749  64.986  1.00  0.00    -0.175 A  
HETATM   32  N   UNL     1      -8.716   3.214  64.599  1.00  0.00    -0.099 NA 
HETATM   33  N   UNL     1     -11.012   3.762  64.211  1.00  0.00    -0.282 NA 
HETATM   34  C   UNL     1     -10.907   3.194  62.999  1.00  0.00    -0.186 A  
HETATM   35  C   UNL     1      -8.671   2.670  63.372  1.00  0.00    -0.085 A  
HETATM   36  C   UNL     1      -9.748   2.630  62.520  1.00  0.00    -0.091 A  
ENDBRANCH  14  31
BRANCH  15  37
HETATM   37  O   UNL     1      -9.277   3.714  69.717  1.00  0.00    -0.114 OA 
BRANCH  37  38
HETATM   38  C   UNL     1      -8.056   2.964  69.756  1.00  0.00    -0.041 C  
BRANCH  38  39
HETATM   39  C   UNL     1      -6.864   3.872  69.472  1.00  0.00    -0.042 C  
HETATM   40  O   UNL     1      -6.438   3.736  68.120  1.00  0.00    -0.036 OA 
HETATM   41  H   UNL     1      -5.696   4.301  67.943  1.00  0.00     0.000 HD 
ENDBRANCH  38  39
ENDBRANCH  37  38
ENDBRANCH  15  37
ENDBRANCH   9  10
ENDBRANCH   8   9
ENDBRANCH   2   3
TORSDOF 11
ENDMDL
MODEL      116
REMARK 921   NORMALIZED FREE ENERGY PREDICTED BY IDOCK:   -4.44 KCAL/MOL
REMARK 922        TOTAL FREE ENERGY PREDICTED BY IDOCK:   -9.76 KCAL/MOL
REMARK 923 INTER-LIGAND FREE ENERGY PREDICTED BY IDOCK:   -8.17 KCAL/MOL
REMARK 924 INTRA-LIGAND FREE ENERGY PREDICTED BY IDOCK:   -1.58 KCAL/MOL
REMARK 927      BINDING AFFINITY PREDICTED BY RF-SCORE:    0.00 PKD
ROOT
HETATM    1  C   UNL     1      -8.302  18.403  66.000  1.00  0.00    -0.023 C  
HETATM    2  O   UNL     1      -7.509  17.230  65.818  1.00  0.00    -0.404 OA 
ENDROOT
BRANCH   2   3
HETATM    3  C   UNL     1      -6.993  16.640  66.946  1.00  0.00    -0.227 A  
HETATM    4  C   UNL     1      -5.985  17.237  67.722  1.00  0.00    -0.145 A  
HETATM    5  C   UNL     1      -5.438  16.581  68.829  1.00  0.00    -0.121 A  
HETATM    6  C   UNL     1      -5.904  15.326  69.194  1.00  0.00    -0.099 A  
HETATM    7  C   UNL     1      -6.913  14.727  68.449  1.00  0.00    -0.114 A  
HETATM    8  C   UNL     1      -7.467  15.368  67.329  1.00  0.00    -0.207 A  
BRANCH   8   9
HETATM    9  O   UNL     1      -8.400  14.568  66.701  1.00  0.00    -0.094 OA 
BRANCH   9  10
HETATM   10  C   UNL     1      -9.245  13.767  67.399  1.00  0.00    -0.221 A  
HETATM   11  C   UNL     1      -9.107  12.418  67.640  1.00  0.00    -0.186 A  
HETATM   12  N   UNL     1      -9.932  11.699  68.412  1.00  0.00    -0.197 NA 
HETATM   13  N   UNL     1     -11.266  13.650  68.702  1.00  0.00    -0.261 NA 
HETATM   14  C   UNL     1     -10.972  12.361  68.962  1.00  0.00    -0.197 A  
HETATM   15  C   UNL     1     -10.410  14.316  67.909  1.00  0.00    -0.233 A  
BRANCH  11  16
HETATM   16  N   UNL     1      -8.086  11.581  67.130  1.00  0.00    -0.152 N  
HETATM   17  H   UNL     1      -7.106  11.805  67.305  1.00  0.00     0.000 HD 
BRANCH  16  18
HETATM   18  S   UNL     1      -8.491  10.222  66.239  1.00  0.00    -0.140 S  
HETATM   19  O   UNL     1      -9.749  10.470  65.557  1.00  0.00    -0.208 OA 
HETATM   20  O   UNL     1      -7.306   9.871  65.481  1.00  0.00    -0.110 OA 
BRANCH  18  21
HETATM   21  C   UNL     1      -8.782   8.921  67.411  1.00  0.00    -0.125 A  
HETATM   22  C   UNL     1      -9.316   6.839  69.240  1.00  0.00    -0.144 A  
HETATM   23  C   UNL     1      -9.917   8.126  67.255  1.00  0.00    -0.283 A  
HETATM   24  C   UNL     1     -10.178   7.102  68.163  1.00  0.00    -0.220 A  
HETATM   25  C   UNL     1      -8.140   7.614  69.335  1.00  0.00    -0.127 A  
HETATM   26  C   UNL     1      -7.868   8.647  68.426  1.00  0.00    -0.105 A  
BRANCH  22  27
HETATM   27  C   UNL     1      -9.657   5.778  70.305  1.00  0.00    -0.206 C  
HETATM   28  C   UNL     1      -8.642   5.740  71.473  1.00  0.00    -0.132 C  
HETATM   29  C   UNL     1      -9.647   4.378  69.654  1.00  0.00    -0.275 C  
HETATM   30  C   UNL     1     -11.047   6.043  70.916  1.00  0.00    -0.352 C  
ENDBRANCH  22  27
ENDBRANCH  18  21
ENDBRANCH  16  18
ENDBRANCH  11  16
BRANCH  14  31
HETATM   31  C   UNL     1     -11.782  11.648  69.983  1.00  0.00    -0.321 A  
HETATM   32  N   UNL     1     -12.421  12.395  70.915  1.00  0.00    -0.342 NA 
HETATM   33  N   UNL     1     -11.774  10.293  69.977  1.00  0.00    -0.262 NA 
HETATM   34  C   UNL     1     -12.459   9.683  70.959  1.00  0.00    -0.296 A  
HETATM   35  C   UNL     1     -13.079  11.729  71.879  1.00  0.00    -0.376 A  
HETATM   36  C   UNL     1     -13.134  10.358  71.949  1.00  0.00    -0.563 A  
ENDBRANCH  14  31
BRANCH  15  37
HETATM   37  O   UNL     1     -10.718  15.618  67.558  1.00  0.00    -0.292 OA 
BRANCH  37  38
HETATM   38  C   UNL     1     -11.543  16.340  68.481  1.00  0.00    -0.188 C  
BRANCH  38  39
HETATM   39  C   UNL     1     -10.743  17.450  69.155  1.00  0.00    -0.034 C  
HETATM   40  O   UNL     1      -9.348  17.169  69.100  1.00  0.00    -0.194 OA 
HETATM   41  H   UNL     1      -8.849  17.860  69.519  1.00  0.00     0.000 HD 
ENDBRANCH  38  39
ENDBRANCH  37  38
ENDBRANCH  15  37
ENDBRANCH   9  10
ENDBRANCH   8   9
ENDBRANCH   2   3
TORSDOF 11
ENDMDL
MODEL      117
REMARK 921   NORMALIZED FREE ENERGY PREDICTED BY IDOCK:   -4.44 KCAL/MOL
REMARK 922        TOTAL FREE ENERGY PREDICTED BY IDOCK:   -9.76 KCAL/MOL
REMARK 923 INTER-LIGAND FREE ENERGY PREDICTED BY IDOCK:   -8.22 KCAL/MOL
REMARK 924 INTRA-LIGAND FREE ENERGY PREDICTED BY IDOCK:   -1.54 KCAL/MOL
REMARK 927      BINDING AFFINITY PREDICTED BY RF-SCORE:    0.00 PKD
ROOT
HETATM    1  C   UNL     1      -9.321   9.881  63.584  1.00  0.00    -0.191 C  
HETATM    2  O   UNL     1      -9.153   9.504  64.950  1.00  0.00    -0.212 OA 
ENDROOT
BRANCH   2   3
HETATM    3  C   UNL     1      -7.890   9.605  65.478  1.00  0.00    -0.111 A  
HETATM    4  C   UNL     1      -7.024   8.504  65.592  1.00  0.00    -0.071 A  
HETATM    5  C   UNL     1      -5.767   8.629  66.192  1.00  0.00    -0.046 A  
HETATM    6  C   UNL     1      -5.343   9.862  66.668  1.00  0.00    -0.044 A  
HETATM    7  C   UNL     1      -6.179  10.966  66.548  1.00  0.00    -0.122 A  
HETATM    8  C   UNL     1      -7.447  10.856  65.957  1.00  0.00    -0.086 A  
BRANCH   8   9
HETATM    9  O   UNL     1      -8.131  12.054  66.004  1.00  0.00     0.256 OA 
BRANCH   9  10
HETATM   10  C   UNL     1      -8.968  12.363  67.027  1.00  0.00    -0.209 A  
HETATM   11  C   UNL     1      -8.627  12.625  68.335  1.00  0.00    -0.122 A  
HETATM   12  N   UNL     1      -9.493  13.011  69.281  1.00  0.00     0.658 NA 
HETATM   13  N   UNL     1     -11.247  12.783  67.686  1.00  0.00    -0.264 NA 
HETATM   14  C   UNL     1     -10.784  13.123  68.906  1.00  0.00    -0.169 A  
HETATM   15  C   UNL     1     -10.332  12.389  66.783  1.00  0.00    -0.221 A  
BRANCH  11  16
HETATM   16  N   UNL     1      -7.327  12.541  68.889  1.00  0.00    -0.254 N  
HETATM   17  H   UNL     1      -6.931  11.633  69.131  1.00  0.00     0.000 HD 
BRANCH  16  18
HETATM   18  S   UNL     1      -6.440  13.939  69.146  1.00  0.00    -0.115 S  
HETATM   19  O   UNL     1      -6.388  14.203  70.573  1.00  0.00    -0.160 OA 
HETATM   20  O   UNL     1      -5.215  13.783  68.386  1.00  0.00    -0.086 OA 
BRANCH  18  21
HETATM   21  C   UNL     1      -7.364  15.263  68.406  1.00  0.00    -0.114 A  
HETATM   22  C   UNL     1      -8.870  17.377  67.297  1.00  0.00    -0.238 A  
HETATM   23  C   UNL     1      -8.215  16.014  69.214  1.00  0.00    -0.212 A  
HETATM   24  C   UNL     1      -8.960  17.054  68.661  1.00  0.00    -0.267 A  
HETATM   25  C   UNL     1      -7.950  16.645  66.516  1.00  0.00    -0.342 A  
HETATM   26  C   UNL     1      -7.195  15.597  67.063  1.00  0.00    -0.175 A  
BRANCH  22  27
HETATM   27  C   UNL     1      -9.770  18.455  66.663  1.00  0.00    -0.342 C  
HETATM   28  C   UNL     1      -8.974  19.650  66.086  1.00  0.00    -0.375 C  
HETATM   29  C   UNL     1     -10.721  19.025  67.737  1.00  0.00    -0.441 C  
HETATM   30  C   UNL     1     -10.604  17.863  65.510  1.00  0.00    -0.016 C  
ENDBRANCH  22  27
ENDBRANCH  18  21
ENDBRANCH  16  18
ENDBRANCH  11  16
BRANCH  14  31
HETATM   31  C   UNL     1     -11.732  13.744  69.866  1.00  0.00    -0.284 A  
HETATM   32  N   UNL     1     -12.375  12.928  70.736  1.00  0.00    -0.359 NA 
HETATM   33  N   UNL     1     -11.963  15.076  69.769  1.00  0.00    -0.312 NA 
HETATM   34  C   UNL     1     -12.881  15.590  70.605  1.00  0.00    -0.413 A  
HETATM   35  C   UNL     1     -13.289  13.498  71.538  1.00  0.00    -0.285 A  
HETATM   36  C   UNL     1     -13.585  14.839  71.517  1.00  0.00    -0.495 A  
ENDBRANCH  14  31
BRANCH  15  37
HETATM   37  O   UNL     1     -10.775  11.959  65.546  1.00  0.00    -0.267 OA 
BRANCH  37  38
HETATM   38  C   UNL     1     -10.910  12.970  64.539  1.00  0.00    -0.372 C  
BRANCH  38  39
HETATM   39  C   UNL     1     -12.359  13.436  64.442  1.00  0.00    -0.341 C  
HETATM   40  O   UNL     1     -12.429  14.761  63.926  1.00  0.00    -0.997 OA 
HETATM   41  H   UNL     1     -13.331  15.051  63.866  1.00  0.00     0.000 HD 
ENDBRANCH  38  39
ENDBRANCH  37  38
ENDBRANCH  15  37
ENDBRANCH   9  10
ENDBRANCH   8   9
ENDBRANCH   2   3
TORSDOF 11
ENDMDL
MODEL      118
REMARK 921   NORMALIZED FREE ENERGY PREDICTED BY IDOCK:   -4.44 KCAL/MOL
REMARK 922        TOTAL FREE ENERGY PREDICTED BY IDOCK:   -9.75 KCAL/MOL
REMARK 923 INTER-LIGAND FREE ENERGY PREDICTED BY IDOCK:   -8.04 KCAL/MOL
REMARK 924 INTRA-LIGAND FREE ENERGY PREDICTED BY IDOCK:   -1.71 KCAL/MOL
REMARK 927      BINDING AFFINITY PREDICTED BY RF-SCORE:    0.00 PKD
ROOT
HETATM    1  C   UNL     1     -11.121   9.225  71.197  1.00  0.00    -0.341 C  
HETATM    2  O   UNL     1     -10.704   8.042  70.516  1.00  0.00    -0.221 OA 
ENDROOT
BRANCH   2   3
HETATM    3  C   UNL     1     -10.639   6.884  71.252  1.00  0.00    -0.220 A  
HETATM    4  C   UNL     1     -11.654   6.493  72.143  1.00  0.00    -0.349 A  
HETATM    5  C   UNL     1     -11.528   5.340  72.923  1.00  0.00    -0.339 A  
HETATM    6  C   UNL     1     -10.396   4.544  72.812  1.00  0.00    -0.245 A  
HETATM    7  C   UNL     1      -9.390   4.906  71.924  1.00  0.00    -0.180 A  
HETATM    8  C   UNL     1      -9.496   6.066  71.139  1.00  0.00    -0.164 A  
BRANCH   8   9
HETATM    9  O   UNL     1      -8.359   6.269  70.383  1.00  0.00    -0.122 OA 
BRANCH   9  10
HETATM   10  C   UNL     1      -7.872   7.513  70.139  1.00  0.00    -0.098 A  
HETATM   11  C   UNL     1      -7.608   8.080  68.913  1.00  0.00    -0.099 A  
HETATM   12  N   UNL     1      -7.211   9.346  68.734  1.00  0.00    -0.072 NA 
HETATM   13  N   UNL     1      -7.166   9.604  71.101  1.00  0.00    -0.325 NA 
HETATM   14  C   UNL     1      -7.046  10.088  69.849  1.00  0.00    -0.130 A  
HETATM   15  C   UNL     1      -7.553   8.322  71.217  1.00  0.00    -0.083 A  
BRANCH  11  16
HETATM   16  N   UNL     1      -7.718   7.436  67.657  1.00  0.00    -0.109 N  
HETATM   17  H   UNL     1      -6.902   6.990  67.237  1.00  0.00     0.000 HD 
BRANCH  16  18
HETATM   18  S   UNL     1      -9.192   7.409  66.861  1.00  0.00    -0.159 S  
HETATM   19  O   UNL     1      -8.996   6.855  65.534  1.00  0.00    -0.031 OA 
HETATM   20  O   UNL     1     -10.131   6.794  67.778  1.00  0.00    -0.138 OA 
BRANCH  18  21
HETATM   21  C   UNL     1      -9.680   9.103  66.651  1.00  0.00    -0.223 A  
HETATM   22  C   UNL     1     -10.512  11.786  66.370  1.00  0.00    -0.271 A  
HETATM   23  C   UNL     1     -10.641   9.631  67.511  1.00  0.00    -0.339 A  
HETATM   24  C   UNL     1     -11.052  10.955  67.366  1.00  0.00    -0.373 A  
HETATM   25  C   UNL     1      -9.492  11.247  65.557  1.00  0.00    -0.255 A  
HETATM   26  C   UNL     1      -9.071   9.915  65.696  1.00  0.00    -0.220 A  
BRANCH  22  27
HETATM   27  C   UNL     1     -11.040  13.215  66.140  1.00  0.00    -0.301 C  
HETATM   28  C   UNL     1     -11.988  13.326  64.922  1.00  0.00    -0.417 C  
HETATM   29  C   UNL     1      -9.851  14.163  65.873  1.00  0.00    -0.312 C  
HETATM   30  C   UNL     1     -11.819  13.715  67.372  1.00  0.00    -0.429 C  
ENDBRANCH  22  27
ENDBRANCH  18  21
ENDBRANCH  16  18
ENDBRANCH  11  16
BRANCH  14  31
HETATM   31  C   UNL     1      -6.809  11.545  69.680  1.00  0.00    -0.038 A  
HETATM   32  N   UNL     1      -6.021  12.166  70.590  1.00  0.00    -0.285 NA 
HETATM   33  N   UNL     1      -7.457  12.189  68.678  1.00  0.00    -0.114 NA 
HETATM   34  C   UNL     1      -7.276  13.518  68.601  1.00  0.00    -0.107 A  
HETATM   35  C   UNL     1      -5.889  13.498  70.468  1.00  0.00    -0.164 A  
HETATM   36  C   UNL     1      -6.498  14.233  69.481  1.00  0.00    -0.132 A  
ENDBRANCH  14  31
BRANCH  15  37
HETATM   37  O   UNL     1      -7.613   7.768  72.482  1.00  0.00    -0.085 OA 
BRANCH  37  38
HETATM   38  C   UNL     1      -6.363   7.355  73.048  1.00  0.00    -0.059 C  
BRANCH  38  39
HETATM   39  C   UNL     1      -5.973   8.269  74.205  1.00  0.00    -0.113 C  
HETATM   40  O   UNL     1      -6.965   9.269  74.412  1.00  0.00    -0.378 OA 
HETATM   41  H   UNL     1      -6.723   9.839  75.133  1.00  0.00     0.000 HD 
ENDBRANCH  38  39
ENDBRANCH  37  38
ENDBRANCH  15  37
ENDBRANCH   9  10
ENDBRANCH   8   9
ENDBRANCH   2   3
TORSDOF 11
ENDMDL
MODEL      119
REMARK 921   NORMALIZED FREE ENERGY PREDICTED BY IDOCK:   -4.43 KCAL/MOL
REMARK 922        TOTAL FREE ENERGY PREDICTED BY IDOCK:   -9.75 KCAL/MOL
REMARK 923 INTER-LIGAND FREE ENERGY PREDICTED BY IDOCK:   -8.86 KCAL/MOL
REMARK 924 INTRA-LIGAND FREE ENERGY PREDICTED BY IDOCK:   -0.89 KCAL/MOL
REMARK 927      BINDING AFFINITY PREDICTED BY RF-SCORE:    0.00 PKD
ROOT
HETATM    1  C   UNL     1     -10.775  16.393  64.769  1.00  0.00    -0.076 C  
HETATM    2  O   UNL     1     -10.867  16.191  66.180  1.00  0.00    -0.255 OA 
ENDROOT
BRANCH   2   3
HETATM    3  C   UNL     1     -10.139  17.034  66.983  1.00  0.00    -0.295 A  
HETATM    4  C   UNL     1     -10.690  18.188  67.568  1.00  0.00    -0.365 A  
HETATM    5  C   UNL     1      -9.905  19.059  68.330  1.00  0.00    -0.454 A  
HETATM    6  C   UNL     1      -8.562  18.781  68.541  1.00  0.00    -0.378 A  
HETATM    7  C   UNL     1      -8.004  17.635  67.985  1.00  0.00    -0.241 A  
HETATM    8  C   UNL     1      -8.776  16.754  67.210  1.00  0.00    -0.199 A  
BRANCH   8   9
HETATM    9  O   UNL     1      -8.009  15.725  66.703  1.00  0.00    -0.242 OA 
BRANCH   9  10
HETATM   10  C   UNL     1      -7.950  14.510  67.305  1.00  0.00    -0.191 A  
HETATM   11  C   UNL     1      -8.903  13.516  67.273  1.00  0.00    -0.224 A  
HETATM   12  N   UNL     1      -8.748  12.301  67.816  1.00  0.00    -0.164 NA 
HETATM   13  N   UNL     1      -6.626  13.003  68.638  1.00  0.00    -0.085 NA 
HETATM   14  C   UNL     1      -7.579  12.069  68.449  1.00  0.00    -0.128 A  
HETATM   15  C   UNL     1      -6.844  14.208  68.082  1.00  0.00    -0.129 A  
BRANCH  11  16
HETATM   16  N   UNL     1     -10.178  13.604  66.666  1.00  0.00    -0.271 N  
HETATM   17  H   UNL     1     -10.653  14.504  66.601  1.00  0.00     0.000 HD 
BRANCH  16  18
HETATM   18  S   UNL     1     -10.906  12.225  66.056  1.00  0.00    -0.287 S  
HETATM   19  O   UNL     1     -12.299  12.520  65.768  1.00  0.00    -0.627 OA 
HETATM   20  O   UNL     1     -10.031  11.739  65.007  1.00  0.00    -0.248 OA 
BRANCH  18  21
HETATM   21  C   UNL     1     -10.889  11.026  67.365  1.00  0.00    -0.274 A  
HETATM   22  C   UNL     1     -10.882   9.177  69.498  1.00  0.00    -0.194 A  
HETATM   23  C   UNL     1     -11.342  11.410  68.626  1.00  0.00    -0.327 A  
HETATM   24  C   UNL     1     -11.333  10.495  69.677  1.00  0.00    -0.345 A  
HETATM   25  C   UNL     1     -10.493   8.794  68.196  1.00  0.00    -0.243 A  
HETATM   26  C   UNL     1     -10.499   9.709  67.132  1.00  0.00    -0.317 A  
BRANCH  22  27
HETATM   27  C   UNL     1     -10.771   8.195  70.680  1.00  0.00    -0.238 C  
HETATM   28  C   UNL     1      -9.980   8.771  71.879  1.00  0.00    -0.401 C  
HETATM   29  C   UNL     1     -10.029   6.922  70.222  1.00  0.00    -0.189 C  
HETATM   30  C   UNL     1     -12.169   7.806  71.201  1.00  0.00    -0.289 C  
ENDBRANCH  22  27
ENDBRANCH  18  21
ENDBRANCH  16  18
ENDBRANCH  11  16
BRANCH  14  31
HETATM   31  C   UNL     1      -7.290  10.677  68.879  1.00  0.00    -0.099 A  
HETATM   32  N   UNL     1      -7.209  10.431  70.209  1.00  0.00    -0.245 NA 
HETATM   33  N   UNL     1      -7.044   9.748  67.923  1.00  0.00    -0.082 NA 
HETATM   34  C   UNL     1      -6.714   8.518  68.351  1.00  0.00    -0.064 A  
HETATM   35  C   UNL     1      -6.864   9.185  70.574  1.00  0.00    -0.074 A  
HETATM   36  C   UNL     1      -6.605   8.177  69.678  1.00  0.00    -0.037 A  
ENDBRANCH  14  31
BRANCH  15  37
HETATM   37  O   UNL     1      -5.926  15.215  68.319  1.00  0.00    -0.105 OA 
BRANCH  37  38
HETATM   38  C   UNL     1      -5.138  15.081  69.509  1.00  0.00    -0.088 C  
BRANCH  38  39
HETATM   39  C   UNL     1      -6.000  15.299  70.748  1.00  0.00     0.067 C  
HETATM   40  O   UNL     1      -6.197  14.073  71.445  1.00  0.00    -0.453 OA 
HETATM   41  H   UNL     1      -6.735  14.208  72.217  1.00  0.00     0.000 HD 
ENDBRANCH  38  39
ENDBRANCH  37  38
ENDBRANCH  15  37
ENDBRANCH   9  10
ENDBRANCH   8   9
ENDBRANCH   2   3
TORSDOF 11
ENDMDL
MODEL      120
REMARK 921   NORMALIZED FREE ENERGY PREDICTED BY IDOCK:   -4.43 KCAL/MOL
REMARK 922        TOTAL FREE ENERGY PREDICTED BY IDOCK:   -9.74 KCAL/MOL
REMARK 923 INTER-LIGAND FREE ENERGY PREDICTED BY IDOCK:   -8.32 KCAL/MOL
REMARK 924 INTRA-LIGAND FREE ENERGY PREDICTED BY IDOCK:   -1.42 KCAL/MOL
REMARK 927      BINDING AFFINITY PREDICTED BY RF-SCORE:    0.00 PKD
ROOT
HETATM    1  C   UNL     1     -10.285   6.690  74.023  1.00  0.00    -0.369 C  
HETATM    2  O   UNL     1     -10.406   6.561  72.606  1.00  0.00    -0.183 OA 
ENDROOT
BRANCH   2   3
HETATM    3  C   UNL     1      -9.252   6.647  71.867  1.00  0.00    -0.147 A  
HETATM    4  C   UNL     1      -7.977   6.458  72.427  1.00  0.00    -0.102 A  
HETATM    5  C   UNL     1      -6.818   6.614  71.659  1.00  0.00    -0.066 A  
HETATM    6  C   UNL     1      -6.914   6.939  70.313  1.00  0.00    -0.066 A  
HETATM    7  C   UNL     1      -8.168   7.113  69.738  1.00  0.00    -0.131 A  
HETATM    8  C   UNL     1      -9.341   6.969  70.496  1.00  0.00    -0.159 A  
BRANCH   8   9
HETATM    9  O   UNL     1     -10.464   7.252  69.746  1.00  0.00    -0.215 OA 
BRANCH   9  10
HETATM   10  C   UNL     1     -10.622   8.440  69.109  1.00  0.00    -0.163 A  
HETATM   11  C   UNL     1     -10.291   8.738  67.806  1.00  0.00    -0.237 A  
HETATM   12  N   UNL     1     -10.553   9.907  67.207  1.00  0.00    -0.258 NA 
HETATM   13  N   UNL     1     -11.429  10.703  69.274  1.00  0.00    -0.270 NA 
HETATM   14  C   UNL     1     -11.163  10.846  67.960  1.00  0.00    -0.314 A  
HETATM   15  C   UNL     1     -11.131   9.512  69.823  1.00  0.00    -0.191 A  
BRANCH  11  16
HETATM   16  N   UNL     1      -9.639   7.874  66.893  1.00  0.00    -0.187 N  
HETATM   17  H   UNL     1     -10.035   6.957  66.684  1.00  0.00     0.000 HD 
BRANCH  16  18
HETATM   18  S   UNL     1      -8.216   8.361  66.158  1.00  0.00    -0.119 S  
HETATM   19  O   UNL     1      -7.191   7.366  66.421  1.00  0.00    -0.075 OA 
HETATM   20  O   UNL     1      -8.566   8.706  64.794  1.00  0.00    -0.172 OA 
BRANCH  18  21
HETATM   21  C   UNL     1      -7.713   9.854  66.977  1.00  0.00    -0.095 A  
HETATM   22  C   UNL     1      -6.945  12.270  68.218  1.00  0.00    -0.082 A  
HETATM   23  C   UNL     1      -8.127  11.075  66.447  1.00  0.00    -0.166 A  
HETATM   24  C   UNL     1      -7.742  12.266  67.061  1.00  0.00    -0.089 A  
HETATM   25  C   UNL     1      -6.596  11.019  68.772  1.00  0.00    -0.061 A  
HETATM   26  C   UNL     1      -6.980   9.816  68.161  1.00  0.00    -0.077 A  
BRANCH  22  27
HETATM   27  C   UNL     1      -6.430  13.584  68.837  1.00  0.00    -0.102 C  
HETATM   28  C   UNL     1      -7.516  14.683  68.924  1.00  0.00    -0.134 C  
HETATM   29  C   UNL     1      -5.288  14.148  67.965  1.00  0.00    -0.109 C  
HETATM   30  C   UNL     1      -5.906  13.346  70.267  1.00  0.00    -0.157 C  
ENDBRANCH  22  27
ENDBRANCH  18  21
ENDBRANCH  16  18
ENDBRANCH  11  16
BRANCH  14  31
HETATM   31  C   UNL     1     -11.653  12.070  67.275  1.00  0.00    -0.313 A  
HETATM   32  N   UNL     1     -11.944  11.982  65.955  1.00  0.00    -0.535 NA 
HETATM   33  N   UNL     1     -11.704  13.224  67.984  1.00  0.00    -0.340 NA 
HETATM   34  C   UNL     1     -12.081  14.326  67.313  1.00  0.00    -0.355 A  
HETATM   35  C   UNL     1     -12.303  13.119  65.337  1.00  0.00    -0.481 A  
HETATM   36  C   UNL     1     -12.392  14.332  65.974  1.00  0.00    -0.416 A  
ENDBRANCH  14  31
BRANCH  15  37
HETATM   37  O   UNL     1     -11.317   9.353  71.184  1.00  0.00    -0.291 OA 
BRANCH  37  38
HETATM   38  C   UNL     1     -12.590   9.766  71.697  1.00  0.00    -0.416 C  
BRANCH  38  39
HETATM   39  C   UNL     1     -13.365   8.565  72.229  1.00  0.00    -0.323 C  
HETATM   40  O   UNL     1     -12.976   7.375  71.552  1.00  0.00    -0.355 OA 
HETATM   41  H   UNL     1     -13.459   6.626  71.883  1.00  0.00     0.000 HD 
ENDBRANCH  38  39
ENDBRANCH  37  38
ENDBRANCH  15  37
ENDBRANCH   9  10
ENDBRANCH   8   9
ENDBRANCH   2   3
TORSDOF 11
ENDMDL
MODEL      121
REMARK 921   NORMALIZED FREE ENERGY PREDICTED BY IDOCK:   -4.42 KCAL/MOL
REMARK 922        TOTAL FREE ENERGY PREDICTED BY IDOCK:   -9.73 KCAL/MOL
REMARK 923 INTER-LIGAND FREE ENERGY PREDICTED BY IDOCK:   -7.92 KCAL/MOL
REMARK 924 INTRA-LIGAND FREE ENERGY PREDICTED BY IDOCK:   -1.81 KCAL/MOL
REMARK 927      BINDING AFFINITY PREDICTED BY RF-SCORE:    0.00 PKD
ROOT
HETATM    1  C   UNL     1      -9.205  16.694  66.908  1.00  0.00    -0.227 C  
HETATM    2  O   UNL     1     -10.534  16.179  66.843  1.00  0.00    -0.298 OA 
ENDROOT
BRANCH   2   3
HETATM    3  C   UNL     1     -11.037  15.594  67.979  1.00  0.00    -0.335 A  
HETATM    4  C   UNL     1     -11.830  16.294  68.905  1.00  0.00    -0.060 A  
HETATM    5  C   UNL     1     -12.274  15.686  70.083  1.00  0.00    -0.387 A  
HETATM    6  C   UNL     1     -11.954  14.361  70.346  1.00  0.00    -0.395 A  
HETATM    7  C   UNL     1     -11.186  13.649  69.434  1.00  0.00    -0.252 A  
HETATM    8  C   UNL     1     -10.724  14.246  68.250  1.00  0.00    -0.247 A  
BRANCH   8   9
HETATM    9  O   UNL     1      -9.927  13.382  67.526  1.00  0.00    -0.224 OA 
BRANCH   9  10
HETATM   10  C   UNL     1      -9.889  12.051  67.788  1.00  0.00    -0.190 A  
HETATM   11  C   UNL     1      -8.974  11.379  68.568  1.00  0.00    -0.158 A  
HETATM   12  N   UNL     1      -9.041  10.074  68.860  1.00  0.00    -0.150 NA 
HETATM   13  N   UNL     1     -10.961   9.920  67.460  1.00  0.00    -0.247 NA 
HETATM   14  C   UNL     1     -10.075   9.390  68.325  1.00  0.00    -0.183 A  
HETATM   15  C   UNL     1     -10.834  11.231  67.193  1.00  0.00    -0.270 A  
BRANCH  11  16
HETATM   16  N   UNL     1      -7.834  11.945  69.187  1.00  0.00    -0.343 N  
HETATM   17  H   UNL     1      -7.908  12.834  69.682  1.00  0.00     0.000 HD 
BRANCH  16  18
HETATM   18  S   UNL     1      -6.362  11.150  69.105  1.00  0.00    -0.073 S  
HETATM   19  O   UNL     1      -5.297  12.137  69.095  1.00  0.00    -0.058 OA 
HETATM   20  O   UNL     1      -6.400  10.127  70.133  1.00  0.00    -0.077 OA 
BRANCH  18  21
HETATM   21  C   UNL     1      -6.322  10.327  67.532  1.00  0.00    -0.058 A  
HETATM   22  C   UNL     1      -6.267   9.089  64.996  1.00  0.00    -0.065 A  
HETATM   23  C   UNL     1      -6.270  11.103  66.376  1.00  0.00    -0.127 A  
HETATM   24  C   UNL     1      -6.247  10.487  65.126  1.00  0.00    -0.079 A  
HETATM   25  C   UNL     1      -6.250   8.326  66.184  1.00  0.00    -0.049 A  
HETATM   26  C   UNL     1      -6.273   8.937  67.447  1.00  0.00    -0.055 A  
BRANCH  22  27
HETATM   27  C   UNL     1      -6.348   8.408  63.617  1.00  0.00    -0.073 C  
HETATM   28  C   UNL     1      -5.569   9.168  62.516  1.00  0.00    -0.085 C  
HETATM   29  C   UNL     1      -7.822   8.344  63.162  1.00  0.00    -0.147 C  
HETATM   30  C   UNL     1      -5.774   6.979  63.677  1.00  0.00    -0.036 C  
ENDBRANCH  22  27
ENDBRANCH  18  21
ENDBRANCH  16  18
ENDBRANCH  11  16
BRANCH  14  31
HETATM   31  C   UNL     1     -10.297   7.997  68.793  1.00  0.00    -0.206 A  
HETATM   32  N   UNL     1      -9.843   7.664  70.025  1.00  0.00    -0.180 NA 
HETATM   33  N   UNL     1     -10.868   7.116  67.934  1.00  0.00    -0.182 NA 
HETATM   34  C   UNL     1     -10.986   5.849  68.365  1.00  0.00    -0.178 A  
HETATM   35  C   UNL     1      -9.979   6.380  70.393  1.00  0.00    -0.183 A  
HETATM   36  C   UNL     1     -10.551   5.419  69.596  1.00  0.00    -0.328 A  
ENDBRANCH  14  31
BRANCH  15  37
HETATM   37  O   UNL     1     -11.676  11.794  66.252  1.00  0.00    -0.482 OA 
BRANCH  37  38
HETATM   38  C   UNL     1     -11.183  11.828  64.906  1.00  0.00    -0.266 C  
BRANCH  38  39
HETATM   39  C   UNL     1     -11.295  13.237  64.333  1.00  0.00    -0.383 C  
HETATM   40  O   UNL     1     -10.140  14.005  64.654  1.00  0.00    -0.582 OA 
HETATM   41  H   UNL     1     -10.209  14.883  64.298  1.00  0.00     0.000 HD 
ENDBRANCH  38  39
ENDBRANCH  37  38
ENDBRANCH  15  37
ENDBRANCH   9  10
ENDBRANCH   8   9
ENDBRANCH   2   3
TORSDOF 11
ENDMDL
MODEL      122
REMARK 921   NORMALIZED FREE ENERGY PREDICTED BY IDOCK:   -4.41 KCAL/MOL
REMARK 922        TOTAL FREE ENERGY PREDICTED BY IDOCK:   -9.71 KCAL/MOL
REMARK 923 INTER-LIGAND FREE ENERGY PREDICTED BY IDOCK:   -8.37 KCAL/MOL
REMARK 924 INTRA-LIGAND FREE ENERGY PREDICTED BY IDOCK:   -1.34 KCAL/MOL
REMARK 927      BINDING AFFINITY PREDICTED BY RF-SCORE:    0.00 PKD
ROOT
HETATM    1  C   UNL     1      -8.318   9.476  70.546  1.00  0.00    -0.163 C  
HETATM    2  O   UNL     1      -8.887   8.796  71.666  1.00  0.00    -0.206 OA 
ENDROOT
BRANCH   2   3
HETATM    3  C   UNL     1     -10.151   8.282  71.512  1.00  0.00    -0.208 A  
HETATM    4  C   UNL     1     -11.289   8.882  72.076  1.00  0.00    -0.427 A  
HETATM    5  C   UNL     1     -12.553   8.298  71.952  1.00  0.00    -0.379 A  
HETATM    6  C   UNL     1     -12.706   7.115  71.242  1.00  0.00    -0.412 A  
HETATM    7  C   UNL     1     -11.595   6.516  70.662  1.00  0.00    -0.442 A  
HETATM    8  C   UNL     1     -10.316   7.085  70.784  1.00  0.00    -0.206 A  
BRANCH   8   9
HETATM    9  O   UNL     1      -9.353   6.293  70.192  1.00  0.00    -0.155 OA 
BRANCH   9  10
HETATM   10  C   UNL     1      -9.540   5.726  68.973  1.00  0.00    -0.135 A  
HETATM   11  C   UNL     1      -9.774   6.370  67.779  1.00  0.00    -0.121 A  
HETATM   12  N   UNL     1      -9.863   5.757  66.592  1.00  0.00    -0.156 NA 
HETATM   13  N   UNL     1      -9.611   3.673  67.716  1.00  0.00    -0.174 NA 
HETATM   14  C   UNL     1      -9.730   4.414  66.597  1.00  0.00    -0.215 A  
HETATM   15  C   UNL     1      -9.543   4.343  68.879  1.00  0.00    -0.163 A  
BRANCH  11  16
HETATM   16  N   UNL     1      -9.950   7.764  67.607  1.00  0.00    -0.166 N  
HETATM   17  H   UNL     1     -10.754   8.235  68.021  1.00  0.00     0.000 HD 
BRANCH  16  18
HETATM   18  S   UNL     1      -8.832   8.640  66.718  1.00  0.00    -0.139 S  
HETATM   19  O   UNL     1      -7.631   8.809  67.516  1.00  0.00    -0.092 OA 
HETATM   20  O   UNL     1      -8.761   7.998  65.419  1.00  0.00    -0.147 OA 
BRANCH  18  21
HETATM   21  C   UNL     1      -9.531  10.254  66.481  1.00  0.00    -0.171 A  
HETATM   22  C   UNL     1     -10.649  12.828  66.182  1.00  0.00    -0.286 A  
HETATM   23  C   UNL     1      -9.759  11.052  67.600  1.00  0.00    -0.184 A  
HETATM   24  C   UNL     1     -10.315  12.321  67.449  1.00  0.00    -0.219 A  
HETATM   25  C   UNL     1     -10.345  12.027  65.060  1.00  0.00    -0.318 A  
HETATM   26  C   UNL     1      -9.786  10.749  65.203  1.00  0.00    -0.319 A  
BRANCH  22  27
HETATM   27  C   UNL     1     -11.360  14.186  66.020  1.00  0.00    -0.330 C  
HETATM   28  C   UNL     1     -12.732  14.074  65.312  1.00  0.00    -0.468 C  
HETATM   29  C   UNL     1     -10.486  15.123  65.160  1.00  0.00    -0.437 C  
HETATM   30  C   UNL     1     -11.607  14.842  67.393  1.00  0.00    -0.377 C  
ENDBRANCH  22  27
ENDBRANCH  18  21
ENDBRANCH  16  18
ENDBRANCH  11  16
BRANCH  14  31
HETATM   31  C   UNL     1      -9.615   3.726  65.285  1.00  0.00    -0.174 A  
HETATM   32  N   UNL     1      -8.611   2.830  65.128  1.00  0.00    -0.101 NA 
HETATM   33  N   UNL     1     -10.465   4.090  64.294  1.00  0.00    -0.219 NA 
HETATM   34  C   UNL     1     -10.284   3.499  63.100  1.00  0.00    -0.183 A  
HETATM   35  C   UNL     1      -8.474   2.283  63.909  1.00  0.00    -0.082 A  
HETATM   36  C   UNL     1      -9.292   2.582  62.847  1.00  0.00    -0.090 A  
ENDBRANCH  14  31
BRANCH  15  37
HETATM   37  O   UNL     1      -9.499   3.615  70.054  1.00  0.00    -0.168 OA 
BRANCH  37  38
HETATM   38  C   UNL     1      -8.725   2.409  70.019  1.00  0.00    -0.066 C  
BRANCH  38  39
HETATM   39  C   UNL     1      -7.239   2.732  69.905  1.00  0.00    -0.040 C  
HETATM   40  O   UNL     1      -6.767   2.478  68.586  1.00  0.00    -0.035 OA 
HETATM   41  H   UNL     1      -5.841   2.679  68.515  1.00  0.00     0.000 HD 
ENDBRANCH  38  39
ENDBRANCH  37  38
ENDBRANCH  15  37
ENDBRANCH   9  10
ENDBRANCH   8   9
ENDBRANCH   2   3
TORSDOF 11
ENDMDL
MODEL      123
REMARK 921   NORMALIZED FREE ENERGY PREDICTED BY IDOCK:   -4.41 KCAL/MOL
REMARK 922        TOTAL FREE ENERGY PREDICTED BY IDOCK:   -9.71 KCAL/MOL
REMARK 923 INTER-LIGAND FREE ENERGY PREDICTED BY IDOCK:   -7.85 KCAL/MOL
REMARK 924 INTRA-LIGAND FREE ENERGY PREDICTED BY IDOCK:   -1.85 KCAL/MOL
REMARK 927      BINDING AFFINITY PREDICTED BY RF-SCORE:    0.00 PKD
ROOT
HETATM    1  C   UNL     1      -7.014   7.086  72.310  1.00  0.00    -0.065 C  
HETATM    2  O   UNL     1      -7.809   6.139  71.595  1.00  0.00    -0.100 OA 
ENDROOT
BRANCH   2   3
HETATM    3  C   UNL     1      -8.965   5.708  72.198  1.00  0.00    -0.137 A  
HETATM    4  C   UNL     1      -8.968   4.973  73.396  1.00  0.00    -0.119 A  
HETATM    5  C   UNL     1     -10.160   4.496  73.950  1.00  0.00    -0.215 A  
HETATM    6  C   UNL     1     -11.372   4.763  73.329  1.00  0.00    -0.408 A  
HETATM    7  C   UNL     1     -11.390   5.503  72.153  1.00  0.00    -0.214 A  
HETATM    8  C   UNL     1     -10.202   5.983  71.578  1.00  0.00    -0.204 A  
BRANCH   8   9
HETATM    9  O   UNL     1     -10.445   6.630  70.383  1.00  0.00    -0.201 OA 
BRANCH   9  10
HETATM   10  C   UNL     1      -9.708   7.697  69.982  1.00  0.00    -0.172 A  
HETATM   11  C   UNL     1      -9.756   8.979  70.480  1.00  0.00    -0.216 A  
HETATM   12  N   UNL     1      -8.939   9.970  70.100  1.00  0.00    -0.105 NA 
HETATM   13  N   UNL     1      -7.969   8.483  68.513  1.00  0.00    -0.115 NA 
HETATM   14  C   UNL     1      -8.030   9.670  69.149  1.00  0.00    -0.099 A  
HETATM   15  C   UNL     1      -8.824   7.532  68.928  1.00  0.00    -0.135 A  
BRANCH  11  16
HETATM   16  N   UNL     1     -10.654   9.457  71.464  1.00  0.00    -0.327 N  
HETATM   17  H   UNL     1     -10.364   9.507  72.441  1.00  0.00     0.000 HD 
BRANCH  16  18
HETATM   18  S   UNL     1     -12.196   9.939  71.021  1.00  0.00    -0.373 S  
HETATM   19  O   UNL     1     -12.907   8.792  70.483  1.00  0.00     0.302 OA 
HETATM   20  O   UNL     1     -12.732  10.664  72.156  1.00  0.00    -0.296 OA 
BRANCH  18  21
HETATM   21  C   UNL     1     -11.997  11.098  69.690  1.00  0.00    -0.359 A  
HETATM   22  C   UNL     1     -11.700  12.998  67.625  1.00  0.00    -0.415 A  
HETATM   23  C   UNL     1     -12.081  12.459  69.975  1.00  0.00    -0.335 A  
HETATM   24  C   UNL     1     -11.938  13.394  68.952  1.00  0.00    -0.362 A  
HETATM   25  C   UNL     1     -11.552  11.617  67.376  1.00  0.00    -0.330 A  
HETATM   26  C   UNL     1     -11.694  10.669  68.400  1.00  0.00    -0.168 A  
BRANCH  22  27
HETATM   27  C   UNL     1     -11.647  14.023  66.475  1.00  0.00    -0.389 C  
HETATM   28  C   UNL     1     -10.378  13.892  65.600  1.00  0.00    -0.337 C  
HETATM   29  C   UNL     1     -11.644  15.451  67.062  1.00  0.00    -0.021 C  
HETATM   30  C   UNL     1     -12.863  13.862  65.542  1.00  0.00    -0.471 C  
ENDBRANCH  22  27
ENDBRANCH  18  21
ENDBRANCH  16  18
ENDBRANCH  11  16
BRANCH  14  31
HETATM   31  C   UNL     1      -6.979  10.677  68.855  1.00  0.00    -0.073 A  
HETATM   32  N   UNL     1      -7.080  11.889  69.453  1.00  0.00    -0.011 NA 
HETATM   33  N   UNL     1      -6.024  10.362  67.946  1.00  0.00    -0.044 NA 
HETATM   34  C   UNL     1      -5.133  11.324  67.651  1.00  0.00    -0.043 A  
HETATM   35  C   UNL     1      -6.168  12.813  69.108  1.00  0.00    -0.098 A  
HETATM   36  C   UNL     1      -5.160  12.582  68.205  1.00  0.00    -0.069 A  
ENDBRANCH  14  31
BRANCH  15  37
HETATM   37  O   UNL     1      -8.845   6.328  68.249  1.00  0.00    -0.116 OA 
BRANCH  37  38
HETATM   38  C   UNL     1      -9.047   6.407  66.832  1.00  0.00    -0.133 C  
BRANCH  38  39
HETATM   39  C   UNL     1     -10.458   5.957  66.469  1.00  0.00    -0.190 C  
HETATM   40  O   UNL     1     -11.410   6.502  67.378  1.00  0.00    -0.694 OA 
HETATM   41  H   UNL     1     -12.289   6.221  67.152  1.00  0.00     0.000 HD 
ENDBRANCH  38  39
ENDBRANCH  37  38
ENDBRANCH  15  37
ENDBRANCH   9  10
ENDBRANCH   8   9
ENDBRANCH   2   3
TORSDOF 11
ENDMDL
MODEL      124
REMARK 921   NORMALIZED FREE ENERGY PREDICTED BY IDOCK:   -4.41 KCAL/MOL
REMARK 922        TOTAL FREE ENERGY PREDICTED BY IDOCK:   -9.71 KCAL/MOL
REMARK 923 INTER-LIGAND FREE ENERGY PREDICTED BY IDOCK:   -7.65 KCAL/MOL
REMARK 924 INTRA-LIGAND FREE ENERGY PREDICTED BY IDOCK:   -2.05 KCAL/MOL
REMARK 927      BINDING AFFINITY PREDICTED BY RF-SCORE:    0.00 PKD
ROOT
HETATM    1  C   UNL     1      -8.592   7.981  73.869  1.00  0.00    -0.262 C  
HETATM    2  O   UNL     1      -9.337   7.437  72.779  1.00  0.00    -0.142 OA 
ENDROOT
BRANCH   2   3
HETATM    3  C   UNL     1     -10.259   8.258  72.178  1.00  0.00    -0.285 A  
HETATM    4  C   UNL     1     -11.567   8.416  72.666  1.00  0.00    -0.367 A  
HETATM    5  C   UNL     1     -12.501   9.212  71.995  1.00  0.00    -0.452 A  
HETATM    6  C   UNL     1     -12.137   9.882  70.835  1.00  0.00    -0.431 A  
HETATM    7  C   UNL     1     -10.843   9.751  70.346  1.00  0.00    -0.370 A  
HETATM    8  C   UNL     1      -9.895   8.950  71.003  1.00  0.00    -0.253 A  
BRANCH   8   9
HETATM    9  O   UNL     1      -8.702   8.910  70.311  1.00  0.00    -0.142 OA 
BRANCH   9  10
HETATM   10  C   UNL     1      -8.637   9.152  68.977  1.00  0.00    -0.133 A  
HETATM   11  C   UNL     1      -8.986   8.297  67.956  1.00  0.00    -0.138 A  
HETATM   12  N   UNL     1      -8.983   8.626  66.658  1.00  0.00    -0.138 NA 
HETATM   13  N   UNL     1      -8.118  10.761  67.263  1.00  0.00    -0.116 NA 
HETATM   14  C   UNL     1      -8.587   9.881  66.357  1.00  0.00    -0.128 A  
HETATM   15  C   UNL     1      -8.132  10.368  68.548  1.00  0.00    -0.116 A  
BRANCH  11  16
HETATM   16  N   UNL     1      -9.407   6.953  68.102  1.00  0.00    -0.125 N  
HETATM   17  H   UNL     1     -10.402   6.725  68.098  1.00  0.00     0.000 HD 
BRANCH  16  18
HETATM   18  S   UNL     1      -8.268   5.739  68.282  1.00  0.00    -0.108 S  
HETATM   19  O   UNL     1      -8.424   4.787  67.197  1.00  0.00    -0.106 OA 
HETATM   20  O   UNL     1      -6.998   6.408  68.490  1.00  0.00    -0.074 OA 
BRANCH  18  21
HETATM   21  C   UNL     1      -8.676   4.886  69.785  1.00  0.00    -0.086 A  
HETATM   22  C   UNL     1      -9.392   3.571  72.178  1.00  0.00    -0.178 A  
HETATM   23  C   UNL     1      -9.935   5.090  70.346  1.00  0.00    -0.317 A  
HETATM   24  C   UNL     1     -10.283   4.442  71.529  1.00  0.00    -0.167 A  
HETATM   25  C   UNL     1      -8.150   3.329  71.553  1.00  0.00    -0.060 A  
HETATM   26  C   UNL     1      -7.791   3.977  70.361  1.00  0.00    -0.051 A  
BRANCH  22  27
HETATM   27  C   UNL     1      -9.733   2.936  73.540  1.00  0.00    -0.144 C  
HETATM   28  C   UNL     1     -10.564   3.868  74.455  1.00  0.00    -0.209 C  
HETATM   29  C   UNL     1      -8.427   2.612  74.295  1.00  0.00    -0.068 C  
HETATM   30  C   UNL     1     -10.545   1.639  73.351  1.00  0.00    -0.202 C  
ENDBRANCH  22  27
ENDBRANCH  18  21
ENDBRANCH  16  18
ENDBRANCH  11  16
BRANCH  14  31
HETATM   31  C   UNL     1      -8.767  10.345  64.957  1.00  0.00    -0.182 A  
HETATM   32  N   UNL     1      -9.987  10.816  64.600  1.00  0.00    -0.298 NA 
HETATM   33  N   UNL     1      -7.732  10.199  64.094  1.00  0.00    -0.146 NA 
HETATM   34  C   UNL     1      -7.956  10.562  62.820  1.00  0.00    -0.138 A  
HETATM   35  C   UNL     1     -10.153  11.151  63.310  1.00  0.00    -0.380 A  
HETATM   36  C   UNL     1      -9.160  11.045  62.366  1.00  0.00    -0.328 A  
ENDBRANCH  14  31
BRANCH  15  37
HETATM   37  O   UNL     1      -7.587  11.213  69.498  1.00  0.00    -0.069 OA 
BRANCH  37  38
HETATM   38  C   UNL     1      -6.221  11.595  69.292  1.00  0.00    -0.086 C  
BRANCH  38  39
HETATM   39  C   UNL     1      -5.472  11.632  70.620  1.00  0.00    -0.149 C  
HETATM   40  O   UNL     1      -5.974  12.673  71.452  1.00  0.00    -0.508 OA 
HETATM   41  H   UNL     1      -5.508  12.696  72.280  1.00  0.00     0.000 HD 
ENDBRANCH  38  39
ENDBRANCH  37  38
ENDBRANCH  15  37
ENDBRANCH   9  10
ENDBRANCH   8   9
ENDBRANCH   2   3
TORSDOF 11
ENDMDL
MODEL      125
REMARK 921   NORMALIZED FREE ENERGY PREDICTED BY IDOCK:   -4.40 KCAL/MOL
REMARK 922        TOTAL FREE ENERGY PREDICTED BY IDOCK:   -9.69 KCAL/MOL
REMARK 923 INTER-LIGAND FREE ENERGY PREDICTED BY IDOCK:   -7.98 KCAL/MOL
REMARK 924 INTRA-LIGAND FREE ENERGY PREDICTED BY IDOCK:   -1.71 KCAL/MOL
REMARK 927      BINDING AFFINITY PREDICTED BY RF-SCORE:    0.00 PKD
ROOT
HETATM    1  C   UNL     1      -8.995   9.595  63.528  1.00  0.00    -0.217 C  
HETATM    2  O   UNL     1      -8.336   9.457  64.787  1.00  0.00    -0.135 OA 
ENDROOT
BRANCH   2   3
HETATM    3  C   UNL     1      -8.517   8.275  65.463  1.00  0.00    -0.161 A  
HETATM    4  C   UNL     1      -8.181   7.026  64.912  1.00  0.00    -0.076 A  
HETATM    5  C   UNL     1      -8.435   5.838  65.603  1.00  0.00    -0.149 A  
HETATM    6  C   UNL     1      -9.009   5.877  66.866  1.00  0.00    -0.115 A  
HETATM    7  C   UNL     1      -9.333   7.103  67.434  1.00  0.00    -0.144 A  
HETATM    8  C   UNL     1      -9.092   8.306  66.751  1.00  0.00    -0.156 A  
BRANCH   8   9
HETATM    9  O   UNL     1      -9.550   9.394  67.466  1.00  0.00    -0.136 OA 
BRANCH   9  10
HETATM   10  C   UNL     1      -8.839  10.547  67.553  1.00  0.00    -0.131 A  
HETATM   11  C   UNL     1      -9.052  11.714  66.854  1.00  0.00    -0.188 A  
HETATM   12  N   UNL     1      -8.369  12.849  67.050  1.00  0.00    -0.150 NA 
HETATM   13  N   UNL     1      -7.029  11.699  68.647  1.00  0.00    -0.081 NA 
HETATM   14  C   UNL     1      -7.398  12.813  67.986  1.00  0.00    -0.117 A  
HETATM   15  C   UNL     1      -7.742  10.586  68.399  1.00  0.00    -0.104 A  
BRANCH  11  16
HETATM   16  N   UNL     1     -10.016  11.910  65.837  1.00  0.00    -0.228 N  
HETATM   17  H   UNL     1      -9.855  11.540  64.900  1.00  0.00     0.000 HD 
BRANCH  16  18
HETATM   18  S   UNL     1     -11.423  12.754  66.176  1.00  0.00    -0.372 S  
HETATM   19  O   UNL     1     -12.247  12.788  64.980  1.00  0.00    -0.419 OA 
HETATM   20  O   UNL     1     -11.943  12.190  67.406  1.00  0.00    -0.563 OA 
BRANCH  18  21
HETATM   21  C   UNL     1     -10.935  14.427  66.518  1.00  0.00    -0.316 A  
HETATM   22  C   UNL     1     -10.140  17.094  66.986  1.00  0.00    -0.297 A  
HETATM   23  C   UNL     1     -10.572  15.246  65.451  1.00  0.00    -0.413 A  
HETATM   24  C   UNL     1     -10.176  16.561  65.687  1.00  0.00    -0.316 A  
HETATM   25  C   UNL     1     -10.578  16.265  68.041  1.00  0.00    -0.308 A  
HETATM   26  C   UNL     1     -10.978  14.940  67.813  1.00  0.00    -0.294 A  
BRANCH  22  27
HETATM   27  C   UNL     1      -9.602  18.512  67.261  1.00  0.00    -0.305 C  
HETATM   28  C   UNL     1      -8.164  18.518  67.832  1.00  0.00    -0.277 C  
HETATM   29  C   UNL     1     -10.503  19.208  68.304  1.00  0.00    -0.377 C  
HETATM   30  C   UNL     1      -9.584  19.350  65.968  1.00  0.00    -0.291 C  
ENDBRANCH  22  27
ENDBRANCH  18  21
ENDBRANCH  16  18
ENDBRANCH  11  16
BRANCH  14  31
HETATM   31  C   UNL     1      -6.764  14.100  68.373  1.00  0.00    -0.105 A  
HETATM   32  N   UNL     1      -5.763  14.572  67.591  1.00  0.00    -0.338 NA 
HETATM   33  N   UNL     1      -7.162  14.690  69.527  1.00  0.00    -0.154 NA 
HETATM   34  C   UNL     1      -6.516  15.813  69.883  1.00  0.00    -0.125 A  
HETATM   35  C   UNL     1      -5.147  15.691  68.005  1.00  0.00    -0.123 A  
HETATM   36  C   UNL     1      -5.488  16.363  69.154  1.00  0.00    -0.121 A  
ENDBRANCH  14  31
BRANCH  15  37
HETATM   37  O   UNL     1      -7.345   9.406  68.999  1.00  0.00    -0.070 OA 
BRANCH  37  38
HETATM   38  C   UNL     1      -6.058   8.906  68.616  1.00  0.00    -0.045 C  
BRANCH  38  39
HETATM   39  C   UNL     1      -5.252   8.507  69.848  1.00  0.00    -0.029 C  
HETATM   40  O   UNL     1      -6.063   7.781  70.766  1.00  0.00    -0.034 OA 
HETATM   41  H   UNL     1      -5.561   7.532  71.534  1.00  0.00     0.000 HD 
ENDBRANCH  38  39
ENDBRANCH  37  38
ENDBRANCH  15  37
ENDBRANCH   9  10
ENDBRANCH   8   9
ENDBRANCH   2   3
TORSDOF 11
ENDMDL
MODEL      126
REMARK 921   NORMALIZED FREE ENERGY PREDICTED BY IDOCK:   -4.38 KCAL/MOL
REMARK 922        TOTAL FREE ENERGY PREDICTED BY IDOCK:   -9.66 KCAL/MOL
REMARK 923 INTER-LIGAND FREE ENERGY PREDICTED BY IDOCK:   -7.65 KCAL/MOL
REMARK 924 INTRA-LIGAND FREE ENERGY PREDICTED BY IDOCK:   -2.01 KCAL/MOL
REMARK 927      BINDING AFFINITY PREDICTED BY RF-SCORE:    0.00 PKD
ROOT
HETATM    1  C   UNL     1     -12.416   9.011  72.320  1.00  0.00    -0.357 C  
HETATM    2  O   UNL     1     -12.629   9.200  70.921  1.00  0.00    -0.207 OA 
ENDROOT
BRANCH   2   3
HETATM    3  C   UNL     1     -12.061  10.309  70.344  1.00  0.00    -0.286 A  
HETATM    4  C   UNL     1     -12.463  11.618  70.659  1.00  0.00    -0.386 A  
HETATM    5  C   UNL     1     -11.907  12.723  70.007  1.00  0.00    -0.352 A  
HETATM    6  C   UNL     1     -10.924  12.541  69.045  1.00  0.00    -0.237 A  
HETATM    7  C   UNL     1     -10.501  11.255  68.733  1.00  0.00    -0.232 A  
HETATM    8  C   UNL     1     -11.055  10.133  69.371  1.00  0.00    -0.243 A  
BRANCH   8   9
HETATM    9  O   UNL     1     -10.541   8.958  68.862  1.00  0.00    -0.217 OA 
BRANCH   9  10
HETATM   10  C   UNL     1     -10.202   7.916  69.663  1.00  0.00    -0.207 A  
HETATM   11  C   UNL     1      -9.344   7.935  70.739  1.00  0.00    -0.157 A  
HETATM   12  N   UNL     1      -9.117   6.891  71.546  1.00  0.00    -0.144 NA 
HETATM   13  N   UNL     1     -10.545   5.584  70.158  1.00  0.00    -0.302 NA 
HETATM   14  C   UNL     1      -9.772   5.748  71.250  1.00  0.00    -0.171 A  
HETATM   15  C   UNL     1     -10.723   6.664  69.378  1.00  0.00    -0.259 A  
BRANCH  11  16
HETATM   16  N   UNL     1      -8.576   9.043  71.172  1.00  0.00    -0.206 N  
HETATM   17  H   UNL     1      -8.997   9.757  71.767  1.00  0.00     0.000 HD 
BRANCH  16  18
HETATM   18  S   UNL     1      -6.974   9.179  70.704  1.00  0.00    -0.102 S  
HETATM   19  O   UNL     1      -6.518  10.529  70.986  1.00  0.00    -0.346 OA 
HETATM   20  O   UNL     1      -6.288   8.041  71.283  1.00  0.00    -0.034 OA 
BRANCH  18  21
HETATM   21  C   UNL     1      -6.947   8.979  68.939  1.00  0.00    -0.065 A  
HETATM   22  C   UNL     1      -6.919   8.738  66.127  1.00  0.00    -0.081 A  
HETATM   23  C   UNL     1      -7.011  10.118  68.139  1.00  0.00    -0.075 A  
HETATM   24  C   UNL     1      -7.001   9.994  66.751  1.00  0.00    -0.089 A  
HETATM   25  C   UNL     1      -6.786   7.607  66.961  1.00  0.00    -0.068 A  
HETATM   26  C   UNL     1      -6.795   7.722  68.359  1.00  0.00    -0.067 A  
BRANCH  22  27
HETATM   27  C   UNL     1      -7.014   8.591  64.597  1.00  0.00    -0.073 C  
HETATM   28  C   UNL     1      -6.184   9.648  63.830  1.00  0.00    -0.108 C  
HETATM   29  C   UNL     1      -8.483   8.766  64.155  1.00  0.00    -0.123 C  
HETATM   30  C   UNL     1      -6.512   7.204  64.148  1.00  0.00    -0.043 C  
ENDBRANCH  22  27
ENDBRANCH  18  21
ENDBRANCH  16  18
ENDBRANCH  11  16
BRANCH  14  31
HETATM   31  C   UNL     1      -9.707   4.639  72.236  1.00  0.00    -0.161 A  
HETATM   32  N   UNL     1     -10.572   4.669  73.278  1.00  0.00    -0.197 NA 
HETATM   33  N   UNL     1      -8.736   3.704  72.087  1.00  0.00    -0.090 NA 
HETATM   34  C   UNL     1      -8.662   2.758  73.038  1.00  0.00    -0.079 A  
HETATM   35  C   UNL     1     -10.440   3.703  74.202  1.00  0.00    -0.202 A  
HETATM   36  C   UNL     1      -9.494   2.710  74.131  1.00  0.00    -0.108 A  
ENDBRANCH  14  31
BRANCH  15  37
HETATM   37  O   UNL     1     -11.447   6.516  68.209  1.00  0.00    -0.150 OA 
BRANCH  37  38
HETATM   38  C   UNL     1     -10.681   6.452  66.999  1.00  0.00    -0.363 C  
BRANCH  38  39
HETATM   39  C   UNL     1     -10.655   5.025  66.460  1.00  0.00    -0.231 C  
HETATM   40  O   UNL     1     -11.345   4.944  65.217  1.00  0.00    -0.835 OA 
HETATM   41  H   UNL     1     -11.329   4.055  64.881  1.00  0.00     0.000 HD 
ENDBRANCH  38  39
ENDBRANCH  37  38
ENDBRANCH  15  37
ENDBRANCH   9  10
ENDBRANCH   8   9
ENDBRANCH   2   3
TORSDOF 11
ENDMDL
MODEL      127
REMARK 921   NORMALIZED FREE ENERGY PREDICTED BY IDOCK:   -4.38 KCAL/MOL
REMARK 922        TOTAL FREE ENERGY PREDICTED BY IDOCK:   -9.66 KCAL/MOL
REMARK 923 INTER-LIGAND FREE ENERGY PREDICTED BY IDOCK:   -8.17 KCAL/MOL
REMARK 924 INTRA-LIGAND FREE ENERGY PREDICTED BY IDOCK:   -1.50 KCAL/MOL
REMARK 927      BINDING AFFINITY PREDICTED BY RF-SCORE:    0.00 PKD
ROOT
HETATM    1  C   UNL     1     -10.616   6.820  72.661  1.00  0.00    -0.223 C  
HETATM    2  O   UNL     1      -9.329   7.200  72.172  1.00  0.00    -0.134 OA 
ENDROOT
BRANCH   2   3
HETATM    3  C   UNL     1      -8.974   6.750  70.924  1.00  0.00    -0.150 A  
HETATM    4  C   UNL     1      -8.824   5.386  70.623  1.00  0.00    -0.145 A  
HETATM    5  C   UNL     1      -8.401   4.965  69.358  1.00  0.00    -0.085 A  
HETATM    6  C   UNL     1      -8.142   5.899  68.365  1.00  0.00    -0.109 A  
HETATM    7  C   UNL     1      -8.301   7.253  68.640  1.00  0.00    -0.125 A  
HETATM    8  C   UNL     1      -8.717   7.693  69.907  1.00  0.00    -0.139 A  
BRANCH   8   9
HETATM    9  O   UNL     1      -8.743   9.071  69.979  1.00  0.00    -0.133 OA 
BRANCH   9  10
HETATM   10  C   UNL     1      -9.281   9.831  68.991  1.00  0.00    -0.165 A  
HETATM   11  C   UNL     1      -8.610  10.630  68.093  1.00  0.00    -0.123 A  
HETATM   12  N   UNL     1      -9.193  11.289  67.083  1.00  0.00    -0.162 NA 
HETATM   13  N   UNL     1     -11.301  10.500  67.862  1.00  0.00    -0.395 NA 
HETATM   14  C   UNL     1     -10.532  11.161  66.974  1.00  0.00    -0.235 A  
HETATM   15  C   UNL     1     -10.660   9.870  68.862  1.00  0.00    -0.218 A  
BRANCH  11  16
HETATM   16  N   UNL     1      -7.217  10.878  68.078  1.00  0.00    -0.084 N  
HETATM   17  H   UNL     1      -6.602  10.314  67.492  1.00  0.00     0.000 HD 
BRANCH  16  18
HETATM   18  S   UNL     1      -6.580  12.101  69.029  1.00  0.00    -0.104 S  
HETATM   19  O   UNL     1      -6.942  11.854  70.413  1.00  0.00     0.386 OA 
HETATM   20  O   UNL     1      -5.185  12.220  68.649  1.00  0.00    -0.050 OA 
BRANCH  18  21
HETATM   21  C   UNL     1      -7.398  13.598  68.537  1.00  0.00    -0.114 A  
HETATM   22  C   UNL     1      -8.633  16.000  67.718  1.00  0.00    -0.168 A  
HETATM   23  C   UNL     1      -6.740  14.461  67.663  1.00  0.00    -0.188 A  
HETATM   24  C   UNL     1      -7.351  15.648  67.264  1.00  0.00    -0.255 A  
HETATM   25  C   UNL     1      -9.306  15.077  68.548  1.00  0.00    -0.196 A  
HETATM   26  C   UNL     1      -8.698  13.880  68.953  1.00  0.00     0.106 A  
BRANCH  22  27
HETATM   27  C   UNL     1      -9.268  17.359  67.364  1.00  0.00    -0.236 C  
HETATM   28  C   UNL     1      -8.223  18.472  67.111  1.00  0.00    -0.256 C  
HETATM   29  C   UNL     1     -10.153  17.832  68.537  1.00  0.00    -0.377 C  
HETATM   30  C   UNL     1     -10.131  17.245  66.092  1.00  0.00    -0.312 C  
ENDBRANCH  22  27
ENDBRANCH  18  21
ENDBRANCH  16  18
ENDBRANCH  11  16
BRANCH  14  31
HETATM   31  C   UNL     1     -11.181  11.705  65.754  1.00  0.00    -0.230 A  
HETATM   32  N   UNL     1     -12.253  12.517  65.917  1.00  0.00    -0.624 NA 
HETATM   33  N   UNL     1     -10.720  11.297  64.546  1.00  0.00    -0.336 NA 
HETATM   34  C   UNL     1     -11.378  11.752  63.466  1.00  0.00    -0.405 A  
HETATM   35  C   UNL     1     -12.877  12.929  64.801  1.00  0.00    -0.283 A  
HETATM   36  C   UNL     1     -12.477  12.576  63.535  1.00  0.00    -0.561 A  
ENDBRANCH  14  31
BRANCH  15  37
HETATM   37  O   UNL     1     -11.418   9.246  69.836  1.00  0.00    -0.133 OA 
BRANCH  37  38
HETATM   38  C   UNL     1     -11.619   9.984  71.047  1.00  0.00    -0.393 C  
BRANCH  38  39
HETATM   39  C   UNL     1     -12.804  10.934  70.903  1.00  0.00    -0.326 C  
HETATM   40  O   UNL     1     -13.555  10.990  72.111  1.00  0.00    -0.484 OA 
HETATM   41  H   UNL     1     -14.294  11.581  72.021  1.00  0.00     0.000 HD 
ENDBRANCH  38  39
ENDBRANCH  37  38
ENDBRANCH  15  37
ENDBRANCH   9  10
ENDBRANCH   8   9
ENDBRANCH   2   3
TORSDOF 11
ENDMDL
MODEL      128
REMARK 921   NORMALIZED FREE ENERGY PREDICTED BY IDOCK:   -4.38 KCAL/MOL
REMARK 922        TOTAL FREE ENERGY PREDICTED BY IDOCK:   -9.66 KCAL/MOL
REMARK 923 INTER-LIGAND FREE ENERGY PREDICTED BY IDOCK:   -9.11 KCAL/MOL
REMARK 924 INTRA-LIGAND FREE ENERGY PREDICTED BY IDOCK:   -0.54 KCAL/MOL
REMARK 927      BINDING AFFINITY PREDICTED BY RF-SCORE:    0.00 PKD
ROOT
HETATM    1  C   UNL     1     -12.072  15.750  71.180  1.00  0.00    -0.427 C  
HETATM    2  O   UNL     1     -11.709  14.653  70.342  1.00  0.00    -0.272 OA 
ENDROOT
BRANCH   2   3
HETATM    3  C   UNL     1     -10.669  14.848  69.468  1.00  0.00    -0.244 A  
HETATM    4  C   UNL     1      -9.927  16.041  69.424  1.00  0.00    -0.262 A  
HETATM    5  C   UNL     1      -8.914  16.230  68.479  1.00  0.00    -0.219 A  
HETATM    6  C   UNL     1      -8.607  15.222  67.576  1.00  0.00    -0.190 A  
HETATM    7  C   UNL     1      -9.318  14.029  67.616  1.00  0.00    -0.203 A  
HETATM    8  C   UNL     1     -10.345  13.825  68.552  1.00  0.00    -0.244 A  
BRANCH   8   9
HETATM    9  O   UNL     1     -10.959  12.603  68.369  1.00  0.00    -0.233 OA 
BRANCH   9  10
HETATM   10  C   UNL     1     -10.340  11.576  67.733  1.00  0.00    -0.182 A  
HETATM   11  C   UNL     1      -9.271  10.836  68.187  1.00  0.00    -0.151 A  
HETATM   12  N   UNL     1      -8.759   9.775  67.550  1.00  0.00    -0.125 NA 
HETATM   13  N   UNL     1     -10.309  10.162  65.783  1.00  0.00    -0.199 NA 
HETATM   14  C   UNL     1      -9.335   9.443  66.375  1.00  0.00    -0.187 A  
HETATM   15  C   UNL     1     -10.772  11.225  66.464  1.00  0.00    -0.271 A  
BRANCH  11  16
HETATM   16  N   UNL     1      -8.552  11.060  69.385  1.00  0.00    -0.379 N  
HETATM   17  H   UNL     1      -8.813  11.828  70.003  1.00  0.00     0.000 HD 
BRANCH  16  18
HETATM   18  S   UNL     1      -7.269  10.061  69.785  1.00  0.00    -0.144 S  
HETATM   19  O   UNL     1      -6.612   9.633  68.563  1.00  0.00    -0.052 OA 
HETATM   20  O   UNL     1      -6.519  10.761  70.810  1.00  0.00    -0.348 OA 
BRANCH  18  21
HETATM   21  C   UNL     1      -7.974   8.612  70.532  1.00  0.00    -0.106 A  
HETATM   22  C   UNL     1      -9.047   6.265  71.673  1.00  0.00    -0.145 A  
HETATM   23  C   UNL     1      -7.411   7.371  70.238  1.00  0.00    -0.083 A  
HETATM   24  C   UNL     1      -7.947   6.215  70.801  1.00  0.00    -0.115 A  
HETATM   25  C   UNL     1      -9.554   7.539  72.007  1.00  0.00    -0.189 A  
HETATM   26  C   UNL     1      -9.021   8.709  71.446  1.00  0.00    -0.286 A  
BRANCH  22  27
HETATM   27  C   UNL     1      -9.707   4.981  72.213  1.00  0.00    -0.201 C  
HETATM   28  C   UNL     1     -11.088   5.233  72.863  1.00  0.00    -0.365 C  
HETATM   29  C   UNL     1      -8.804   4.360  73.301  1.00  0.00    -0.106 C  
HETATM   30  C   UNL     1      -9.915   3.956  71.081  1.00  0.00    -0.169 C  
ENDBRANCH  22  27
ENDBRANCH  18  21
ENDBRANCH  16  18
ENDBRANCH  11  16
BRANCH  14  31
HETATM   31  C   UNL     1      -8.933   8.158  65.747  1.00  0.00    -0.119 A  
HETATM   32  N   UNL     1      -8.261   8.213  64.572  1.00  0.00    -0.144 NA 
HETATM   33  N   UNL     1      -9.329   7.003  66.337  1.00  0.00    -0.161 NA 
HETATM   34  C   UNL     1      -9.010   5.863  65.702  1.00  0.00    -0.087 A  
HETATM   35  C   UNL     1      -7.982   7.040  63.979  1.00  0.00    -0.075 A  
HETATM   36  C   UNL     1      -8.334   5.821  64.506  1.00  0.00    -0.091 A  
ENDBRANCH  14  31
BRANCH  15  37
HETATM   37  O   UNL     1     -11.716  12.032  65.857  1.00  0.00    -0.432 OA 
BRANCH  37  38
HETATM   38  C   UNL     1     -11.284  12.734  64.684  1.00  0.00    -0.319 C  
BRANCH  38  39
HETATM   39  C   UNL     1     -12.407  12.794  63.654  1.00  0.00    -0.463 C  
HETATM   40  O   UNL     1     -12.498  14.095  63.083  1.00  0.00    -1.126 OA 
HETATM   41  H   UNL     1     -13.197  14.132  62.441  1.00  0.00     0.000 HD 
ENDBRANCH  38  39
ENDBRANCH  37  38
ENDBRANCH  15  37
ENDBRANCH   9  10
ENDBRANCH   8   9
ENDBRANCH   2   3
TORSDOF 11
ENDMDL
MODEL      129
REMARK 921   NORMALIZED FREE ENERGY PREDICTED BY IDOCK:   -4.37 KCAL/MOL
REMARK 922        TOTAL FREE ENERGY PREDICTED BY IDOCK:   -9.64 KCAL/MOL
REMARK 923 INTER-LIGAND FREE ENERGY PREDICTED BY IDOCK:   -8.12 KCAL/MOL
REMARK 924 INTRA-LIGAND FREE ENERGY PREDICTED BY IDOCK:   -1.52 KCAL/MOL
REMARK 927      BINDING AFFINITY PREDICTED BY RF-SCORE:    0.00 PKD
ROOT
HETATM    1  C   UNL     1     -10.997  17.329  66.198  1.00  0.00     0.211 C  
HETATM    2  O   UNL     1      -9.917  16.405  66.059  1.00  0.00    -0.311 OA 
ENDROOT
BRANCH   2   3
HETATM    3  C   UNL     1      -8.789  16.641  66.805  1.00  0.00    -0.231 A  
HETATM    4  C   UNL     1      -7.541  16.929  66.225  1.00  0.00    -0.312 A  
HETATM    5  C   UNL     1      -6.399  17.104  67.012  1.00  0.00    -0.220 A  
HETATM    6  C   UNL     1      -6.487  17.017  68.395  1.00  0.00    -0.155 A  
HETATM    7  C   UNL     1      -7.715  16.750  68.987  1.00  0.00    -0.213 A  
HETATM    8  C   UNL     1      -8.871  16.564  68.212  1.00  0.00    -0.210 A  
BRANCH   8   9
HETATM    9  O   UNL     1      -9.960  16.245  68.997  1.00  0.00    -0.231 OA 
BRANCH   9  10
HETATM   10  C   UNL     1     -10.392  14.966  69.139  1.00  0.00    -0.245 A  
HETATM   11  C   UNL     1      -9.847  13.833  68.577  1.00  0.00    -0.204 A  
HETATM   12  N   UNL     1     -10.267  12.586  68.827  1.00  0.00    -0.145 NA 
HETATM   13  N   UNL     1     -11.991  13.504  70.191  1.00  0.00    -0.333 NA 
HETATM   14  C   UNL     1     -11.310  12.461  69.674  1.00  0.00    -0.123 A  
HETATM   15  C   UNL     1     -11.530  14.731  69.893  1.00  0.00    -0.281 A  
BRANCH  11  16
HETATM   16  N   UNL     1      -8.765  13.794  67.665  1.00  0.00    -0.173 N  
HETATM   17  H   UNL     1      -8.876  14.168  66.723  1.00  0.00     0.000 HD 
BRANCH  16  18
HETATM   18  S   UNL     1      -7.302  13.130  68.138  1.00  0.00    -0.135 S  
HETATM   19  O   UNL     1      -6.287  13.496  67.165  1.00  0.00    -0.228 OA 
HETATM   20  O   UNL     1      -7.134  13.482  69.535  1.00  0.00     0.030 OA 
BRANCH  18  21
HETATM   21  C   UNL     1      -7.497  11.368  68.049  1.00  0.00    -0.100 A  
HETATM   22  C   UNL     1      -7.782   8.560  67.982  1.00  0.00    -0.103 A  
HETATM   23  C   UNL     1      -7.329  10.620  69.213  1.00  0.00    -0.119 A  
HETATM   24  C   UNL     1      -7.467   9.234  69.175  1.00  0.00    -0.072 A  
HETATM   25  C   UNL     1      -8.014   9.348  66.834  1.00  0.00    -0.109 A  
HETATM   26  C   UNL     1      -7.878  10.744  66.863  1.00  0.00    -0.130 A  
BRANCH  22  27
HETATM   27  C   UNL     1      -7.831   7.022  67.914  1.00  0.00    -0.114 C  
HETATM   28  C   UNL     1      -7.476   6.462  66.516  1.00  0.00    -0.086 C  
HETATM   29  C   UNL     1      -9.260   6.540  68.242  1.00  0.00    -0.116 C  
HETATM   30  C   UNL     1      -6.843   6.398  68.920  1.00  0.00    -0.066 C  
ENDBRANCH  22  27
ENDBRANCH  18  21
ENDBRANCH  16  18
ENDBRANCH  11  16
BRANCH  14  31
HETATM   31  C   UNL     1     -11.668  11.094  70.133  1.00  0.00    -0.353 A  
HETATM   32  N   UNL     1     -12.775  10.956  70.902  1.00  0.00    -0.367 NA 
HETATM   33  N   UNL     1     -10.828  10.075  69.828  1.00  0.00    -0.254 NA 
HETATM   34  C   UNL     1     -11.145   8.866  70.322  1.00  0.00    -0.228 A  
HETATM   35  C   UNL     1     -13.033   9.726  71.376  1.00  0.00    -0.395 A  
HETATM   36  C   UNL     1     -12.245   8.631  71.113  1.00  0.00    -0.272 A  
ENDBRANCH  14  31
BRANCH  15  37
HETATM   37  O   UNL     1     -12.246  15.826  70.341  1.00  0.00    -0.392 OA 
BRANCH  37  38
HETATM   38  C   UNL     1     -13.331  15.546  71.234  1.00  0.00    -0.511 C  
BRANCH  38  39
HETATM   39  C   UNL     1     -12.846  15.552  72.680  1.00  0.00    -0.425 C  
HETATM   40  O   UNL     1     -12.749  14.224  73.184  1.00  0.00    -0.400 OA 
HETATM   41  H   UNL     1     -12.446  14.227  74.085  1.00  0.00     0.000 HD 
ENDBRANCH  38  39
ENDBRANCH  37  38
ENDBRANCH  15  37
ENDBRANCH   9  10
ENDBRANCH   8   9
ENDBRANCH   2   3
TORSDOF 11
ENDMDL
MODEL      130
REMARK 921   NORMALIZED FREE ENERGY PREDICTED BY IDOCK:   -4.36 KCAL/MOL
REMARK 922        TOTAL FREE ENERGY PREDICTED BY IDOCK:   -9.62 KCAL/MOL
REMARK 923 INTER-LIGAND FREE ENERGY PREDICTED BY IDOCK:   -8.42 KCAL/MOL
REMARK 924 INTRA-LIGAND FREE ENERGY PREDICTED BY IDOCK:   -1.21 KCAL/MOL
REMARK 927      BINDING AFFINITY PREDICTED BY RF-SCORE:    0.00 PKD
ROOT
HETATM    1  C   UNL     1     -12.546  14.197  65.800  1.00  0.00    -0.447 C  
HETATM    2  O   UNL     1     -12.587  12.783  65.603  1.00  0.00    -0.596 OA 
ENDROOT
BRANCH   2   3
HETATM    3  C   UNL     1     -11.563  12.220  64.883  1.00  0.00    -0.342 A  
HETATM    4  C   UNL     1     -11.681  11.898  63.520  1.00  0.00    -0.550 A  
HETATM    5  C   UNL     1     -10.639  11.268  62.831  1.00  0.00     0.026 A  
HETATM    6  C   UNL     1      -9.453  10.968  63.486  1.00  0.00    -0.315 A  
HETATM    7  C   UNL     1      -9.312  11.294  64.830  1.00  0.00    -0.181 A  
HETATM    8  C   UNL     1     -10.351  11.920  65.539  1.00  0.00    -0.264 A  
BRANCH   8   9
HETATM    9  O   UNL     1     -10.023  12.089  66.869  1.00  0.00    -0.200 OA 
BRANCH   9  10
HETATM   10  C   UNL     1     -10.342  11.164  67.810  1.00  0.00    -0.187 A  
HETATM   11  C   UNL     1     -10.048   9.819  67.791  1.00  0.00    -0.180 A  
HETATM   12  N   UNL     1     -10.313   8.972  68.794  1.00  0.00    -0.212 NA 
HETATM   13  N   UNL     1     -11.364  10.767  69.954  1.00  0.00    -0.288 NA 
HETATM   14  C   UNL     1     -10.929   9.494  69.875  1.00  0.00    -0.238 A  
HETATM   15  C   UNL     1     -11.081  11.566  68.911  1.00  0.00    -0.232 A  
BRANCH  11  16
HETATM   16  N   UNL     1      -9.420   9.119  66.733  1.00  0.00    -0.163 N  
HETATM   17  H   UNL     1      -9.912   8.974  65.852  1.00  0.00     0.000 HD 
BRANCH  16  18
HETATM   18  S   UNL     1      -7.865   8.528  66.934  1.00  0.00    -0.092 S  
HETATM   19  O   UNL     1      -7.474   7.822  65.727  1.00  0.00    -0.074 OA 
HETATM   20  O   UNL     1      -7.072   9.642  67.418  1.00  0.00    -0.084 OA 
BRANCH  18  21
HETATM   21  C   UNL     1      -7.949   7.325  68.237  1.00  0.00    -0.124 A  
HETATM   22  C   UNL     1      -8.133   5.371  70.265  1.00  0.00    -0.097 A  
HETATM   23  C   UNL     1      -8.666   6.151  68.014  1.00  0.00    -0.113 A  
HETATM   24  C   UNL     1      -8.758   5.191  69.020  1.00  0.00    -0.101 A  
HETATM   25  C   UNL     1      -7.357   6.537  70.440  1.00  0.00    -0.085 A  
HETATM   26  C   UNL     1      -7.259   7.509  69.434  1.00  0.00    -0.082 A  
BRANCH  22  27
HETATM   27  C   UNL     1      -8.320   4.361  71.414  1.00  0.00    -0.096 C  
HETATM   28  C   UNL     1      -7.948   4.940  72.801  1.00  0.00    -0.098 C  
HETATM   29  C   UNL     1      -7.406   3.140  71.177  1.00  0.00    -0.033 C  
HETATM   30  C   UNL     1      -9.786   3.890  71.495  1.00  0.00    -0.247 C  
ENDBRANCH  22  27
ENDBRANCH  18  21
ENDBRANCH  16  18
ENDBRANCH  11  16
BRANCH  14  31
HETATM   31  C   UNL     1     -11.051   8.636  71.082  1.00  0.00    -0.266 A  
HETATM   32  N   UNL     1     -10.096   8.749  72.036  1.00  0.00    -0.332 NA 
HETATM   33  N   UNL     1     -12.061   7.732  71.128  1.00  0.00    -0.304 NA 
HETATM   34  C   UNL     1     -12.096   6.924  72.201  1.00  0.00    -0.243 A  
HETATM   35  C   UNL     1     -10.178   7.905  73.078  1.00  0.00    -0.327 A  
HETATM   36  C   UNL     1     -11.169   6.964  73.215  1.00  0.00    -0.079 A  
ENDBRANCH  14  31
BRANCH  15  37
HETATM   37  O   UNL     1     -11.576  12.857  68.920  1.00  0.00    -0.273 OA 
BRANCH  37  38
HETATM   38  C   UNL     1     -10.642  13.887  69.267  1.00  0.00    -0.034 C  
BRANCH  38  39
HETATM   39  C   UNL     1     -11.369  15.085  69.869  1.00  0.00    -0.278 C  
HETATM   40  O   UNL     1     -12.759  15.034  69.566  1.00  0.00    -0.588 OA 
HETATM   41  H   UNL     1     -13.213  15.781  69.941  1.00  0.00     0.000 HD 
ENDBRANCH  38  39
ENDBRANCH  37  38
ENDBRANCH  15  37
ENDBRANCH   9  10
ENDBRANCH   8   9
ENDBRANCH   2   3
TORSDOF 11
ENDMDL
MODEL      131
REMARK 921   NORMALIZED FREE ENERGY PREDICTED BY IDOCK:   -4.35 KCAL/MOL
REMARK 922        TOTAL FREE ENERGY PREDICTED BY IDOCK:   -9.60 KCAL/MOL
REMARK 923 INTER-LIGAND FREE ENERGY PREDICTED BY IDOCK:   -7.59 KCAL/MOL
REMARK 924 INTRA-LIGAND FREE ENERGY PREDICTED BY IDOCK:   -2.01 KCAL/MOL
REMARK 927      BINDING AFFINITY PREDICTED BY RF-SCORE:    0.00 PKD
ROOT
HETATM    1  C   UNL     1      -6.989   5.857  71.570  1.00  0.00    -0.076 C  
HETATM    2  O   UNL     1      -7.979   4.847  71.379  1.00  0.00    -0.099 OA 
ENDROOT
BRANCH   2   3
HETATM    3  C   UNL     1      -8.981   4.766  72.314  1.00  0.00    -0.126 A  
HETATM    4  C   UNL     1      -8.748   4.382  73.646  1.00  0.00    -0.102 A  
HETATM    5  C   UNL     1      -9.801   4.250  74.557  1.00  0.00    -0.183 A  
HETATM    6  C   UNL     1     -11.103   4.520  74.160  1.00  0.00    -0.033 A  
HETATM    7  C   UNL     1     -11.351   4.917  72.851  1.00  0.00    -0.296 A  
HETATM    8  C   UNL     1     -10.307   5.047  71.921  1.00  0.00    -0.204 A  
BRANCH   8   9
HETATM    9  O   UNL     1     -10.784   5.384  70.671  1.00  0.00    -0.254 OA 
BRANCH   9  10
HETATM   10  C   UNL     1     -10.334   6.475  70.000  1.00  0.00    -0.198 A  
HETATM   11  C   UNL     1     -10.337   7.782  70.434  1.00  0.00    -0.212 A  
HETATM   12  N   UNL     1      -9.797   8.805  69.760  1.00  0.00    -0.183 NA 
HETATM   13  N   UNL     1      -9.275   7.291  67.997  1.00  0.00    -0.132 NA 
HETATM   14  C   UNL     1      -9.235   8.511  68.569  1.00  0.00    -0.135 A  
HETATM   15  C   UNL     1      -9.844   6.308  68.715  1.00  0.00    -0.137 A  
BRANCH  11  16
HETATM   16  N   UNL     1     -10.894   8.255  71.647  1.00  0.00    -0.242 N  
HETATM   17  H   UNL     1     -10.321   8.305  72.489  1.00  0.00     0.000 HD 
BRANCH  16  18
HETATM   18  S   UNL     1     -12.499   8.732  71.694  1.00  0.00    -0.358 S  
HETATM   19  O   UNL     1     -13.203   8.114  70.584  1.00  0.00     0.331 OA 
HETATM   20  O   UNL     1     -12.944   8.507  73.056  1.00  0.00    -0.194 OA 
BRANCH  18  21
HETATM   21  C   UNL     1     -12.512  10.484  71.408  1.00  0.00    -0.411 A  
HETATM   22  C   UNL     1     -12.587  13.277  71.010  1.00  0.00    -0.408 A  
HETATM   23  C   UNL     1     -13.253  11.293  72.267  1.00  0.00    -0.071 A  
HETATM   24  C   UNL     1     -13.291  12.672  72.064  1.00  0.00    -0.555 A  
HETATM   25  C   UNL     1     -11.790  12.443  70.197  1.00  0.00    -0.341 A  
HETATM   26  C   UNL     1     -11.746  11.054  70.394  1.00  0.00    -0.437 A  
BRANCH  22  27
HETATM   27  C   UNL     1     -12.711  14.785  70.720  1.00  0.00    -0.422 C  
HETATM   28  C   UNL     1     -14.135  15.338  70.965  1.00  0.00    -0.320 C  
HETATM   29  C   UNL     1     -12.375  15.051  69.236  1.00  0.00    -0.129 C  
HETATM   30  C   UNL     1     -11.747  15.595  71.610  1.00  0.00    -0.521 C  
ENDBRANCH  22  27
ENDBRANCH  18  21
ENDBRANCH  16  18
ENDBRANCH  11  16
BRANCH  14  31
HETATM   31  C   UNL     1      -8.448   9.576  67.894  1.00  0.00    -0.119 A  
HETATM   32  N   UNL     1      -7.337   9.205  67.214  1.00  0.00    -0.087 NA 
HETATM   33  N   UNL     1      -8.836  10.864  68.062  1.00  0.00    -0.131 NA 
HETATM   34  C   UNL     1      -8.059  11.804  67.499  1.00  0.00    -0.152 A  
HETATM   35  C   UNL     1      -6.595  10.191  66.684  1.00  0.00    -0.075 A  
HETATM   36  C   UNL     1      -6.912  11.522  66.794  1.00  0.00    -0.108 A  
ENDBRANCH  14  31
BRANCH  15  37
HETATM   37  O   UNL     1      -9.972   5.061  68.132  1.00  0.00    -0.153 OA 
BRANCH  37  38
HETATM   38  C   UNL     1      -8.749   4.379  67.826  1.00  0.00    -0.105 C  
BRANCH  38  39
HETATM   39  C   UNL     1      -8.612   4.179  66.321  1.00  0.00    -0.113 C  
HETATM   40  O   UNL     1      -7.931   5.279  65.727  1.00  0.00    -0.101 OA 
HETATM   41  H   UNL     1      -7.845   5.155  64.788  1.00  0.00     0.000 HD 
ENDBRANCH  38  39
ENDBRANCH  37  38
ENDBRANCH  15  37
ENDBRANCH   9  10
ENDBRANCH   8   9
ENDBRANCH   2   3
TORSDOF 11
ENDMDL
MODEL      132
REMARK 921   NORMALIZED FREE ENERGY PREDICTED BY IDOCK:   -4.34 KCAL/MOL
REMARK 922        TOTAL FREE ENERGY PREDICTED BY IDOCK:   -9.59 KCAL/MOL
REMARK 923 INTER-LIGAND FREE ENERGY PREDICTED BY IDOCK:   -8.16 KCAL/MOL
REMARK 924 INTRA-LIGAND FREE ENERGY PREDICTED BY IDOCK:   -1.43 KCAL/MOL
REMARK 927      BINDING AFFINITY PREDICTED BY RF-SCORE:    0.00 PKD
ROOT
HETATM    1  C   UNL     1     -11.627  10.041  71.111  1.00  0.00    -0.378 C  
HETATM    2  O   UNL     1     -11.181   9.035  70.202  1.00  0.00    -0.239 OA 
ENDROOT
BRANCH   2   3
HETATM    3  C   UNL     1     -11.006   7.769  70.705  1.00  0.00    -0.249 A  
HETATM    4  C   UNL     1     -11.816   7.237  71.723  1.00  0.00    -0.330 A  
HETATM    5  C   UNL     1     -11.571   5.967  72.255  1.00  0.00    -0.359 A  
HETATM    6  C   UNL     1     -10.527   5.197  71.764  1.00  0.00    -0.268 A  
HETATM    7  C   UNL     1      -9.726   5.699  70.745  1.00  0.00    -0.228 A  
HETATM    8  C   UNL     1      -9.952   6.975  70.205  1.00  0.00    -0.182 A  
BRANCH   8   9
HETATM    9  O   UNL     1      -9.002   7.298  69.258  1.00  0.00    -0.136 OA 
BRANCH   9  10
HETATM   10  C   UNL     1      -8.278   8.444  69.329  1.00  0.00    -0.116 A  
HETATM   11  C   UNL     1      -8.004   9.323  68.305  1.00  0.00    -0.102 A  
HETATM   12  N   UNL     1      -7.355  10.485  68.458  1.00  0.00    -0.084 NA 
HETATM   13  N   UNL     1      -7.049   9.944  70.757  1.00  0.00    -0.329 NA 
HETATM   14  C   UNL     1      -6.936  10.780  69.706  1.00  0.00    -0.141 A  
HETATM   15  C   UNL     1      -7.696   8.786  70.539  1.00  0.00    -0.089 A  
BRANCH  11  16
HETATM   16  N   UNL     1      -8.361   9.156  66.946  1.00  0.00    -0.119 N  
HETATM   17  H   UNL     1      -7.711   8.712  66.297  1.00  0.00     0.000 HD 
BRANCH  16  18
HETATM   18  S   UNL     1      -9.854   9.689  66.406  1.00  0.00    -0.260 S  
HETATM   19  O   UNL     1      -9.830   9.753  64.955  1.00  0.00    -0.306 OA 
HETATM   20  O   UNL     1     -10.841   8.872  67.085  1.00  0.00    -0.209 OA 
BRANCH  18  21
HETATM   21  C   UNL     1     -10.037  11.353  66.998  1.00  0.00    -0.208 A  
HETATM   22  C   UNL     1     -10.282  14.023  67.879  1.00  0.00    -0.240 A  
HETATM   23  C   UNL     1      -9.519  12.394  66.229  1.00  0.00    -0.220 A  
HETATM   24  C   UNL     1      -9.638  13.710  66.670  1.00  0.00    -0.289 A  
HETATM   25  C   UNL     1     -10.858  12.957  68.604  1.00  0.00    -0.288 A  
HETATM   26  C   UNL     1     -10.742  11.629  68.167  1.00  0.00    -0.248 A  
BRANCH  22  27
HETATM   27  C   UNL     1     -10.323  15.465  68.420  1.00  0.00    -0.229 C  
HETATM   28  C   UNL     1      -9.463  15.663  69.692  1.00  0.00    -0.243 C  
HETATM   29  C   UNL     1     -11.775  15.829  68.798  1.00  0.00    -0.387 C  
HETATM   30  C   UNL     1      -9.810  16.462  67.362  1.00  0.00    -0.244 C  
ENDBRANCH  22  27
ENDBRANCH  18  21
ENDBRANCH  16  18
ENDBRANCH  11  16
BRANCH  14  31
HETATM   31  C   UNL     1      -6.401  12.145  69.951  1.00  0.00    -0.074 A  
HETATM   32  N   UNL     1      -5.842  12.396  71.159  1.00  0.00    -0.302 NA 
HETATM   33  N   UNL     1      -6.574  13.084  68.988  1.00  0.00    -0.102 NA 
HETATM   34  C   UNL     1      -6.143  14.324  69.274  1.00  0.00    -0.099 A  
HETATM   35  C   UNL     1      -5.442  13.658  71.390  1.00  0.00    -0.216 A  
HETATM   36  C   UNL     1      -5.567  14.673  70.473  1.00  0.00    -0.145 A  
ENDBRANCH  14  31
BRANCH  15  37
HETATM   37  O   UNL     1      -7.766   7.869  71.572  1.00  0.00    -0.078 OA 
BRANCH  37  38
HETATM   38  C   UNL     1      -6.512   7.364  72.050  1.00  0.00    -0.043 C  
BRANCH  38  39
HETATM   39  C   UNL     1      -6.428   7.497  73.567  1.00  0.00    -0.066 C  
HETATM   40  O   UNL     1      -6.600   8.854  73.963  1.00  0.00    -0.312 OA 
HETATM   41  H   UNL     1      -6.547   8.937  74.909  1.00  0.00     0.000 HD 
ENDBRANCH  38  39
ENDBRANCH  37  38
ENDBRANCH  15  37
ENDBRANCH   9  10
ENDBRANCH   8   9
ENDBRANCH   2   3
TORSDOF 11
ENDMDL
MODEL      133
REMARK 921   NORMALIZED FREE ENERGY PREDICTED BY IDOCK:   -4.32 KCAL/MOL
REMARK 922        TOTAL FREE ENERGY PREDICTED BY IDOCK:   -9.56 KCAL/MOL
REMARK 923 INTER-LIGAND FREE ENERGY PREDICTED BY IDOCK:   -7.92 KCAL/MOL
REMARK 924 INTRA-LIGAND FREE ENERGY PREDICTED BY IDOCK:   -1.63 KCAL/MOL
REMARK 927      BINDING AFFINITY PREDICTED BY RF-SCORE:    0.00 PKD
ROOT
HETATM    1  C   UNL     1     -11.366  10.031  71.020  1.00  0.00    -0.357 C  
HETATM    2  O   UNL     1     -10.577   9.914  69.835  1.00  0.00    -0.233 OA 
ENDROOT
BRANCH   2   3
HETATM    3  C   UNL     1      -9.409   9.199  69.927  1.00  0.00    -0.186 A  
HETATM    4  C   UNL     1      -8.685   9.078  71.126  1.00  0.00    -0.266 A  
HETATM    5  C   UNL     1      -7.466   8.394  71.170  1.00  0.00    -0.084 A  
HETATM    6  C   UNL     1      -6.961   7.797  70.024  1.00  0.00    -0.050 A  
HETATM    7  C   UNL     1      -7.672   7.891  68.833  1.00  0.00    -0.105 A  
HETATM    8  C   UNL     1      -8.893   8.582  68.768  1.00  0.00    -0.139 A  
BRANCH   8   9
HETATM    9  O   UNL     1      -9.390   8.608  67.481  1.00  0.00    -0.135 OA 
BRANCH   9  10
HETATM   10  C   UNL     1      -9.239   7.560  66.632  1.00  0.00    -0.162 A  
HETATM   11  C   UNL     1      -8.359   7.461  65.577  1.00  0.00    -0.135 A  
HETATM   12  N   UNL     1      -8.195   6.362  64.828  1.00  0.00    -0.124 NA 
HETATM   13  N   UNL     1      -9.943   5.326  66.070  1.00  0.00    -0.150 NA 
HETATM   14  C   UNL     1      -8.972   5.303  65.136  1.00  0.00    -0.101 A  
HETATM   15  C   UNL     1     -10.069   6.461  66.780  1.00  0.00    -0.179 A  
BRANCH  11  16
HETATM   16  N   UNL     1      -7.488   8.479  65.121  1.00  0.00    -0.088 N  
HETATM   17  H   UNL     1      -6.630   8.687  65.631  1.00  0.00     0.000 HD 
BRANCH  16  18
HETATM   18  S   UNL     1      -7.872   9.343  63.738  1.00  0.00    -0.142 S  
HETATM   19  O   UNL     1      -6.658   9.933  63.204  1.00  0.00    -0.115 OA 
HETATM   20  O   UNL     1      -8.674   8.455  62.919  1.00  0.00    -0.044 OA 
BRANCH  18  21
HETATM   21  C   UNL     1      -8.917  10.683  64.257  1.00  0.00    -0.198 A  
HETATM   22  C   UNL     1     -10.604  12.817  65.007  1.00  0.00    -0.330 A  
HETATM   23  C   UNL     1      -9.852  11.185  63.355  1.00  0.00    -0.397 A  
HETATM   24  C   UNL     1     -10.681  12.241  63.728  1.00  0.00    -0.494 A  
HETATM   25  C   UNL     1      -9.696  12.245  65.923  1.00  0.00    -0.247 A  
HETATM   26  C   UNL     1      -8.858  11.181  65.557  1.00  0.00    -0.145 A  
BRANCH  22  27
HETATM   27  C   UNL     1     -11.444  14.052  65.387  1.00  0.00    -0.315 C  
HETATM   28  C   UNL     1     -10.584  15.300  65.700  1.00  0.00    -0.377 C  
HETATM   29  C   UNL     1     -12.266  13.742  66.656  1.00  0.00    -0.454 C  
HETATM   30  C   UNL     1     -12.403  14.434  64.242  1.00  0.00    -0.402 C  
ENDBRANCH  22  27
ENDBRANCH  18  21
ENDBRANCH  16  18
ENDBRANCH  11  16
BRANCH  14  31
HETATM   31  C   UNL     1      -8.675   4.010  64.467  1.00  0.00    -0.124 A  
HETATM   32  N   UNL     1      -7.690   3.993  63.537  1.00  0.00    -0.069 NA 
HETATM   33  N   UNL     1      -9.455   2.941  64.761  1.00  0.00    -0.153 NA 
HETATM   34  C   UNL     1      -9.203   1.809  64.083  1.00  0.00    -0.122 A  
HETATM   35  C   UNL     1      -7.494   2.835  62.884  1.00  0.00    -0.053 A  
HETATM   36  C   UNL     1      -8.228   1.698  63.121  1.00  0.00    -0.065 A  
ENDBRANCH  14  31
BRANCH  15  37
HETATM   37  O   UNL     1     -11.103   6.551  67.694  1.00  0.00    -0.325 OA 
BRANCH  37  38
HETATM   38  C   UNL     1     -10.949   5.786  68.896  1.00  0.00    -0.180 C  
BRANCH  38  39
HETATM   39  C   UNL     1     -11.650   6.477  70.062  1.00  0.00    -0.390 C  
HETATM   40  O   UNL     1     -11.169   5.977  71.305  1.00  0.00    -0.287 OA 
HETATM   41  H   UNL     1     -11.605   6.407  72.032  1.00  0.00     0.000 HD 
ENDBRANCH  38  39
ENDBRANCH  37  38
ENDBRANCH  15  37
ENDBRANCH   9  10
ENDBRANCH   8   9
ENDBRANCH   2   3
TORSDOF 11
ENDMDL
MODEL      134
REMARK 921   NORMALIZED FREE ENERGY PREDICTED BY IDOCK:   -4.30 KCAL/MOL
REMARK 922        TOTAL FREE ENERGY PREDICTED BY IDOCK:   -9.53 KCAL/MOL
REMARK 923 INTER-LIGAND FREE ENERGY PREDICTED BY IDOCK:  -10.98 KCAL/MOL
REMARK 924 INTRA-LIGAND FREE ENERGY PREDICTED BY IDOCK:    1.45 KCAL/MOL
REMARK 927      BINDING AFFINITY PREDICTED BY RF-SCORE:    0.00 PKD
ROOT
HETATM    1  C   UNL     1      -9.727  19.489  66.013  1.00  0.00    -0.309 C  
HETATM    2  O   UNL     1      -8.343  19.431  65.667  1.00  0.00    -0.373 OA 
ENDROOT
BRANCH   2   3
HETATM    3  C   UNL     1      -7.635  18.334  66.092  1.00  0.00    -0.241 A  
HETATM    4  C   UNL     1      -6.234  18.335  66.212  1.00  0.00    -0.234 A  
HETATM    5  C   UNL     1      -5.539  17.181  66.588  1.00  0.00    -0.210 A  
HETATM    6  C   UNL     1      -6.232  16.013  66.874  1.00  0.00     0.189 A  
HETATM    7  C   UNL     1      -7.619  15.999  66.777  1.00  0.00    -0.247 A  
HETATM    8  C   UNL     1      -8.332  17.146  66.393  1.00  0.00    -0.280 A  
BRANCH   8   9
HETATM    9  O   UNL     1      -9.685  16.890  66.297  1.00  0.00    -0.262 OA 
BRANCH   9  10
HETATM   10  C   UNL     1     -10.268  15.856  66.955  1.00  0.00    -0.277 A  
HETATM   11  C   UNL     1     -10.991  14.819  66.407  1.00  0.00    -0.331 A  
HETATM   12  N   UNL     1     -11.468  13.779  67.102  1.00  0.00    -0.324 NA 
HETATM   13  N   UNL     1     -10.632  14.796  69.087  1.00  0.00    -0.244 NA 
HETATM   14  C   UNL     1     -11.227  13.781  68.430  1.00  0.00    -0.272 A  
HETATM   15  C   UNL     1     -10.187  15.820  68.337  1.00  0.00    -0.223 A  
BRANCH  11  16
HETATM   16  N   UNL     1     -11.338  14.676  65.042  1.00  0.00    -0.372 N  
HETATM   17  H   UNL     1     -11.091  15.404  64.372  1.00  0.00     0.000 HD 
BRANCH  16  18
HETATM   18  S   UNL     1     -12.156  13.308  64.531  1.00  0.00    -0.419 S  
HETATM   19  O   UNL     1     -13.128  12.938  65.546  1.00  0.00    -0.439 OA 
HETATM   20  O   UNL     1     -12.587  13.580  63.174  1.00  0.00    -0.762 OA 
BRANCH  18  21
HETATM   21  C   UNL     1     -10.956  12.001  64.461  1.00  0.00    -0.318 A  
HETATM   22  C   UNL     1      -9.067   9.904  64.422  1.00  0.00    -0.299 A  
HETATM   23  C   UNL     1     -10.895  11.095  65.517  1.00  0.00    -0.205 A  
HETATM   24  C   UNL     1      -9.958  10.063  65.496  1.00  0.00    -0.367 A  
HETATM   25  C   UNL     1      -9.196  10.794  63.334  1.00  0.00    -0.283 A  
HETATM   26  C   UNL     1     -10.136  11.835  63.346  1.00  0.00    -0.470 A  
BRANCH  22  27
HETATM   27  C   UNL     1      -7.962   8.831  64.444  1.00  0.00    -0.144 C  
HETATM   28  C   UNL     1      -6.611   9.358  64.985  1.00  0.00    -0.084 C  
HETATM   29  C   UNL     1      -7.706   8.329  63.006  1.00  0.00    -0.134 C  
HETATM   30  C   UNL     1      -8.374   7.639  65.330  1.00  0.00    -0.134 C  
ENDBRANCH  22  27
ENDBRANCH  18  21
ENDBRANCH  16  18
ENDBRANCH  11  16
BRANCH  14  31
HETATM   31  C   UNL     1     -11.558  12.551  69.195  1.00  0.00    -0.320 A  
HETATM   32  N   UNL     1     -12.377  12.674  70.267  1.00  0.00    -0.246 NA 
HETATM   33  N   UNL     1     -10.961  11.389  68.830  1.00  0.00    -0.212 NA 
HETATM   34  C   UNL     1     -11.227  10.313  69.589  1.00  0.00    -0.269 A  
HETATM   35  C   UNL     1     -12.595  11.565  70.993  1.00  0.00    -0.357 A  
HETATM   36  C   UNL     1     -12.042  10.344  70.696  1.00  0.00    -0.443 A  
ENDBRANCH  14  31
BRANCH  15  37
HETATM   37  O   UNL     1      -9.640  16.915  68.981  1.00  0.00    -0.260 OA 
BRANCH  37  38
HETATM   38  C   UNL     1     -10.513  18.035  69.171  1.00  0.00     0.069 C  
BRANCH  38  39
HETATM   39  C   UNL     1      -9.725  19.340  69.122  1.00  0.00    -0.321 C  
HETATM   40  O   UNL     1     -10.353  20.337  69.921  1.00  0.00    -0.553 OA 
HETATM   41  H   UNL     1      -9.862  21.151  69.891  1.00  0.00     0.000 HD 
ENDBRANCH  38  39
ENDBRANCH  37  38
ENDBRANCH  15  37
ENDBRANCH   9  10
ENDBRANCH   8   9
ENDBRANCH   2   3
TORSDOF 11
ENDMDL
MODEL      135
REMARK 921   NORMALIZED FREE ENERGY PREDICTED BY IDOCK:   -4.29 KCAL/MOL
REMARK 922        TOTAL FREE ENERGY PREDICTED BY IDOCK:   -9.51 KCAL/MOL
REMARK 923 INTER-LIGAND FREE ENERGY PREDICTED BY IDOCK:   -8.44 KCAL/MOL
REMARK 924 INTRA-LIGAND FREE ENERGY PREDICTED BY IDOCK:   -1.07 KCAL/MOL
REMARK 927      BINDING AFFINITY PREDICTED BY RF-SCORE:    0.00 PKD
ROOT
HETATM    1  C   UNL     1      -8.008   8.144  74.482  1.00  0.00    -0.239 C  
HETATM    2  O   UNL     1      -7.797   6.847  73.923  1.00  0.00    -0.103 OA 
ENDROOT
BRANCH   2   3
HETATM    3  C   UNL     1      -8.913   6.112  73.604  1.00  0.00    -0.127 A  
HETATM    4  C   UNL     1      -9.645   5.390  74.562  1.00  0.00    -0.173 A  
HETATM    5  C   UNL     1     -10.740   4.602  74.193  1.00  0.00    -0.329 A  
HETATM    6  C   UNL     1     -11.137   4.540  72.865  1.00  0.00    -0.239 A  
HETATM    7  C   UNL     1     -10.435   5.262  71.906  1.00  0.00    -0.282 A  
HETATM    8  C   UNL     1      -9.328   6.051  72.258  1.00  0.00    -0.143 A  
BRANCH   8   9
HETATM    9  O   UNL     1      -8.744   6.623  71.146  1.00  0.00    -0.136 OA 
BRANCH   9  10
HETATM   10  C   UNL     1      -9.015   6.190  69.889  1.00  0.00    -0.139 A  
HETATM   11  C   UNL     1      -9.982   6.667  69.032  1.00  0.00    -0.153 A  
HETATM   12  N   UNL     1     -10.143   6.255  67.768  1.00  0.00    -0.136 NA 
HETATM   13  N   UNL     1      -8.395   4.676  68.121  1.00  0.00    -0.094 NA 
HETATM   14  C   UNL     1      -9.301   5.293  67.336  1.00  0.00    -0.116 A  
HETATM   15  C   UNL     1      -8.290   5.123  69.385  1.00  0.00    -0.090 A  
BRANCH  11  16
HETATM   16  N   UNL     1     -10.945   7.660  69.333  1.00  0.00    -0.424 N  
HETATM   17  H   UNL     1     -11.933   7.415  69.386  1.00  0.00     0.000 HD 
BRANCH  16  18
HETATM   18  S   UNL     1     -10.455   9.239  69.602  1.00  0.00    -0.232 S  
HETATM   19  O   UNL     1     -11.376   9.860  70.538  1.00  0.00    -0.278 OA 
HETATM   20  O   UNL     1      -9.038   9.174  69.906  1.00  0.00    -0.155 OA 
BRANCH  18  21
HETATM   21  C   UNL     1     -10.632  10.091  68.055  1.00  0.00    -0.235 A  
HETATM   22  C   UNL     1     -10.863  11.396  65.563  1.00  0.00    -0.282 A  
HETATM   23  C   UNL     1     -10.016   9.556  66.925  1.00  0.00    -0.278 A  
HETATM   24  C   UNL     1     -10.129  10.205  65.698  1.00  0.00    -0.324 A  
HETATM   25  C   UNL     1     -11.533  11.879  66.707  1.00  0.00    -0.384 A  
HETATM   26  C   UNL     1     -11.425  11.232  67.947  1.00  0.00    -0.360 A  
BRANCH  22  27
HETATM   27  C   UNL     1     -10.902  12.172  64.232  1.00  0.00    -0.388 C  
HETATM   28  C   UNL     1     -10.687  13.694  64.408  1.00  0.00    -0.369 C  
HETATM   29  C   UNL     1     -12.284  11.985  63.571  1.00  0.00    -0.653 C  
HETATM   30  C   UNL     1      -9.808  11.665  63.271  1.00  0.00    -0.428 C  
ENDBRANCH  22  27
ENDBRANCH  18  21
ENDBRANCH  16  18
ENDBRANCH  11  16
BRANCH  14  31
HETATM   31  C   UNL     1      -9.314   4.962  65.888  1.00  0.00    -0.159 A  
HETATM   32  N   UNL     1     -10.391   4.300  65.401  1.00  0.00    -0.232 NA 
HETATM   33  N   UNL     1      -8.217   5.265  65.151  1.00  0.00    -0.128 NA 
HETATM   34  C   UNL     1      -8.235   4.885  63.862  1.00  0.00    -0.122 A  
HETATM   35  C   UNL     1     -10.345   3.936  64.109  1.00  0.00    -0.227 A  
HETATM   36  C   UNL     1      -9.282   4.207  63.283  1.00  0.00    -0.133 A  
ENDBRANCH  14  31
BRANCH  15  37
HETATM   37  O   UNL     1      -7.427   4.465  70.243  1.00  0.00    -0.048 OA 
BRANCH  37  38
HETATM   38  C   UNL     1      -7.575   3.041  70.314  1.00  0.00    -0.043 C  
BRANCH  38  39
HETATM   39  C   UNL     1      -6.319   2.348  69.795  1.00  0.00    -0.028 C  
HETATM   40  O   UNL     1      -6.461   2.012  68.419  1.00  0.00    -0.028 OA 
HETATM   41  H   UNL     1      -5.679   1.581  68.095  1.00  0.00     0.000 HD 
ENDBRANCH  38  39
ENDBRANCH  37  38
ENDBRANCH  15  37
ENDBRANCH   9  10
ENDBRANCH   8   9
ENDBRANCH   2   3
TORSDOF 11
ENDMDL
MODEL      136
REMARK 921   NORMALIZED FREE ENERGY PREDICTED BY IDOCK:   -4.25 KCAL/MOL
REMARK 922        TOTAL FREE ENERGY PREDICTED BY IDOCK:   -9.45 KCAL/MOL
REMARK 923 INTER-LIGAND FREE ENERGY PREDICTED BY IDOCK:   -7.58 KCAL/MOL
REMARK 924 INTRA-LIGAND FREE ENERGY PREDICTED BY IDOCK:   -1.87 KCAL/MOL
REMARK 927      BINDING AFFINITY PREDICTED BY RF-SCORE:    0.00 PKD
ROOT
HETATM    1  C   UNL     1     -11.554   9.808  71.012  1.00  0.00    -0.376 C  
HETATM    2  O   UNL     1     -10.430   9.561  70.167  1.00  0.00    -0.217 OA 
ENDROOT
BRANCH   2   3
HETATM    3  C   UNL     1     -10.318   8.306  69.623  1.00  0.00    -0.218 A  
HETATM    4  C   UNL     1     -11.091   7.217  70.060  1.00  0.00    -0.288 A  
HETATM    5  C   UNL     1     -10.908   5.937  69.526  1.00  0.00    -0.442 A  
HETATM    6  C   UNL     1      -9.964   5.727  68.531  1.00  0.00    -0.197 A  
HETATM    7  C   UNL     1      -9.202   6.796  68.074  1.00  0.00    -0.117 A  
HETATM    8  C   UNL     1      -9.367   8.085  68.604  1.00  0.00    -0.146 A  
BRANCH   8   9
HETATM    9  O   UNL     1      -8.466   8.975  68.057  1.00  0.00    -0.123 OA 
BRANCH   9  10
HETATM   10  C   UNL     1      -8.865  10.019  67.285  1.00  0.00    -0.135 A  
HETATM   11  C   UNL     1      -9.330   9.969  65.990  1.00  0.00    -0.174 A  
HETATM   12  N   UNL     1      -9.793  11.026  65.311  1.00  0.00    -0.242 NA 
HETATM   13  N   UNL     1      -9.234  12.396  67.177  1.00  0.00    -0.193 NA 
HETATM   14  C   UNL     1      -9.771  12.212  65.955  1.00  0.00    -0.239 A  
HETATM   15  C   UNL     1      -8.772  11.300  67.804  1.00  0.00    -0.134 A  
BRANCH  11  16
HETATM   16  N   UNL     1      -9.406   8.813  65.176  1.00  0.00    -0.430 N  
HETATM   17  H   UNL     1     -10.219   8.199  65.233  1.00  0.00     0.000 HD 
BRANCH  16  18
HETATM   18  S   UNL     1      -8.156   8.456  64.121  1.00  0.00    -0.118 S  
HETATM   19  O   UNL     1      -8.509   8.939  62.798  1.00  0.00    -0.198 OA 
HETATM   20  O   UNL     1      -6.941   8.917  64.766  1.00  0.00    -0.076 OA 
BRANCH  18  21
HETATM   21  C   UNL     1      -8.071   6.685  64.023  1.00  0.00    -0.020 A  
HETATM   22  C   UNL     1      -7.911   3.876  63.792  1.00  0.00    -0.088 A  
HETATM   23  C   UNL     1      -7.508   6.107  62.886  1.00  0.00    -0.066 A  
HETATM   24  C   UNL     1      -7.435   4.720  62.775  1.00  0.00    -0.052 A  
HETATM   25  C   UNL     1      -8.414   4.488  64.961  1.00  0.00    -0.128 A  
HETATM   26  C   UNL     1      -8.491   5.883  65.082  1.00  0.00    -0.130 A  
BRANCH  22  27
HETATM   27  C   UNL     1      -7.929   2.345  63.626  1.00  0.00    -0.073 C  
HETATM   28  C   UNL     1      -7.884   1.586  64.974  1.00  0.00    -0.068 C  
HETATM   29  C   UNL     1      -6.689   1.902  62.820  1.00  0.00    -0.021 C  
HETATM   30  C   UNL     1      -9.202   1.889  62.887  1.00  0.00    -0.090 C  
ENDBRANCH  22  27
ENDBRANCH  18  21
ENDBRANCH  16  18
ENDBRANCH  11  16
BRANCH  14  31
HETATM   31  C   UNL     1     -10.463  13.360  65.314  1.00  0.00    -0.324 A  
HETATM   32  N   UNL     1      -9.997  14.604  65.575  1.00  0.00    -0.361 NA 
HETATM   33  N   UNL     1     -11.568  13.108  64.570  1.00  0.00    -0.346 NA 
HETATM   34  C   UNL     1     -12.210  14.176  64.067  1.00  0.00    -0.332 A  
HETATM   35  C   UNL     1     -10.688  15.632  65.054  1.00  0.00    -0.436 A  
HETATM   36  C   UNL     1     -11.813  15.474  64.282  1.00  0.00    -0.179 A  
ENDBRANCH  14  31
BRANCH  15  37
HETATM   37  O   UNL     1      -8.144  11.459  69.026  1.00  0.00    -0.106 OA 
BRANCH  37  38
HETATM   38  C   UNL     1      -6.718  11.598  68.987  1.00  0.00    -0.100 C  
BRANCH  38  39
HETATM   39  C   UNL     1      -6.310  13.012  69.387  1.00  0.00    -0.111 C  
HETATM   40  O   UNL     1      -6.407  13.185  70.796  1.00  0.00    -0.486 OA 
HETATM   41  H   UNL     1      -6.153  14.066  71.046  1.00  0.00     0.000 HD 
ENDBRANCH  38  39
ENDBRANCH  37  38
ENDBRANCH  15  37
ENDBRANCH   9  10
ENDBRANCH   8   9
ENDBRANCH   2   3
TORSDOF 11
ENDMDL
MODEL      137
REMARK 921   NORMALIZED FREE ENERGY PREDICTED BY IDOCK:   -4.25 KCAL/MOL
REMARK 922        TOTAL FREE ENERGY PREDICTED BY IDOCK:   -9.44 KCAL/MOL
REMARK 923 INTER-LIGAND FREE ENERGY PREDICTED BY IDOCK:   -7.75 KCAL/MOL
REMARK 924 INTRA-LIGAND FREE ENERGY PREDICTED BY IDOCK:   -1.70 KCAL/MOL
REMARK 927      BINDING AFFINITY PREDICTED BY RF-SCORE:    0.00 PKD
ROOT
HETATM    1  C   UNL     1     -12.440   9.258  71.906  1.00  0.00    -0.382 C  
HETATM    2  O   UNL     1     -11.070   8.857  71.860  1.00  0.00    -0.336 OA 
ENDROOT
BRANCH   2   3
HETATM    3  C   UNL     1     -10.808   7.511  71.924  1.00  0.00    -0.227 A  
HETATM    4  C   UNL     1     -11.526   6.636  72.757  1.00  0.00    -0.167 A  
HETATM    5  C   UNL     1     -11.192   5.281  72.845  1.00  0.00    -0.375 A  
HETATM    6  C   UNL     1     -10.149   4.771  72.085  1.00  0.00    -0.252 A  
HETATM    7  C   UNL     1      -9.438   5.617  71.243  1.00  0.00    -0.179 A  
HETATM    8  C   UNL     1      -9.755   6.982  71.148  1.00  0.00    -0.172 A  
BRANCH   8   9
HETATM    9  O   UNL     1      -8.883   7.645  70.309  1.00  0.00    -0.143 OA 
BRANCH   9  10
HETATM   10  C   UNL     1      -9.296   8.645  69.488  1.00  0.00    -0.153 A  
HETATM   11  C   UNL     1     -10.226   8.563  68.476  1.00  0.00    -0.198 A  
HETATM   12  N   UNL     1     -10.657   9.607  67.758  1.00  0.00    -0.254 NA 
HETATM   13  N   UNL     1      -9.115  10.983  68.941  1.00  0.00    -0.158 NA 
HETATM   14  C   UNL     1     -10.112  10.806  68.052  1.00  0.00    -0.176 A  
HETATM   15  C   UNL     1      -8.715   9.895  69.622  1.00  0.00    -0.204 A  
BRANCH  11  16
HETATM   16  N   UNL     1     -10.878   7.385  68.038  1.00  0.00    -0.450 N  
HETATM   17  H   UNL     1     -11.857   7.223  68.276  1.00  0.00     0.000 HD 
BRANCH  16  18
HETATM   18  S   UNL     1     -10.037   6.258  67.129  1.00  0.00    -0.192 S  
HETATM   19  O   UNL     1      -9.250   5.429  68.025  1.00  0.00    -0.108 OA 
HETATM   20  O   UNL     1     -11.010   5.653  66.240  1.00  0.00    -0.164 OA 
BRANCH  18  21
HETATM   21  C   UNL     1      -8.892   7.173  66.127  1.00  0.00    -0.150 A  
HETATM   22  C   UNL     1      -7.133   8.664  64.499  1.00  0.00    -0.081 A  
HETATM   23  C   UNL     1      -9.388   8.180  65.300  1.00  0.00     0.411 A  
HETATM   24  C   UNL     1      -8.516   8.910  64.495  1.00  0.00    -0.178 A  
HETATM   25  C   UNL     1      -6.650   7.686  65.396  1.00  0.00    -0.045 A  
HETATM   26  C   UNL     1      -7.520   6.946  66.210  1.00  0.00    -0.077 A  
BRANCH  22  27
HETATM   27  C   UNL     1      -6.181   9.396  63.534  1.00  0.00    -0.093 C  
HETATM   28  C   UNL     1      -5.126   8.463  62.894  1.00  0.00    -0.063 C  
HETATM   29  C   UNL     1      -5.408  10.486  64.307  1.00  0.00    -0.147 C  
HETATM   30  C   UNL     1      -6.968  10.053  62.383  1.00  0.00    -0.124 C  
ENDBRANCH  22  27
ENDBRANCH  18  21
ENDBRANCH  16  18
ENDBRANCH  11  16
BRANCH  14  31
HETATM   31  C   UNL     1     -10.712  12.011  67.423  1.00  0.00    -0.229 A  
HETATM   32  N   UNL     1     -11.802  11.837  66.638  1.00  0.00    -0.541 NA 
HETATM   33  N   UNL     1     -10.092  13.204  67.601  1.00  0.00    -0.218 NA 
HETATM   34  C   UNL     1     -10.621  14.258  66.957  1.00  0.00    -0.280 A  
HETATM   35  C   UNL     1     -12.277  12.926  66.011  1.00  0.00    -0.366 A  
HETATM   36  C   UNL     1     -11.722  14.176  66.138  1.00  0.00    -0.402 A  
ENDBRANCH  14  31
BRANCH  15  37
HETATM   37  O   UNL     1      -7.643  10.020  70.487  1.00  0.00    -0.276 OA 
BRANCH  37  38
HETATM   38  C   UNL     1      -6.441  10.562  69.925  1.00  0.00    -0.116 C  
BRANCH  38  39
HETATM   39  C   UNL     1      -5.654  11.326  70.985  1.00  0.00    -0.022 C  
HETATM   40  O   UNL     1      -6.173  12.642  71.146  1.00  0.00    -0.459 OA 
HETATM   41  H   UNL     1      -5.683  13.118  71.807  1.00  0.00     0.000 HD 
ENDBRANCH  38  39
ENDBRANCH  37  38
ENDBRANCH  15  37
ENDBRANCH   9  10
ENDBRANCH   8   9
ENDBRANCH   2   3
TORSDOF 11
ENDMDL
MODEL      138
REMARK 921   NORMALIZED FREE ENERGY PREDICTED BY IDOCK:   -4.24 KCAL/MOL
REMARK 922        TOTAL FREE ENERGY PREDICTED BY IDOCK:   -9.43 KCAL/MOL
REMARK 923 INTER-LIGAND FREE ENERGY PREDICTED BY IDOCK:   -8.75 KCAL/MOL
REMARK 924 INTRA-LIGAND FREE ENERGY PREDICTED BY IDOCK:   -0.69 KCAL/MOL
REMARK 927      BINDING AFFINITY PREDICTED BY RF-SCORE:    0.00 PKD
ROOT
HETATM    1  C   UNL     1     -12.010   8.781  70.938  1.00  0.00    -0.201 C  
HETATM    2  O   UNL     1     -10.652   8.387  70.740  1.00  0.00    -0.200 OA 
ENDROOT
BRANCH   2   3
HETATM    3  C   UNL     1     -10.419   7.069  70.433  1.00  0.00    -0.206 A  
HETATM    4  C   UNL     1     -10.611   6.029  71.358  1.00  0.00    -0.300 A  
HETATM    5  C   UNL     1     -10.305   4.704  71.033  1.00  0.00    -0.143 A  
HETATM    6  C   UNL     1      -9.824   4.391  69.769  1.00  0.00    -0.284 A  
HETATM    7  C   UNL     1      -9.645   5.405  68.835  1.00  0.00    -0.188 A  
HETATM    8  C   UNL     1      -9.939   6.741  69.148  1.00  0.00    -0.159 A  
BRANCH   8   9
HETATM    9  O   UNL     1      -9.624   7.585  68.102  1.00  0.00    -0.145 OA 
BRANCH   9  10
HETATM   10  C   UNL     1      -8.964   8.755  68.298  1.00  0.00    -0.141 A  
HETATM   11  C   UNL     1      -9.422  10.027  68.035  1.00  0.00    -0.137 A  
HETATM   12  N   UNL     1      -8.755  11.149  68.333  1.00  0.00    -0.151 NA 
HETATM   13  N   UNL     1      -6.951   9.801  69.108  1.00  0.00    -0.053 NA 
HETATM   14  C   UNL     1      -7.545  10.994  68.910  1.00  0.00    -0.134 A  
HETATM   15  C   UNL     1      -7.664   8.710  68.776  1.00  0.00    -0.097 A  
BRANCH  11  16
HETATM   16  N   UNL     1     -10.656  10.357  67.425  1.00  0.00    -0.250 N  
HETATM   17  H   UNL     1     -11.363   9.637  67.276  1.00  0.00     0.000 HD 
BRANCH  16  18
HETATM   18  S   UNL     1     -10.953  11.936  66.950  1.00  0.00    -0.305 S  
HETATM   19  O   UNL     1      -9.691  12.560  66.592  1.00  0.00    -0.229 OA 
HETATM   20  O   UNL     1     -12.033  11.868  65.985  1.00  0.00    -0.511 OA 
BRANCH  18  21
HETATM   21  C   UNL     1     -11.566  12.786  68.383  1.00  0.00    -0.325 A  
HETATM   22  C   UNL     1     -12.523  14.206  70.626  1.00  0.00    -0.432 A  
HETATM   23  C   UNL     1     -11.677  14.174  68.337  1.00  0.00    -0.380 A  
HETATM   24  C   UNL     1     -12.146  14.872  69.448  1.00  0.00    -0.297 A  
HETATM   25  C   UNL     1     -12.466  12.796  70.622  1.00  0.00    -0.328 A  
HETATM   26  C   UNL     1     -11.995  12.085  69.508  1.00  0.00    -0.346 A  
BRANCH  22  27
HETATM   27  C   UNL     1     -12.942  14.981  71.891  1.00  0.00    -0.429 C  
HETATM   28  C   UNL     1     -14.409  15.470  71.848  1.00  0.00    -0.580 C  
HETATM   29  C   UNL     1     -12.054  16.234  72.041  1.00  0.00    -0.493 C  
HETATM   30  C   UNL     1     -12.791  14.100  73.147  1.00  0.00    -0.285 C  
ENDBRANCH  22  27
ENDBRANCH  18  21
ENDBRANCH  16  18
ENDBRANCH  11  16
BRANCH  14  31
HETATM   31  C   UNL     1      -6.871  12.208  69.440  1.00  0.00    -0.010 A  
HETATM   32  N   UNL     1      -6.031  12.056  70.492  1.00  0.00    -0.266 NA 
HETATM   33  N   UNL     1      -7.194  13.409  68.899  1.00  0.00    -0.091 NA 
HETATM   34  C   UNL     1      -6.622  14.491  69.452  1.00  0.00    -0.138 A  
HETATM   35  C   UNL     1      -5.499  13.176  71.009  1.00  0.00    -0.194 A  
HETATM   36  C   UNL     1      -5.760  14.433  70.522  1.00  0.00    -0.158 A  
ENDBRANCH  14  31
BRANCH  15  37
HETATM   37  O   UNL     1      -7.061   7.472  68.893  1.00  0.00    -0.075 OA 
BRANCH  37  38
HETATM   38  C   UNL     1      -6.184   7.095  67.823  1.00  0.00    -0.042 C  
BRANCH  38  39
HETATM   39  C   UNL     1      -5.476   5.785  68.150  1.00  0.00    -0.008 C  
HETATM   40  O   UNL     1      -6.314   4.672  67.852  1.00  0.00    -0.035 OA 
HETATM   41  H   UNL     1      -5.873   3.855  68.055  1.00  0.00     0.000 HD 
ENDBRANCH  38  39
ENDBRANCH  37  38
ENDBRANCH  15  37
ENDBRANCH   9  10
ENDBRANCH   8   9
ENDBRANCH   2   3
TORSDOF 11
ENDMDL
MODEL      139
REMARK 921   NORMALIZED FREE ENERGY PREDICTED BY IDOCK:   -4.19 KCAL/MOL
REMARK 922        TOTAL FREE ENERGY PREDICTED BY IDOCK:   -9.34 KCAL/MOL
REMARK 923 INTER-LIGAND FREE ENERGY PREDICTED BY IDOCK:   -6.59 KCAL/MOL
REMARK 924 INTRA-LIGAND FREE ENERGY PREDICTED BY IDOCK:   -2.74 KCAL/MOL
REMARK 927      BINDING AFFINITY PREDICTED BY RF-SCORE:    0.00 PKD
ROOT
HETATM    1  C   UNL     1      -9.799   4.731  66.647  1.00  0.00    -0.214 C  
HETATM    2  O   UNL     1      -9.894   6.152  66.544  1.00  0.00    -0.162 OA 
ENDROOT
BRANCH   2   3
HETATM    3  C   UNL     1      -8.816   6.817  66.014  1.00  0.00    -0.135 A  
HETATM    4  C   UNL     1      -7.555   6.217  65.861  1.00  0.00    -0.087 A  
HETATM    5  C   UNL     1      -6.461   6.941  65.376  1.00  0.00    -0.046 A  
HETATM    6  C   UNL     1      -6.614   8.272  65.015  1.00  0.00    -0.059 A  
HETATM    7  C   UNL     1      -7.858   8.878  65.143  1.00  0.00    -0.106 A  
HETATM    8  C   UNL     1      -8.965   8.168  65.636  1.00  0.00    -0.080 A  
BRANCH   8   9
HETATM    9  O   UNL     1     -10.077   8.978  65.744  1.00  0.00    -0.169 OA 
BRANCH   9  10
HETATM   10  C   UNL     1     -10.021  10.198  66.336  1.00  0.00    -0.234 A  
HETATM   11  C   UNL     1      -9.909  10.469  67.682  1.00  0.00    -0.166 A  
HETATM   12  N   UNL     1      -9.770  11.697  68.198  1.00  0.00    -0.183 NA 
HETATM   13  N   UNL     1      -9.979  12.582  65.997  1.00  0.00    -0.254 NA 
HETATM   14  C   UNL     1      -9.763  12.722  67.320  1.00  0.00    -0.206 A  
HETATM   15  C   UNL     1     -10.126  11.327  65.540  1.00  0.00    -0.257 A  
BRANCH  11  16
HETATM   16  N   UNL     1      -9.912   9.513  68.726  1.00  0.00    -0.169 N  
HETATM   17  H   UNL     1     -10.776   9.034  68.979  1.00  0.00     0.000 HD 
BRANCH  16  18
HETATM   18  S   UNL     1      -8.493   9.174  69.548  1.00  0.00    -0.137 S  
HETATM   19  O   UNL     1      -7.368   9.589  68.728  1.00  0.00    -0.072 OA 
HETATM   20  O   UNL     1      -8.662   9.714  70.883  1.00  0.00    -0.220 OA 
BRANCH  18  21
HETATM   21  C   UNL     1      -8.406   7.406  69.692  1.00  0.00    -0.132 A  
HETATM   22  C   UNL     1      -8.196   4.599  69.890  1.00  0.00    -0.069 A  
HETATM   23  C   UNL     1      -7.199   6.773  69.402  1.00  0.00    -0.089 A  
HETATM   24  C   UNL     1      -7.101   5.386  69.497  1.00  0.00    -0.063 A  
HETATM   25  C   UNL     1      -9.386   5.270  70.243  1.00  0.00    -0.207 A  
HETATM   26  C   UNL     1      -9.494   6.666  70.151  1.00  0.00    -0.162 A  
BRANCH  22  27
HETATM   27  C   UNL     1      -8.121   3.060  69.894  1.00  0.00    -0.059 C  
HETATM   28  C   UNL     1      -8.194   2.450  71.314  1.00  0.00    -0.070 C  
HETATM   29  C   UNL     1      -6.778   2.610  69.280  1.00  0.00    -0.033 C  
HETATM   30  C   UNL     1      -9.280   2.454  69.077  1.00  0.00    -0.205 C  
ENDBRANCH  22  27
ENDBRANCH  18  21
ENDBRANCH  16  18
ENDBRANCH  11  16
BRANCH  14  31
HETATM   31  C   UNL     1      -9.406  14.069  67.834  1.00  0.00    -0.206 A  
HETATM   32  N   UNL     1      -8.451  14.147  68.792  1.00  0.00    -0.117 NA 
HETATM   33  N   UNL     1     -10.106  15.136  67.377  1.00  0.00    -0.228 NA 
HETATM   34  C   UNL     1      -9.805  16.329  67.918  1.00  0.00    -0.237 A  
HETATM   35  C   UNL     1      -8.203  15.364  69.302  1.00  0.00    -0.252 A  
HETATM   36  C   UNL     1      -8.855  16.503  68.897  1.00  0.00    -0.244 A  
ENDBRANCH  14  31
BRANCH  15  37
HETATM   37  O   UNL     1     -10.426  11.147  64.202  1.00  0.00    -0.333 OA 
BRANCH  37  38
HETATM   38  C   UNL     1      -9.665  11.934  63.275  1.00  0.00    -0.252 C  
BRANCH  38  39
HETATM   39  C   UNL     1      -8.878  11.031  62.331  1.00  0.00    -0.307 C  
HETATM   40  O   UNL     1      -7.486  11.091  62.622  1.00  0.00    -0.374 OA 
HETATM   41  H   UNL     1      -6.994  10.529  62.034  1.00  0.00     0.000 HD 
ENDBRANCH  38  39
ENDBRANCH  37  38
ENDBRANCH  15  37
ENDBRANCH   9  10
ENDBRANCH   8   9
ENDBRANCH   2   3
TORSDOF 11
ENDMDL
MODEL      140
REMARK 921   NORMALIZED FREE ENERGY PREDICTED BY IDOCK:   -4.12 KCAL/MOL
REMARK 922        TOTAL FREE ENERGY PREDICTED BY IDOCK:   -9.23 KCAL/MOL
REMARK 923 INTER-LIGAND FREE ENERGY PREDICTED BY IDOCK:   -7.37 KCAL/MOL
REMARK 924 INTRA-LIGAND FREE ENERGY PREDICTED BY IDOCK:   -1.86 KCAL/MOL
REMARK 927      BINDING AFFINITY PREDICTED BY RF-SCORE:    0.00 PKD
ROOT
HETATM    1  C   UNL     1     -12.369  10.363  70.730  1.00  0.00    -0.367 C  
HETATM    2  O   UNL     1     -10.990  10.290  70.366  1.00  0.00    -0.296 OA 
ENDROOT
BRANCH   2   3
HETATM    3  C   UNL     1     -10.194   9.437  71.091  1.00  0.00    -0.291 A  
HETATM    4  C   UNL     1     -10.676   8.691  72.179  1.00  0.00    -0.417 A  
HETATM    5  C   UNL     1      -9.824   7.879  72.935  1.00  0.00    -0.348 A  
HETATM    6  C   UNL     1      -8.481   7.780  72.602  1.00  0.00    -0.182 A  
HETATM    7  C   UNL     1      -7.990   8.498  71.517  1.00  0.00    -0.169 A  
HETATM    8  C   UNL     1      -8.829   9.325  70.753  1.00  0.00    -0.225 A  
BRANCH   8   9
HETATM    9  O   UNL     1      -8.124   9.993  69.773  1.00  0.00    -0.159 OA 
BRANCH   9  10
HETATM   10  C   UNL     1      -8.713  10.413  68.624  1.00  0.00    -0.138 A  
HETATM   11  C   UNL     1      -9.267   9.630  67.636  1.00  0.00    -0.130 A  
HETATM   12  N   UNL     1      -9.913  10.109  66.565  1.00  0.00    -0.214 NA 
HETATM   13  N   UNL     1      -9.393  12.311  67.308  1.00  0.00    -0.180 NA 
HETATM   14  C   UNL     1      -9.995  11.452  66.462  1.00  0.00    -0.211 A  
HETATM   15  C   UNL     1      -8.746  11.771  68.356  1.00  0.00    -0.155 A  
BRANCH  11  16
HETATM   16  N   UNL     1      -9.255   8.216  67.589  1.00  0.00    -0.137 N  
HETATM   17  H   UNL     1     -10.104   7.690  67.795  1.00  0.00     0.000 HD 
BRANCH  16  18
HETATM   18  S   UNL     1      -7.842   7.408  67.195  1.00  0.00    -0.118 S  
HETATM   19  O   UNL     1      -6.996   8.299  66.420  1.00  0.00    -0.065 OA 
HETATM   20  O   UNL     1      -7.353   6.828  68.431  1.00  0.00    -0.082 OA 
BRANCH  18  21
HETATM   21  C   UNL     1      -8.308   6.071  66.124  1.00  0.00    -0.126 A  
HETATM   22  C   UNL     1      -9.019   3.985  64.361  1.00  0.00    -0.137 A  
HETATM   23  C   UNL     1      -7.867   6.092  64.802  1.00  0.00    -0.109 A  
HETATM   24  C   UNL     1      -8.224   5.062  63.934  1.00  0.00    -0.125 A  
HETATM   25  C   UNL     1      -9.394   3.954  65.721  1.00  0.00    -0.162 A  
HETATM   26  C   UNL     1      -9.040   4.986  66.602  1.00  0.00    -0.119 A  
BRANCH  22  27
HETATM   27  C   UNL     1      -9.501   2.901  63.378  1.00  0.00    -0.096 C  
HETATM   28  C   UNL     1      -9.919   1.586  64.079  1.00  0.00    -0.082 C  
HETATM   29  C   UNL     1      -8.358   2.548  62.403  1.00  0.00    -0.073 C  
HETATM   30  C   UNL     1     -10.719   3.396  62.573  1.00  0.00    -0.175 C  
ENDBRANCH  22  27
ENDBRANCH  18  21
ENDBRANCH  16  18
ENDBRANCH  11  16
BRANCH  14  31
HETATM   31  C   UNL     1     -10.877  12.011  65.405  1.00  0.00    -0.291 A  
HETATM   32  N   UNL     1     -10.577  11.725  64.115  1.00  0.00    -0.320 NA 
HETATM   33  N   UNL     1     -11.882  12.841  65.781  1.00  0.00    -0.411 NA 
HETATM   34  C   UNL     1     -12.612  13.385  64.794  1.00  0.00    -0.314 A  
HETATM   35  C   UNL     1     -11.336  12.309  63.173  1.00  0.00    -0.178 A  
HETATM   36  C   UNL     1     -12.380  13.156  63.458  1.00  0.00    -0.478 A  
ENDBRANCH  14  31
BRANCH  15  37
HETATM   37  O   UNL     1      -8.052  12.615  69.203  1.00  0.00     0.255 OA 
BRANCH  37  38
HETATM   38  C   UNL     1      -6.674  12.839  68.878  1.00  0.00    -0.097 C  
BRANCH  38  39
HETATM   39  C   UNL     1      -5.814  12.788  70.136  1.00  0.00    -0.155 C  
HETATM   40  O   UNL     1      -5.850  11.489  70.718  1.00  0.00    -0.292 OA 
HETATM   41  H   UNL     1      -5.314  11.456  71.502  1.00  0.00     0.000 HD 
ENDBRANCH  38  39
ENDBRANCH  37  38
ENDBRANCH  15  37
ENDBRANCH   9  10
ENDBRANCH   8   9
ENDBRANCH   2   3
TORSDOF 11
ENDMDL
MODEL      141
REMARK 921   NORMALIZED FREE ENERGY PREDICTED BY IDOCK:   -4.11 KCAL/MOL
REMARK 922        TOTAL FREE ENERGY PREDICTED BY IDOCK:   -9.22 KCAL/MOL
REMARK 923 INTER-LIGAND FREE ENERGY PREDICTED BY IDOCK:   -7.66 KCAL/MOL
REMARK 924 INTRA-LIGAND FREE ENERGY PREDICTED BY IDOCK:   -1.56 KCAL/MOL
REMARK 927      BINDING AFFINITY PREDICTED BY RF-SCORE:    0.00 PKD
ROOT
HETATM    1  C   UNL     1     -11.338  14.972  70.977  1.00  0.00    -0.273 C  
HETATM    2  O   UNL     1     -12.088  13.942  70.333  1.00  0.00    -0.315 OA 
ENDROOT
BRANCH   2   3
HETATM    3  C   UNL     1     -11.772  13.658  69.028  1.00  0.00    -0.333 A  
HETATM    4  C   UNL     1     -12.271  14.404  67.946  1.00  0.00    -0.178 A  
HETATM    5  C   UNL     1     -11.979  14.050  66.625  1.00  0.00    -0.473 A  
HETATM    6  C   UNL     1     -11.165  12.957  66.362  1.00  0.00    -0.337 A  
HETATM    7  C   UNL     1     -10.649  12.217  67.419  1.00  0.00    -0.253 A  
HETATM    8  C   UNL     1     -10.939  12.554  68.751  1.00  0.00    -0.253 A  
BRANCH   8   9
HETATM    9  O   UNL     1     -10.382  11.649  69.633  1.00  0.00     0.174 OA 
BRANCH   9  10
HETATM   10  C   UNL     1     -10.194  10.347  69.301  1.00  0.00    -0.230 A  
HETATM   11  C   UNL     1     -11.107   9.320  69.396  1.00  0.00    -0.043 A  
HETATM   12  N   UNL     1     -10.889   8.070  68.970  1.00  0.00    -0.074 NA 
HETATM   13  N   UNL     1      -8.670   8.717  68.393  1.00  0.00    -0.134 NA 
HETATM   14  C   UNL     1      -9.676   7.821  68.432  1.00  0.00    -0.159 A  
HETATM   15  C   UNL     1      -8.945   9.952  68.849  1.00  0.00    -0.153 A  
BRANCH  11  16
HETATM   16  N   UNL     1     -12.409   9.413  69.943  1.00  0.00    -0.043 N  
HETATM   17  H   UNL     1     -13.181   9.760  69.373  1.00  0.00     0.000 HD 
BRANCH  16  18
HETATM   18  S   UNL     1     -12.680   8.952  71.530  1.00  0.00    -0.329 S  
HETATM   19  O   UNL     1     -12.624  10.132  72.375  1.00  0.00    -0.151 OA 
HETATM   20  O   UNL     1     -13.871   8.124  71.511  1.00  0.00    -0.357 OA 
BRANCH  18  21
HETATM   21  C   UNL     1     -11.315   7.916  71.993  1.00  0.00    -0.292 A  
HETATM   22  C   UNL     1      -9.190   6.205  72.718  1.00  0.00    -0.138 A  
HETATM   23  C   UNL     1     -11.458   6.534  71.877  1.00  0.00    -0.345 A  
HETATM   24  C   UNL     1     -10.408   5.693  72.240  1.00  0.00    -0.250 A  
HETATM   25  C   UNL     1      -9.047   7.608  72.760  1.00  0.00    -0.217 A  
HETATM   26  C   UNL     1     -10.098   8.463  72.396  1.00  0.00    -0.386 A  
BRANCH  22  27
HETATM   27  C   UNL     1      -8.067   5.276  73.218  1.00  0.00    -0.111 C  
HETATM   28  C   UNL     1      -6.769   6.034  73.587  1.00  0.00    -0.079 C  
HETATM   29  C   UNL     1      -7.700   4.270  72.107  1.00  0.00    -0.081 C  
HETATM   30  C   UNL     1      -8.516   4.503  74.474  1.00  0.00    -0.103 C  
ENDBRANCH  22  27
ENDBRANCH  18  21
ENDBRANCH  16  18
ENDBRANCH  11  16
BRANCH  14  31
HETATM   31  C   UNL     1      -9.472   6.510  67.764  1.00  0.00    -0.119 A  
HETATM   32  N   UNL     1     -10.534   5.950  67.135  1.00  0.00    -0.239 NA 
HETATM   33  N   UNL     1      -8.264   5.907  67.888  1.00  0.00    -0.108 NA 
HETATM   34  C   UNL     1      -8.140   4.690  67.332  1.00  0.00    -0.101 A  
HETATM   35  C   UNL     1     -10.351   4.727  66.610  1.00  0.00    -0.214 A  
HETATM   36  C   UNL     1      -9.161   4.043  66.678  1.00  0.00    -0.173 A  
ENDBRANCH  14  31
BRANCH  15  37
HETATM   37  O   UNL     1      -7.918  10.877  68.897  1.00  0.00    -0.133 OA 
BRANCH  37  38
HETATM   38  C   UNL     1      -6.819  10.643  68.008  1.00  0.00    -0.072 C  
BRANCH  38  39
HETATM   39  C   UNL     1      -6.999  11.435  66.717  1.00  0.00    -0.128 C  
HETATM   40  O   UNL     1      -6.048  12.492  66.638  1.00  0.00    -0.463 OA 
HETATM   41  H   UNL     1      -6.160  12.986  65.834  1.00  0.00     0.000 HD 
ENDBRANCH  38  39
ENDBRANCH  37  38
ENDBRANCH  15  37
ENDBRANCH   9  10
ENDBRANCH   8   9
ENDBRANCH   2   3
TORSDOF 11
ENDMDL
MODEL      142
REMARK 921   NORMALIZED FREE ENERGY PREDICTED BY IDOCK:   -4.10 KCAL/MOL
REMARK 922        TOTAL FREE ENERGY PREDICTED BY IDOCK:   -9.19 KCAL/MOL
REMARK 923 INTER-LIGAND FREE ENERGY PREDICTED BY IDOCK:   -8.66 KCAL/MOL
REMARK 924 INTRA-LIGAND FREE ENERGY PREDICTED BY IDOCK:   -0.53 KCAL/MOL
REMARK 927      BINDING AFFINITY PREDICTED BY RF-SCORE:    0.00 PKD
ROOT
HETATM    1  C   UNL     1      -9.511  15.342  67.284  1.00  0.00    -0.210 C  
HETATM    2  O   UNL     1     -10.911  15.108  67.436  1.00  0.00    -0.288 OA 
ENDROOT
BRANCH   2   3
HETATM    3  C   UNL     1     -11.367  14.833  68.701  1.00  0.00    -0.285 A  
HETATM    4  C   UNL     1     -11.623  15.836  69.651  1.00  0.00    -0.363 A  
HETATM    5  C   UNL     1     -12.028  15.518  70.951  1.00  0.00    -0.420 A  
HETATM    6  C   UNL     1     -12.206  14.192  71.319  1.00  0.00    -0.419 A  
HETATM    7  C   UNL     1     -11.975  13.186  70.387  1.00  0.00    -0.343 A  
HETATM    8  C   UNL     1     -11.560  13.488  69.080  1.00  0.00    -0.310 A  
BRANCH   8   9
HETATM    9  O   UNL     1     -11.325  12.342  68.349  1.00  0.00    -0.245 OA 
BRANCH   9  10
HETATM   10  C   UNL     1     -10.636  11.291  68.862  1.00  0.00    -0.207 A  
HETATM   11  C   UNL     1     -11.155  10.169  69.469  1.00  0.00    -0.250 A  
HETATM   12  N   UNL     1     -10.425   9.123  69.877  1.00  0.00    -0.214 NA 
HETATM   13  N   UNL     1      -8.467  10.304  69.211  1.00  0.00    -0.158 NA 
HETATM   14  C   UNL     1      -9.091   9.209  69.689  1.00  0.00    -0.160 A  
HETATM   15  C   UNL     1      -9.251  11.327  68.831  1.00  0.00    -0.064 A  
BRANCH  11  16
HETATM   16  N   UNL     1     -12.521   9.931  69.750  1.00  0.00    -0.263 N  
HETATM   17  H   UNL     1     -13.220  10.029  69.013  1.00  0.00     0.000 HD 
BRANCH  16  18
HETATM   18  S   UNL     1     -12.988   9.487  71.296  1.00  0.00    -0.304 S  
HETATM   19  O   UNL     1     -12.608  10.543  72.219  1.00  0.00    -0.125 OA 
HETATM   20  O   UNL     1     -14.373   9.070  71.193  1.00  0.00    -0.187 OA 
BRANCH  18  21
HETATM   21  C   UNL     1     -12.027   8.055  71.720  1.00  0.00    -0.301 A  
HETATM   22  C   UNL     1     -10.534   5.740  72.333  1.00  0.00    -0.252 A  
HETATM   23  C   UNL     1     -12.057   6.957  70.863  1.00  0.00    -0.424 A  
HETATM   24  C   UNL     1     -11.321   5.814  71.172  1.00  0.00    -0.138 A  
HETATM   25  C   UNL     1     -10.467   6.892  73.147  1.00  0.00    -0.313 A  
HETATM   26  C   UNL     1     -11.204   8.046  72.844  1.00  0.00    -0.389 A  
BRANCH  22  27
HETATM   27  C   UNL     1      -9.804   4.443  72.730  1.00  0.00    -0.194 C  
HETATM   28  C   UNL     1      -9.588   3.476  71.541  1.00  0.00    -0.232 C  
HETATM   29  C   UNL     1     -10.643   3.684  73.780  1.00  0.00    -0.287 C  
HETATM   30  C   UNL     1      -8.415   4.756  73.322  1.00  0.00    -0.103 C  
ENDBRANCH  22  27
ENDBRANCH  18  21
ENDBRANCH  16  18
ENDBRANCH  11  16
BRANCH  14  31
HETATM   31  C   UNL     1      -8.278   7.991  69.937  1.00  0.00    -0.119 A  
HETATM   32  N   UNL     1      -7.261   8.082  70.828  1.00  0.00    -0.052 NA 
HETATM   33  N   UNL     1      -8.543   6.882  69.204  1.00  0.00    -0.128 NA 
HETATM   34  C   UNL     1      -7.740   5.823  69.403  1.00  0.00    -0.092 A  
HETATM   35  C   UNL     1      -6.486   6.994  70.974  1.00  0.00    -0.044 A  
HETATM   36  C   UNL     1      -6.683   5.824  70.282  1.00  0.00    -0.048 A  
ENDBRANCH  14  31
BRANCH  15  37
HETATM   37  O   UNL     1      -8.645  12.496  68.408  1.00  0.00    -0.172 OA 
BRANCH  37  38
HETATM   38  C   UNL     1      -7.320  12.362  67.879  1.00  0.00    -0.112 C  
BRANCH  38  39
HETATM   39  C   UNL     1      -6.727  13.733  67.573  1.00  0.00    -0.115 C  
HETATM   40  O   UNL     1      -5.332  13.630  67.303  1.00  0.00    -0.331 OA 
HETATM   41  H   UNL     1      -4.962  14.484  67.112  1.00  0.00     0.000 HD 
ENDBRANCH  38  39
ENDBRANCH  37  38
ENDBRANCH  15  37
ENDBRANCH   9  10
ENDBRANCH   8   9
ENDBRANCH   2   3
TORSDOF 11
ENDMDL
MODEL      143
REMARK 921   NORMALIZED FREE ENERGY PREDICTED BY IDOCK:   -4.08 KCAL/MOL
REMARK 922        TOTAL FREE ENERGY PREDICTED BY IDOCK:   -9.16 KCAL/MOL
REMARK 923 INTER-LIGAND FREE ENERGY PREDICTED BY IDOCK:   -6.92 KCAL/MOL
REMARK 924 INTRA-LIGAND FREE ENERGY PREDICTED BY IDOCK:   -2.24 KCAL/MOL
REMARK 927      BINDING AFFINITY PREDICTED BY RF-SCORE:    0.00 PKD
ROOT
HETATM    1  C   UNL     1      -5.460  11.494  66.399  1.00  0.00    -0.078 C  
HETATM    2  O   UNL     1      -5.704  11.709  67.789  1.00  0.00    -0.045 OA 
ENDROOT
BRANCH   2   3
HETATM    3  C   UNL     1      -6.175  12.945  68.159  1.00  0.00    -0.093 A  
HETATM    4  C   UNL     1      -5.344  14.073  68.269  1.00  0.00    -0.112 A  
HETATM    5  C   UNL     1      -5.844  15.302  68.709  1.00  0.00    -0.088 A  
HETATM    6  C   UNL     1      -7.189  15.432  69.025  1.00  0.00    -0.153 A  
HETATM    7  C   UNL     1      -8.030  14.332  68.907  1.00  0.00    -0.080 A  
HETATM    8  C   UNL     1      -7.543  13.088  68.475  1.00  0.00    -0.121 A  
BRANCH   8   9
HETATM    9  O   UNL     1      -8.530  12.124  68.496  1.00  0.00    -0.151 OA 
BRANCH   9  10
HETATM   10  C   UNL     1      -8.615  11.162  67.542  1.00  0.00    -0.129 A  
HETATM   11  C   UNL     1      -8.772  11.343  66.186  1.00  0.00    -0.153 A  
HETATM   12  N   UNL     1      -8.761  10.353  65.283  1.00  0.00    -0.172 NA 
HETATM   13  N   UNL     1      -8.554   8.800  67.077  1.00  0.00    -0.115 NA 
HETATM   14  C   UNL     1      -8.603   9.102  65.765  1.00  0.00    -0.153 A  
HETATM   15  C   UNL     1      -8.585   9.835  67.935  1.00  0.00    -0.125 A  
BRANCH  11  16
HETATM   16  N   UNL     1      -8.960  12.582  65.527  1.00  0.00    -0.174 N  
HETATM   17  H   UNL     1      -8.198  12.999  64.993  1.00  0.00     0.000 HD 
BRANCH  16  18
HETATM   18  S   UNL     1     -10.439  13.362  65.629  1.00  0.00    -0.295 S  
HETATM   19  O   UNL     1     -10.992  13.490  64.292  1.00  0.00    -0.383 OA 
HETATM   20  O   UNL     1     -11.185  12.674  66.665  1.00  0.00    -0.273 OA 
BRANCH  18  21
HETATM   21  C   UNL     1     -10.102  15.005  66.212  1.00  0.00    -0.282 A  
HETATM   22  C   UNL     1      -9.633  17.614  67.180  1.00  0.00    -0.278 A  
HETATM   23  C   UNL     1     -10.936  15.550  67.186  1.00  0.00    -0.295 A  
HETATM   24  C   UNL     1     -10.704  16.840  67.658  1.00  0.00    -0.305 A  
HETATM   25  C   UNL     1      -8.764  17.013  66.244  1.00  0.00    -0.285 A  
HETATM   26  C   UNL     1      -8.990  15.715  65.764  1.00  0.00    -0.028 A  
BRANCH  22  27
HETATM   27  C   UNL     1      -9.436  19.077  67.622  1.00  0.00    -0.355 C  
HETATM   28  C   UNL     1      -8.894  19.987  66.493  1.00  0.00    -0.414 C  
HETATM   29  C   UNL     1      -8.411  19.131  68.774  1.00  0.00    -0.377 C  
HETATM   30  C   UNL     1     -10.768  19.688  68.100  1.00  0.00    -0.255 C  
ENDBRANCH  22  27
ENDBRANCH  18  21
ENDBRANCH  16  18
ENDBRANCH  11  16
BRANCH  14  31
HETATM   31  C   UNL     1      -8.379   8.008  64.785  1.00  0.00    -0.077 A  
HETATM   32  N   UNL     1      -8.131   6.768  65.270  1.00  0.00    -0.127 NA 
HETATM   33  N   UNL     1      -8.352   8.323  63.466  1.00  0.00    -0.078 NA 
HETATM   34  C   UNL     1      -8.074   7.322  62.615  1.00  0.00    -0.083 A  
HETATM   35  C   UNL     1      -7.847   5.812  64.369  1.00  0.00    -0.110 A  
HETATM   36  C   UNL     1      -7.807   6.034  63.015  1.00  0.00    -0.099 A  
ENDBRANCH  14  31
BRANCH  15  37
HETATM   37  O   UNL     1      -8.615   9.561  69.291  1.00  0.00    -0.132 OA 
BRANCH  37  38
HETATM   38  C   UNL     1      -8.836   8.192  69.652  1.00  0.00    -0.143 C  
BRANCH  38  39
HETATM   39  C   UNL     1      -9.680   8.104  70.919  1.00  0.00    -0.166 C  
HETATM   40  O   UNL     1      -9.139   7.143  71.819  1.00  0.00    -0.139 OA 
HETATM   41  H   UNL     1      -9.664   7.088  72.609  1.00  0.00     0.000 HD 
ENDBRANCH  38  39
ENDBRANCH  37  38
ENDBRANCH  15  37
ENDBRANCH   9  10
ENDBRANCH   8   9
ENDBRANCH   2   3
TORSDOF 11
ENDMDL
MODEL      144
REMARK 921   NORMALIZED FREE ENERGY PREDICTED BY IDOCK:   -4.08 KCAL/MOL
REMARK 922        TOTAL FREE ENERGY PREDICTED BY IDOCK:   -9.16 KCAL/MOL
REMARK 923 INTER-LIGAND FREE ENERGY PREDICTED BY IDOCK:   -6.80 KCAL/MOL
REMARK 924 INTRA-LIGAND FREE ENERGY PREDICTED BY IDOCK:   -2.36 KCAL/MOL
REMARK 927      BINDING AFFINITY PREDICTED BY RF-SCORE:    0.00 PKD
ROOT
HETATM    1  C   UNL     1      -7.991   6.304  74.365  1.00  0.00    -0.108 C  
HETATM    2  O   UNL     1      -8.169   7.187  73.257  1.00  0.00    -0.105 OA 
ENDROOT
BRANCH   2   3
HETATM    3  C   UNL     1      -7.146   8.059  72.979  1.00  0.00    -0.099 A  
HETATM    4  C   UNL     1      -6.304   8.584  73.974  1.00  0.00    -0.143 A  
HETATM    5  C   UNL     1      -5.311   9.519  73.664  1.00  0.00    -0.031 A  
HETATM    6  C   UNL     1      -5.126   9.928  72.351  1.00  0.00    -0.037 A  
HETATM    7  C   UNL     1      -5.938   9.406  71.351  1.00  0.00    -0.069 A  
HETATM    8  C   UNL     1      -6.945   8.474  71.645  1.00  0.00    -0.088 A  
BRANCH   8   9
HETATM    9  O   UNL     1      -7.671   8.143  70.519  1.00  0.00    -0.080 OA 
BRANCH   9  10
HETATM   10  C   UNL     1      -8.552   9.007  69.953  1.00  0.00    -0.140 A  
HETATM   11  C   UNL     1      -9.772   9.402  70.453  1.00  0.00    -0.261 A  
HETATM   12  N   UNL     1     -10.558  10.328  69.888  1.00  0.00    -0.273 NA 
HETATM   13  N   UNL     1      -8.987  10.490  68.106  1.00  0.00    -0.134 NA 
HETATM   14  C   UNL     1     -10.109  10.881  68.742  1.00  0.00    -0.194 A  
HETATM   15  C   UNL     1      -8.247   9.546  68.714  1.00  0.00    -0.112 A  
BRANCH  11  16
HETATM   16  N   UNL     1     -10.388   8.912  71.629  1.00  0.00    -0.319 N  
HETATM   17  H   UNL     1     -10.193   9.350  72.530  1.00  0.00     0.000 HD 
BRANCH  16  18
HETATM   18  S   UNL     1     -11.439   7.611  71.538  1.00  0.00    -0.273 S  
HETATM   19  O   UNL     1     -11.383   6.877  72.790  1.00  0.00    -0.258 OA 
HETATM   20  O   UNL     1     -12.700   8.146  71.062  1.00  0.00    -0.177 OA 
BRANCH  18  21
HETATM   21  C   UNL     1     -10.802   6.537  70.276  1.00  0.00    -0.279 A  
HETATM   22  C   UNL     1      -9.744   4.795  68.324  1.00  0.00    -0.200 A  
HETATM   23  C   UNL     1      -9.983   5.476  70.656  1.00  0.00    -0.270 A  
HETATM   24  C   UNL     1      -9.460   4.620  69.689  1.00  0.00    -0.232 A  
HETATM   25  C   UNL     1     -10.630   5.836  67.973  1.00  0.00    -0.295 A  
HETATM   26  C   UNL     1     -11.162   6.702  68.940  1.00  0.00    -0.273 A  
BRANCH  22  27
HETATM   27  C   UNL     1      -9.083   3.916  67.245  1.00  0.00    -0.177 C  
HETATM   28  C   UNL     1      -9.727   2.514  67.121  1.00  0.00     0.357 C  
HETATM   29  C   UNL     1      -7.597   3.698  67.600  1.00  0.00    -0.070 C  
HETATM   30  C   UNL     1      -9.180   4.586  65.860  1.00  0.00    -0.143 C  
ENDBRANCH  22  27
ENDBRANCH  18  21
ENDBRANCH  16  18
ENDBRANCH  11  16
BRANCH  14  31
HETATM   31  C   UNL     1     -10.848  12.051  68.202  1.00  0.00    -0.221 A  
HETATM   32  N   UNL     1     -10.759  12.296  66.873  1.00  0.00    -0.227 NA 
HETATM   33  N   UNL     1     -11.504  12.854  69.076  1.00  0.00    -0.289 NA 
HETATM   34  C   UNL     1     -12.100  13.943  68.561  1.00  0.00    -0.296 A  
HETATM   35  C   UNL     1     -11.365  13.406  66.420  1.00  0.00    -0.313 A  
HETATM   36  C   UNL     1     -12.059  14.273  67.227  1.00  0.00    -0.390 A  
ENDBRANCH  14  31
BRANCH  15  37
HETATM   37  O   UNL     1      -7.130   9.064  68.056  1.00  0.00    -0.077 OA 
BRANCH  37  38
HETATM   38  C   UNL     1      -6.566   9.925  67.058  1.00  0.00    -0.070 C  
BRANCH  38  39
HETATM   39  C   UNL     1      -5.946  11.158  67.707  1.00  0.00    -0.047 C  
HETATM   40  O   UNL     1      -5.790  12.204  66.753  1.00  0.00    -0.385 OA 
HETATM   41  H   UNL     1      -5.404  12.972  67.156  1.00  0.00     0.000 HD 
ENDBRANCH  38  39
ENDBRANCH  37  38
ENDBRANCH  15  37
ENDBRANCH   9  10
ENDBRANCH   8   9
ENDBRANCH   2   3
TORSDOF 11
ENDMDL
MODEL      145
REMARK 921   NORMALIZED FREE ENERGY PREDICTED BY IDOCK:   -4.05 KCAL/MOL
REMARK 922        TOTAL FREE ENERGY PREDICTED BY IDOCK:   -9.12 KCAL/MOL
REMARK 923 INTER-LIGAND FREE ENERGY PREDICTED BY IDOCK:   -7.50 KCAL/MOL
REMARK 924 INTRA-LIGAND FREE ENERGY PREDICTED BY IDOCK:   -1.62 KCAL/MOL
REMARK 927      BINDING AFFINITY PREDICTED BY RF-SCORE:    0.00 PKD
ROOT
HETATM    1  C   UNL     1      -8.449   8.074  73.633  1.00  0.00    -0.256 C  
HETATM    2  O   UNL     1      -7.523   7.687  72.618  1.00  0.00    -0.076 OA 
ENDROOT
BRANCH   2   3
HETATM    3  C   UNL     1      -6.946   8.690  71.879  1.00  0.00    -0.075 A  
HETATM    4  C   UNL     1      -5.660   9.190  72.150  1.00  0.00    -0.072 A  
HETATM    5  C   UNL     1      -5.127  10.254  71.416  1.00  0.00    -0.081 A  
HETATM    6  C   UNL     1      -5.859  10.823  70.384  1.00  0.00    -0.118 A  
HETATM    7  C   UNL     1      -7.125  10.331  70.090  1.00  0.00    -0.154 A  
HETATM    8  C   UNL     1      -7.679   9.268  70.822  1.00  0.00    -0.139 A  
BRANCH   8   9
HETATM    9  O   UNL     1      -8.966   8.987  70.408  1.00  0.00    -0.168 OA 
BRANCH   9  10
HETATM   10  C   UNL     1      -9.217   8.263  69.288  1.00  0.00    -0.151 A  
HETATM   11  C   UNL     1      -9.341   8.734  68.000  1.00  0.00    -0.142 A  
HETATM   12  N   UNL     1      -9.503   7.957  66.921  1.00  0.00    -0.178 NA 
HETATM   13  N   UNL     1      -9.571   6.066  68.368  1.00  0.00    -0.118 NA 
HETATM   14  C   UNL     1      -9.566   6.627  67.142  1.00  0.00    -0.138 A  
HETATM   15  C   UNL     1      -9.420   6.898  69.412  1.00  0.00    -0.148 A  
BRANCH  11  16
HETATM   16  N   UNL     1      -9.310  10.093  67.604  1.00  0.00    -0.147 N  
HETATM   17  H   UNL     1      -8.497  10.464  67.112  1.00  0.00     0.000 HD 
BRANCH  16  18
HETATM   18  S   UNL     1     -10.612  11.089  67.946  1.00  0.00    -0.222 S  
HETATM   19  O   UNL     1     -11.654  10.848  66.964  1.00  0.00    -0.383 OA 
HETATM   20  O   UNL     1     -10.886  10.919  69.360  1.00  0.00    -0.222 OA 
BRANCH  18  21
HETATM   21  C   UNL     1     -10.046  12.755  67.706  1.00  0.00    -0.224 A  
HETATM   22  C   UNL     1      -9.082  15.385  67.365  1.00  0.00    -0.206 A  
HETATM   23  C   UNL     1      -8.745  13.078  68.087  1.00  0.00    -0.190 A  
HETATM   24  C   UNL     1      -8.274  14.379  67.920  1.00  0.00    -0.157 A  
HETATM   25  C   UNL     1     -10.371  15.016  66.925  1.00  0.00    -0.266 A  
HETATM   26  C   UNL     1     -10.854  13.708  67.089  1.00  0.00    -0.292 A  
BRANCH  22  27
HETATM   27  C   UNL     1      -8.601  16.847  67.277  1.00  0.00    -0.212 C  
HETATM   28  C   UNL     1      -9.746  17.848  66.987  1.00  0.00    -0.298 C  
HETATM   29  C   UNL     1      -7.582  16.983  66.125  1.00  0.00    -0.280 C  
HETATM   30  C   UNL     1      -7.935  17.284  68.596  1.00  0.00    -0.267 C  
ENDBRANCH  22  27
ENDBRANCH  18  21
ENDBRANCH  16  18
ENDBRANCH  11  16
BRANCH  14  31
HETATM   31  C   UNL     1      -9.536   5.728  65.960  1.00  0.00    -0.050 A  
HETATM   32  N   UNL     1     -10.531   4.817  65.834  1.00  0.00    -0.295 NA 
HETATM   33  N   UNL     1      -8.477   5.810  65.118  1.00  0.00    -0.149 NA 
HETATM   34  C   UNL     1      -8.448   4.932  64.101  1.00  0.00    -0.137 A  
HETATM   35  C   UNL     1     -10.440   3.958  64.805  1.00  0.00    -0.150 A  
HETATM   36  C   UNL     1      -9.410   3.972  63.896  1.00  0.00    -0.151 A  
ENDBRANCH  14  31
BRANCH  15  37
HETATM   37  O   UNL     1      -9.497   6.370  70.688  1.00  0.00    -0.164 OA 
BRANCH  37  38
HETATM   38  C   UNL     1     -10.748   5.771  71.047  1.00  0.00    -0.258 C  
BRANCH  38  39
HETATM   39  C   UNL     1     -10.726   5.323  72.505  1.00  0.00    -0.236 C  
HETATM   40  O   UNL     1     -12.042   5.316  73.049  1.00  0.00    -0.528 OA 
HETATM   41  H   UNL     1     -12.029   5.037  73.957  1.00  0.00     0.000 HD 
ENDBRANCH  38  39
ENDBRANCH  37  38
ENDBRANCH  15  37
ENDBRANCH   9  10
ENDBRANCH   8   9
ENDBRANCH   2   3
TORSDOF 11
ENDMDL
MODEL      146
REMARK 921   NORMALIZED FREE ENERGY PREDICTED BY IDOCK:   -4.05 KCAL/MOL
REMARK 922        TOTAL FREE ENERGY PREDICTED BY IDOCK:   -9.11 KCAL/MOL
REMARK 923 INTER-LIGAND FREE ENERGY PREDICTED BY IDOCK:   -8.25 KCAL/MOL
REMARK 924 INTRA-LIGAND FREE ENERGY PREDICTED BY IDOCK:   -0.87 KCAL/MOL
REMARK 927      BINDING AFFINITY PREDICTED BY RF-SCORE:    0.00 PKD
ROOT
HETATM    1  C   UNL     1     -10.866  16.006  67.291  1.00  0.00    -0.255 C  
HETATM    2  O   UNL     1     -11.865  15.011  67.516  1.00  0.00    -0.320 OA 
ENDROOT
BRANCH   2   3
HETATM    3  C   UNL     1     -12.071  14.610  68.813  1.00  0.00    -0.202 A  
HETATM    4  C   UNL     1     -12.325  15.516  69.857  1.00  0.00    -0.306 A  
HETATM    5  C   UNL     1     -12.468  15.079  71.178  1.00  0.00    -0.400 A  
HETATM    6  C   UNL     1     -12.382  13.727  71.476  1.00  0.00    -0.286 A  
HETATM    7  C   UNL     1     -12.149  12.814  70.454  1.00  0.00    -0.382 A  
HETATM    8  C   UNL     1     -11.994  13.236  69.124  1.00  0.00    -0.296 A  
BRANCH   8   9
HETATM    9  O   UNL     1     -11.704  12.177  68.288  1.00  0.00    -0.313 OA 
BRANCH   9  10
HETATM   10  C   UNL     1     -10.692  11.311  68.553  1.00  0.00    -0.201 A  
HETATM   11  C   UNL     1     -10.786  10.079  69.161  1.00  0.00    -0.220 A  
HETATM   12  N   UNL     1      -9.761   9.230  69.315  1.00  0.00    -0.165 NA 
HETATM   13  N   UNL     1      -8.334  10.871  68.343  1.00  0.00    -0.129 NA 
HETATM   14  C   UNL     1      -8.563   9.644  68.851  1.00  0.00    -0.127 A  
HETATM   15  C   UNL     1      -9.399  11.684  68.228  1.00  0.00    -0.191 A  
BRANCH  11  16
HETATM   16  N   UNL     1     -11.960   9.508  69.708  1.00  0.00    -0.341 N  
HETATM   17  H   UNL     1     -12.864   9.672  69.265  1.00  0.00     0.000 HD 
BRANCH  16  18
HETATM   18  S   UNL     1     -11.860   8.562  71.087  1.00  0.00    -0.265 S  
HETATM   19  O   UNL     1     -10.959   9.203  72.028  1.00  0.00    -0.349 OA 
HETATM   20  O   UNL     1     -13.226   8.265  71.470  1.00  0.00    -0.325 OA 
BRANCH  18  21
HETATM   21  C   UNL     1     -11.098   7.035  70.595  1.00  0.00    -0.272 A  
HETATM   22  C   UNL     1      -9.854   4.604  69.885  1.00  0.00    -0.296 A  
HETATM   23  C   UNL     1     -10.412   6.294  71.555  1.00  0.00    -0.266 A  
HETATM   24  C   UNL     1      -9.796   5.096  71.199  1.00  0.00    -0.250 A  
HETATM   25  C   UNL     1     -10.611   5.339  68.948  1.00  0.00    -0.128 A  
HETATM   26  C   UNL     1     -11.235   6.546  69.298  1.00  0.00    -0.390 A  
BRANCH  22  27
HETATM   27  C   UNL     1      -9.086   3.336  69.464  1.00  0.00    -0.200 C  
HETATM   28  C   UNL     1      -7.550   3.528  69.457  1.00  0.00    -0.051 C  
HETATM   29  C   UNL     1      -9.497   2.939  68.030  1.00  0.00    -0.214 C  
HETATM   30  C   UNL     1      -9.395   2.167  70.421  1.00  0.00    -0.187 C  
ENDBRANCH  22  27
ENDBRANCH  18  21
ENDBRANCH  16  18
ENDBRANCH  11  16
BRANCH  14  31
HETATM   31  C   UNL     1      -7.456   8.653  68.817  1.00  0.00    -0.091 A  
HETATM   32  N   UNL     1      -7.179   8.058  67.632  1.00  0.00    -0.089 NA 
HETATM   33  N   UNL     1      -6.840   8.340  69.983  1.00  0.00    -0.042 NA 
HETATM   34  C   UNL     1      -5.894   7.387  69.925  1.00  0.00    -0.024 A  
HETATM   35  C   UNL     1      -6.232   7.105  67.641  1.00  0.00    -0.046 A  
HETATM   36  C   UNL     1      -5.548   6.726  68.770  1.00  0.00    -0.017 A  
ENDBRANCH  14  31
BRANCH  15  37
HETATM   37  O   UNL     1      -9.191  12.977  67.783  1.00  0.00    -0.183 OA 
BRANCH  37  38
HETATM   38  C   UNL     1      -8.185  13.727  68.476  1.00  0.00    -0.124 C  
BRANCH  38  39
HETATM   39  C   UNL     1      -7.444  14.645  67.509  1.00  0.00    -0.195 C  
HETATM   40  O   UNL     1      -6.222  15.099  68.083  1.00  0.00    -0.110 OA 
HETATM   41  H   UNL     1      -5.761  15.671  67.481  1.00  0.00     0.000 HD 
ENDBRANCH  38  39
ENDBRANCH  37  38
ENDBRANCH  15  37
ENDBRANCH   9  10
ENDBRANCH   8   9
ENDBRANCH   2   3
TORSDOF 11
ENDMDL
MODEL      147
REMARK 921   NORMALIZED FREE ENERGY PREDICTED BY IDOCK:   -4.04 KCAL/MOL
REMARK 922        TOTAL FREE ENERGY PREDICTED BY IDOCK:   -9.10 KCAL/MOL
REMARK 923 INTER-LIGAND FREE ENERGY PREDICTED BY IDOCK:   -7.38 KCAL/MOL
REMARK 924 INTRA-LIGAND FREE ENERGY PREDICTED BY IDOCK:   -1.72 KCAL/MOL
REMARK 927      BINDING AFFINITY PREDICTED BY RF-SCORE:    0.00 PKD
ROOT
HETATM    1  C   UNL     1     -10.501  11.636  68.741  1.00  0.00    -0.204 C  
HETATM    2  O   UNL     1     -10.118  10.570  69.611  1.00  0.00    -0.214 OA 
ENDROOT
BRANCH   2   3
HETATM    3  C   UNL     1     -11.086  10.057  70.439  1.00  0.00    -0.327 A  
HETATM    4  C   UNL     1     -12.446  10.389  70.314  1.00  0.00    -0.296 A  
HETATM    5  C   UNL     1     -13.397   9.898  71.213  1.00  0.00    -0.419 A  
HETATM    6  C   UNL     1     -13.010   9.048  72.240  1.00  0.00    -0.490 A  
HETATM    7  C   UNL     1     -11.672   8.696  72.369  1.00  0.00    -0.393 A  
HETATM    8  C   UNL     1     -10.702   9.186  71.480  1.00  0.00    -0.367 A  
BRANCH   8   9
HETATM    9  O   UNL     1      -9.436   8.766  71.833  1.00  0.00    -0.274 OA 
BRANCH   9  10
HETATM   10  C   UNL     1      -8.965   7.540  71.487  1.00  0.00    -0.131 A  
HETATM   11  C   UNL     1      -8.750   7.057  70.216  1.00  0.00    -0.144 A  
HETATM   12  N   UNL     1      -8.198   5.867  69.941  1.00  0.00    -0.115 NA 
HETATM   13  N   UNL     1      -8.125   5.427  72.281  1.00  0.00    -0.107 NA 
HETATM   14  C   UNL     1      -7.858   5.103  71.000  1.00  0.00    -0.097 A  
HETATM   15  C   UNL     1      -8.693   6.627  72.492  1.00  0.00    -0.124 A  
BRANCH  11  16
HETATM   16  N   UNL     1      -9.062   7.724  69.007  1.00  0.00    -0.145 N  
HETATM   17  H   UNL     1      -8.509   8.528  68.709  1.00  0.00     0.000 HD 
BRANCH  16  18
HETATM   18  S   UNL     1     -10.342   7.191  68.069  1.00  0.00    -0.205 S  
HETATM   19  O   UNL     1     -11.259   6.443  68.911  1.00  0.00    -0.343 OA 
HETATM   20  O   UNL     1     -10.809   8.348  67.330  1.00  0.00    -0.213 OA 
BRANCH  18  21
HETATM   21  C   UNL     1      -9.662   6.045  66.895  1.00  0.00    -0.148 A  
HETATM   22  C   UNL     1      -8.652   4.189  65.024  1.00  0.00    -0.117 A  
HETATM   23  C   UNL     1     -10.526   5.163  66.249  1.00  0.00    -0.341 A  
HETATM   24  C   UNL     1     -10.022   4.245  65.329  1.00  0.00    -0.229 A  
HETATM   25  C   UNL     1      -7.810   5.139  65.641  1.00  0.00    -0.096 A  
HETATM   26  C   UNL     1      -8.308   6.066  66.569  1.00  0.00    -0.113 A  
BRANCH  22  27
HETATM   27  C   UNL     1      -8.078   3.108  64.088  1.00  0.00    -0.082 C  
HETATM   28  C   UNL     1      -8.609   3.213  62.638  1.00  0.00    -0.078 C  
HETATM   29  C   UNL     1      -8.476   1.712  64.613  1.00  0.00    -0.086 C  
HETATM   30  C   UNL     1      -6.541   3.203  64.020  1.00  0.00    -0.032 C  
ENDBRANCH  22  27
ENDBRANCH  18  21
ENDBRANCH  16  18
ENDBRANCH  11  16
BRANCH  14  31
HETATM   31  C   UNL     1      -7.060   3.877  70.739  1.00  0.00    -0.033 A  
HETATM   32  N   UNL     1      -6.595   3.682  69.481  1.00  0.00    -0.033 NA 
HETATM   33  N   UNL     1      -6.909   2.984  71.747  1.00  0.00    -0.026 NA 
HETATM   34  C   UNL     1      -6.244   1.853  71.454  1.00  0.00    -0.018 A  
HETATM   35  C   UNL     1      -5.949   2.528  69.247  1.00  0.00    -0.024 A  
HETATM   36  C   UNL     1      -5.740   1.568  70.207  1.00  0.00    -0.017 A  
ENDBRANCH  14  31
BRANCH  15  37
HETATM   37  O   UNL     1      -9.053   6.963  73.785  1.00  0.00    -0.144 OA 
BRANCH  37  38
HETATM   38  C   UNL     1     -10.261   6.369  74.276  1.00  0.00    -0.344 C  
BRANCH  38  39
HETATM   39  C   UNL     1     -10.695   5.218  73.374  1.00  0.00    -0.281 C  
HETATM   40  O   UNL     1     -12.095   5.279  73.118  1.00  0.00    -0.532 OA 
HETATM   41  H   UNL     1     -12.365   4.562  72.556  1.00  0.00     0.000 HD 
ENDBRANCH  38  39
ENDBRANCH  37  38
ENDBRANCH  15  37
ENDBRANCH   9  10
ENDBRANCH   8   9
ENDBRANCH   2   3
TORSDOF 11
ENDMDL
MODEL      148
REMARK 921   NORMALIZED FREE ENERGY PREDICTED BY IDOCK:   -4.01 KCAL/MOL
REMARK 922        TOTAL FREE ENERGY PREDICTED BY IDOCK:   -9.05 KCAL/MOL
REMARK 923 INTER-LIGAND FREE ENERGY PREDICTED BY IDOCK:   -7.29 KCAL/MOL
REMARK 924 INTRA-LIGAND FREE ENERGY PREDICTED BY IDOCK:   -1.76 KCAL/MOL
REMARK 927      BINDING AFFINITY PREDICTED BY RF-SCORE:    0.00 PKD
ROOT
HETATM    1  C   UNL     1      -5.855   7.463  73.598  1.00  0.00    -0.053 C  
HETATM    2  O   UNL     1      -6.233   6.613  72.515  1.00  0.00    -0.048 OA 
ENDROOT
BRANCH   2   3
HETATM    3  C   UNL     1      -7.126   5.606  72.789  1.00  0.00    -0.089 A  
HETATM    4  C   UNL     1      -6.998   4.760  73.904  1.00  0.00    -0.076 A  
HETATM    5  C   UNL     1      -7.890   3.706  74.120  1.00  0.00    -0.071 A  
HETATM    6  C   UNL     1      -8.940   3.491  73.238  1.00  0.00    -0.104 A  
HETATM    7  C   UNL     1      -9.093   4.328  72.139  1.00  0.00    -0.150 A  
HETATM    8  C   UNL     1      -8.201   5.387  71.903  1.00  0.00    -0.119 A  
BRANCH   8   9
HETATM    9  O   UNL     1      -8.498   6.043  70.726  1.00  0.00    -0.127 OA 
BRANCH   9  10
HETATM   10  C   UNL     1      -8.119   7.328  70.504  1.00  0.00    -0.109 A  
HETATM   11  C   UNL     1      -8.682   8.468  71.032  1.00  0.00    -0.173 A  
HETATM   12  N   UNL     1      -8.206   9.705  70.844  1.00  0.00    -0.245 NA 
HETATM   13  N   UNL     1      -6.545   8.783  69.407  1.00  0.00    -0.044 NA 
HETATM   14  C   UNL     1      -7.110   9.816  70.064  1.00  0.00    -0.118 A  
HETATM   15  C   UNL     1      -7.077   7.568  69.623  1.00  0.00    -0.064 A  
BRANCH  11  16
HETATM   16  N   UNL     1      -9.834   8.523  71.854  1.00  0.00    -0.259 N  
HETATM   17  H   UNL     1      -9.738   8.545  72.869  1.00  0.00     0.000 HD 
BRANCH  16  18
HETATM   18  S   UNL     1     -11.355   8.554  71.153  1.00  0.00    -0.281 S  
HETATM   19  O   UNL     1     -11.495   7.392  70.293  1.00  0.00    -0.261 OA 
HETATM   20  O   UNL     1     -12.291   8.777  72.238  1.00  0.00    -0.373 OA 
BRANCH  18  21
HETATM   21  C   UNL     1     -11.397   9.986  70.105  1.00  0.00    -0.291 A  
HETATM   22  C   UNL     1     -11.429  12.222  68.383  1.00  0.00    -0.356 A  
HETATM   23  C   UNL     1     -10.994   9.852  68.778  1.00  0.00    -0.217 A  
HETATM   24  C   UNL     1     -11.007  10.960  67.932  1.00  0.00    -0.325 A  
HETATM   25  C   UNL     1     -11.896  12.315  69.711  1.00  0.00    -0.388 A  
HETATM   26  C   UNL     1     -11.887  11.205  70.570  1.00  0.00    -0.448 A  
BRANCH  22  27
HETATM   27  C   UNL     1     -11.345  13.469  67.481  1.00  0.00    -0.335 C  
HETATM   28  C   UNL     1     -12.414  13.485  66.362  1.00  0.00    -0.349 C  
HETATM   29  C   UNL     1      -9.966  13.507  66.787  1.00  0.00    -0.269 C  
HETATM   30  C   UNL     1     -11.531  14.756  68.309  1.00  0.00    -0.338 C  
ENDBRANCH  22  27
ENDBRANCH  18  21
ENDBRANCH  16  18
ENDBRANCH  11  16
BRANCH  14  31
HETATM   31  C   UNL     1      -6.436  11.138  70.003  1.00  0.00    -0.133 A  
HETATM   32  N   UNL     1      -5.788  11.569  71.113  1.00  0.00    -0.367 NA 
HETATM   33  N   UNL     1      -6.572  11.876  68.874  1.00  0.00    -0.080 NA 
HETATM   34  C   UNL     1      -6.011  13.097  68.883  1.00  0.00    -0.079 A  
HETATM   35  C   UNL     1      -5.258  12.802  71.064  1.00  0.00    -0.165 A  
HETATM   36  C   UNL     1      -5.338  13.619  69.963  1.00  0.00    -0.099 A  
ENDBRANCH  14  31
BRANCH  15  37
HETATM   37  O   UNL     1      -6.575   6.496  68.908  1.00  0.00    -0.044 OA 
BRANCH  37  38
HETATM   38  C   UNL     1      -6.422   6.697  67.497  1.00  0.00    -0.045 C  
BRANCH  38  39
HETATM   39  C   UNL     1      -7.777   6.638  66.800  1.00  0.00    -0.106 C  
HETATM   40  O   UNL     1      -7.687   5.899  65.587  1.00  0.00    -0.090 OA 
HETATM   41  H   UNL     1      -8.531   5.861  65.152  1.00  0.00     0.000 HD 
ENDBRANCH  38  39
ENDBRANCH  37  38
ENDBRANCH  15  37
ENDBRANCH   9  10
ENDBRANCH   8   9
ENDBRANCH   2   3
TORSDOF 11
ENDMDL
MODEL      149
REMARK 921   NORMALIZED FREE ENERGY PREDICTED BY IDOCK:   -3.94 KCAL/MOL
REMARK 922        TOTAL FREE ENERGY PREDICTED BY IDOCK:   -8.93 KCAL/MOL
REMARK 923 INTER-LIGAND FREE ENERGY PREDICTED BY IDOCK:   -7.31 KCAL/MOL
REMARK 924 INTRA-LIGAND FREE ENERGY PREDICTED BY IDOCK:   -1.63 KCAL/MOL
REMARK 927      BINDING AFFINITY PREDICTED BY RF-SCORE:    0.00 PKD
ROOT
HETATM    1  C   UNL     1      -5.462   7.964  69.671  1.00  0.00    -0.023 C  
HETATM    2  O   UNL     1      -6.823   8.374  69.536  1.00  0.00    -0.041 OA 
ENDROOT
BRANCH   2   3
HETATM    3  C   UNL     1      -7.617   8.297  70.654  1.00  0.00    -0.071 A  
HETATM    4  C   UNL     1      -7.094   8.319  71.958  1.00  0.00    -0.099 A  
HETATM    5  C   UNL     1      -7.925   8.176  73.074  1.00  0.00    -0.220 A  
HETATM    6  C   UNL     1      -9.295   8.030  72.907  1.00  0.00    -0.338 A  
HETATM    7  C   UNL     1      -9.831   8.023  71.625  1.00  0.00    -0.223 A  
HETATM    8  C   UNL     1      -9.011   8.158  70.494  1.00  0.00    -0.145 A  
BRANCH   8   9
HETATM    9  O   UNL     1      -9.741   8.055  69.327  1.00  0.00    -0.163 OA 
BRANCH   9  10
HETATM   10  C   UNL     1     -10.022   9.139  68.559  1.00  0.00    -0.174 A  
HETATM   11  C   UNL     1      -9.293   9.621  67.495  1.00  0.00    -0.130 A  
HETATM   12  N   UNL     1      -9.671  10.645  66.720  1.00  0.00    -0.180 NA 
HETATM   13  N   UNL     1     -11.576  10.926  68.121  1.00  0.00    -0.501 NA 
HETATM   14  C   UNL     1     -10.839  11.241  67.037  1.00  0.00    -0.280 A  
HETATM   15  C   UNL     1     -11.138   9.899  68.869  1.00  0.00    -0.140 A  
BRANCH  11  16
HETATM   16  N   UNL     1      -8.048   9.119  67.044  1.00  0.00    -0.109 N  
HETATM   17  H   UNL     1      -7.219   9.203  67.632  1.00  0.00     0.000 HD 
BRANCH  16  18
HETATM   18  S   UNL     1      -7.941   8.389  65.541  1.00  0.00    -0.122 S  
HETATM   19  O   UNL     1      -9.177   8.628  64.817  1.00  0.00     0.093 OA 
HETATM   20  O   UNL     1      -6.672   8.810  64.979  1.00  0.00    -0.068 OA 
BRANCH  18  21
HETATM   21  C   UNL     1      -7.842   6.641  65.837  1.00  0.00    -0.102 A  
HETATM   22  C   UNL     1      -7.730   3.850  66.245  1.00  0.00    -0.089 A  
HETATM   23  C   UNL     1      -8.392   5.774  64.895  1.00  0.00    -0.127 A  
HETATM   24  C   UNL     1      -8.338   4.397  65.102  1.00  0.00    -0.116 A  
HETATM   25  C   UNL     1      -7.121   4.748  67.148  1.00  0.00    -0.072 A  
HETATM   26  C   UNL     1      -7.170   6.135  66.948  1.00  0.00    -0.074 A  
BRANCH  22  27
HETATM   27  C   UNL     1      -7.762   2.336  66.528  1.00  0.00    -0.071 C  
HETATM   28  C   UNL     1      -9.190   1.740  66.495  1.00  0.00     0.019 C  
HETATM   29  C   UNL     1      -7.195   2.067  67.939  1.00  0.00    -0.047 C  
HETATM   30  C   UNL     1      -6.921   1.567  65.490  1.00  0.00    -0.042 C  
ENDBRANCH  22  27
ENDBRANCH  18  21
ENDBRANCH  16  18
ENDBRANCH  11  16
BRANCH  14  31
HETATM   31  C   UNL     1     -11.388  12.238  66.082  1.00  0.00    -0.353 A  
HETATM   32  N   UNL     1     -11.251  11.986  64.758  1.00  0.00    -0.316 NA 
HETATM   33  N   UNL     1     -11.921  13.380  66.582  1.00  0.00    -0.397 NA 
HETATM   34  C   UNL     1     -12.341  14.290  65.687  1.00  0.00    -0.405 A  
HETATM   35  C   UNL     1     -11.678  12.939  63.913  1.00  0.00    -0.460 A  
HETATM   36  C   UNL     1     -12.239  14.123  64.327  1.00  0.00    -0.449 A  
ENDBRANCH  14  31
BRANCH  15  37
HETATM   37  O   UNL     1     -11.824   9.595  70.031  1.00  0.00    -0.116 OA 
BRANCH  37  38
HETATM   38  C   UNL     1     -12.908  10.470  70.369  1.00  0.00    -0.206 C  
BRANCH  38  39
HETATM   39  C   UNL     1     -13.191  10.415  71.867  1.00  0.00    -0.429 C  
HETATM   40  O   UNL     1     -13.268  11.727  72.413  1.00  0.00    -0.520 OA 
HETATM   41  H   UNL     1     -13.444  11.693  73.347  1.00  0.00     0.000 HD 
ENDBRANCH  38  39
ENDBRANCH  37  38
ENDBRANCH  15  37
ENDBRANCH   9  10
ENDBRANCH   8   9
ENDBRANCH   2   3
TORSDOF 11
ENDMDL
MODEL      150
REMARK 921   NORMALIZED FREE ENERGY PREDICTED BY IDOCK:   -3.92 KCAL/MOL
REMARK 922        TOTAL FREE ENERGY PREDICTED BY IDOCK:   -8.90 KCAL/MOL
REMARK 923 INTER-LIGAND FREE ENERGY PREDICTED BY IDOCK:   -7.00 KCAL/MOL
REMARK 924 INTRA-LIGAND FREE ENERGY PREDICTED BY IDOCK:   -1.91 KCAL/MOL
REMARK 927      BINDING AFFINITY PREDICTED BY RF-SCORE:    0.00 PKD
ROOT
HETATM    1  C   UNL     1      -5.682   8.452  65.438  1.00  0.00    -0.044 C  
HETATM    2  O   UNL     1      -6.795   9.343  65.494  1.00  0.00    -0.075 OA 
ENDROOT
BRANCH   2   3
HETATM    3  C   UNL     1      -6.599  10.555  66.110  1.00  0.00    -0.123 A  
HETATM    4  C   UNL     1      -5.328  11.013  66.495  1.00  0.00    -0.103 A  
HETATM    5  C   UNL     1      -5.170  12.224  67.177  1.00  0.00    -0.053 A  
HETATM    6  C   UNL     1      -6.278  13.010  67.465  1.00  0.00    -0.143 A  
HETATM    7  C   UNL     1      -7.541  12.580  67.077  1.00  0.00    -0.020 A  
HETATM    8  C   UNL     1      -7.718  11.363  66.399  1.00  0.00    -0.051 A  
BRANCH   8   9
HETATM    9  O   UNL     1      -9.054  11.103  66.171  1.00  0.00    -0.189 OA 
BRANCH   9  10
HETATM   10  C   UNL     1      -9.867  10.618  67.144  1.00  0.00    -0.175 A  
HETATM   11  C   UNL     1      -9.815   9.375  67.734  1.00  0.00    -0.170 A  
HETATM   12  N   UNL     1     -10.592   8.987  68.754  1.00  0.00    -0.201 NA 
HETATM   13  N   UNL     1     -11.707  11.088  68.626  1.00  0.00    -0.412 NA 
HETATM   14  C   UNL     1     -11.492   9.888  69.201  1.00  0.00     0.036 A  
HETATM   15  C   UNL     1     -10.906  11.416  67.598  1.00  0.00    -0.237 A  
BRANCH  11  16
HETATM   16  N   UNL     1      -8.943   8.320  67.375  1.00  0.00    -0.133 N  
HETATM   17  H   UNL     1      -7.949   8.502  67.235  1.00  0.00     0.000 HD 
BRANCH  16  18
HETATM   18  S   UNL     1      -9.548   6.770  67.180  1.00  0.00    -0.152 S  
HETATM   19  O   UNL     1     -10.923   6.860  66.723  1.00  0.00    -0.329 OA 
HETATM   20  O   UNL     1      -8.563   6.050  66.396  1.00  0.00    -0.121 OA 
BRANCH  18  21
HETATM   21  C   UNL     1      -9.584   6.038  68.797  1.00  0.00    -0.129 A  
HETATM   22  C   UNL     1      -9.563   4.865  71.365  1.00  0.00    -0.226 A  
HETATM   23  C   UNL     1      -8.374   5.764  69.432  1.00  0.00    -0.112 A  
HETATM   24  C   UNL     1      -8.368   5.182  70.698  1.00  0.00    -0.111 A  
HETATM   25  C   UNL     1     -10.774   5.215  70.729  1.00  0.00    -0.132 A  
HETATM   26  C   UNL     1     -10.790   5.802  69.455  1.00  0.00    -0.410 A  
BRANCH  22  27
HETATM   27  C   UNL     1      -9.560   4.125  72.716  1.00  0.00    -0.170 C  
HETATM   28  C   UNL     1      -8.143   3.948  73.311  1.00  0.00    -0.088 C  
HETATM   29  C   UNL     1     -10.149   2.711  72.527  1.00  0.00    -0.232 C  
HETATM   30  C   UNL     1     -10.401   4.888  73.759  1.00  0.00    -0.273 C  
ENDBRANCH  22  27
ENDBRANCH  18  21
ENDBRANCH  16  18
ENDBRANCH  11  16
BRANCH  14  31
HETATM   31  C   UNL     1     -12.222   9.571  70.455  1.00  0.00    -0.034 A  
HETATM   32  N   UNL     1     -13.296  10.334  70.771  1.00  0.00    -0.251 NA 
HETATM   33  N   UNL     1     -11.730   8.592  71.254  1.00  0.00    -0.279 NA 
HETATM   34  C   UNL     1     -12.374   8.383  72.415  1.00  0.00    -0.351 A  
HETATM   35  C   UNL     1     -13.890  10.086  71.950  1.00  0.00    -0.040 A  
HETATM   36  C   UNL     1     -13.469   9.110  72.820  1.00  0.00    -0.258 A  
ENDBRANCH  14  31
BRANCH  15  37
HETATM   37  O   UNL     1     -11.145  12.605  66.933  1.00  0.00    -0.254 OA 
BRANCH  37  38
HETATM   38  C   UNL     1     -11.814  13.623  67.688  1.00  0.00    -0.369 C  
BRANCH  38  39
HETATM   39  C   UNL     1     -11.564  14.995  67.070  1.00  0.00    -0.240 C  
HETATM   40  O   UNL     1     -11.247  15.950  68.078  1.00  0.00    -0.343 OA 
HETATM   41  H   UNL     1     -11.091  16.805  67.693  1.00  0.00     0.000 HD 
ENDBRANCH  38  39
ENDBRANCH  37  38
ENDBRANCH  15  37
ENDBRANCH   9  10
ENDBRANCH   8   9
ENDBRANCH   2   3
TORSDOF 11
ENDMDL
MODEL      151
REMARK 921   NORMALIZED FREE ENERGY PREDICTED BY IDOCK:   -3.90 KCAL/MOL
REMARK 922        TOTAL FREE ENERGY PREDICTED BY IDOCK:   -8.87 KCAL/MOL
REMARK 923 INTER-LIGAND FREE ENERGY PREDICTED BY IDOCK:   -7.45 KCAL/MOL
REMARK 924 INTRA-LIGAND FREE ENERGY PREDICTED BY IDOCK:   -1.42 KCAL/MOL
REMARK 927      BINDING AFFINITY PREDICTED BY RF-SCORE:    0.00 PKD
ROOT
HETATM    1  C   UNL     1      -8.534   8.398  72.408  1.00  0.00    -0.172 C  
HETATM    2  O   UNL     1      -7.339   8.934  71.838  1.00  0.00    -0.281 OA 
ENDROOT
BRANCH   2   3
HETATM    3  C   UNL     1      -7.016   8.531  70.566  1.00  0.00    -0.040 A  
HETATM    4  C   UNL     1      -6.623   7.216  70.263  1.00  0.00    -0.044 A  
HETATM    5  C   UNL     1      -6.240   6.854  68.968  1.00  0.00    -0.027 A  
HETATM    6  C   UNL     1      -6.264   7.795  67.947  1.00  0.00    -0.050 A  
HETATM    7  C   UNL     1      -6.666   9.096  68.225  1.00  0.00    -0.060 A  
HETATM    8  C   UNL     1      -7.046   9.478  69.521  1.00  0.00    -0.068 A  
BRANCH   8   9
HETATM    9  O   UNL     1      -7.340  10.825  69.585  1.00  0.00    -0.145 OA 
BRANCH   9  10
HETATM   10  C   UNL     1      -8.186  11.417  68.704  1.00  0.00    -0.142 A  
HETATM   11  C   UNL     1      -7.938  12.522  67.921  1.00  0.00    -0.157 A  
HETATM   12  N   UNL     1      -8.785  13.007  67.004  1.00  0.00    -0.210 NA 
HETATM   13  N   UNL     1     -10.357  11.343  67.662  1.00  0.00    -0.179 NA 
HETATM   14  C   UNL     1      -9.963  12.362  66.873  1.00  0.00    -0.215 A  
HETATM   15  C   UNL     1      -9.469  10.910  68.574  1.00  0.00    -0.185 A  
BRANCH  11  16
HETATM   16  N   UNL     1      -6.764  13.313  67.946  1.00  0.00    -0.125 N  
HETATM   17  H   UNL     1      -6.013  13.137  67.279  1.00  0.00     0.000 HD 
BRANCH  16  18
HETATM   18  S   UNL     1      -6.612  14.540  69.076  1.00  0.00    -0.108 S  
HETATM   19  O   UNL     1      -7.771  14.515  69.951  1.00  0.00     0.101 OA 
HETATM   20  O   UNL     1      -5.277  14.415  69.628  1.00  0.00    -0.091 OA 
BRANCH  18  21
HETATM   21  C   UNL     1      -6.676  16.067  68.172  1.00  0.00    -0.124 A  
HETATM   22  C   UNL     1      -6.719  18.521  66.778  1.00  0.00    -0.211 A  
HETATM   23  C   UNL     1      -5.677  17.013  68.390  1.00  0.00    -0.132 A  
HETATM   24  C   UNL     1      -5.703  18.225  67.702  1.00  0.00    -0.150 A  
HETATM   25  C   UNL     1      -7.680  17.519  66.525  1.00  0.00    -0.310 A  
HETATM   26  C   UNL     1      -7.661  16.296  67.212  1.00  0.00    -0.203 A  
BRANCH  22  27
HETATM   27  C   UNL     1      -6.810  19.899  66.096  1.00  0.00    -0.253 C  
HETATM   28  C   UNL     1      -6.000  20.996  66.827  1.00  0.00    -0.325 C  
HETATM   29  C   UNL     1      -8.282  20.365  66.077  1.00  0.00    -0.002 C  
HETATM   30  C   UNL     1      -6.282  19.830  64.649  1.00  0.00    -0.308 C  
ENDBRANCH  22  27
ENDBRANCH  18  21
ENDBRANCH  16  18
ENDBRANCH  11  16
BRANCH  14  31
HETATM   31  C   UNL     1     -10.835  12.741  65.731  1.00  0.00    -0.272 A  
HETATM   32  N   UNL     1     -10.646  12.102  64.552  1.00  0.00    -0.292 NA 
HETATM   33  N   UNL     1     -11.715  13.758  65.906  1.00  0.00    -0.338 NA 
HETATM   34  C   UNL     1     -12.434  14.122  64.831  1.00  0.00    -0.401 A  
HETATM   35  C   UNL     1     -11.386  12.518  63.512  1.00  0.00    -0.486 A  
HETATM   36  C   UNL     1     -12.307  13.533  63.595  1.00  0.00    -0.377 A  
ENDBRANCH  14  31
BRANCH  15  37
HETATM   37  O   UNL     1      -9.864   9.918  69.453  1.00  0.00    -0.191 OA 
BRANCH  37  38
HETATM   38  C   UNL     1     -10.640   8.851  68.892  1.00  0.00    -0.165 C  
BRANCH  38  39
HETATM   39  C   UNL     1     -10.893   7.769  69.936  1.00  0.00    -0.226 C  
HETATM   40  O   UNL     1     -12.149   7.971  70.576  1.00  0.00    -0.489 OA 
HETATM   41  H   UNL     1     -12.307   7.297  71.227  1.00  0.00     0.000 HD 
ENDBRANCH  38  39
ENDBRANCH  37  38
ENDBRANCH  15  37
ENDBRANCH   9  10
ENDBRANCH   8   9
ENDBRANCH   2   3
TORSDOF 11
ENDMDL
MODEL      152
REMARK 921   NORMALIZED FREE ENERGY PREDICTED BY IDOCK:   -3.80 KCAL/MOL
REMARK 922        TOTAL FREE ENERGY PREDICTED BY IDOCK:   -8.71 KCAL/MOL
REMARK 923 INTER-LIGAND FREE ENERGY PREDICTED BY IDOCK:   -8.07 KCAL/MOL
REMARK 924 INTRA-LIGAND FREE ENERGY PREDICTED BY IDOCK:   -0.64 KCAL/MOL
REMARK 927      BINDING AFFINITY PREDICTED BY RF-SCORE:    0.00 PKD
ROOT
HETATM    1  C   UNL     1      -5.510  19.480  69.975  1.00  0.00    -0.224 C  
HETATM    2  O   UNL     1      -6.197  19.065  68.794  1.00  0.00    -0.222 OA 
ENDROOT
BRANCH   2   3
HETATM    3  C   UNL     1      -7.569  19.047  68.840  1.00  0.00    -0.320 A  
HETATM    4  C   UNL     1      -8.332  20.175  69.186  1.00  0.00     0.369 A  
HETATM    5  C   UNL     1      -9.726  20.105  69.284  1.00  0.00     0.026 A  
HETATM    6  C   UNL     1     -10.383  18.913  69.016  1.00  0.00    -0.048 A  
HETATM    7  C   UNL     1      -9.646  17.791  68.655  1.00  0.00    -0.322 A  
HETATM    8  C   UNL     1      -8.246  17.841  68.560  1.00  0.00    -0.296 A  
BRANCH   8   9
HETATM    9  O   UNL     1      -7.716  16.603  68.257  1.00  0.00    -0.170 OA 
BRANCH   9  10
HETATM   10  C   UNL     1      -8.328  15.753  67.393  1.00  0.00    -0.168 A  
HETATM   11  C   UNL     1      -8.658  14.435  67.612  1.00  0.00    -0.185 A  
HETATM   12  N   UNL     1      -9.341  13.672  66.749  1.00  0.00    -0.258 NA 
HETATM   13  N   UNL     1      -9.332  15.497  65.219  1.00  0.00    -0.037 NA 
HETATM   14  C   UNL     1      -9.700  14.253  65.585  1.00  0.00    -0.205 A  
HETATM   15  C   UNL     1      -8.635  16.209  66.121  1.00  0.00    -0.296 A  
BRANCH  11  16
HETATM   16  N   UNL     1      -8.346  13.679  68.768  1.00  0.00    -0.342 N  
HETATM   17  H   UNL     1      -8.855  13.839  69.637  1.00  0.00     0.000 HD 
BRANCH  16  18
HETATM   18  S   UNL     1      -7.137  12.522  68.703  1.00  0.00    -0.096 S  
HETATM   19  O   UNL     1      -6.439  12.646  67.436  1.00  0.00    -0.149 OA 
HETATM   20  O   UNL     1      -6.409  12.633  69.952  1.00  0.00    -0.114 OA 
BRANCH  18  21
HETATM   21  C   UNL     1      -7.952  10.944  68.697  1.00  0.00    -0.140 A  
HETATM   22  C   UNL     1      -9.184   8.405  68.649  1.00  0.00    -0.143 A  
HETATM   23  C   UNL     1      -7.240   9.829  68.258  1.00  0.00    -0.078 A  
HETATM   24  C   UNL     1      -7.854   8.578  68.233  1.00  0.00    -0.106 A  
HETATM   25  C   UNL     1      -9.860   9.538  69.153  1.00  0.00    -0.176 A  
HETATM   26  C   UNL     1      -9.250  10.801  69.183  1.00  0.00    -0.131 A  
BRANCH  22  27
HETATM   27  C   UNL     1      -9.898   7.046  68.523  1.00  0.00    -0.147 C  
HETATM   28  C   UNL     1     -10.542   6.822  67.133  1.00  0.00    -0.401 C  
HETATM   29  C   UNL     1     -11.036   6.966  69.564  1.00  0.00    -0.289 C  
HETATM   30  C   UNL     1      -8.911   5.886  68.761  1.00  0.00    -0.117 C  
ENDBRANCH  22  27
ENDBRANCH  18  21
ENDBRANCH  16  18
ENDBRANCH  11  16
BRANCH  14  31
HETATM   31  C   UNL     1     -10.631  13.508  64.699  1.00  0.00    -0.427 A  
HETATM   32  N   UNL     1     -11.781  14.123  64.331  1.00  0.00    -0.403 NA 
HETATM   33  N   UNL     1     -10.321  12.229  64.372  1.00  0.00    -0.314 NA 
HETATM   34  C   UNL     1     -11.221  11.563  63.630  1.00  0.00    -0.362 A  
HETATM   35  C   UNL     1     -12.646  13.402  63.600  1.00  0.00    -0.088 A  
HETATM   36  C   UNL     1     -12.415  12.104  63.214  1.00  0.00    -0.528 A  
ENDBRANCH  14  31
BRANCH  15  37
HETATM   37  O   UNL     1      -8.174  17.460  65.754  1.00  0.00    -0.540 OA 
BRANCH  37  38
HETATM   38  C   UNL     1      -6.750  17.609  65.678  1.00  0.00     0.008 C  
BRANCH  38  39
HETATM   39  C   UNL     1      -6.385  19.011  65.200  1.00  0.00    -0.274 C  
HETATM   40  O   UNL     1      -7.486  19.899  65.361  1.00  0.00    -0.361 OA 
HETATM   41  H   UNL     1      -7.259  20.773  65.064  1.00  0.00     0.000 HD 
ENDBRANCH  38  39
ENDBRANCH  37  38
ENDBRANCH  15  37
ENDBRANCH   9  10
ENDBRANCH   8   9
ENDBRANCH   2   3
TORSDOF 11
ENDMDL
MODEL      153
REMARK 921   NORMALIZED FREE ENERGY PREDICTED BY IDOCK:   -3.78 KCAL/MOL
REMARK 922        TOTAL FREE ENERGY PREDICTED BY IDOCK:   -8.67 KCAL/MOL
REMARK 923 INTER-LIGAND FREE ENERGY PREDICTED BY IDOCK:   -7.26 KCAL/MOL
REMARK 924 INTRA-LIGAND FREE ENERGY PREDICTED BY IDOCK:   -1.40 KCAL/MOL
REMARK 927      BINDING AFFINITY PREDICTED BY RF-SCORE:    0.00 PKD
ROOT
HETATM    1  C   UNL     1      -5.715  13.480  69.077  1.00  0.00    -0.076 C  
HETATM    2  O   UNL     1      -6.226  13.018  67.826  1.00  0.00    -0.118 OA 
ENDROOT
BRANCH   2   3
HETATM    3  C   UNL     1      -7.591  13.007  67.671  1.00  0.00    -0.160 A  
HETATM    4  C   UNL     1      -8.439  13.899  68.349  1.00  0.00    -0.159 A  
HETATM    5  C   UNL     1      -9.829  13.820  68.217  1.00  0.00    -0.232 A  
HETATM    6  C   UNL     1     -10.395  12.863  67.386  1.00  0.00    -0.233 A  
HETATM    7  C   UNL     1      -9.571  11.984  66.694  1.00  0.00    -0.225 A  
HETATM    8  C   UNL     1      -8.174  12.044  66.822  1.00  0.00    -0.110 A  
BRANCH   8   9
HETATM    9  O   UNL     1      -7.558  11.039  66.103  1.00  0.00    -0.145 OA 
BRANCH   9  10
HETATM   10  C   UNL     1      -7.703   9.730  66.431  1.00  0.00    -0.102 A  
HETATM   11  C   UNL     1      -7.366   9.125  67.621  1.00  0.00    -0.087 A  
HETATM   12  N   UNL     1      -7.616   7.842  67.916  1.00  0.00    -0.107 NA 
HETATM   13  N   UNL     1      -8.492   7.569  65.718  1.00  0.00    -0.141 NA 
HETATM   14  C   UNL     1      -8.221   7.111  66.956  1.00  0.00    -0.117 A  
HETATM   15  C   UNL     1      -8.205   8.860  65.477  1.00  0.00    -0.129 A  
BRANCH  11  16
HETATM   16  N   UNL     1      -6.719   9.745  68.717  1.00  0.00    -0.050 N  
HETATM   17  H   UNL     1      -6.131  10.564  68.567  1.00  0.00     0.000 HD 
BRANCH  16  18
HETATM   18  S   UNL     1      -6.923   9.129  70.260  1.00  0.00    -0.070 S  
HETATM   19  O   UNL     1      -6.601   7.713  70.244  1.00  0.00    -0.038 OA 
HETATM   20  O   UNL     1      -6.214  10.029  71.149  1.00  0.00    -0.254 OA 
BRANCH  18  21
HETATM   21  C   UNL     1      -8.654   9.264  70.631  1.00  0.00    -0.225 A  
HETATM   22  C   UNL     1     -11.413   9.535  71.165  1.00  0.00    -0.430 A  
HETATM   23  C   UNL     1      -9.447  10.075  69.821  1.00  0.00    -0.239 A  
HETATM   24  C   UNL     1     -10.808  10.209  70.091  1.00  0.00    -0.368 A  
HETATM   25  C   UNL     1     -10.601   8.668  71.928  1.00  0.00    -0.411 A  
HETATM   26  C   UNL     1      -9.230   8.526  71.663  1.00  0.00    -0.304 A  
BRANCH  22  27
HETATM   27  C   UNL     1     -12.892   9.764  71.530  1.00  0.00    -0.502 C  
HETATM   28  C   UNL     1     -13.354   8.934  72.752  1.00  0.00    -0.251 C  
HETATM   29  C   UNL     1     -13.783   9.346  70.340  1.00  0.00     0.737 C  
HETATM   30  C   UNL     1     -13.151  11.247  71.860  1.00  0.00    -0.510 C  
ENDBRANCH  22  27
ENDBRANCH  18  21
ENDBRANCH  16  18
ENDBRANCH  11  16
BRANCH  14  31
HETATM   31  C   UNL     1      -8.698   5.752  67.320  1.00  0.00    -0.108 A  
HETATM   32  N   UNL     1      -8.589   5.371  68.616  1.00  0.00    -0.095 NA 
HETATM   33  N   UNL     1      -9.138   4.939  66.329  1.00  0.00    -0.123 NA 
HETATM   34  C   UNL     1      -9.492   3.693  66.685  1.00  0.00    -0.176 A  
HETATM   35  C   UNL     1      -8.946   4.109  68.908  1.00  0.00    -0.113 A  
HETATM   36  C   UNL     1      -9.413   3.218  67.973  1.00  0.00    -0.217 A  
ENDBRANCH  14  31
BRANCH  15  37
HETATM   37  O   UNL     1      -8.397   9.346  64.196  1.00  0.00    -0.147 OA 
BRANCH  37  38
HETATM   38  C   UNL     1      -9.580  10.128  63.990  1.00  0.00    -0.257 C  
BRANCH  38  39
HETATM   39  C   UNL     1      -9.378  11.108  62.839  1.00  0.00    -0.364 C  
HETATM   40  O   UNL     1      -9.719  12.431  63.238  1.00  0.00    -0.608 OA 
HETATM   41  H   UNL     1      -9.593  13.042  62.521  1.00  0.00     0.000 HD 
ENDBRANCH  38  39
ENDBRANCH  37  38
ENDBRANCH  15  37
ENDBRANCH   9  10
ENDBRANCH   8   9
ENDBRANCH   2   3
TORSDOF 11
ENDMDL
MODEL      154
REMARK 921   NORMALIZED FREE ENERGY PREDICTED BY IDOCK:   -3.71 KCAL/MOL
REMARK 922        TOTAL FREE ENERGY PREDICTED BY IDOCK:   -8.57 KCAL/MOL
REMARK 923 INTER-LIGAND FREE ENERGY PREDICTED BY IDOCK:   -7.70 KCAL/MOL
REMARK 924 INTRA-LIGAND FREE ENERGY PREDICTED BY IDOCK:   -0.87 KCAL/MOL
REMARK 927      BINDING AFFINITY PREDICTED BY RF-SCORE:    0.00 PKD
ROOT
HETATM    1  C   UNL     1      -9.946  19.116  69.192  1.00  0.00    -0.274 C  
HETATM    2  O   UNL     1     -10.146  17.705  69.111  1.00  0.00    -0.319 OA 
ENDROOT
BRANCH   2   3
HETATM    3  C   UNL     1     -10.217  17.152  67.856  1.00  0.00    -0.330 A  
HETATM    4  C   UNL     1     -10.763  17.835  66.755  1.00  0.00    -0.142 A  
HETATM    5  C   UNL     1     -10.877  17.220  65.505  1.00  0.00    -0.024 A  
HETATM    6  C   UNL     1     -10.427  15.920  65.325  1.00  0.00    -0.403 A  
HETATM    7  C   UNL     1      -9.869  15.234  66.398  1.00  0.00    -0.295 A  
HETATM    8  C   UNL     1      -9.754  15.834  67.663  1.00  0.00    -0.222 A  
BRANCH   8   9
HETATM    9  O   UNL     1      -9.237  14.955  68.592  1.00  0.00    -0.182 OA 
BRANCH   9  10
HETATM   10  C   UNL     1      -8.546  13.846  68.225  1.00  0.00    -0.177 A  
HETATM   11  C   UNL     1      -8.960  12.536  68.315  1.00  0.00    -0.178 A  
HETATM   12  N   UNL     1      -8.265  11.488  67.853  1.00  0.00    -0.128 NA 
HETATM   13  N   UNL     1      -6.519  12.990  67.244  1.00  0.00    -0.235 NA 
HETATM   14  C   UNL     1      -7.072  11.762  67.283  1.00  0.00    -0.140 A  
HETATM   15  C   UNL     1      -7.258  13.999  67.737  1.00  0.00    -0.165 A  
BRANCH  11  16
HETATM   16  N   UNL     1     -10.171  12.083  68.891  1.00  0.00    -0.407 N  
HETATM   17  H   UNL     1     -10.368  12.264  69.876  1.00  0.00     0.000 HD 
BRANCH  16  18
HETATM   18  S   UNL     1     -11.279  11.249  67.952  1.00  0.00    -0.302 S  
HETATM   19  O   UNL     1     -12.574  11.294  68.608  1.00  0.00    -0.295 OA 
HETATM   20  O   UNL     1     -11.125  11.759  66.603  1.00  0.00    -0.284 OA 
BRANCH  18  21
HETATM   21  C   UNL     1     -10.757   9.552  67.946  1.00  0.00    -0.228 A  
HETATM   22  C   UNL     1      -9.930   6.855  68.016  1.00  0.00    -0.175 A  
HETATM   23  C   UNL     1     -10.740   8.857  69.154  1.00  0.00    -0.162 A  
HETATM   24  C   UNL     1     -10.327   7.526  69.184  1.00  0.00    -0.215 A  
HETATM   25  C   UNL     1     -10.022   7.561  66.797  1.00  0.00    -0.307 A  
HETATM   26  C   UNL     1     -10.436   8.901  66.757  1.00  0.00    -0.269 A  
BRANCH  22  27
HETATM   27  C   UNL     1      -9.373   5.419  68.061  1.00  0.00    -0.127 C  
HETATM   28  C   UNL     1      -9.607   4.717  69.421  1.00  0.00    -0.249 C  
HETATM   29  C   UNL     1      -7.847   5.453  67.829  1.00  0.00    -0.096 C  
HETATM   30  C   UNL     1     -10.030   4.543  66.976  1.00  0.00    -0.215 C  
ENDBRANCH  22  27
ENDBRANCH  18  21
ENDBRANCH  16  18
ENDBRANCH  11  16
BRANCH  14  31
HETATM   31  C   UNL     1      -6.373  10.656  66.579  1.00  0.00    -0.102 A  
HETATM   32  N   UNL     1      -5.690  10.960  65.448  1.00  0.00    -0.101 NA 
HETATM   33  N   UNL     1      -6.522   9.396  67.056  1.00  0.00    -0.066 NA 
HETATM   34  C   UNL     1      -5.936   8.413  66.351  1.00  0.00    -0.048 A  
HETATM   35  C   UNL     1      -5.137   9.933  64.781  1.00  0.00    -0.058 A  
HETATM   36  C   UNL     1      -5.227   8.626  65.192  1.00  0.00    -0.035 A  
ENDBRANCH  14  31
BRANCH  15  37
HETATM   37  O   UNL     1      -6.695  15.262  67.785  1.00  0.00    -0.137 OA 
BRANCH  37  38
HETATM   38  C   UNL     1      -6.061  15.622  69.019  1.00  0.00    -0.107 C  
BRANCH  38  39
HETATM   39  C   UNL     1      -5.457  14.391  69.687  1.00  0.00    -0.093 C  
HETATM   40  O   UNL     1      -6.295  13.929  70.742  1.00  0.00    -0.407 OA 
HETATM   41  H   UNL     1      -5.919  13.162  71.158  1.00  0.00     0.000 HD 
ENDBRANCH  38  39
ENDBRANCH  37  38
ENDBRANCH  15  37
ENDBRANCH   9  10
ENDBRANCH   8   9
ENDBRANCH   2   3
TORSDOF 11
ENDMDL
MODEL      155
REMARK 921   NORMALIZED FREE ENERGY PREDICTED BY IDOCK:   -3.67 KCAL/MOL
REMARK 922        TOTAL FREE ENERGY PREDICTED BY IDOCK:   -8.49 KCAL/MOL
REMARK 923 INTER-LIGAND FREE ENERGY PREDICTED BY IDOCK:   -7.06 KCAL/MOL
REMARK 924 INTRA-LIGAND FREE ENERGY PREDICTED BY IDOCK:   -1.42 KCAL/MOL
REMARK 927      BINDING AFFINITY PREDICTED BY RF-SCORE:    0.00 PKD
ROOT
HETATM    1  C   UNL     1     -11.316  13.868  67.624  1.00  0.00    -0.309 C  
HETATM    2  O   UNL     1     -10.029  13.368  67.260  1.00  0.00    -0.227 OA 
ENDROOT
BRANCH   2   3
HETATM    3  C   UNL     1      -9.976  12.468  66.223  1.00  0.00    -0.252 A  
HETATM    4  C   UNL     1      -9.811  12.862  64.884  1.00  0.00    -0.048 A  
HETATM    5  C   UNL     1      -9.823  11.924  63.847  1.00  0.00    -0.284 A  
HETATM    6  C   UNL     1      -9.977  10.575  64.131  1.00  0.00    -0.385 A  
HETATM    7  C   UNL     1     -10.125  10.165  65.451  1.00  0.00    -0.342 A  
HETATM    8  C   UNL     1     -10.123  11.094  66.504  1.00  0.00    -0.223 A  
BRANCH   8   9
HETATM    9  O   UNL     1     -10.351  10.479  67.718  1.00  0.00    -0.189 OA 
BRANCH   9  10
HETATM   10  C   UNL     1      -9.334  10.026  68.495  1.00  0.00    -0.145 A  
HETATM   11  C   UNL     1      -8.355  10.775  69.110  1.00  0.00    -0.105 A  
HETATM   12  N   UNL     1      -7.429  10.276  69.938  1.00  0.00    -0.166 NA 
HETATM   13  N   UNL     1      -8.306   8.102  69.516  1.00  0.00    -0.121 NA 
HETATM   14  C   UNL     1      -7.466   8.944  70.151  1.00  0.00    -0.065 A  
HETATM   15  C   UNL     1      -9.204   8.660  68.686  1.00  0.00    -0.138 A  
BRANCH  11  16
HETATM   16  N   UNL     1      -8.172  12.172  68.980  1.00  0.00    -0.344 N  
HETATM   17  H   UNL     1      -8.978  12.787  68.869  1.00  0.00     0.000 HD 
BRANCH  16  18
HETATM   18  S   UNL     1      -6.625  12.814  69.009  1.00  0.00    -0.095 S  
HETATM   19  O   UNL     1      -6.076  12.651  70.344  1.00  0.00    -0.138 OA 
HETATM   20  O   UNL     1      -5.936  12.253  67.863  1.00  0.00    -0.063 OA 
BRANCH  18  21
HETATM   21  C   UNL     1      -6.799  14.558  68.728  1.00  0.00    -0.094 A  
HETATM   22  C   UNL     1      -7.090  17.317  68.205  1.00  0.00    -0.190 A  
HETATM   23  C   UNL     1      -7.228  14.991  67.475  1.00  0.00    -0.228 A  
HETATM   24  C   UNL     1      -7.367  16.354  67.220  1.00  0.00    -0.209 A  
HETATM   25  C   UNL     1      -6.723  16.849  69.485  1.00  0.00    -0.169 A  
HETATM   26  C   UNL     1      -6.582  15.479  69.751  1.00  0.00    -0.166 A  
BRANCH  22  27
HETATM   27  C   UNL     1      -7.140  18.825  67.895  1.00  0.00    -0.253 C  
HETATM   28  C   UNL     1      -5.784  19.538  68.115  1.00  0.00    -0.219 C  
HETATM   29  C   UNL     1      -8.163  19.507  68.828  1.00  0.00    -0.348 C  
HETATM   30  C   UNL     1      -7.551  19.069  66.429  1.00  0.00    -0.279 C  
ENDBRANCH  22  27
ENDBRANCH  18  21
ENDBRANCH  16  18
ENDBRANCH  11  16
BRANCH  14  31
HETATM   31  C   UNL     1      -6.592   8.389  71.217  1.00  0.00    -0.053 A  
HETATM   32  N   UNL     1      -6.559   7.044  71.370  1.00  0.00    -0.047 NA 
HETATM   33  N   UNL     1      -5.940   9.258  72.029  1.00  0.00    -0.215 NA 
HETATM   34  C   UNL     1      -5.218   8.722  73.026  1.00  0.00    -0.063 A  
HETATM   35  C   UNL     1      -5.829   6.568  72.393  1.00  0.00    -0.038 A  
HETATM   36  C   UNL     1      -5.128   7.370  73.261  1.00  0.00    -0.041 A  
ENDBRANCH  14  31
BRANCH  15  37
HETATM   37  O   UNL     1     -10.031   7.824  67.958  1.00  0.00    -0.161 OA 
BRANCH  37  38
HETATM   38  C   UNL     1     -10.901   6.979  68.721  1.00  0.00    -0.157 C  
BRANCH  38  39
HETATM   39  C   UNL     1     -10.207   5.662  69.054  1.00  0.00    -0.222 C  
HETATM   40  O   UNL     1     -10.529   5.244  70.377  1.00  0.00    -0.271 OA 
HETATM   41  H   UNL     1     -10.097   4.423  70.584  1.00  0.00     0.000 HD 
ENDBRANCH  38  39
ENDBRANCH  37  38
ENDBRANCH  15  37
ENDBRANCH   9  10
ENDBRANCH   8   9
ENDBRANCH   2   3
TORSDOF 11
ENDMDL
MODEL      156
REMARK 921   NORMALIZED FREE ENERGY PREDICTED BY IDOCK:   -3.62 KCAL/MOL
REMARK 922        TOTAL FREE ENERGY PREDICTED BY IDOCK:   -8.42 KCAL/MOL
REMARK 923 INTER-LIGAND FREE ENERGY PREDICTED BY IDOCK:   -7.85 KCAL/MOL
REMARK 924 INTRA-LIGAND FREE ENERGY PREDICTED BY IDOCK:   -0.56 KCAL/MOL
REMARK 927      BINDING AFFINITY PREDICTED BY RF-SCORE:    0.00 PKD
ROOT
HETATM    1  C   UNL     1      -8.289   7.882  73.970  1.00  0.00    -0.255 C  
HETATM    2  O   UNL     1      -8.569   6.488  73.846  1.00  0.00    -0.120 OA 
ENDROOT
BRANCH   2   3
HETATM    3  C   UNL     1      -9.348   6.096  72.785  1.00  0.00    -0.148 A  
HETATM    4  C   UNL     1      -9.620   4.747  72.501  1.00  0.00    -0.174 A  
HETATM    5  C   UNL     1     -10.366   4.379  71.377  1.00  0.00    -0.080 A  
HETATM    6  C   UNL     1     -10.874   5.354  70.530  1.00  0.00    -0.200 A  
HETATM    7  C   UNL     1     -10.629   6.695  70.805  1.00  0.00    -0.265 A  
HETATM    8  C   UNL     1      -9.875   7.081  71.924  1.00  0.00    -0.163 A  
BRANCH   8   9
HETATM    9  O   UNL     1      -9.700   8.449  71.967  1.00  0.00    -0.226 OA 
BRANCH   9  10
HETATM   10  C   UNL     1      -9.885   9.231  70.873  1.00  0.00    -0.293 A  
HETATM   11  C   UNL     1      -8.955   9.552  69.909  1.00  0.00    -0.212 A  
HETATM   12  N   UNL     1      -9.224  10.259  68.803  1.00  0.00    -0.158 NA 
HETATM   13  N   UNL     1     -11.455  10.532  69.591  1.00  0.00    -0.264 NA 
HETATM   14  C   UNL     1     -10.495  10.690  68.659  1.00  0.00    -0.191 A  
HETATM   15  C   UNL     1     -11.122   9.826  70.686  1.00  0.00    -0.332 A  
BRANCH  11  16
HETATM   16  N   UNL     1      -7.587   9.191  69.919  1.00  0.00    -0.072 N  
HETATM   17  H   UNL     1      -6.911   9.759  70.429  1.00  0.00     0.000 HD 
BRANCH  16  18
HETATM   18  S   UNL     1      -7.082   7.826  69.090  1.00  0.00    -0.075 S  
HETATM   19  O   UNL     1      -5.763   7.450  69.569  1.00  0.00    -0.022 OA 
HETATM   20  O   UNL     1      -8.181   6.883  69.162  1.00  0.00    -0.119 OA 
BRANCH  18  21
HETATM   21  C   UNL     1      -6.900   8.308  67.391  1.00  0.00    -0.070 A  
HETATM   22  C   UNL     1      -6.677   9.037  64.673  1.00  0.00    -0.077 A  
HETATM   23  C   UNL     1      -7.935   8.023  66.503  1.00  0.00    -0.102 A  
HETATM   24  C   UNL     1      -7.820   8.381  65.161  1.00  0.00    -0.118 A  
HETATM   25  C   UNL     1      -5.674   9.375  65.606  1.00  0.00    -0.053 A  
HETATM   26  C   UNL     1      -5.782   9.019  66.959  1.00  0.00    -0.045 A  
BRANCH  22  27
HETATM   27  C   UNL     1      -6.501   9.339  63.172  1.00  0.00    -0.091 C  
HETATM   28  C   UNL     1      -7.830   9.689  62.461  1.00  0.00    -0.124 C  
HETATM   29  C   UNL     1      -5.926   8.094  62.463  1.00  0.00    -0.078 C  
HETATM   30  C   UNL     1      -5.543  10.528  62.963  1.00  0.00    -0.159 C  
ENDBRANCH  22  27
ENDBRANCH  18  21
ENDBRANCH  16  18
ENDBRANCH  11  16
BRANCH  14  31
HETATM   31  C   UNL     1     -10.876  11.294  67.356  1.00  0.00    -0.262 A  
HETATM   32  N   UNL     1     -11.761  12.319  67.369  1.00  0.00    -0.482 NA 
HETATM   33  N   UNL     1     -10.382  10.737  66.222  1.00  0.00    -0.248 NA 
HETATM   34  C   UNL     1     -10.806  11.262  65.061  1.00  0.00    -0.216 A  
HETATM   35  C   UNL     1     -12.156  12.793  66.176  1.00  0.00    -0.364 A  
HETATM   36  C   UNL     1     -11.705  12.299  64.977  1.00  0.00    -0.405 A  
ENDBRANCH  14  31
BRANCH  15  37
HETATM   37  O   UNL     1     -12.056   9.708  71.699  1.00  0.00    -0.367 OA 
BRANCH  37  38
HETATM   38  C   UNL     1     -13.412  10.004  71.342  1.00  0.00    -0.276 C  
BRANCH  38  39
HETATM   39  C   UNL     1     -14.347   8.910  71.846  1.00  0.00    -0.292 C  
HETATM   40  O   UNL     1     -14.367   7.809  70.943  1.00  0.00    -0.656 OA 
HETATM   41  H   UNL     1     -14.950   7.127  71.257  1.00  0.00     0.000 HD 
ENDBRANCH  38  39
ENDBRANCH  37  38
ENDBRANCH  15  37
ENDBRANCH   9  10
ENDBRANCH   8   9
ENDBRANCH   2   3
TORSDOF 11
ENDMDL
MODEL      157
REMARK 921   NORMALIZED FREE ENERGY PREDICTED BY IDOCK:   -3.60 KCAL/MOL
REMARK 922        TOTAL FREE ENERGY PREDICTED BY IDOCK:   -8.38 KCAL/MOL
REMARK 923 INTER-LIGAND FREE ENERGY PREDICTED BY IDOCK:   -5.96 KCAL/MOL
REMARK 924 INTRA-LIGAND FREE ENERGY PREDICTED BY IDOCK:   -2.42 KCAL/MOL
REMARK 927      BINDING AFFINITY PREDICTED BY RF-SCORE:    0.00 PKD
ROOT
HETATM    1  C   UNL     1     -10.672   6.879  73.735  1.00  0.00    -0.199 C  
HETATM    2  O   UNL     1      -9.636   5.900  73.823  1.00  0.00    -0.138 OA 
ENDROOT
BRANCH   2   3
HETATM    3  C   UNL     1      -9.845   4.705  73.181  1.00  0.00    -0.143 A  
HETATM    4  C   UNL     1     -10.620   3.672  73.734  1.00  0.00    -0.287 A  
HETATM    5  C   UNL     1     -10.762   2.443  73.082  1.00  0.00    -0.262 A  
HETATM    6  C   UNL     1     -10.151   2.233  71.854  1.00  0.00    -0.185 A  
HETATM    7  C   UNL     1      -9.394   3.249  71.283  1.00  0.00    -0.206 A  
HETATM    8  C   UNL     1      -9.234   4.486  71.928  1.00  0.00    -0.136 A  
BRANCH   8   9
HETATM    9  O   UNL     1      -8.392   5.319  71.220  1.00  0.00    -0.119 OA 
BRANCH   9  10
HETATM   10  C   UNL     1      -8.821   6.496  70.696  1.00  0.00    -0.144 A  
HETATM   11  C   UNL     1      -9.645   6.674  69.608  1.00  0.00    -0.151 A  
HETATM   12  N   UNL     1     -10.105   7.861  69.192  1.00  0.00    -0.192 NA 
HETATM   13  N   UNL     1      -8.808   8.896  70.901  1.00  0.00    -0.200 NA 
HETATM   14  C   UNL     1      -9.701   8.942  69.892  1.00  0.00    -0.177 A  
HETATM   15  C   UNL     1      -8.372   7.677  71.264  1.00  0.00    -0.107 A  
BRANCH  11  16
HETATM   16  N   UNL     1     -10.144   5.652  68.765  1.00  0.00    -0.170 N  
HETATM   17  H   UNL     1     -11.115   5.349  68.847  1.00  0.00     0.000 HD 
BRANCH  16  18
HETATM   18  S   UNL     1      -9.135   4.940  67.634  1.00  0.00    -0.120 S  
HETATM   19  O   UNL     1      -8.105   4.191  68.332  1.00  0.00    -0.079 OA 
HETATM   20  O   UNL     1     -10.004   4.275  66.683  1.00  0.00    -0.224 OA 
BRANCH  18  21
HETATM   21  C   UNL     1      -8.323   6.268  66.779  1.00  0.00    -0.110 A  
HETATM   22  C   UNL     1      -7.101   8.395  65.384  1.00  0.00    -0.081 A  
HETATM   23  C   UNL     1      -9.095   7.131  66.003  1.00  0.00    -0.108 A  
HETATM   24  C   UNL     1      -8.487   8.177  65.313  1.00  0.00    -0.157 A  
HETATM   25  C   UNL     1      -6.353   7.549  66.231  1.00  0.00    -0.042 A  
HETATM   26  C   UNL     1      -6.956   6.493  66.930  1.00  0.00    -0.067 A  
BRANCH  22  27
HETATM   27  C   UNL     1      -6.412   9.485  64.540  1.00  0.00    -0.093 C  
HETATM   28  C   UNL     1      -5.369   8.918  63.547  1.00  0.00    -0.063 C  
HETATM   29  C   UNL     1      -5.661  10.459  65.474  1.00  0.00    -0.117 C  
HETATM   30  C   UNL     1      -7.447  10.273  63.713  1.00  0.00    -0.081 C  
ENDBRANCH  22  27
ENDBRANCH  18  21
ENDBRANCH  16  18
ENDBRANCH  11  16
BRANCH  14  31
HETATM   31  C   UNL     1     -10.351  10.243  69.591  1.00  0.00    -0.248 A  
HETATM   32  N   UNL     1      -9.715  11.084  68.739  1.00  0.00    -0.194 NA 
HETATM   33  N   UNL     1     -11.498  10.554  70.242  1.00  0.00    -0.311 NA 
HETATM   34  C   UNL     1     -12.018  11.769  69.999  1.00  0.00    -0.344 A  
HETATM   35  C   UNL     1     -10.277  12.289  68.546  1.00  0.00    -0.206 A  
HETATM   36  C   UNL     1     -11.442  12.688  69.155  1.00  0.00    -0.359 A  
ENDBRANCH  14  31
BRANCH  15  37
HETATM   37  O   UNL     1      -7.398   7.594  72.243  1.00  0.00    -0.070 OA 
BRANCH  37  38
HETATM   38  C   UNL     1      -6.042   7.713  71.793  1.00  0.00    -0.035 C  
BRANCH  38  39
HETATM   39  C   UNL     1      -5.294   6.401  72.005  1.00  0.00    -0.027 C  
HETATM   40  O   UNL     1      -5.570   5.487  70.949  1.00  0.00    -0.008 OA 
HETATM   41  H   UNL     1      -5.104   4.670  71.081  1.00  0.00     0.000 HD 
ENDBRANCH  38  39
ENDBRANCH  37  38
ENDBRANCH  15  37
ENDBRANCH   9  10
ENDBRANCH   8   9
ENDBRANCH   2   3
TORSDOF 11
ENDMDL
MODEL      158
REMARK 921   NORMALIZED FREE ENERGY PREDICTED BY IDOCK:   -3.58 KCAL/MOL
REMARK 922        TOTAL FREE ENERGY PREDICTED BY IDOCK:   -8.35 KCAL/MOL
REMARK 923 INTER-LIGAND FREE ENERGY PREDICTED BY IDOCK:   -7.15 KCAL/MOL
REMARK 924 INTRA-LIGAND FREE ENERGY PREDICTED BY IDOCK:   -1.20 KCAL/MOL
REMARK 927      BINDING AFFINITY PREDICTED BY RF-SCORE:    0.00 PKD
ROOT
HETATM    1  C   UNL     1      -9.643   6.132  74.555  1.00  0.00    -0.239 C  
HETATM    2  O   UNL     1      -8.635   5.395  73.863  1.00  0.00    -0.116 OA 
ENDROOT
BRANCH   2   3
HETATM    3  C   UNL     1      -9.055   4.386  73.031  1.00  0.00    -0.119 A  
HETATM    4  C   UNL     1      -9.580   3.174  73.513  1.00  0.00    -0.132 A  
HETATM    5  C   UNL     1      -9.941   2.143  72.640  1.00  0.00    -0.199 A  
HETATM    6  C   UNL     1      -9.805   2.313  71.269  1.00  0.00    -0.143 A  
HETATM    7  C   UNL     1      -9.305   3.511  70.774  1.00  0.00    -0.227 A  
HETATM    8  C   UNL     1      -8.930   4.554  71.636  1.00  0.00    -0.125 A  
BRANCH   8   9
HETATM    9  O   UNL     1      -8.398   5.619  70.938  1.00  0.00    -0.119 OA 
BRANCH   9  10
HETATM   10  C   UNL     1      -9.078   6.783  70.777  1.00  0.00    -0.151 A  
HETATM   11  C   UNL     1     -10.095   7.038  69.885  1.00  0.00    -0.193 A  
HETATM   12  N   UNL     1     -10.788   8.183  69.833  1.00  0.00    -0.241 NA 
HETATM   13  N   UNL     1      -9.380   9.043  71.550  1.00  0.00    -0.285 NA 
HETATM   14  C   UNL     1     -10.431   9.142  70.713  1.00  0.00    -0.257 A  
HETATM   15  C   UNL     1      -8.714   7.875  71.546  1.00  0.00    -0.125 A  
BRANCH  11  16
HETATM   16  N   UNL     1     -10.578   6.147  68.896  1.00  0.00    -0.243 N  
HETATM   17  H   UNL     1     -11.416   5.593  69.071  1.00  0.00     0.000 HD 
BRANCH  16  18
HETATM   18  S   UNL     1      -9.768   6.007  67.436  1.00  0.00    -0.122 S  
HETATM   19  O   UNL     1      -8.372   5.709  67.704  1.00  0.00    -0.102 OA 
HETATM   20  O   UNL     1     -10.563   5.109  66.621  1.00  0.00    -0.279 OA 
BRANCH  18  21
HETATM   21  C   UNL     1      -9.821   7.610  66.675  1.00  0.00    -0.213 A  
HETATM   22  C   UNL     1      -9.971  10.174  65.506  1.00  0.00    -0.363 A  
HETATM   23  C   UNL     1     -10.776   8.524  67.115  1.00  0.00    -0.209 A  
HETATM   24  C   UNL     1     -10.849   9.788  66.532  1.00  0.00     0.053 A  
HETATM   25  C   UNL     1      -8.970   9.254  65.127  1.00  0.00    -0.257 A  
HETATM   26  C   UNL     1      -8.888   7.980  65.709  1.00  0.00    -0.170 A  
BRANCH  22  27
HETATM   27  C   UNL     1     -10.117  11.530  64.788  1.00  0.00    -0.316 C  
HETATM   28  C   UNL     1      -9.903  11.435  63.258  1.00  0.00    -0.428 C  
HETATM   29  C   UNL     1      -9.058  12.514  65.330  1.00  0.00     0.580 C  
HETATM   30  C   UNL     1     -11.522  12.121  65.016  1.00  0.00    -0.377 C  
ENDBRANCH  22  27
ENDBRANCH  18  21
ENDBRANCH  16  18
ENDBRANCH  11  16
BRANCH  14  31
HETATM   31  C   UNL     1     -11.306  10.338  70.824  1.00  0.00    -0.337 A  
HETATM   32  N   UNL     1     -12.269  10.328  71.777  1.00  0.00    -0.292 NA 
HETATM   33  N   UNL     1     -11.149  11.335  69.919  1.00  0.00    -0.174 NA 
HETATM   34  C   UNL     1     -12.006  12.366  70.006  1.00  0.00    -0.299 A  
HETATM   35  C   UNL     1     -13.103  11.381  71.806  1.00  0.00    -0.418 A  
HETATM   36  C   UNL     1     -13.015  12.441  70.936  1.00  0.00    -0.061 A  
ENDBRANCH  14  31
BRANCH  15  37
HETATM   37  O   UNL     1      -7.584   7.763  72.335  1.00  0.00    -0.078 OA 
BRANCH  37  38
HETATM   38  C   UNL     1      -6.786   8.947  72.466  1.00  0.00     0.160 C  
BRANCH  38  39
HETATM   39  C   UNL     1      -6.269   9.394  71.103  1.00  0.00    -0.077 C  
HETATM   40  O   UNL     1      -6.672  10.731  70.825  1.00  0.00    -0.454 OA 
HETATM   41  H   UNL     1      -6.350  11.010  69.976  1.00  0.00     0.000 HD 
ENDBRANCH  38  39
ENDBRANCH  37  38
ENDBRANCH  15  37
ENDBRANCH   9  10
ENDBRANCH   8   9
ENDBRANCH   2   3
TORSDOF 11
ENDMDL
MODEL      159
REMARK 921   NORMALIZED FREE ENERGY PREDICTED BY IDOCK:   -3.58 KCAL/MOL
REMARK 922        TOTAL FREE ENERGY PREDICTED BY IDOCK:   -8.34 KCAL/MOL
REMARK 923 INTER-LIGAND FREE ENERGY PREDICTED BY IDOCK:   -6.02 KCAL/MOL
REMARK 924 INTRA-LIGAND FREE ENERGY PREDICTED BY IDOCK:   -2.32 KCAL/MOL
REMARK 927      BINDING AFFINITY PREDICTED BY RF-SCORE:    0.00 PKD
ROOT
HETATM    1  C   UNL     1     -11.546  13.670  67.689  1.00  0.00    -0.346 C  
HETATM    2  O   UNL     1     -10.287  13.547  67.028  1.00  0.00    -0.249 OA 
ENDROOT
BRANCH   2   3
HETATM    3  C   UNL     1     -10.172  12.567  66.073  1.00  0.00    -0.251 A  
HETATM    4  C   UNL     1      -9.770  12.836  64.754  1.00  0.00     0.074 A  
HETATM    5  C   UNL     1      -9.723  11.824  63.790  1.00  0.00    -0.255 A  
HETATM    6  C   UNL     1     -10.056  10.521  64.132  1.00  0.00    -0.351 A  
HETATM    7  C   UNL     1     -10.440  10.233  65.436  1.00  0.00    -0.125 A  
HETATM    8  C   UNL     1     -10.501  11.239  66.415  1.00  0.00    -0.257 A  
BRANCH   8   9
HETATM    9  O   UNL     1     -10.969  10.746  67.616  1.00  0.00    -0.263 OA 
BRANCH   9  10
HETATM   10  C   UNL     1     -10.154  10.119  68.502  1.00  0.00    -0.169 A  
HETATM   11  C   UNL     1      -9.106  10.668  69.206  1.00  0.00    -0.100 A  
HETATM   12  N   UNL     1      -8.393  10.016  70.134  1.00  0.00    -0.128 NA 
HETATM   13  N   UNL     1      -9.662   8.060  69.651  1.00  0.00    -0.169 NA 
HETATM   14  C   UNL     1      -8.732   8.730  70.359  1.00  0.00    -0.166 A  
HETATM   15  C   UNL     1     -10.335   8.763  68.723  1.00  0.00    -0.213 A  
BRANCH  11  16
HETATM   16  N   UNL     1      -8.620  11.991  69.077  1.00  0.00    -0.344 N  
HETATM   17  H   UNL     1      -9.196  12.779  69.371  1.00  0.00     0.000 HD 
BRANCH  16  18
HETATM   18  S   UNL     1      -7.094  12.258  68.441  1.00  0.00    -0.101 S  
HETATM   19  O   UNL     1      -7.141  13.437  67.594  1.00  0.00    -0.138 OA 
HETATM   20  O   UNL     1      -6.175  12.200  69.561  1.00  0.00    -0.103 OA 
BRANCH  18  21
HETATM   21  C   UNL     1      -6.740  10.874  67.386  1.00  0.00    -0.078 A  
HETATM   22  C   UNL     1      -6.210   8.714  65.649  1.00  0.00    -0.052 A  
HETATM   23  C   UNL     1      -6.970  11.004  66.018  1.00  0.00    -0.014 A  
HETATM   24  C   UNL     1      -6.711   9.933  65.164  1.00  0.00    -0.109 A  
HETATM   25  C   UNL     1      -5.921   8.632  67.029  1.00  0.00    -0.053 A  
HETATM   26  C   UNL     1      -6.179   9.705  67.895  1.00  0.00    -0.052 A  
BRANCH  22  27
HETATM   27  C   UNL     1      -6.022   7.495  64.725  1.00  0.00    -0.038 C  
HETATM   28  C   UNL     1      -5.131   6.392  65.345  1.00  0.00    -0.014 C  
HETATM   29  C   UNL     1      -5.338   7.945  63.417  1.00  0.00    -0.049 C  
HETATM   30  C   UNL     1      -7.381   6.849  64.389  1.00  0.00    -0.088 C  
ENDBRANCH  22  27
ENDBRANCH  18  21
ENDBRANCH  16  18
ENDBRANCH  11  16
BRANCH  14  31
HETATM   31  C   UNL     1      -8.106   8.043  71.519  1.00  0.00    -0.110 A  
HETATM   32  N   UNL     1      -8.338   8.551  72.753  1.00  0.00    -0.384 NA 
HETATM   33  N   UNL     1      -7.274   7.001  71.274  1.00  0.00    -0.074 NA 
HETATM   34  C   UNL     1      -6.669   6.452  72.341  1.00  0.00    -0.068 A  
HETATM   35  C   UNL     1      -7.694   7.967  73.778  1.00  0.00    -0.167 A  
HETATM   36  C   UNL     1      -6.841   6.901  73.629  1.00  0.00    -0.071 A  
ENDBRANCH  14  31
BRANCH  15  37
HETATM   37  O   UNL     1     -11.242   8.093  67.923  1.00  0.00     0.244 OA 
BRANCH  37  38
HETATM   38  C   UNL     1     -10.685   7.286  66.878  1.00  0.00    -0.276 C  
BRANCH  38  39
HETATM   39  C   UNL     1     -10.867   5.805  67.194  1.00  0.00    -0.217 C  
HETATM   40  O   UNL     1     -11.158   5.070  66.010  1.00  0.00    -0.698 OA 
HETATM   41  H   UNL     1     -11.271   4.147  66.206  1.00  0.00     0.000 HD 
ENDBRANCH  38  39
ENDBRANCH  37  38
ENDBRANCH  15  37
ENDBRANCH   9  10
ENDBRANCH   8   9
ENDBRANCH   2   3
TORSDOF 11
ENDMDL
MODEL      160
REMARK 921   NORMALIZED FREE ENERGY PREDICTED BY IDOCK:   -3.48 KCAL/MOL
REMARK 922        TOTAL FREE ENERGY PREDICTED BY IDOCK:   -8.19 KCAL/MOL
REMARK 923 INTER-LIGAND FREE ENERGY PREDICTED BY IDOCK:   -7.87 KCAL/MOL
REMARK 924 INTRA-LIGAND FREE ENERGY PREDICTED BY IDOCK:   -0.31 KCAL/MOL
REMARK 927      BINDING AFFINITY PREDICTED BY RF-SCORE:    0.00 PKD
ROOT
HETATM    1  C   UNL     1      -9.163   5.574  66.179  1.00  0.00    -0.158 C  
HETATM    2  O   UNL     1      -9.729   6.884  66.190  1.00  0.00    -0.048 OA 
ENDROOT
BRANCH   2   3
HETATM    3  C   UNL     1      -9.054   7.865  65.505  1.00  0.00     0.114 A  
HETATM    4  C   UNL     1      -8.047   7.580  64.566  1.00  0.00    -0.086 A  
HETATM    5  C   UNL     1      -7.337   8.603  63.932  1.00  0.00    -0.100 A  
HETATM    6  C   UNL     1      -7.635   9.931  64.207  1.00  0.00    -0.139 A  
HETATM    7  C   UNL     1      -8.639  10.232  65.120  1.00  0.00    -0.181 A  
HETATM    8  C   UNL     1      -9.356   9.216  65.772  1.00  0.00    -0.245 A  
BRANCH   8   9
HETATM    9  O   UNL     1     -10.254   9.737  66.682  1.00  0.00    -0.226 OA 
BRANCH   9  10
HETATM   10  C   UNL     1     -10.239  11.048  67.035  1.00  0.00    -0.211 A  
HETATM   11  C   UNL     1      -9.742  11.594  68.197  1.00  0.00    -0.189 A  
HETATM   12  N   UNL     1      -9.677  12.908  68.449  1.00  0.00    -0.214 NA 
HETATM   13  N   UNL     1     -10.767  13.301  66.368  1.00  0.00    -0.283 NA 
HETATM   14  C   UNL     1     -10.157  13.729  67.491  1.00  0.00    -0.241 A  
HETATM   15  C   UNL     1     -10.815  11.971  66.178  1.00  0.00    -0.286 A  
BRANCH  11  16
HETATM   16  N   UNL     1      -9.218  10.874  69.297  1.00  0.00    -0.397 N  
HETATM   17  H   UNL     1      -9.789  10.720  70.127  1.00  0.00     0.000 HD 
BRANCH  16  18
HETATM   18  S   UNL     1      -7.654  10.277  69.231  1.00  0.00    -0.139 S  
HETATM   19  O   UNL     1      -7.455   9.630  67.946  1.00  0.00    -0.082 OA 
HETATM   20  O   UNL     1      -6.790  11.367  69.642  1.00  0.00    -0.124 OA 
BRANCH  18  21
HETATM   21  C   UNL     1      -7.547   9.011  70.472  1.00  0.00    -0.110 A  
HETATM   22  C   UNL     1      -7.298   7.013  72.449  1.00  0.00    -0.084 A  
HETATM   23  C   UNL     1      -6.332   8.824  71.129  1.00  0.00    -0.054 A  
HETATM   24  C   UNL     1      -6.213   7.834  72.102  1.00  0.00    -0.040 A  
HETATM   25  C   UNL     1      -8.535   7.268  71.818  1.00  0.00    -0.116 A  
HETATM   26  C   UNL     1      -8.664   8.264  70.838  1.00  0.00    -0.163 A  
BRANCH  22  27
HETATM   27  C   UNL     1      -7.141   5.849  73.447  1.00  0.00    -0.085 C  
HETATM   28  C   UNL     1      -7.296   4.457  72.788  1.00  0.00    -0.078 C  
HETATM   29  C   UNL     1      -8.232   5.955  74.534  1.00  0.00    -0.112 C  
HETATM   30  C   UNL     1      -5.753   5.885  74.116  1.00  0.00    -0.053 C  
ENDBRANCH  22  27
ENDBRANCH  18  21
ENDBRANCH  16  18
ENDBRANCH  11  16
BRANCH  14  31
HETATM   31  C   UNL     1      -9.913  15.186  67.645  1.00  0.00    -0.229 A  
HETATM   32  N   UNL     1      -8.637  15.629  67.528  1.00  0.00    -0.166 NA 
HETATM   33  N   UNL     1     -10.961  15.981  67.973  1.00  0.00    -0.337 NA 
HETATM   34  C   UNL     1     -10.689  17.281  68.176  1.00  0.00    -0.363 A  
HETATM   35  C   UNL     1      -8.427  16.936  67.754  1.00  0.00    -0.196 A  
HETATM   36  C   UNL     1      -9.427  17.819  68.083  1.00  0.00    -0.282 A  
ENDBRANCH  14  31
BRANCH  15  37
HETATM   37  O   UNL     1     -11.501  11.492  65.076  1.00  0.00    -0.171 OA 
BRANCH  37  38
HETATM   38  C   UNL     1     -12.529  12.343  64.555  1.00  0.00    -0.435 C  
BRANCH  38  39
HETATM   39  C   UNL     1     -12.012  13.133  63.358  1.00  0.00    -0.483 C  
HETATM   40  O   UNL     1     -12.290  14.521  63.512  1.00  0.00    -1.081 OA 
HETATM   41  H   UNL     1     -11.967  15.014  62.766  1.00  0.00     0.000 HD 
ENDBRANCH  38  39
ENDBRANCH  37  38
ENDBRANCH  15  37
ENDBRANCH   9  10
ENDBRANCH   8   9
ENDBRANCH   2   3
TORSDOF 11
ENDMDL
MODEL      161
REMARK 921   NORMALIZED FREE ENERGY PREDICTED BY IDOCK:   -3.36 KCAL/MOL
REMARK 922        TOTAL FREE ENERGY PREDICTED BY IDOCK:   -7.98 KCAL/MOL
REMARK 923 INTER-LIGAND FREE ENERGY PREDICTED BY IDOCK:   -7.00 KCAL/MOL
REMARK 924 INTRA-LIGAND FREE ENERGY PREDICTED BY IDOCK:   -0.98 KCAL/MOL
REMARK 927      BINDING AFFINITY PREDICTED BY RF-SCORE:    0.00 PKD
ROOT
HETATM    1  C   UNL     1     -10.598  16.273  69.467  1.00  0.00    -0.314 C  
HETATM    2  O   UNL     1     -10.513  14.888  69.131  1.00  0.00    -0.233 OA 
ENDROOT
BRANCH   2   3
HETATM    3  C   UNL     1      -9.349  14.454  68.547  1.00  0.00    -0.204 A  
HETATM    4  C   UNL     1      -8.303  15.325  68.198  1.00  0.00    -0.149 A  
HETATM    5  C   UNL     1      -7.156  14.858  67.549  1.00  0.00    -0.215 A  
HETATM    6  C   UNL     1      -7.024  13.508  67.256  1.00  0.00     0.061 A  
HETATM    7  C   UNL     1      -8.040  12.629  67.608  1.00  0.00    -0.173 A  
HETATM    8  C   UNL     1      -9.202  13.082  68.253  1.00  0.00    -0.191 A  
BRANCH   8   9
HETATM    9  O   UNL     1     -10.104  12.055  68.447  1.00  0.00    -0.204 OA 
BRANCH   9  10
HETATM   10  C   UNL     1      -9.820  10.775  68.099  1.00  0.00    -0.158 A  
HETATM   11  C   UNL     1      -9.075   9.861  68.810  1.00  0.00    -0.147 A  
HETATM   12  N   UNL     1      -8.904   8.582  68.454  1.00  0.00    -0.139 NA 
HETATM   13  N   UNL     1     -10.151   9.027  66.475  1.00  0.00    -0.288 NA 
HETATM   14  C   UNL     1      -9.496   8.192  67.305  1.00  0.00    -0.155 A  
HETATM   15  C   UNL     1     -10.278  10.303  66.879  1.00  0.00    -0.230 A  
BRANCH  11  16
HETATM   16  N   UNL     1      -8.384  10.113  70.020  1.00  0.00    -0.351 N  
HETATM   17  H   UNL     1      -8.811  10.690  70.743  1.00  0.00     0.000 HD 
BRANCH  16  18
HETATM   18  S   UNL     1      -6.860   9.460  70.258  1.00  0.00    -0.094 S  
HETATM   19  O   UNL     1      -6.189   9.359  68.974  1.00  0.00    -0.042 OA 
HETATM   20  O   UNL     1      -6.261  10.221  71.338  1.00  0.00    -0.320 OA 
BRANCH  18  21
HETATM   21  C   UNL     1      -7.110   7.803  70.845  1.00  0.00    -0.053 A  
HETATM   22  C   UNL     1      -7.556   5.197  71.834  1.00  0.00    -0.096 A  
HETATM   23  C   UNL     1      -8.065   7.584  71.837  1.00  0.00    -0.103 A  
HETATM   24  C   UNL     1      -8.279   6.297  72.325  1.00  0.00    -0.108 A  
HETATM   25  C   UNL     1      -6.644   5.435  70.783  1.00  0.00    -0.039 A  
HETATM   26  C   UNL     1      -6.423   6.728  70.285  1.00  0.00    -0.043 A  
BRANCH  22  27
HETATM   27  C   UNL     1      -7.714   3.791  72.445  1.00  0.00    -0.068 C  
HETATM   28  C   UNL     1      -9.149   3.503  72.946  1.00  0.00    -0.115 C  
HETATM   29  C   UNL     1      -6.776   3.653  73.663  1.00  0.00    -0.040 C  
HETATM   30  C   UNL     1      -7.365   2.703  71.410  1.00  0.00    -0.033 C  
ENDBRANCH  22  27
ENDBRANCH  18  21
ENDBRANCH  16  18
ENDBRANCH  11  16
BRANCH  14  31
HETATM   31  C   UNL     1      -9.501   6.741  66.988  1.00  0.00    -0.146 A  
HETATM   32  N   UNL     1     -10.682   6.081  67.071  1.00  0.00    -0.313 NA 
HETATM   33  N   UNL     1      -8.317   6.140  66.715  1.00  0.00    -0.109 NA 
HETATM   34  C   UNL     1      -8.351   4.813  66.505  1.00  0.00    -0.107 A  
HETATM   35  C   UNL     1     -10.649   4.754  66.863  1.00  0.00     0.046 A  
HETATM   36  C   UNL     1      -9.500   4.061  66.571  1.00  0.00    -0.208 A  
ENDBRANCH  14  31
BRANCH  15  37
HETATM   37  O   UNL     1     -10.877  11.206  66.020  1.00  0.00    -0.243 OA 
BRANCH  37  38
HETATM   38  C   UNL     1     -10.557  11.060  64.630  1.00  0.00    -0.299 C  
BRANCH  38  39
HETATM   39  C   UNL     1     -11.236  12.152  63.810  1.00  0.00    -0.436 C  
HETATM   40  O   UNL     1     -12.179  11.588  62.904  1.00  0.00    -0.942 OA 
HETATM   41  H   UNL     1     -12.602  12.267  62.392  1.00  0.00     0.000 HD 
ENDBRANCH  38  39
ENDBRANCH  37  38
ENDBRANCH  15  37
ENDBRANCH   9  10
ENDBRANCH   8   9
ENDBRANCH   2   3
TORSDOF 11
ENDMDL
MODEL      162
REMARK 921   NORMALIZED FREE ENERGY PREDICTED BY IDOCK:   -3.36 KCAL/MOL
REMARK 922        TOTAL FREE ENERGY PREDICTED BY IDOCK:   -7.98 KCAL/MOL
REMARK 923 INTER-LIGAND FREE ENERGY PREDICTED BY IDOCK:   -6.05 KCAL/MOL
REMARK 924 INTRA-LIGAND FREE ENERGY PREDICTED BY IDOCK:   -1.93 KCAL/MOL
REMARK 927      BINDING AFFINITY PREDICTED BY RF-SCORE:    0.00 PKD
ROOT
HETATM    1  C   UNL     1      -5.877   7.976  73.246  1.00  0.00    -0.059 C  
HETATM    2  O   UNL     1      -5.940   7.361  71.959  1.00  0.00    -0.037 OA 
ENDROOT
BRANCH   2   3
HETATM    3  C   UNL     1      -6.882   6.378  71.779  1.00  0.00    -0.064 A  
HETATM    4  C   UNL     1      -7.241   5.475  72.795  1.00  0.00    -0.090 A  
HETATM    5  C   UNL     1      -8.160   4.447  72.559  1.00  0.00    -0.100 A  
HETATM    6  C   UNL     1      -8.753   4.318  71.312  1.00  0.00    -0.133 A  
HETATM    7  C   UNL     1      -8.424   5.212  70.300  1.00  0.00    -0.103 A  
HETATM    8  C   UNL     1      -7.497   6.245  70.517  1.00  0.00    -0.091 A  
BRANCH   8   9
HETATM    9  O   UNL     1      -7.270   6.968  69.364  1.00  0.00    -0.080 OA 
BRANCH   9  10
HETATM   10  C   UNL     1      -7.144   8.320  69.378  1.00  0.00    -0.055 A  
HETATM   11  C   UNL     1      -7.978   9.230  69.989  1.00  0.00    -0.121 A  
HETATM   12  N   UNL     1      -7.751  10.549  70.041  1.00  0.00    -0.059 NA 
HETATM   13  N   UNL     1      -5.808  10.208  68.706  1.00  0.00    -0.038 NA 
HETATM   14  C   UNL     1      -6.633  10.992  69.428  1.00  0.00    -0.104 A  
HETATM   15  C   UNL     1      -6.096   8.895  68.678  1.00  0.00    -0.045 A  
BRANCH  11  16
HETATM   16  N   UNL     1      -9.188   8.930  70.659  1.00  0.00    -0.194 N  
HETATM   17  H   UNL     1      -9.211   8.883  71.678  1.00  0.00     0.000 HD 
BRANCH  16  18
HETATM   18  S   UNL     1     -10.583   8.654  69.774  1.00  0.00    -0.213 S  
HETATM   19  O   UNL     1     -10.361   7.520  68.895  1.00  0.00    -0.204 OA 
HETATM   20  O   UNL     1     -11.670   8.632  70.734  1.00  0.00    -0.277 OA 
BRANCH  18  21
HETATM   21  C   UNL     1     -10.812  10.078  68.739  1.00  0.00    -0.219 A  
HETATM   22  C   UNL     1     -11.227  12.371  67.146  1.00  0.00    -0.353 A  
HETATM   23  C   UNL     1     -11.582  11.135  69.221  1.00  0.00    -0.388 A  
HETATM   24  C   UNL     1     -11.788  12.263  68.429  1.00  0.00    -0.358 A  
HETATM   25  C   UNL     1     -10.396  11.317  66.709  1.00  0.00    -0.278 A  
HETATM   26  C   UNL     1     -10.183  10.177  67.499  1.00  0.00    -0.257 A  
BRANCH  22  27
HETATM   27  C   UNL     1     -11.539  13.568  66.228  1.00  0.00    -0.374 C  
HETATM   28  C   UNL     1     -10.591  13.665  65.008  1.00  0.00    -0.394 C  
HETATM   29  C   UNL     1     -11.381  14.880  67.026  1.00  0.00    -0.345 C  
HETATM   30  C   UNL     1     -12.978  13.479  65.681  1.00  0.00    -0.231 C  
ENDBRANCH  22  27
ENDBRANCH  18  21
ENDBRANCH  16  18
ENDBRANCH  11  16
BRANCH  14  31
HETATM   31  C   UNL     1      -6.244  12.409  69.642  1.00  0.00    -0.130 A  
HETATM   32  N   UNL     1      -5.844  13.124  68.562  1.00  0.00    -0.076 NA 
HETATM   33  N   UNL     1      -6.231  12.887  70.910  1.00  0.00     0.004 NA 
HETATM   34  C   UNL     1      -5.803  14.150  71.073  1.00  0.00    -0.217 A  
HETATM   35  C   UNL     1      -5.416  14.377  68.790  1.00  0.00    -0.088 A  
HETATM   36  C   UNL     1      -5.376  14.949  70.038  1.00  0.00    -0.101 A  
ENDBRANCH  14  31
BRANCH  15  37
HETATM   37  O   UNL     1      -5.318   8.070  67.886  1.00  0.00    -0.031 OA 
BRANCH  37  38
HETATM   38  C   UNL     1      -5.166   8.472  66.518  1.00  0.00    -0.027 C  
BRANCH  38  39
HETATM   39  C   UNL     1      -6.220   7.800  65.645  1.00  0.00    -0.038 C  
HETATM   40  O   UNL     1      -7.447   8.521  65.692  1.00  0.00    -0.082 OA 
HETATM   41  H   UNL     1      -8.104   8.102  65.147  1.00  0.00     0.000 HD 
ENDBRANCH  38  39
ENDBRANCH  37  38
ENDBRANCH  15  37
ENDBRANCH   9  10
ENDBRANCH   8   9
ENDBRANCH   2   3
TORSDOF 11
ENDMDL
MODEL      163
REMARK 921   NORMALIZED FREE ENERGY PREDICTED BY IDOCK:   -3.35 KCAL/MOL
REMARK 922        TOTAL FREE ENERGY PREDICTED BY IDOCK:   -7.96 KCAL/MOL
REMARK 923 INTER-LIGAND FREE ENERGY PREDICTED BY IDOCK:   -6.89 KCAL/MOL
REMARK 924 INTRA-LIGAND FREE ENERGY PREDICTED BY IDOCK:   -1.07 KCAL/MOL
REMARK 927      BINDING AFFINITY PREDICTED BY RF-SCORE:    0.00 PKD
ROOT
HETATM    1  C   UNL     1     -10.258  18.554  69.101  1.00  0.00    -0.041 C  
HETATM    2  O   UNL     1     -10.386  17.217  69.584  1.00  0.00    -0.174 OA 
ENDROOT
BRANCH   2   3
HETATM    3  C   UNL     1      -9.315  16.377  69.398  1.00  0.00    -0.090 A  
HETATM    4  C   UNL     1      -7.985  16.788  69.594  1.00  0.00     0.563 A  
HETATM    5  C   UNL     1      -6.915  15.925  69.336  1.00  0.00    -0.211 A  
HETATM    6  C   UNL     1      -7.155  14.630  68.899  1.00  0.00    -0.117 A  
HETATM    7  C   UNL     1      -8.465  14.201  68.715  1.00  0.00    -0.069 A  
HETATM    8  C   UNL     1      -9.551  15.057  68.962  1.00  0.00    -0.225 A  
BRANCH   8   9
HETATM    9  O   UNL     1     -10.751  14.451  68.651  1.00  0.00    -0.238 OA 
BRANCH   9  10
HETATM   10  C   UNL     1     -10.856  13.107  68.490  1.00  0.00    -0.262 A  
HETATM   11  C   UNL     1     -10.572  12.377  67.357  1.00  0.00    -0.216 A  
HETATM   12  N   UNL     1     -10.612  11.040  67.288  1.00  0.00    -0.231 NA 
HETATM   13  N   UNL     1     -11.386  11.005  69.540  1.00  0.00    -0.262 NA 
HETATM   14  C   UNL     1     -10.978  10.390  68.412  1.00  0.00    -0.264 A  
HETATM   15  C   UNL     1     -11.338  12.349  69.545  1.00  0.00    -0.180 A  
BRANCH  11  16
HETATM   16  N   UNL     1     -10.189  12.905  66.101  1.00  0.00    -0.272 N  
HETATM   17  H   UNL     1      -9.360  12.548  65.626  1.00  0.00     0.000 HD 
BRANCH  16  18
HETATM   18  S   UNL     1     -11.102  14.120  65.396  1.00  0.00    -0.337 S  
HETATM   19  O   UNL     1     -11.128  13.910  63.959  1.00  0.00    -0.199 OA 
HETATM   20  O   UNL     1     -12.341  14.179  66.148  1.00  0.00    -0.450 OA 
BRANCH  18  21
HETATM   21  C   UNL     1     -10.227  15.638  65.684  1.00  0.00    -0.375 A  
HETATM   22  C   UNL     1      -8.906  18.090  66.139  1.00  0.00    -0.111 A  
HETATM   23  C   UNL     1     -10.965  16.800  65.903  1.00  0.00     0.087 A  
HETATM   24  C   UNL     1     -10.308  18.009  66.123  1.00  0.00    -0.368 A  
HETATM   25  C   UNL     1      -8.184  16.887  65.983  1.00  0.00    -0.178 A  
HETATM   26  C   UNL     1      -8.837  15.665  65.761  1.00  0.00     0.146 A  
BRANCH  22  27
HETATM   27  C   UNL     1      -8.178  19.441  66.277  1.00  0.00    -0.338 C  
HETATM   28  C   UNL     1      -7.169  19.472  67.450  1.00  0.00    -0.243 C  
HETATM   29  C   UNL     1      -9.212  20.555  66.543  1.00  0.00    -0.232 C  
HETATM   30  C   UNL     1      -7.394  19.774  64.992  1.00  0.00     0.319 C  
ENDBRANCH  22  27
ENDBRANCH  18  21
ENDBRANCH  16  18
ENDBRANCH  11  16
BRANCH  14  31
HETATM   31  C   UNL     1     -10.834   8.912  68.434  1.00  0.00     0.010 A  
HETATM   32  N   UNL     1     -10.630   8.280  67.253  1.00  0.00    -0.301 NA 
HETATM   33  N   UNL     1     -10.994   8.268  69.616  1.00  0.00    -0.151 NA 
HETATM   34  C   UNL     1     -10.930   6.927  69.584  1.00  0.00    -0.259 A  
HETATM   35  C   UNL     1     -10.586   6.938  67.283  1.00  0.00    -0.322 A  
HETATM   36  C   UNL     1     -10.730   6.201  68.434  1.00  0.00    -0.361 A  
ENDBRANCH  14  31
BRANCH  15  37
HETATM   37  O   UNL     1     -11.820  13.018  70.654  1.00  0.00    -0.223 OA 
BRANCH  37  38
HETATM   38  C   UNL     1     -13.238  12.963  70.856  1.00  0.00     0.224 C  
BRANCH  38  39
HETATM   39  C   UNL     1     -13.738  14.258  71.487  1.00  0.00    -0.353 C  
HETATM   40  O   UNL     1     -14.244  14.018  72.796  1.00  0.00    -0.583 OA 
HETATM   41  H   UNL     1     -14.555  14.825  73.190  1.00  0.00     0.000 HD 
ENDBRANCH  38  39
ENDBRANCH  37  38
ENDBRANCH  15  37
ENDBRANCH   9  10
ENDBRANCH   8   9
ENDBRANCH   2   3
TORSDOF 11
ENDMDL
MODEL      164
REMARK 921   NORMALIZED FREE ENERGY PREDICTED BY IDOCK:   -3.25 KCAL/MOL
REMARK 922        TOTAL FREE ENERGY PREDICTED BY IDOCK:   -7.81 KCAL/MOL
REMARK 923 INTER-LIGAND FREE ENERGY PREDICTED BY IDOCK:   -7.03 KCAL/MOL
REMARK 924 INTRA-LIGAND FREE ENERGY PREDICTED BY IDOCK:   -0.78 KCAL/MOL
REMARK 927      BINDING AFFINITY PREDICTED BY RF-SCORE:    0.00 PKD
ROOT
HETATM    1  C   UNL     1      -9.741   6.519  73.103  1.00  0.00    -0.158 C  
HETATM    2  O   UNL     1     -10.320   6.153  71.850  1.00  0.00    -0.201 OA 
ENDROOT
BRANCH   2   3
HETATM    3  C   UNL     1      -9.472   6.036  70.777  1.00  0.00    -0.168 A  
HETATM    4  C   UNL     1      -8.228   5.388  70.859  1.00  0.00    -0.117 A  
HETATM    5  C   UNL     1      -7.361   5.341  69.763  1.00  0.00    -0.064 A  
HETATM    6  C   UNL     1      -7.731   5.921  68.558  1.00  0.00    -0.094 A  
HETATM    7  C   UNL     1      -8.965   6.552  68.453  1.00  0.00    -0.125 A  
HETATM    8  C   UNL     1      -9.844   6.616  69.546  1.00  0.00    -0.152 A  
BRANCH   8   9
HETATM    9  O   UNL     1     -10.977   7.343  69.241  1.00  0.00    -0.180 OA 
BRANCH   9  10
HETATM   10  C   UNL     1     -11.052   8.680  69.462  1.00  0.00     0.033 A  
HETATM   11  C   UNL     1     -10.699   9.691  68.596  1.00  0.00    -0.201 A  
HETATM   12  N   UNL     1     -10.879  10.995  68.839  1.00  0.00    -0.202 NA 
HETATM   13  N   UNL     1     -11.705  10.417  70.998  1.00  0.00    -0.353 NA 
HETATM   14  C   UNL     1     -11.427  11.314  70.031  1.00  0.00    -0.275 A  
HETATM   15  C   UNL     1     -11.489   9.124  70.699  1.00  0.00    -0.262 A  
BRANCH  11  16
HETATM   16  N   UNL     1     -10.105   9.525  67.321  1.00  0.00    -0.200 N  
HETATM   17  H   UNL     1     -10.621   9.063  66.572  1.00  0.00     0.000 HD 
BRANCH  16  18
HETATM   18  S   UNL     1      -8.552  10.089  67.048  1.00  0.00    -0.124 S  
HETATM   19  O   UNL     1      -7.702   9.669  68.147  1.00  0.00    -0.085 OA 
HETATM   20  O   UNL     1      -8.223   9.715  65.686  1.00  0.00    -0.115 OA 
BRANCH  18  21
HETATM   21  C   UNL     1      -8.643  11.862  67.109  1.00  0.00    -0.172 A  
HETATM   22  C   UNL     1      -8.826  14.678  67.138  1.00  0.00    -0.238 A  
HETATM   23  C   UNL     1      -9.393  12.524  66.140  1.00  0.00    -0.136 A  
HETATM   24  C   UNL     1      -9.478  13.915  66.155  1.00  0.00    -0.194 A  
HETATM   25  C   UNL     1      -8.129  13.979  68.148  1.00  0.00    -0.151 A  
HETATM   26  C   UNL     1      -8.040  12.579  68.140  1.00  0.00    -0.167 A  
BRANCH  22  27
HETATM   27  C   UNL     1      -8.830  16.218  67.096  1.00  0.00    -0.212 C  
HETATM   28  C   UNL     1      -9.592  16.858  68.282  1.00  0.00    -0.258 C  
HETATM   29  C   UNL     1      -9.527  16.694  65.804  1.00  0.00    -0.104 C  
HETATM   30  C   UNL     1      -7.391  16.770  67.128  1.00  0.00    -0.222 C  
ENDBRANCH  22  27
ENDBRANCH  18  21
ENDBRANCH  16  18
ENDBRANCH  11  16
BRANCH  14  31
HETATM   31  C   UNL     1     -11.831  12.727  70.249  1.00  0.00    -0.212 A  
HETATM   32  N   UNL     1     -11.884  13.543  69.169  1.00  0.00    -0.322 NA 
HETATM   33  N   UNL     1     -12.045  13.144  71.522  1.00  0.00     0.271 NA 
HETATM   34  C   UNL     1     -12.336  14.445  71.687  1.00  0.00    -0.341 A  
HETATM   35  C   UNL     1     -12.169  14.835  69.400  1.00  0.00    -0.216 A  
HETATM   36  C   UNL     1     -12.409  15.347  70.652  1.00  0.00    -0.451 A  
ENDBRANCH  14  31
BRANCH  15  37
HETATM   37  O   UNL     1     -11.689   8.181  71.691  1.00  0.00    -0.265 OA 
BRANCH  37  38
HETATM   38  C   UNL     1     -12.873   8.341  72.483  1.00  0.00    -0.148 C  
BRANCH  38  39
HETATM   39  C   UNL     1     -14.013   7.503  71.912  1.00  0.00    -0.281 C  
HETATM   40  O   UNL     1     -13.569   6.745  70.792  1.00  0.00    -0.165 OA 
HETATM   41  H   UNL     1     -14.279   6.223  70.437  1.00  0.00     0.000 HD 
ENDBRANCH  38  39
ENDBRANCH  37  38
ENDBRANCH  15  37
ENDBRANCH   9  10
ENDBRANCH   8   9
ENDBRANCH   2   3
TORSDOF 11
ENDMDL
MODEL      165
REMARK 921   NORMALIZED FREE ENERGY PREDICTED BY IDOCK:   -3.21 KCAL/MOL
REMARK 922        TOTAL FREE ENERGY PREDICTED BY IDOCK:   -7.74 KCAL/MOL
REMARK 923 INTER-LIGAND FREE ENERGY PREDICTED BY IDOCK:   -5.96 KCAL/MOL
REMARK 924 INTRA-LIGAND FREE ENERGY PREDICTED BY IDOCK:   -1.78 KCAL/MOL
REMARK 927      BINDING AFFINITY PREDICTED BY RF-SCORE:    0.00 PKD
ROOT
HETATM    1  C   UNL     1      -6.900   7.110  72.532  1.00  0.00    -0.064 C  
HETATM    2  O   UNL     1      -7.169   7.847  71.339  1.00  0.00    -0.060 OA 
ENDROOT
BRANCH   2   3
HETATM    3  C   UNL     1      -6.469   9.013  71.150  1.00  0.00    -0.079 A  
HETATM    4  C   UNL     1      -5.832   9.694  72.200  1.00  0.00     0.163 A  
HETATM    5  C   UNL     1      -5.179  10.912  71.984  1.00  0.00     0.183 A  
HETATM    6  C   UNL     1      -5.134  11.460  70.709  1.00  0.00    -0.113 A  
HETATM    7  C   UNL     1      -5.744  10.791  69.655  1.00  0.00    -0.044 A  
HETATM    8  C   UNL     1      -6.410   9.571  69.856  1.00  0.00    -0.050 A  
BRANCH   8   9
HETATM    9  O   UNL     1      -6.999   9.120  68.692  1.00  0.00    -0.062 OA 
BRANCH   9  10
HETATM   10  C   UNL     1      -8.049   9.764  68.122  1.00  0.00    -0.108 A  
HETATM   11  C   UNL     1      -9.225  10.143  68.729  1.00  0.00    -0.164 A  
HETATM   12  N   UNL     1     -10.190  10.856  68.133  1.00  0.00    -0.170 NA 
HETATM   13  N   UNL     1      -8.918  10.783  66.120  1.00  0.00    -0.171 NA 
HETATM   14  C   UNL     1      -9.978  11.196  66.844  1.00  0.00    -0.198 A  
HETATM   15  C   UNL     1      -7.991  10.057  66.769  1.00  0.00    -0.114 A  
BRANCH  11  16
HETATM   16  N   UNL     1      -9.604   9.857  70.063  1.00  0.00    -0.314 N  
HETATM   17  H   UNL     1      -9.244  10.425  70.830  1.00  0.00     0.000 HD 
BRANCH  16  18
HETATM   18  S   UNL     1     -10.644   8.582  70.377  1.00  0.00    -0.228 S  
HETATM   19  O   UNL     1     -10.338   8.043  71.690  1.00  0.00    -0.201 OA 
HETATM   20  O   UNL     1     -11.977   9.070  70.080  1.00  0.00     0.066 OA 
BRANCH  18  21
HETATM   21  C   UNL     1     -10.260   7.317  69.192  1.00  0.00    -0.197 A  
HETATM   22  C   UNL     1      -9.598   5.275  67.360  1.00  0.00    -0.146 A  
HETATM   23  C   UNL     1      -9.420   6.275  69.579  1.00  0.00    -0.151 A  
HETATM   24  C   UNL     1      -9.092   5.271  68.670  1.00  0.00    -0.129 A  
HETATM   25  C   UNL     1     -10.501   6.304  67.015  1.00  0.00    -0.341 A  
HETATM   26  C   UNL     1     -10.836   7.319  67.923  1.00  0.00    -0.184 A  
BRANCH  22  27
HETATM   27  C   UNL     1      -9.155   4.226  66.322  1.00  0.00    -0.129 C  
HETATM   28  C   UNL     1      -9.799   4.436  64.930  1.00  0.00    -0.145 C  
HETATM   29  C   UNL     1      -9.573   2.820  66.803  1.00  0.00     0.134 C  
HETATM   30  C   UNL     1      -7.626   4.261  66.127  1.00  0.00    -0.089 C  
ENDBRANCH  22  27
ENDBRANCH  18  21
ENDBRANCH  16  18
ENDBRANCH  11  16
BRANCH  14  31
HETATM   31  C   UNL     1     -10.923  12.156  66.218  1.00  0.00    -0.295 A  
HETATM   32  N   UNL     1     -11.454  13.123  67.004  1.00  0.00    -0.318 NA 
HETATM   33  N   UNL     1     -11.266  11.965  64.920  1.00  0.00    -0.308 NA 
HETATM   34  C   UNL     1     -12.178  12.808  64.409  1.00  0.00    -0.428 A  
HETATM   35  C   UNL     1     -12.370  13.927  66.440  1.00  0.00    -0.426 A  
HETATM   36  C   UNL     1     -12.773  13.816  65.131  1.00  0.00    -0.439 A  
ENDBRANCH  14  31
BRANCH  15  37
HETATM   37  O   UNL     1      -6.929   9.551  66.043  1.00  0.00    -0.088 OA 
BRANCH  37  38
HETATM   38  C   UNL     1      -7.267   8.841  64.845  1.00  0.00    -0.084 C  
BRANCH  38  39
HETATM   39  C   UNL     1      -8.084   7.596  65.175  1.00  0.00    -0.134 C  
HETATM   40  O   UNL     1      -8.407   6.877  63.990  1.00  0.00    -0.335 OA 
HETATM   41  H   UNL     1      -8.916   6.101  64.195  1.00  0.00     0.000 HD 
ENDBRANCH  38  39
ENDBRANCH  37  38
ENDBRANCH  15  37
ENDBRANCH   9  10
ENDBRANCH   8   9
ENDBRANCH   2   3
TORSDOF 11
ENDMDL
MODEL      166
REMARK 921   NORMALIZED FREE ENERGY PREDICTED BY IDOCK:   -3.21 KCAL/MOL
REMARK 922        TOTAL FREE ENERGY PREDICTED BY IDOCK:   -7.74 KCAL/MOL
REMARK 923 INTER-LIGAND FREE ENERGY PREDICTED BY IDOCK:   -6.57 KCAL/MOL
REMARK 924 INTRA-LIGAND FREE ENERGY PREDICTED BY IDOCK:   -1.17 KCAL/MOL
REMARK 927      BINDING AFFINITY PREDICTED BY RF-SCORE:    0.00 PKD
ROOT
HETATM    1  C   UNL     1     -11.622  10.358  69.924  1.00  0.00    -0.284 C  
HETATM    2  O   UNL     1     -10.285  10.309  69.426  1.00  0.00    -0.210 OA 
ENDROOT
BRANCH   2   3
HETATM    3  C   UNL     1      -9.361   9.626  70.177  1.00  0.00    -0.251 A  
HETATM    4  C   UNL     1      -9.712   8.863  71.304  1.00  0.00    -0.359 A  
HETATM    5  C   UNL     1      -8.738   8.230  72.083  1.00  0.00    -0.259 A  
HETATM    6  C   UNL     1      -7.398   8.329  71.737  1.00  0.00    -0.105 A  
HETATM    7  C   UNL     1      -7.033   9.065  70.615  1.00  0.00    -0.076 A  
HETATM    8  C   UNL     1      -7.997   9.713  69.827  1.00  0.00    -0.151 A  
BRANCH   8   9
HETATM    9  O   UNL     1      -7.411  10.438  68.809  1.00  0.00    -0.082 OA 
BRANCH   9  10
HETATM   10  C   UNL     1      -8.145  11.192  67.951  1.00  0.00    -0.119 A  
HETATM   11  C   UNL     1      -8.885  10.752  66.876  1.00  0.00    -0.140 A  
HETATM   12  N   UNL     1      -9.660  11.539  66.118  1.00  0.00    -0.218 NA 
HETATM   13  N   UNL     1      -8.913  13.406  67.394  1.00  0.00    -0.205 NA 
HETATM   14  C   UNL     1      -9.683  12.850  66.438  1.00  0.00    -0.263 A  
HETATM   15  C   UNL     1      -8.145  12.568  68.112  1.00  0.00    -0.167 A  
BRANCH  11  16
HETATM   16  N   UNL     1      -8.959   9.419  66.406  1.00  0.00    -0.146 N  
HETATM   17  H   UNL     1      -9.564   8.744  66.872  1.00  0.00     0.000 HD 
BRANCH  16  18
HETATM   18  S   UNL     1      -8.047   8.954  65.080  1.00  0.00    -0.142 S  
HETATM   19  O   UNL     1      -8.788   9.267  63.871  1.00  0.00    -0.204 OA 
HETATM   20  O   UNL     1      -6.723   9.508  65.289  1.00  0.00    -0.077 OA 
BRANCH  18  21
HETATM   21  C   UNL     1      -7.907   7.186  65.162  1.00  0.00    -0.124 A  
HETATM   22  C   UNL     1      -7.716   4.371  65.219  1.00  0.00    -0.086 A  
HETATM   23  C   UNL     1      -8.194   6.442  64.019  1.00  0.00     0.024 A  
HETATM   24  C   UNL     1      -8.102   5.052  64.053  1.00  0.00    -0.119 A  
HETATM   25  C   UNL     1      -7.364   5.152  66.341  1.00  0.00    -0.086 A  
HETATM   26  C   UNL     1      -7.453   6.551  66.316  1.00  0.00    -0.081 A  
BRANCH  22  27
HETATM   27  C   UNL     1      -7.715   2.832  65.291  1.00  0.00    -0.077 C  
HETATM   28  C   UNL     1      -7.796   2.289  66.738  1.00  0.00    -0.071 C  
HETATM   29  C   UNL     1      -6.405   2.291  64.680  1.00  0.00    -0.019 C  
HETATM   30  C   UNL     1      -8.914   2.248  64.517  1.00  0.00    -0.118 C  
ENDBRANCH  22  27
ENDBRANCH  18  21
ENDBRANCH  16  18
ENDBRANCH  11  16
BRANCH  14  31
HETATM   31  C   UNL     1     -10.684  13.710  65.756  1.00  0.00    -0.280 A  
HETATM   32  N   UNL     1     -11.967  13.277  65.717  1.00  0.00    -0.394 NA 
HETATM   33  N   UNL     1     -10.248  14.837  65.141  1.00  0.00    -0.389 NA 
HETATM   34  C   UNL     1     -11.169  15.551  64.472  1.00  0.00    -0.315 A  
HETATM   35  C   UNL     1     -12.839  14.027  65.023  1.00  0.00    -0.258 A  
HETATM   36  C   UNL     1     -12.492  15.188  64.375  1.00  0.00    -0.107 A  
ENDBRANCH  14  31
BRANCH  15  37
HETATM   37  O   UNL     1      -7.284  13.109  69.049  1.00  0.00    -0.083 OA 
BRANCH  37  38
HETATM   38  C   UNL     1      -7.167  14.538  69.046  1.00  0.00    -0.130 C  
BRANCH  38  39
HETATM   39  C   UNL     1      -5.750  14.956  68.667  1.00  0.00    -0.091 C  
HETATM   40  O   UNL     1      -5.255  14.150  67.603  1.00  0.00    -0.306 OA 
HETATM   41  H   UNL     1      -4.372  14.410  67.366  1.00  0.00     0.000 HD 
ENDBRANCH  38  39
ENDBRANCH  37  38
ENDBRANCH  15  37
ENDBRANCH   9  10
ENDBRANCH   8   9
ENDBRANCH   2   3
TORSDOF 11
ENDMDL
MODEL      167
REMARK 921   NORMALIZED FREE ENERGY PREDICTED BY IDOCK:   -3.20 KCAL/MOL
REMARK 922        TOTAL FREE ENERGY PREDICTED BY IDOCK:   -7.72 KCAL/MOL
REMARK 923 INTER-LIGAND FREE ENERGY PREDICTED BY IDOCK:   -6.31 KCAL/MOL
REMARK 924 INTRA-LIGAND FREE ENERGY PREDICTED BY IDOCK:   -1.41 KCAL/MOL
REMARK 927      BINDING AFFINITY PREDICTED BY RF-SCORE:    0.00 PKD
ROOT
HETATM    1  C   UNL     1      -8.337   8.764  71.319  1.00  0.00    -0.176 C  
HETATM    2  O   UNL     1      -8.780   8.819  69.963  1.00  0.00    -0.132 OA 
ENDROOT
BRANCH   2   3
HETATM    3  C   UNL     1      -9.909   9.554  69.701  1.00  0.00    -0.205 A  
HETATM    4  C   UNL     1     -10.563  10.317  70.684  1.00  0.00    -0.035 A  
HETATM    5  C   UNL     1     -11.746  11.006  70.398  1.00  0.00    -0.437 A  
HETATM    6  C   UNL     1     -12.285  10.962  69.120  1.00  0.00    -0.181 A  
HETATM    7  C   UNL     1     -11.643  10.227  68.131  1.00  0.00     0.040 A  
HETATM    8  C   UNL     1     -10.459   9.523  68.402  1.00  0.00    -0.224 A  
BRANCH   8   9
HETATM    9  O   UNL     1     -10.032   8.810  67.301  1.00  0.00    -0.183 OA 
BRANCH   9  10
HETATM   10  C   UNL     1      -9.194   7.748  67.413  1.00  0.00    -0.136 A  
HETATM   11  C   UNL     1      -7.883   7.671  66.998  1.00  0.00    -0.112 A  
HETATM   12  N   UNL     1      -7.079   6.622  67.217  1.00  0.00    -0.078 NA 
HETATM   13  N   UNL     1      -8.921   5.497  68.226  1.00  0.00    -0.108 NA 
HETATM   14  C   UNL     1      -7.622   5.576  67.874  1.00  0.00    -0.085 A  
HETATM   15  C   UNL     1      -9.681   6.575  67.966  1.00  0.00    -0.118 A  
BRANCH  11  16
HETATM   16  N   UNL     1      -7.174   8.671  66.289  1.00  0.00    -0.078 N  
HETATM   17  H   UNL     1      -6.352   9.108  66.705  1.00  0.00     0.000 HD 
BRANCH  16  18
HETATM   18  S   UNL     1      -7.691   9.135  64.765  1.00  0.00    -0.117 S  
HETATM   19  O   UNL     1      -6.531   9.491  63.968  1.00  0.00    -0.092 OA 
HETATM   20  O   UNL     1      -8.595   8.095  64.314  1.00  0.00    -0.009 OA 
BRANCH  18  21
HETATM   21  C   UNL     1      -8.645  10.615  64.987  1.00  0.00    -0.160 A  
HETATM   22  C   UNL     1     -10.185  12.965  65.263  1.00  0.00    -0.294 A  
HETATM   23  C   UNL     1      -9.484  11.028  63.953  1.00  0.00    -0.280 A  
HETATM   24  C   UNL     1     -10.240  12.190  64.093  1.00  0.00    -0.370 A  
HETATM   25  C   UNL     1      -9.380  12.488  66.320  1.00  0.00    -0.177 A  
HETATM   26  C   UNL     1      -8.616  11.319  66.189  1.00  0.00    -0.156 A  
BRANCH  22  27
HETATM   27  C   UNL     1     -10.937  14.305  65.379  1.00  0.00    -0.335 C  
HETATM   28  C   UNL     1     -12.089  14.447  64.356  1.00  0.00    -0.491 C  
HETATM   29  C   UNL     1      -9.955  15.467  65.117  1.00  0.00    -0.229 C  
HETATM   30  C   UNL     1     -11.551  14.467  66.784  1.00  0.00    -0.388 C  
ENDBRANCH  22  27
ENDBRANCH  18  21
ENDBRANCH  16  18
ENDBRANCH  11  16
BRANCH  14  31
HETATM   31  C   UNL     1      -6.710   4.489  68.315  1.00  0.00    -0.047 A  
HETATM   32  N   UNL     1      -6.654   3.366  67.560  1.00  0.00    -0.037 NA 
HETATM   33  N   UNL     1      -6.046   4.644  69.488  1.00  0.00    -0.022 NA 
HETATM   34  C   UNL     1      -5.288   3.611  69.891  1.00  0.00    -0.008 A  
HETATM   35  C   UNL     1      -5.889   2.363  68.021  1.00  0.00    -0.023 A  
HETATM   36  C   UNL     1      -5.174   2.432  69.192  1.00  0.00    -0.012 A  
ENDBRANCH  14  31
BRANCH  15  37
HETATM   37  O   UNL     1     -11.034   6.504  68.242  1.00  0.00    -0.280 OA 
BRANCH  37  38
HETATM   38  C   UNL     1     -11.404   5.724  69.386  1.00  0.00     0.184 C  
BRANCH  38  39
HETATM   39  C   UNL     1     -11.374   6.580  70.648  1.00  0.00    -0.351 C  
HETATM   40  O   UNL     1     -12.696   6.854  71.101  1.00  0.00    -0.369 OA 
HETATM   41  H   UNL     1     -12.677   7.388  71.887  1.00  0.00     0.000 HD 
ENDBRANCH  38  39
ENDBRANCH  37  38
ENDBRANCH  15  37
ENDBRANCH   9  10
ENDBRANCH   8   9
ENDBRANCH   2   3
TORSDOF 11
ENDMDL
MODEL      168
REMARK 921   NORMALIZED FREE ENERGY PREDICTED BY IDOCK:   -3.13 KCAL/MOL
REMARK 922        TOTAL FREE ENERGY PREDICTED BY IDOCK:   -7.61 KCAL/MOL
REMARK 923 INTER-LIGAND FREE ENERGY PREDICTED BY IDOCK:   -6.14 KCAL/MOL
REMARK 924 INTRA-LIGAND FREE ENERGY PREDICTED BY IDOCK:   -1.47 KCAL/MOL
REMARK 927      BINDING AFFINITY PREDICTED BY RF-SCORE:    0.00 PKD
ROOT
HETATM    1  C   UNL     1      -9.267   7.253  74.132  1.00  0.00    -0.229 C  
HETATM    2  O   UNL     1      -8.345   6.614  73.248  1.00  0.00    -0.118 OA 
ENDROOT
BRANCH   2   3
HETATM    3  C   UNL     1      -7.613   7.423  72.414  1.00  0.00    -0.084 A  
HETATM    4  C   UNL     1      -6.425   8.055  72.819  1.00  0.00    -0.079 A  
HETATM    5  C   UNL     1      -5.737   8.922  71.963  1.00  0.00    -0.063 A  
HETATM    6  C   UNL     1      -6.212   9.154  70.680  1.00  0.00    -0.051 A  
HETATM    7  C   UNL     1      -7.376   8.524  70.256  1.00  0.00    -0.052 A  
HETATM    8  C   UNL     1      -8.084   7.657  71.105  1.00  0.00    -0.098 A  
BRANCH   8   9
HETATM    9  O   UNL     1      -9.240   7.199  70.507  1.00  0.00    -0.158 OA 
BRANCH   9  10
HETATM   10  C   UNL     1      -9.213   6.389  69.418  1.00  0.00    -0.143 A  
HETATM   11  C   UNL     1      -9.455   6.742  68.109  1.00  0.00    -0.120 A  
HETATM   12  N   UNL     1      -9.326   5.913  67.065  1.00  0.00    -0.118 NA 
HETATM   13  N   UNL     1      -8.798   4.164  68.594  1.00  0.00    -0.098 NA 
HETATM   14  C   UNL     1      -8.951   4.647  67.344  1.00  0.00    -0.111 A  
HETATM   15  C   UNL     1      -8.955   5.040  69.601  1.00  0.00    -0.099 A  
BRANCH  11  16
HETATM   16  N   UNL     1      -9.866   8.017  67.653  1.00  0.00    -0.158 N  
HETATM   17  H   UNL     1     -10.740   8.423  67.987  1.00  0.00     0.000 HD 
BRANCH  16  18
HETATM   18  S   UNL     1      -8.913   8.857  66.563  1.00  0.00    -0.166 S  
HETATM   19  O   UNL     1      -7.595   9.046  67.143  1.00  0.00    -0.090 OA 
HETATM   20  O   UNL     1      -9.060   8.175  65.292  1.00  0.00     0.002 OA 
BRANCH  18  21
HETATM   21  C   UNL     1      -9.642  10.467  66.393  1.00  0.00    -0.177 A  
HETATM   22  C   UNL     1     -10.807  13.031  66.203  1.00  0.00    -0.296 A  
HETATM   23  C   UNL     1      -9.869  11.220  67.544  1.00  0.00    -0.195 A  
HETATM   24  C   UNL     1     -10.448  12.484  67.446  1.00  0.00    -0.231 A  
HETATM   25  C   UNL     1     -10.504  12.277  65.049  1.00  0.00    -0.322 A  
HETATM   26  C   UNL     1      -9.921  11.004  65.138  1.00  0.00    -0.333 A  
BRANCH  22  27
HETATM   27  C   UNL     1     -11.543  14.381  66.099  1.00  0.00    -0.372 C  
HETATM   28  C   UNL     1     -10.791  15.420  65.233  1.00  0.00    -0.423 C  
HETATM   29  C   UNL     1     -11.691  14.993  67.508  1.00  0.00    -0.270 C  
HETATM   30  C   UNL     1     -12.941  14.195  65.478  1.00  0.00    -0.303 C  
ENDBRANCH  22  27
ENDBRANCH  18  21
ENDBRANCH  16  18
ENDBRANCH  11  16
BRANCH  14  31
HETATM   31  C   UNL     1      -8.599   3.763  66.204  1.00  0.00    -0.113 A  
HETATM   32  N   UNL     1      -8.784   2.429  66.358  1.00  0.00    -0.118 NA 
HETATM   33  N   UNL     1      -8.038   4.326  65.105  1.00  0.00    -0.100 NA 
HETATM   34  C   UNL     1      -7.665   3.487  64.124  1.00  0.00    -0.077 A  
HETATM   35  C   UNL     1      -8.380   1.642  65.347  1.00  0.00    -0.087 A  
HETATM   36  C   UNL     1      -7.810   2.122  64.193  1.00  0.00    -0.069 A  
ENDBRANCH  14  31
BRANCH  15  37
HETATM   37  O   UNL     1      -8.882   4.567  70.899  1.00  0.00    -0.107 OA 
BRANCH  37  38
HETATM   38  C   UNL     1     -10.002   3.795  71.351  1.00  0.00    -0.108 C  
BRANCH  38  39
HETATM   39  C   UNL     1     -10.045   3.761  72.875  1.00  0.00    -0.157 C  
HETATM   40  O   UNL     1     -11.352   4.066  73.349  1.00  0.00    -0.253 OA 
HETATM   41  H   UNL     1     -11.379   4.044  74.299  1.00  0.00     0.000 HD 
ENDBRANCH  38  39
ENDBRANCH  37  38
ENDBRANCH  15  37
ENDBRANCH   9  10
ENDBRANCH   8   9
ENDBRANCH   2   3
TORSDOF 11
ENDMDL
MODEL      169
REMARK 921   NORMALIZED FREE ENERGY PREDICTED BY IDOCK:   -3.07 KCAL/MOL
REMARK 922        TOTAL FREE ENERGY PREDICTED BY IDOCK:   -7.51 KCAL/MOL
REMARK 923 INTER-LIGAND FREE ENERGY PREDICTED BY IDOCK:   -6.27 KCAL/MOL
REMARK 924 INTRA-LIGAND FREE ENERGY PREDICTED BY IDOCK:   -1.24 KCAL/MOL
REMARK 927      BINDING AFFINITY PREDICTED BY RF-SCORE:    0.00 PKD
ROOT
HETATM    1  C   UNL     1     -12.654   9.456  71.091  1.00  0.00    -0.282 C  
HETATM    2  O   UNL     1     -11.926   8.252  70.847  1.00  0.00    -0.273 OA 
ENDROOT
BRANCH   2   3
HETATM    3  C   UNL     1     -10.607   8.228  71.225  1.00  0.00    -0.219 A  
HETATM    4  C   UNL     1     -10.202   8.277  72.570  1.00  0.00    -0.386 A  
HETATM    5  C   UNL     1      -8.848   8.313  72.919  1.00  0.00    -0.302 A  
HETATM    6  C   UNL     1      -7.874   8.279  71.930  1.00  0.00    -0.158 A  
HETATM    7  C   UNL     1      -8.256   8.214  70.595  1.00  0.00    -0.114 A  
HETATM    8  C   UNL     1      -9.611   8.185  70.227  1.00  0.00    -0.171 A  
BRANCH   8   9
HETATM    9  O   UNL     1      -9.761   8.189  68.856  1.00  0.00    -0.152 OA 
BRANCH   9  10
HETATM   10  C   UNL     1      -9.097   7.314  68.058  1.00  0.00    -0.133 A  
HETATM   11  C   UNL     1      -8.366   7.604  66.928  1.00  0.00    -0.124 A  
HETATM   12  N   UNL     1      -7.660   6.704  66.232  1.00  0.00    -0.088 NA 
HETATM   13  N   UNL     1      -8.473   5.015  67.702  1.00  0.00    -0.105 NA 
HETATM   14  C   UNL     1      -7.701   5.430  66.678  1.00  0.00    -0.100 A  
HETATM   15  C   UNL     1      -9.170   5.962  68.353  1.00  0.00    -0.117 A  
BRANCH  11  16
HETATM   16  N   UNL     1      -8.232   8.878  66.327  1.00  0.00    -0.109 N  
HETATM   17  H   UNL     1      -7.327   9.348  66.320  1.00  0.00     0.000 HD 
BRANCH  16  18
HETATM   18  S   UNL     1      -9.565   9.612  65.628  1.00  0.00    -0.280 S  
HETATM   19  O   UNL     1      -9.338   9.727  64.198  1.00  0.00    -0.266 OA 
HETATM   20  O   UNL     1     -10.725   8.900  66.129  1.00  0.00     0.257 OA 
BRANCH  18  21
HETATM   21  C   UNL     1      -9.628  11.264  66.278  1.00  0.00    -0.209 A  
HETATM   22  C   UNL     1      -9.708  13.860  67.382  1.00  0.00    -0.234 A  
HETATM   23  C   UNL     1      -9.192  11.482  67.583  1.00  0.00    -0.171 A  
HETATM   24  C   UNL     1      -9.237  12.765  68.126  1.00  0.00    -0.212 A  
HETATM   25  C   UNL     1     -10.079  13.623  66.040  1.00  0.00    -0.320 A  
HETATM   26  C   UNL     1     -10.037  12.335  65.486  1.00  0.00    -0.279 A  
BRANCH  22  27
HETATM   27  C   UNL     1      -9.858  15.258  68.012  1.00  0.00    -0.216 C  
HETATM   28  C   UNL     1      -9.605  16.409  67.009  1.00  0.00    -0.244 C  
HETATM   29  C   UNL     1      -8.829  15.420  69.151  1.00  0.00    -0.249 C  
HETATM   30  C   UNL     1     -11.278  15.452  68.581  1.00  0.00    -0.312 C  
ENDBRANCH  22  27
ENDBRANCH  18  21
ENDBRANCH  16  18
ENDBRANCH  11  16
BRANCH  14  31
HETATM   31  C   UNL     1      -6.772   4.451  66.059  1.00  0.00    -0.053 A  
HETATM   32  N   UNL     1      -6.306   4.721  64.815  1.00  0.00    -0.033 NA 
HETATM   33  N   UNL     1      -6.504   3.306  66.733  1.00  0.00    -0.036 NA 
HETATM   34  C   UNL     1      -5.718   2.411  66.111  1.00  0.00    -0.021 A  
HETATM   35  C   UNL     1      -5.535   3.783  64.241  1.00  0.00    -0.009 A  
HETATM   36  C   UNL     1      -5.203   2.597  64.850  1.00  0.00    -0.008 A  
ENDBRANCH  14  31
BRANCH  15  37
HETATM   37  O   UNL     1     -10.032   5.566  69.360  1.00  0.00    -0.173 OA 
BRANCH  37  38
HETATM   38  C   UNL     1      -9.676   4.364  70.056  1.00  0.00    -0.216 C  
BRANCH  38  39
HETATM   39  C   UNL     1      -8.547   4.635  71.044  1.00  0.00    -0.110 C  
HETATM   40  O   UNL     1      -7.352   3.978  70.635  1.00  0.00    -0.040 OA 
HETATM   41  H   UNL     1      -6.648   4.147  71.251  1.00  0.00     0.000 HD 
ENDBRANCH  38  39
ENDBRANCH  37  38
ENDBRANCH  15  37
ENDBRANCH   9  10
ENDBRANCH   8   9
ENDBRANCH   2   3
TORSDOF 11
ENDMDL
MODEL      170
REMARK 921   NORMALIZED FREE ENERGY PREDICTED BY IDOCK:   -3.06 KCAL/MOL
REMARK 922        TOTAL FREE ENERGY PREDICTED BY IDOCK:   -7.49 KCAL/MOL
REMARK 923 INTER-LIGAND FREE ENERGY PREDICTED BY IDOCK:   -7.72 KCAL/MOL
REMARK 924 INTRA-LIGAND FREE ENERGY PREDICTED BY IDOCK:    0.24 KCAL/MOL
REMARK 927      BINDING AFFINITY PREDICTED BY RF-SCORE:    0.00 PKD
ROOT
HETATM    1  C   UNL     1      -8.044   8.107  73.728  1.00  0.00    -0.226 C  
HETATM    2  O   UNL     1      -8.200   6.835  74.359  1.00  0.00    -0.122 OA 
ENDROOT
BRANCH   2   3
HETATM    3  C   UNL     1      -9.026   5.927  73.745  1.00  0.00    -0.127 A  
HETATM    4  C   UNL     1      -9.425   4.728  74.359  1.00  0.00    -0.139 A  
HETATM    5  C   UNL     1     -10.218   3.795  73.682  1.00  0.00    -0.212 A  
HETATM    6  C   UNL     1     -10.644   4.055  72.387  1.00  0.00    -0.095 A  
HETATM    7  C   UNL     1     -10.274   5.244  71.770  1.00  0.00    -0.269 A  
HETATM    8  C   UNL     1      -9.472   6.187  72.432  1.00  0.00    -0.148 A  
BRANCH   8   9
HETATM    9  O   UNL     1      -9.171   7.257  71.613  1.00  0.00    -0.146 OA 
BRANCH   9  10
HETATM   10  C   UNL     1      -9.037   7.117  70.270  1.00  0.00    -0.156 A  
HETATM   11  C   UNL     1      -9.906   7.555  69.295  1.00  0.00    -0.170 A  
HETATM   12  N   UNL     1      -9.675   7.464  67.979  1.00  0.00    -0.141 NA 
HETATM   13  N   UNL     1      -7.647   6.317  68.473  1.00  0.00    -0.091 NA 
HETATM   14  C   UNL     1      -8.515   6.882  67.610  1.00  0.00    -0.122 A  
HETATM   15  C   UNL     1      -7.940   6.427  69.781  1.00  0.00    -0.119 A  
BRANCH  11  16
HETATM   16  N   UNL     1     -11.161   8.172  69.514  1.00  0.00    -0.439 N  
HETATM   17  H   UNL     1     -12.019   7.705  69.219  1.00  0.00     0.000 HD 
BRANCH  16  18
HETATM   18  S   UNL     1     -11.233   9.670  70.259  1.00  0.00    -0.275 S  
HETATM   19  O   UNL     1     -12.505   9.786  70.951  1.00  0.00    -0.306 OA 
HETATM   20  O   UNL     1      -9.989   9.815  70.989  1.00  0.00    -0.182 OA 
BRANCH  18  21
HETATM   21  C   UNL     1     -11.236  10.878  68.959  1.00  0.00    -0.266 A  
HETATM   22  C   UNL     1     -11.273  12.852  66.941  1.00  0.00    -0.331 A  
HETATM   23  C   UNL     1     -11.592  12.189  69.269  1.00  0.00    -0.377 A  
HETATM   24  C   UNL     1     -11.613  13.160  68.269  1.00  0.00    -0.370 A  
HETATM   25  C   UNL     1     -10.851  11.533  66.668  1.00  0.00    -0.335 A  
HETATM   26  C   UNL     1     -10.827  10.550  67.668  1.00  0.00    -0.355 A  
BRANCH  22  27
HETATM   27  C   UNL     1     -11.397  13.896  65.815  1.00  0.00    -0.308 C  
HETATM   28  C   UNL     1     -10.518  13.571  64.583  1.00  0.00    -0.439 C  
HETATM   29  C   UNL     1     -10.941  15.274  66.341  1.00  0.00    -0.299 C  
HETATM   30  C   UNL     1     -12.854  13.999  65.322  1.00  0.00    -0.418 C  
ENDBRANCH  22  27
ENDBRANCH  18  21
ENDBRANCH  16  18
ENDBRANCH  11  16
BRANCH  14  31
HETATM   31  C   UNL     1      -8.132   6.950  66.176  1.00  0.00    -0.115 A  
HETATM   32  N   UNL     1      -7.412   5.922  65.665  1.00  0.00    -0.079 NA 
HETATM   33  N   UNL     1      -8.451   8.069  65.480  1.00  0.00    -0.146 NA 
HETATM   34  C   UNL     1      -8.024   8.126  64.207  1.00  0.00    -0.144 A  
HETATM   35  C   UNL     1      -7.004   6.044  64.391  1.00  0.00    -0.051 A  
HETATM   36  C   UNL     1      -7.287   7.134  63.605  1.00  0.00    -0.085 A  
ENDBRANCH  14  31
BRANCH  15  37
HETATM   37  O   UNL     1      -7.115   5.795  70.693  1.00  0.00    -0.068 OA 
BRANCH  37  38
HETATM   38  C   UNL     1      -6.403   4.649  70.209  1.00  0.00    -0.026 C  
BRANCH  38  39
HETATM   39  C   UNL     1      -5.823   3.851  71.372  1.00  0.00    -0.013 C  
HETATM   40  O   UNL     1      -6.167   4.453  72.616  1.00  0.00    -0.016 OA 
HETATM   41  H   UNL     1      -5.806   3.956  73.341  1.00  0.00     0.000 HD 
ENDBRANCH  38  39
ENDBRANCH  37  38
ENDBRANCH  15  37
ENDBRANCH   9  10
ENDBRANCH   8   9
ENDBRANCH   2   3
TORSDOF 11
ENDMDL
MODEL      171
REMARK 921   NORMALIZED FREE ENERGY PREDICTED BY IDOCK:   -3.01 KCAL/MOL
REMARK 922        TOTAL FREE ENERGY PREDICTED BY IDOCK:   -7.40 KCAL/MOL
REMARK 923 INTER-LIGAND FREE ENERGY PREDICTED BY IDOCK:   -5.39 KCAL/MOL
REMARK 924 INTRA-LIGAND FREE ENERGY PREDICTED BY IDOCK:   -2.01 KCAL/MOL
REMARK 927      BINDING AFFINITY PREDICTED BY RF-SCORE:    0.00 PKD
ROOT
HETATM    1  C   UNL     1     -11.158   6.151  66.301  1.00  0.00     0.522 C  
HETATM    2  O   UNL     1     -10.392   7.105  67.036  1.00  0.00    -0.242 OA 
ENDROOT
BRANCH   2   3
HETATM    3  C   UNL     1     -10.188   6.853  68.370  1.00  0.00    -0.176 A  
HETATM    4  C   UNL     1     -11.079   6.089  69.142  1.00  0.00    -0.405 A  
HETATM    5  C   UNL     1     -10.874   5.903  70.513  1.00  0.00    -0.366 A  
HETATM    6  C   UNL     1      -9.763   6.458  71.132  1.00  0.00    -0.191 A  
HETATM    7  C   UNL     1      -8.862   7.203  70.380  1.00  0.00    -0.151 A  
HETATM    8  C   UNL     1      -9.057   7.406  69.005  1.00  0.00    -0.133 A  
BRANCH   8   9
HETATM    9  O   UNL     1      -8.083   8.227  68.473  1.00  0.00    -0.120 OA 
BRANCH   9  10
HETATM   10  C   UNL     1      -8.335   9.521  68.147  1.00  0.00    -0.118 A  
HETATM   11  C   UNL     1      -8.715  10.013  66.918  1.00  0.00    -0.128 A  
HETATM   12  N   UNL     1      -9.035  11.291  66.680  1.00  0.00    -0.170 NA 
HETATM   13  N   UNL     1      -8.481  11.789  68.943  1.00  0.00     0.017 NA 
HETATM   14  C   UNL     1      -8.950  12.138  67.728  1.00  0.00    -0.179 A  
HETATM   15  C   UNL     1      -8.162  10.495  69.117  1.00  0.00    -0.150 A  
BRANCH  11  16
HETATM   16  N   UNL     1      -8.840   9.263  65.724  1.00  0.00    -0.165 N  
HETATM   17  H   UNL     1      -9.763   9.038  65.354  1.00  0.00     0.000 HD 
BRANCH  16  18
HETATM   18  S   UNL     1      -7.465   8.747  64.919  1.00  0.00    -0.099 S  
HETATM   19  O   UNL     1      -7.417   9.388  63.617  1.00  0.00    -0.106 OA 
HETATM   20  O   UNL     1      -6.368   8.910  65.853  1.00  0.00    -0.055 OA 
BRANCH  18  21
HETATM   21  C   UNL     1      -7.672   7.007  64.634  1.00  0.00    -0.116 A  
HETATM   22  C   UNL     1      -8.026   4.256  64.109  1.00  0.00    -0.090 A  
HETATM   23  C   UNL     1      -7.977   6.575  63.345  1.00  0.00    -0.077 A  
HETATM   24  C   UNL     1      -8.155   5.216  63.091  1.00  0.00    -0.101 A  
HETATM   25  C   UNL     1      -7.650   4.715  65.390  1.00  0.00    -0.081 A  
HETATM   26  C   UNL     1      -7.469   6.080  65.655  1.00  0.00    -0.082 A  
BRANCH  22  27
HETATM   27  C   UNL     1      -8.326   2.767  63.854  1.00  0.00    -0.086 C  
HETATM   28  C   UNL     1      -9.600   2.269  64.577  1.00  0.00    -0.086 C  
HETATM   29  C   UNL     1      -7.151   1.911  64.374  1.00  0.00    -0.051 C  
HETATM   30  C   UNL     1      -8.521   2.497  62.349  1.00  0.00    -0.074 C  
ENDBRANCH  22  27
ENDBRANCH  18  21
ENDBRANCH  16  18
ENDBRANCH  11  16
BRANCH  14  31
HETATM   31  C   UNL     1      -9.492  13.510  67.554  1.00  0.00    -0.222 A  
HETATM   32  N   UNL     1     -10.134  13.792  66.395  1.00  0.00    -0.287 NA 
HETATM   33  N   UNL     1      -9.245  14.425  68.523  1.00  0.00    -0.198 NA 
HETATM   34  C   UNL     1      -9.687  15.674  68.297  1.00  0.00    -0.201 A  
HETATM   35  C   UNL     1     -10.542  15.061  66.222  1.00  0.00    -0.307 A  
HETATM   36  C   UNL     1     -10.345  16.053  67.151  1.00  0.00    -0.295 A  
ENDBRANCH  14  31
BRANCH  15  37
HETATM   37  O   UNL     1      -7.606  10.113  70.324  1.00  0.00    -0.187 OA 
BRANCH  37  38
HETATM   38  C   UNL     1      -6.212   9.782  70.298  1.00  0.00    -0.074 C  
BRANCH  38  39
HETATM   39  C   UNL     1      -5.812   9.057  71.579  1.00  0.00    -0.062 C  
HETATM   40  O   UNL     1      -5.765   9.962  72.676  1.00  0.00    -0.299 OA 
HETATM   41  H   UNL     1      -5.516   9.511  73.475  1.00  0.00     0.000 HD 
ENDBRANCH  38  39
ENDBRANCH  37  38
ENDBRANCH  15  37
ENDBRANCH   9  10
ENDBRANCH   8   9
ENDBRANCH   2   3
TORSDOF 11
ENDMDL
MODEL      172
REMARK 921   NORMALIZED FREE ENERGY PREDICTED BY IDOCK:   -3.01 KCAL/MOL
REMARK 922        TOTAL FREE ENERGY PREDICTED BY IDOCK:   -7.40 KCAL/MOL
REMARK 923 INTER-LIGAND FREE ENERGY PREDICTED BY IDOCK:   -6.38 KCAL/MOL
REMARK 924 INTRA-LIGAND FREE ENERGY PREDICTED BY IDOCK:   -1.02 KCAL/MOL
REMARK 927      BINDING AFFINITY PREDICTED BY RF-SCORE:    0.00 PKD
ROOT
HETATM    1  C   UNL     1     -12.636   9.442  71.060  1.00  0.00    -0.220 C  
HETATM    2  O   UNL     1     -11.981   8.182  70.907  1.00  0.00    -0.275 OA 
ENDROOT
BRANCH   2   3
HETATM    3  C   UNL     1     -10.721   8.062  71.439  1.00  0.00    -0.229 A  
HETATM    4  C   UNL     1     -10.468   8.146  72.819  1.00  0.00    -0.385 A  
HETATM    5  C   UNL     1      -9.164   8.081  73.322  1.00  0.00    -0.347 A  
HETATM    6  C   UNL     1      -8.093   7.908  72.458  1.00  0.00    -0.167 A  
HETATM    7  C   UNL     1      -8.325   7.805  71.091  1.00  0.00    -0.112 A  
HETATM    8  C   UNL     1      -9.627   7.876  70.568  1.00  0.00    -0.170 A  
BRANCH   8   9
HETATM    9  O   UNL     1      -9.620   7.820  69.189  1.00  0.00    -0.155 OA 
BRANCH   9  10
HETATM   10  C   UNL     1      -8.965   6.842  68.514  1.00  0.00    -0.121 A  
HETATM   11  C   UNL     1      -8.096   6.995  67.457  1.00  0.00    -0.113 A  
HETATM   12  N   UNL     1      -7.411   5.994  66.888  1.00  0.00    -0.083 NA 
HETATM   13  N   UNL     1      -8.531   4.479  68.345  1.00  0.00    -0.092 NA 
HETATM   14  C   UNL     1      -7.621   4.759  67.391  1.00  0.00    -0.086 A  
HETATM   15  C   UNL     1      -9.197   5.523  68.868  1.00  0.00    -0.119 A  
BRANCH  11  16
HETATM   16  N   UNL     1      -7.778   8.213  66.810  1.00  0.00    -0.094 N  
HETATM   17  H   UNL     1      -7.384   8.988  67.343  1.00  0.00     0.000 HD 
BRANCH  16  18
HETATM   18  S   UNL     1      -8.053   8.379  65.166  1.00  0.00    -0.154 S  
HETATM   19  O   UNL     1      -6.788   8.650  64.506  1.00  0.00    -0.069 OA 
HETATM   20  O   UNL     1      -8.850   7.232  64.775  1.00  0.00     0.252 OA 
BRANCH  18  21
HETATM   21  C   UNL     1      -9.063   9.826  64.969  1.00  0.00    -0.231 A  
HETATM   22  C   UNL     1     -10.713  12.102  64.716  1.00  0.00    -0.342 A  
HETATM   23  C   UNL     1     -10.035  10.096  65.930  1.00  0.00    -0.334 A  
HETATM   24  C   UNL     1     -10.850  11.219  65.799  1.00  0.00    -0.257 A  
HETATM   25  C   UNL     1      -9.676  11.843  63.793  1.00  0.00    -0.233 A  
HETATM   26  C   UNL     1      -8.851  10.715  63.917  1.00  0.00    -0.171 A  
BRANCH  22  27
HETATM   27  C   UNL     1     -11.680  13.284  64.512  1.00  0.00    -0.420 C  
HETATM   28  C   UNL     1     -12.865  13.280  65.508  1.00  0.00    -0.288 C  
HETATM   29  C   UNL     1     -12.285  13.213  63.093  1.00  0.00    -0.275 C  
HETATM   30  C   UNL     1     -10.945  14.628  64.682  1.00  0.00    -0.340 C  
ENDBRANCH  22  27
ENDBRANCH  18  21
ENDBRANCH  16  18
ENDBRANCH  11  16
BRANCH  14  31
HETATM   31  C   UNL     1      -6.731   3.664  66.927  1.00  0.00    -0.046 A  
HETATM   32  N   UNL     1      -6.114   3.816  65.730  1.00  0.00    -0.027 NA 
HETATM   33  N   UNL     1      -6.647   2.542  67.683  1.00  0.00    -0.035 NA 
HETATM   34  C   UNL     1      -5.891   1.544  67.196  1.00  0.00    -0.019 A  
HETATM   35  C   UNL     1      -5.382   2.779  65.291  1.00  0.00    -0.009 A  
HETATM   36  C   UNL     1      -5.231   1.606  65.991  1.00  0.00    -0.005 A  
ENDBRANCH  14  31
BRANCH  15  37
HETATM   37  O   UNL     1     -10.193   5.267  69.793  1.00  0.00    -0.248 OA 
BRANCH  37  38
HETATM   38  C   UNL     1      -9.997   4.117  70.627  1.00  0.00    -0.114 C  
BRANCH  38  39
HETATM   39  C   UNL     1      -8.979   4.419  71.721  1.00  0.00    -0.124 C  
HETATM   40  O   UNL     1      -9.598   4.406  73.003  1.00  0.00    -0.127 OA 
HETATM   41  H   UNL     1      -8.964   4.593  73.685  1.00  0.00     0.000 HD 
ENDBRANCH  38  39
ENDBRANCH  37  38
ENDBRANCH  15  37
ENDBRANCH   9  10
ENDBRANCH   8   9
ENDBRANCH   2   3
TORSDOF 11
ENDMDL
MODEL      173
REMARK 921   NORMALIZED FREE ENERGY PREDICTED BY IDOCK:   -2.96 KCAL/MOL
REMARK 922        TOTAL FREE ENERGY PREDICTED BY IDOCK:   -7.33 KCAL/MOL
REMARK 923 INTER-LIGAND FREE ENERGY PREDICTED BY IDOCK:   -5.73 KCAL/MOL
REMARK 924 INTRA-LIGAND FREE ENERGY PREDICTED BY IDOCK:   -1.61 KCAL/MOL
REMARK 927      BINDING AFFINITY PREDICTED BY RF-SCORE:    0.00 PKD
ROOT
HETATM    1  C   UNL     1      -5.774   8.461  65.509  1.00  0.00    -0.044 C  
HETATM    2  O   UNL     1      -6.889   9.339  65.666  1.00  0.00    -0.072 OA 
ENDROOT
BRANCH   2   3
HETATM    3  C   UNL     1      -6.649  10.562  66.242  1.00  0.00    -0.118 A  
HETATM    4  C   UNL     1      -5.364  10.980  66.628  1.00  0.00    -0.092 A  
HETATM    5  C   UNL     1      -5.163  12.206  67.269  1.00  0.00    -0.106 A  
HETATM    6  C   UNL     1      -6.239  13.047  67.515  1.00  0.00    -0.143 A  
HETATM    7  C   UNL     1      -7.515  12.658  67.124  1.00  0.00    -0.055 A  
HETATM    8  C   UNL     1      -7.736  11.427  66.487  1.00  0.00    -0.093 A  
BRANCH   8   9
HETATM    9  O   UNL     1      -9.079  11.215  66.251  1.00  0.00    -0.181 OA 
BRANCH   9  10
HETATM   10  C   UNL     1      -9.906  10.714  67.204  1.00  0.00    -0.175 A  
HETATM   11  C   UNL     1      -9.968   9.416  67.657  1.00  0.00    -0.190 A  
HETATM   12  N   UNL     1     -10.747   9.002  68.665  1.00  0.00    -0.150 NA 
HETATM   13  N   UNL     1     -11.633  11.208  68.809  1.00  0.00    -0.295 NA 
HETATM   14  C   UNL     1     -11.529   9.937  69.244  1.00  0.00     0.007 A  
HETATM   15  C   UNL     1     -10.837  11.561  67.784  1.00  0.00    -0.221 A  
BRANCH  11  16
HETATM   16  N   UNL     1      -9.227   8.321  67.151  1.00  0.00    -0.140 N  
HETATM   17  H   UNL     1      -8.419   8.484  66.551  1.00  0.00     0.000 HD 
BRANCH  16  18
HETATM   18  S   UNL     1      -9.683   6.757  67.541  1.00  0.00    -0.134 S  
HETATM   19  O   UNL     1      -9.263   6.474  68.902  1.00  0.00    -0.130 OA 
HETATM   20  O   UNL     1     -11.080   6.641  67.168  1.00  0.00    -0.392 OA 
BRANCH  18  21
HETATM   21  C   UNL     1      -8.754   5.683  66.475  1.00  0.00    -0.121 A  
HETATM   22  C   UNL     1      -7.230   3.957  64.843  1.00  0.00    -0.067 A  
HETATM   23  C   UNL     1      -7.766   4.878  67.039  1.00  0.00    -0.092 A  
HETATM   24  C   UNL     1      -7.013   4.030  66.229  1.00  0.00    -0.063 A  
HETATM   25  C   UNL     1      -8.282   4.731  64.308  1.00  0.00    -0.117 A  
HETATM   26  C   UNL     1      -9.045   5.587  65.116  1.00  0.00     0.026 A  
BRANCH  22  27
HETATM   27  C   UNL     1      -6.330   3.101  63.931  1.00  0.00    -0.023 C  
HETATM   28  C   UNL     1      -5.492   3.942  62.939  1.00  0.00    -0.012 C  
HETATM   29  C   UNL     1      -7.210   2.154  63.086  1.00  0.00    -0.040 C  
HETATM   30  C   UNL     1      -5.343   2.263  64.767  1.00  0.00    -0.008 C  
ENDBRANCH  22  27
ENDBRANCH  18  21
ENDBRANCH  16  18
ENDBRANCH  11  16
BRANCH  14  31
HETATM   31  C   UNL     1     -12.246   9.563  70.491  1.00  0.00    -0.034 A  
HETATM   32  N   UNL     1     -12.361   8.245  70.781  1.00  0.00    -0.033 NA 
HETATM   33  N   UNL     1     -12.815  10.551  71.225  1.00  0.00    -0.397 NA 
HETATM   34  C   UNL     1     -13.517  10.169  72.305  1.00  0.00    -0.189 A  
HETATM   35  C   UNL     1     -13.085   7.925  71.867  1.00  0.00    -0.289 A  
HETATM   36  C   UNL     1     -13.690   8.856  72.675  1.00  0.00    -0.400 A  
ENDBRANCH  14  31
BRANCH  15  37
HETATM   37  O   UNL     1     -10.969  12.833  67.260  1.00  0.00    -0.249 OA 
BRANCH  37  38
HETATM   38  C   UNL     1     -10.680  13.916  68.153  1.00  0.00    -0.250 C  
BRANCH  38  39
HETATM   39  C   UNL     1     -11.147  15.240  67.556  1.00  0.00    -0.324 C  
HETATM   40  O   UNL     1     -10.845  15.298  66.166  1.00  0.00    -0.316 OA 
HETATM   41  H   UNL     1     -11.136  16.123  65.793  1.00  0.00     0.000 HD 
ENDBRANCH  38  39
ENDBRANCH  37  38
ENDBRANCH  15  37
ENDBRANCH   9  10
ENDBRANCH   8   9
ENDBRANCH   2   3
TORSDOF 11
ENDMDL
MODEL      174
REMARK 921   NORMALIZED FREE ENERGY PREDICTED BY IDOCK:   -2.93 KCAL/MOL
REMARK 922        TOTAL FREE ENERGY PREDICTED BY IDOCK:   -7.27 KCAL/MOL
REMARK 923 INTER-LIGAND FREE ENERGY PREDICTED BY IDOCK:   -7.12 KCAL/MOL
REMARK 924 INTRA-LIGAND FREE ENERGY PREDICTED BY IDOCK:   -0.14 KCAL/MOL
REMARK 927      BINDING AFFINITY PREDICTED BY RF-SCORE:    0.00 PKD
ROOT
HETATM    1  C   UNL     1     -10.345   5.615  72.981  1.00  0.00    -0.203 C  
HETATM    2  O   UNL     1      -9.686   6.830  72.623  1.00  0.00    -0.150 OA 
ENDROOT
BRANCH   2   3
HETATM    3  C   UNL     1     -10.451   7.811  72.042  1.00  0.00    -0.224 A  
HETATM    4  C   UNL     1     -11.543   8.408  72.695  1.00  0.00    -0.367 A  
HETATM    5  C   UNL     1     -12.339   9.361  72.052  1.00  0.00    -0.418 A  
HETATM    6  C   UNL     1     -12.044   9.751  70.753  1.00  0.00    -0.364 A  
HETATM    7  C   UNL     1     -10.958   9.184  70.098  1.00  0.00    -0.267 A  
HETATM    8  C   UNL     1     -10.153   8.220  70.726  1.00  0.00    -0.190 A  
BRANCH   8   9
HETATM    9  O   UNL     1      -9.178   7.744  69.873  1.00  0.00    -0.147 OA 
BRANCH   9  10
HETATM   10  C   UNL     1      -8.919   8.333  68.678  1.00  0.00    -0.137 A  
HETATM   11  C   UNL     1      -8.386   9.584  68.461  1.00  0.00    -0.118 A  
HETATM   12  N   UNL     1      -8.072  10.076  67.256  1.00  0.00    -0.113 NA 
HETATM   13  N   UNL     1      -8.947   8.086  66.282  1.00  0.00    -0.163 NA 
HETATM   14  C   UNL     1      -8.325   9.278  66.197  1.00  0.00    -0.119 A  
HETATM   15  C   UNL     1      -9.251   7.652  67.518  1.00  0.00    -0.132 A  
BRANCH  11  16
HETATM   16  N   UNL     1      -8.077  10.541  69.458  1.00  0.00    -0.314 N  
HETATM   17  H   UNL     1      -8.662  10.622  70.289  1.00  0.00     0.000 HD 
BRANCH  16  18
HETATM   18  S   UNL     1      -6.747  11.541  69.267  1.00  0.00    -0.114 S  
HETATM   19  O   UNL     1      -6.091  11.697  70.553  1.00  0.00    -0.269 OA 
HETATM   20  O   UNL     1      -6.012  11.019  68.131  1.00  0.00    -0.049 OA 
BRANCH  18  21
HETATM   21  C   UNL     1      -7.379  13.136  68.808  1.00  0.00    -0.068 A  
HETATM   22  C   UNL     1      -8.339  15.703  68.136  1.00  0.00    -0.146 A  
HETATM   23  C   UNL     1      -6.823  14.268  69.401  1.00  0.00    -0.122 A  
HETATM   24  C   UNL     1      -7.303  15.533  69.069  1.00  0.00    -0.162 A  
HETATM   25  C   UNL     1      -8.837  14.546  67.500  1.00  0.00    -0.193 A  
HETATM   26  C   UNL     1      -8.360  13.268  67.827  1.00  0.00    -0.171 A  
BRANCH  22  27
HETATM   27  C   UNL     1      -8.943  17.091  67.846  1.00  0.00    -0.228 C  
HETATM   28  C   UNL     1     -10.317  17.311  68.522  1.00  0.00    -0.371 C  
HETATM   29  C   UNL     1      -9.159  17.248  66.325  1.00  0.00    -0.245 C  
HETATM   30  C   UNL     1      -8.006  18.210  68.342  1.00  0.00    -0.312 C  
ENDBRANCH  22  27
ENDBRANCH  18  21
ENDBRANCH  16  18
ENDBRANCH  11  16
BRANCH  14  31
HETATM   31  C   UNL     1      -7.802   9.702  64.872  1.00  0.00    -0.123 A  
HETATM   32  N   UNL     1      -8.547  10.573  64.149  1.00  0.00    -0.173 NA 
HETATM   33  N   UNL     1      -6.655   9.136  64.424  1.00  0.00    -0.079 NA 
HETATM   34  C   UNL     1      -6.252   9.489  63.192  1.00  0.00    -0.102 A  
HETATM   35  C   UNL     1      -8.098  10.878  62.920  1.00  0.00     0.018 A  
HETATM   36  C   UNL     1      -6.943  10.362  62.385  1.00  0.00    -0.155 A  
ENDBRANCH  14  31
BRANCH  15  37
HETATM   37  O   UNL     1      -9.958   6.470  67.642  1.00  0.00    -0.120 OA 
BRANCH  37  38
HETATM   38  C   UNL     1     -10.364   5.848  66.417  1.00  0.00    -0.111 C  
BRANCH  38  39
HETATM   39  C   UNL     1      -9.923   4.388  66.389  1.00  0.00    -0.232 C  
HETATM   40  O   UNL     1     -10.761   3.625  65.527  1.00  0.00    -0.173 OA 
HETATM   41  H   UNL     1     -10.487   2.716  65.509  1.00  0.00     0.000 HD 
ENDBRANCH  38  39
ENDBRANCH  37  38
ENDBRANCH  15  37
ENDBRANCH   9  10
ENDBRANCH   8   9
ENDBRANCH   2   3
TORSDOF 11
ENDMDL
MODEL      175
REMARK 921   NORMALIZED FREE ENERGY PREDICTED BY IDOCK:   -2.82 KCAL/MOL
REMARK 922        TOTAL FREE ENERGY PREDICTED BY IDOCK:   -7.09 KCAL/MOL
REMARK 923 INTER-LIGAND FREE ENERGY PREDICTED BY IDOCK:   -7.03 KCAL/MOL
REMARK 924 INTRA-LIGAND FREE ENERGY PREDICTED BY IDOCK:   -0.06 KCAL/MOL
REMARK 927      BINDING AFFINITY PREDICTED BY RF-SCORE:    0.00 PKD
ROOT
HETATM    1  C   UNL     1     -11.284  14.646  67.208  1.00  0.00    -0.337 C  
HETATM    2  O   UNL     1     -12.044  13.457  67.424  1.00  0.00    -0.355 OA 
ENDROOT
BRANCH   2   3
HETATM    3  C   UNL     1     -12.152  13.007  68.716  1.00  0.00    -0.162 A  
HETATM    4  C   UNL     1     -12.458  13.857  69.793  1.00  0.00    -0.240 A  
HETATM    5  C   UNL     1     -12.499  13.377  71.106  1.00  0.00    -0.414 A  
HETATM    6  C   UNL     1     -12.258  12.035  71.364  1.00  0.00     0.112 A  
HETATM    7  C   UNL     1     -11.970  11.176  70.310  1.00  0.00    -0.460 A  
HETATM    8  C   UNL     1     -11.917  11.643  68.987  1.00  0.00    -0.305 A  
BRANCH   8   9
HETATM    9  O   UNL     1     -11.549  10.640  68.113  1.00  0.00    -0.429 OA 
BRANCH   9  10
HETATM   10  C   UNL     1     -10.507   9.809  68.370  1.00  0.00    -0.218 A  
HETATM   11  C   UNL     1     -10.560   8.551  68.927  1.00  0.00    -0.144 A  
HETATM   12  N   UNL     1      -9.502   7.743  69.075  1.00  0.00    -0.150 NA 
HETATM   13  N   UNL     1      -8.126   9.483  68.209  1.00  0.00    -0.101 NA 
HETATM   14  C   UNL     1      -8.313   8.227  68.662  1.00  0.00    -0.125 A  
HETATM   15  C   UNL     1      -9.223  10.252  68.096  1.00  0.00    -0.136 A  
BRANCH  11  16
HETATM   16  N   UNL     1     -11.721   7.907  69.419  1.00  0.00     0.098 N  
HETATM   17  H   UNL     1     -12.359   7.440  68.775  1.00  0.00     0.000 HD 
BRANCH  16  18
HETATM   18  S   UNL     1     -12.042   7.913  71.063  1.00  0.00    -0.174 S  
HETATM   19  O   UNL     1     -11.431   9.091  71.653  1.00  0.00    -0.311 OA 
HETATM   20  O   UNL     1     -13.468   7.688  71.194  1.00  0.00    -0.239 OA 
BRANCH  18  21
HETATM   21  C   UNL     1     -11.211   6.500  71.743  1.00  0.00    -0.269 A  
HETATM   22  C   UNL     1      -9.904   4.280  72.898  1.00  0.00    -0.183 A  
HETATM   23  C   UNL     1     -11.232   6.316  73.124  1.00  0.00    -0.125 A  
HETATM   24  C   UNL     1     -10.582   5.221  73.691  1.00  0.00    -0.322 A  
HETATM   25  C   UNL     1      -9.956   4.453  71.498  1.00  0.00    -0.250 A  
HETATM   26  C   UNL     1     -10.608   5.552  70.919  1.00  0.00    -0.309 A  
BRANCH  22  27
HETATM   27  C   UNL     1      -9.096   3.129  73.527  1.00  0.00    -0.091 C  
HETATM   28  C   UNL     1      -9.918   2.285  74.530  1.00  0.00    -0.152 C  
HETATM   29  C   UNL     1      -7.896   3.710  74.305  1.00  0.00    -0.070 C  
HETATM   30  C   UNL     1      -8.577   2.167  72.439  1.00  0.00    -0.070 C  
ENDBRANCH  22  27
ENDBRANCH  18  21
ENDBRANCH  16  18
ENDBRANCH  11  16
BRANCH  14  31
HETATM   31  C   UNL     1      -7.162   7.289  68.619  1.00  0.00    -0.090 A  
HETATM   32  N   UNL     1      -7.020   6.513  67.517  1.00  0.00    -0.076 NA 
HETATM   33  N   UNL     1      -6.365   7.200  69.712  1.00  0.00    -0.034 NA 
HETATM   34  C   UNL     1      -5.379   6.289  69.665  1.00  0.00    -0.013 A  
HETATM   35  C   UNL     1      -6.023   5.613  67.535  1.00  0.00    -0.021 A  
HETATM   36  C   UNL     1      -5.161   5.457  68.593  1.00  0.00     0.000 A  
ENDBRANCH  14  31
BRANCH  15  37
HETATM   37  O   UNL     1      -9.063  11.570  67.708  1.00  0.00    -0.156 OA 
BRANCH  37  38
HETATM   38  C   UNL     1      -7.819  11.892  67.074  1.00  0.00    -0.152 C  
BRANCH  38  39
HETATM   39  C   UNL     1      -7.361  13.289  67.478  1.00  0.00    -0.152 C  
HETATM   40  O   UNL     1      -5.977  13.468  67.192  1.00  0.00    -0.401 OA 
HETATM   41  H   UNL     1      -5.691  14.338  67.444  1.00  0.00     0.000 HD 
ENDBRANCH  38  39
ENDBRANCH  37  38
ENDBRANCH  15  37
ENDBRANCH   9  10
ENDBRANCH   8   9
ENDBRANCH   2   3
TORSDOF 11
ENDMDL
MODEL      176
REMARK 921   NORMALIZED FREE ENERGY PREDICTED BY IDOCK:   -2.69 KCAL/MOL
REMARK 922        TOTAL FREE ENERGY PREDICTED BY IDOCK:   -6.88 KCAL/MOL
REMARK 923 INTER-LIGAND FREE ENERGY PREDICTED BY IDOCK:   -6.15 KCAL/MOL
REMARK 924 INTRA-LIGAND FREE ENERGY PREDICTED BY IDOCK:   -0.73 KCAL/MOL
REMARK 927      BINDING AFFINITY PREDICTED BY RF-SCORE:    0.00 PKD
ROOT
HETATM    1  C   UNL     1     -11.443  13.860  69.540  1.00  0.00    -0.274 C  
HETATM    2  O   UNL     1     -11.573  12.559  68.966  1.00  0.00    -0.273 OA 
ENDROOT
BRANCH   2   3
HETATM    3  C   UNL     1     -11.416  12.455  67.606  1.00  0.00    -0.337 A  
HETATM    4  C   UNL     1     -12.284  13.075  66.691  1.00  0.00    -0.285 A  
HETATM    5  C   UNL     1     -12.132  12.897  65.313  1.00  0.00    -0.496 A  
HETATM    6  C   UNL     1     -11.096  12.115  64.822  1.00  0.00    -0.364 A  
HETATM    7  C   UNL     1     -10.217  11.508  65.711  1.00  0.00    -0.293 A  
HETATM    8  C   UNL     1     -10.360  11.669  67.098  1.00  0.00    -0.217 A  
BRANCH   8   9
HETATM    9  O   UNL     1      -9.425  10.927  67.791  1.00  0.00    -0.154 OA 
BRANCH   9  10
HETATM   10  C   UNL     1      -9.145   9.639  67.465  1.00  0.00    -0.130 A  
HETATM   11  C   UNL     1      -9.811   8.509  67.883  1.00  0.00    -0.170 A  
HETATM   12  N   UNL     1      -9.540   7.269  67.454  1.00  0.00    -0.137 NA 
HETATM   13  N   UNL     1      -7.739   8.165  66.180  1.00  0.00    -0.088 NA 
HETATM   14  C   UNL     1      -8.529   7.145  66.569  1.00  0.00    -0.125 A  
HETATM   15  C   UNL     1      -8.051   9.384  66.655  1.00  0.00    -0.108 A  
BRANCH  11  16
HETATM   16  N   UNL     1     -10.879   8.467  68.811  1.00  0.00    -0.432 N  
HETATM   17  H   UNL     1     -11.844   8.505  68.483  1.00  0.00     0.000 HD 
BRANCH  16  18
HETATM   18  S   UNL     1     -10.552   8.354  70.450  1.00  0.00    -0.227 S  
HETATM   19  O   UNL     1      -9.260   8.963  70.711  1.00  0.00    -0.183 OA 
HETATM   20  O   UNL     1     -11.738   8.838  71.130  1.00  0.00    -0.277 OA 
BRANCH  18  21
HETATM   21  C   UNL     1     -10.395   6.624  70.813  1.00  0.00    -0.202 A  
HETATM   22  C   UNL     1     -10.110   3.862  71.321  1.00  0.00    -0.098 A  
HETATM   23  C   UNL     1      -9.672   5.821  69.932  1.00  0.00    -0.212 A  
HETATM   24  C   UNL     1      -9.537   4.457  70.185  1.00  0.00    -0.263 A  
HETATM   25  C   UNL     1     -10.777   4.709  72.232  1.00  0.00    -0.148 A  
HETATM   26  C   UNL     1     -10.918   6.083  71.986  1.00  0.00    -0.313 A  
BRANCH  22  27
HETATM   27  C   UNL     1     -10.053   2.339  71.548  1.00  0.00    -0.026 C  
HETATM   28  C   UNL     1      -8.790   1.884  72.318  1.00  0.00    -0.094 C  
HETATM   29  C   UNL     1     -10.031   1.618  70.183  1.00  0.00     0.213 C  
HETATM   30  C   UNL     1     -11.276   1.860  72.354  1.00  0.00     0.414 C  
ENDBRANCH  22  27
ENDBRANCH  18  21
ENDBRANCH  16  18
ENDBRANCH  11  16
BRANCH  14  31
HETATM   31  C   UNL     1      -8.338   5.823  65.919  1.00  0.00    -0.130 A  
HETATM   32  N   UNL     1      -8.483   5.754  64.574  1.00  0.00    -0.091 NA 
HETATM   33  N   UNL     1      -8.110   4.746  66.711  1.00  0.00    -0.107 NA 
HETATM   34  C   UNL     1      -8.015   3.556  66.094  1.00  0.00    -0.092 A  
HETATM   35  C   UNL     1      -8.389   4.536  64.017  1.00  0.00    -0.116 A  
HETATM   36  C   UNL     1      -8.152   3.389  64.736  1.00  0.00    -0.090 A  
ENDBRANCH  14  31
BRANCH  15  37
HETATM   37  O   UNL     1      -7.219  10.443  66.340  1.00  0.00    -0.106 OA 
BRANCH  37  38
HETATM   38  C   UNL     1      -5.935  10.445  66.976  1.00  0.00    -0.052 C  
BRANCH  38  39
HETATM   39  C   UNL     1      -5.901   9.428  68.112  1.00  0.00    -0.037 C  
HETATM   40  O   UNL     1      -5.176   8.265  67.725  1.00  0.00    -0.032 OA 
HETATM   41  H   UNL     1      -5.154   7.631  68.432  1.00  0.00     0.000 HD 
ENDBRANCH  38  39
ENDBRANCH  37  38
ENDBRANCH  15  37
ENDBRANCH   9  10
ENDBRANCH   8   9
ENDBRANCH   2   3
TORSDOF 11
ENDMDL
MODEL      177
REMARK 921   NORMALIZED FREE ENERGY PREDICTED BY IDOCK:   -2.67 KCAL/MOL
REMARK 922        TOTAL FREE ENERGY PREDICTED BY IDOCK:   -6.85 KCAL/MOL
REMARK 923 INTER-LIGAND FREE ENERGY PREDICTED BY IDOCK:   -6.41 KCAL/MOL
REMARK 924 INTRA-LIGAND FREE ENERGY PREDICTED BY IDOCK:   -0.44 KCAL/MOL
REMARK 927      BINDING AFFINITY PREDICTED BY RF-SCORE:    0.00 PKD
ROOT
HETATM    1  C   UNL     1     -12.013  15.427  69.008  1.00  0.00    -0.288 C  
HETATM    2  O   UNL     1     -11.996  14.221  68.244  1.00  0.00    -0.341 OA 
ENDROOT
BRANCH   2   3
HETATM    3  C   UNL     1     -11.677  13.062  68.908  1.00  0.00    -0.328 A  
HETATM    4  C   UNL     1     -12.499  12.508  69.904  1.00  0.00     0.018 A  
HETATM    5  C   UNL     1     -12.114  11.360  70.605  1.00  0.00    -0.469 A  
HETATM    6  C   UNL     1     -10.913  10.732  70.306  1.00  0.00    -0.160 A  
HETATM    7  C   UNL     1     -10.096  11.256  69.311  1.00  0.00    -0.018 A  
HETATM    8  C   UNL     1     -10.463  12.413  68.604  1.00  0.00    -0.204 A  
BRANCH   8   9
HETATM    9  O   UNL     1      -9.478  12.794  67.715  1.00  0.00    -0.191 OA 
BRANCH   9  10
HETATM   10  C   UNL     1      -8.790  11.888  66.974  1.00  0.00    -0.190 A  
HETATM   11  C   UNL     1      -7.599  11.277  67.298  1.00  0.00    -0.130 A  
HETATM   12  N   UNL     1      -7.013  10.323  66.562  1.00  0.00    -0.101 NA 
HETATM   13  N   UNL     1      -8.749  10.580  64.952  1.00  0.00    -0.180 NA 
HETATM   14  C   UNL     1      -7.643   9.971  65.422  1.00  0.00    -0.138 A  
HETATM   15  C   UNL     1      -9.284  11.540  65.728  1.00  0.00    -0.196 A  
BRANCH  11  16
HETATM   16  N   UNL     1      -6.812  11.542  68.444  1.00  0.00    -0.065 N  
HETATM   17  H   UNL     1      -6.397  12.464  68.578  1.00  0.00     0.000 HD 
BRANCH  16  18
HETATM   18  S   UNL     1      -6.565  10.336  69.580  1.00  0.00    -0.079 S  
HETATM   19  O   UNL     1      -5.137  10.110  69.717  1.00  0.00    -0.038 OA 
HETATM   20  O   UNL     1      -7.360  10.704  70.735  1.00  0.00     0.157 OA 
BRANCH  18  21
HETATM   21  C   UNL     1      -7.263   8.853  68.898  1.00  0.00    -0.074 A  
HETATM   22  C   UNL     1      -8.446   6.524  67.828  1.00  0.00    -0.118 A  
HETATM   23  C   UNL     1      -8.641   8.797  68.697  1.00  0.00    -0.134 A  
HETATM   24  C   UNL     1      -9.221   7.644  68.172  1.00  0.00    -0.138 A  
HETATM   25  C   UNL     1      -7.046   6.632  67.978  1.00  0.00    -0.089 A  
HETATM   26  C   UNL     1      -6.453   7.789  68.506  1.00  0.00    -0.052 A  
BRANCH  22  27
HETATM   27  C   UNL     1      -9.094   5.212  67.347  1.00  0.00    -0.116 C  
HETATM   28  C   UNL     1     -10.289   5.437  66.390  1.00  0.00    -0.298 C  
HETATM   29  C   UNL     1      -9.635   4.431  68.565  1.00  0.00    -0.208 C  
HETATM   30  C   UNL     1      -8.069   4.337  66.600  1.00  0.00    -0.102 C  
ENDBRANCH  22  27
ENDBRANCH  18  21
ENDBRANCH  16  18
ENDBRANCH  11  16
BRANCH  14  31
HETATM   31  C   UNL     1      -7.135   8.780  64.692  1.00  0.00    -0.088 A  
HETATM   32  N   UNL     1      -5.848   8.799  64.272  1.00  0.00    -0.065 NA 
HETATM   33  N   UNL     1      -8.006   7.778  64.416  1.00  0.00    -0.137 NA 
HETATM   34  C   UNL     1      -7.530   6.751  63.691  1.00  0.00    -0.084 A  
HETATM   35  C   UNL     1      -5.434   7.750  63.542  1.00  0.00    -0.049 A  
HETATM   36  C   UNL     1      -6.240   6.686  63.219  1.00  0.00    -0.041 A  
ENDBRANCH  14  31
BRANCH  15  37
HETATM   37  O   UNL     1     -10.374  12.241  65.245  1.00  0.00    -0.268 OA 
BRANCH  37  38
HETATM   38  C   UNL     1     -11.206  11.544  64.310  1.00  0.00    -0.283 C  
BRANCH  38  39
HETATM   39  C   UNL     1     -12.503  12.312  64.074  1.00  0.00    -0.458 C  
HETATM   40  O   UNL     1     -12.817  13.126  65.199  1.00  0.00    -0.669 OA 
HETATM   41  H   UNL     1     -13.624  13.605  65.052  1.00  0.00     0.000 HD 
ENDBRANCH  38  39
ENDBRANCH  37  38
ENDBRANCH  15  37
ENDBRANCH   9  10
ENDBRANCH   8   9
ENDBRANCH   2   3
TORSDOF 11
ENDMDL
MODEL      178
REMARK 921   NORMALIZED FREE ENERGY PREDICTED BY IDOCK:   -2.64 KCAL/MOL
REMARK 922        TOTAL FREE ENERGY PREDICTED BY IDOCK:   -6.80 KCAL/MOL
REMARK 923 INTER-LIGAND FREE ENERGY PREDICTED BY IDOCK:   -5.74 KCAL/MOL
REMARK 924 INTRA-LIGAND FREE ENERGY PREDICTED BY IDOCK:   -1.06 KCAL/MOL
REMARK 927      BINDING AFFINITY PREDICTED BY RF-SCORE:    0.00 PKD
ROOT
HETATM    1  C   UNL     1     -10.646   9.949  71.062  1.00  0.00    -0.103 C  
HETATM    2  O   UNL     1     -10.819   9.185  69.868  1.00  0.00    -0.230 OA 
ENDROOT
BRANCH   2   3
HETATM    3  C   UNL     1     -10.787   9.867  68.677  1.00  0.00    -0.209 A  
HETATM    4  C   UNL     1     -11.391  11.125  68.505  1.00  0.00    -0.348 A  
HETATM    5  C   UNL     1     -11.394  11.764  67.262  1.00  0.00    -0.379 A  
HETATM    6  C   UNL     1     -10.773  11.169  66.173  1.00  0.00    -0.285 A  
HETATM    7  C   UNL     1     -10.155   9.934  66.327  1.00  0.00    -0.311 A  
HETATM    8  C   UNL     1     -10.150   9.274  67.567  1.00  0.00    -0.218 A  
BRANCH   8   9
HETATM    9  O   UNL     1      -9.544   8.037  67.477  1.00  0.00    -0.144 OA 
BRANCH   9  10
HETATM   10  C   UNL     1      -9.592   7.139  68.494  1.00  0.00    -0.139 A  
HETATM   11  C   UNL     1      -8.847   7.148  69.652  1.00  0.00    -0.141 A  
HETATM   12  N   UNL     1      -9.003   6.280  70.660  1.00  0.00    -0.143 NA 
HETATM   13  N   UNL     1     -10.656   5.160  69.361  1.00  0.00    -0.149 NA 
HETATM   14  C   UNL     1      -9.949   5.331  70.496  1.00  0.00    -0.229 A  
HETATM   15  C   UNL     1     -10.445   6.053  68.379  1.00  0.00    -0.238 A  
BRANCH  11  16
HETATM   16  N   UNL     1      -7.814   8.062  69.970  1.00  0.00    -0.102 N  
HETATM   17  H   UNL     1      -8.034   8.938  70.444  1.00  0.00     0.000 HD 
BRANCH  16  18
HETATM   18  S   UNL     1      -6.229   7.701  69.565  1.00  0.00    -0.031 S  
HETATM   19  O   UNL     1      -5.453   8.929  69.577  1.00  0.00    -0.034 OA 
HETATM   20  O   UNL     1      -5.844   6.585  70.407  1.00  0.00    -0.022 OA 
BRANCH  18  21
HETATM   21  C   UNL     1      -6.259   7.122  67.887  1.00  0.00    -0.042 A  
HETATM   22  C   UNL     1      -6.307   6.126  65.246  1.00  0.00    -0.038 A  
HETATM   23  C   UNL     1      -6.424   5.757  67.657  1.00  0.00    -0.047 A  
HETATM   24  C   UNL     1      -6.443   5.269  66.352  1.00  0.00    -0.044 A  
HETATM   25  C   UNL     1      -6.210   7.510  65.505  1.00  0.00    -0.038 A  
HETATM   26  C   UNL     1      -6.191   8.010  66.816  1.00  0.00    -0.054 A  
BRANCH  22  27
HETATM   27  C   UNL     1      -6.221   5.579  63.808  1.00  0.00    -0.022 C  
HETATM   28  C   UNL     1      -7.545   5.727  63.020  1.00  0.00    -0.082 C  
HETATM   29  C   UNL     1      -5.891   4.071  63.853  1.00  0.00    -0.014 C  
HETATM   30  C   UNL     1      -5.128   6.314  63.008  1.00  0.00    -0.018 C  
ENDBRANCH  22  27
ENDBRANCH  18  21
ENDBRANCH  16  18
ENDBRANCH  11  16
BRANCH  14  31
HETATM   31  C   UNL     1     -10.291   4.487  71.669  1.00  0.00    -0.090 A  
HETATM   32  N   UNL     1      -9.929   3.181  71.635  1.00  0.00    -0.143 NA 
HETATM   33  N   UNL     1     -11.015   5.043  72.671  1.00  0.00    -0.230 NA 
HETATM   34  C   UNL     1     -11.369   4.230  73.681  1.00  0.00    -0.191 A  
HETATM   35  C   UNL     1     -10.322   2.417  72.667  1.00  0.00    -0.156 A  
HETATM   36  C   UNL     1     -11.050   2.894  73.730  1.00  0.00    -0.302 A  
ENDBRANCH  14  31
BRANCH  15  37
HETATM   37  O   UNL     1     -11.094   5.867  67.173  1.00  0.00    -0.256 OA 
BRANCH  37  38
HETATM   38  C   UNL     1     -10.312   5.290  66.119  1.00  0.00    -0.190 C  
BRANCH  38  39
HETATM   39  C   UNL     1      -9.633   4.011  66.598  1.00  0.00    -0.209 C  
HETATM   40  O   UNL     1      -8.852   3.435  65.556  1.00  0.00    -0.122 OA 
HETATM   41  H   UNL     1      -8.429   2.638  65.854  1.00  0.00     0.000 HD 
ENDBRANCH  38  39
ENDBRANCH  37  38
ENDBRANCH  15  37
ENDBRANCH   9  10
ENDBRANCH   8   9
ENDBRANCH   2   3
TORSDOF 11
ENDMDL
MODEL      179
REMARK 921   NORMALIZED FREE ENERGY PREDICTED BY IDOCK:   -2.59 KCAL/MOL
REMARK 922        TOTAL FREE ENERGY PREDICTED BY IDOCK:   -6.71 KCAL/MOL
REMARK 923 INTER-LIGAND FREE ENERGY PREDICTED BY IDOCK:   -9.34 KCAL/MOL
REMARK 924 INTRA-LIGAND FREE ENERGY PREDICTED BY IDOCK:    2.63 KCAL/MOL
REMARK 927      BINDING AFFINITY PREDICTED BY RF-SCORE:    0.00 PKD
ROOT
HETATM    1  C   UNL     1      -7.901   9.689  69.558  1.00  0.00    -0.117 C  
HETATM    2  O   UNL     1      -8.987   9.750  68.633  1.00  0.00    -0.125 OA 
ENDROOT
BRANCH   2   3
HETATM    3  C   UNL     1     -10.049  10.556  68.964  1.00  0.00    -0.217 A  
HETATM    4  C   UNL     1     -10.953  10.237  69.991  1.00  0.00    -0.371 A  
HETATM    5  C   UNL     1     -12.059  11.049  70.261  1.00  0.00    -0.448 A  
HETATM    6  C   UNL     1     -12.269  12.206  69.524  1.00  0.00    -0.169 A  
HETATM    7  C   UNL     1     -11.376  12.546  68.515  1.00  0.00    -0.337 A  
HETATM    8  C   UNL     1     -10.265  11.739  68.226  1.00  0.00    -0.205 A  
BRANCH   8   9
HETATM    9  O   UNL     1      -9.554  12.226  67.148  1.00  0.00    -0.193 OA 
BRANCH   9  10
HETATM   10  C   UNL     1      -9.437  13.557  66.908  1.00  0.00    -0.258 A  
HETATM   11  C   UNL     1      -9.709  14.221  65.733  1.00  0.00    -0.234 A  
HETATM   12  N   UNL     1      -9.658  15.551  65.585  1.00  0.00    -0.325 NA 
HETATM   13  N   UNL     1      -8.895  15.713  67.835  1.00  0.00    -0.171 NA 
HETATM   14  C   UNL     1      -9.292  16.264  66.671  1.00  0.00    -0.248 A  
HETATM   15  C   UNL     1      -8.954  14.373  67.919  1.00  0.00    -0.186 A  
BRANCH  11  16
HETATM   16  N   UNL     1     -10.090  13.623  64.508  1.00  0.00    -0.651 N  
HETATM   17  H   UNL     1      -9.786  14.029  63.623  1.00  0.00     0.000 HD 
BRANCH  16  18
HETATM   18  S   UNL     1     -11.041  12.244  64.516  1.00  0.00    -0.342 S  
HETATM   19  O   UNL     1     -11.560  12.043  65.857  1.00  0.00    -0.362 OA 
HETATM   20  O   UNL     1     -11.950  12.377  63.393  1.00  0.00    -0.490 OA 
BRANCH  18  21
HETATM   21  C   UNL     1      -9.956  10.882  64.168  1.00  0.00    -0.344 A  
HETATM   22  C   UNL     1      -8.257   8.717  63.542  1.00  0.00    -0.150 A  
HETATM   23  C   UNL     1      -9.842  10.441  62.852  1.00  0.00    -0.156 A  
HETATM   24  C   UNL     1      -9.006   9.369  62.547  1.00  0.00    -0.241 A  
HETATM   25  C   UNL     1      -8.338   9.228  64.855  1.00  0.00    -0.164 A  
HETATM   26  C   UNL     1      -9.178  10.307  65.171  1.00  0.00    -0.252 A  
BRANCH  22  27
HETATM   27  C   UNL     1      -7.414   7.466  63.226  1.00  0.00    -0.101 C  
HETATM   28  C   UNL     1      -8.171   6.421  62.372  1.00  0.00    -0.066 C  
HETATM   29  C   UNL     1      -7.020   6.768  64.546  1.00  0.00    -0.058 C  
HETATM   30  C   UNL     1      -6.137   7.849  62.454  1.00  0.00    -0.073 C  
ENDBRANCH  22  27
ENDBRANCH  18  21
ENDBRANCH  16  18
ENDBRANCH  11  16
BRANCH  14  31
HETATM   31  C   UNL     1      -9.425  17.742  66.604  1.00  0.00    -0.292 A  
HETATM   32  N   UNL     1      -8.290  18.473  66.485  1.00  0.00    -0.277 NA 
HETATM   33  N   UNL     1     -10.660  18.283  66.747  1.00  0.00    -0.351 NA 
HETATM   34  C   UNL     1     -10.732  19.624  66.755  1.00  0.00    -0.447 A  
HETATM   35  C   UNL     1      -8.425  19.809  66.512  1.00  0.00    -0.345 A  
HETATM   36  C   UNL     1      -9.635  20.446  66.644  1.00  0.00    -0.480 A  
ENDBRANCH  14  31
BRANCH  15  37
HETATM   37  O   UNL     1      -8.483  13.766  69.069  1.00  0.00     0.061 OA 
BRANCH  37  38
HETATM   38  C   UNL     1      -7.059  13.734  69.226  1.00  0.00    -0.004 C  
BRANCH  38  39
HETATM   39  C   UNL     1      -6.528  12.325  68.983  1.00  0.00    -0.096 C  
HETATM   40  O   UNL     1      -5.557  12.326  67.941  1.00  0.00    -0.058 OA 
HETATM   41  H   UNL     1      -5.226  11.448  67.790  1.00  0.00     0.000 HD 
ENDBRANCH  38  39
ENDBRANCH  37  38
ENDBRANCH  15  37
ENDBRANCH   9  10
ENDBRANCH   8   9
ENDBRANCH   2   3
TORSDOF 11
ENDMDL
MODEL      180
REMARK 921   NORMALIZED FREE ENERGY PREDICTED BY IDOCK:   -2.53 KCAL/MOL
REMARK 922        TOTAL FREE ENERGY PREDICTED BY IDOCK:   -6.61 KCAL/MOL
REMARK 923 INTER-LIGAND FREE ENERGY PREDICTED BY IDOCK:   -5.66 KCAL/MOL
REMARK 924 INTRA-LIGAND FREE ENERGY PREDICTED BY IDOCK:   -0.95 KCAL/MOL
REMARK 927      BINDING AFFINITY PREDICTED BY RF-SCORE:    0.00 PKD
ROOT
HETATM    1  C   UNL     1     -11.613  13.983  70.097  1.00  0.00    -0.204 C  
HETATM    2  O   UNL     1     -10.875  12.932  69.472  1.00  0.00     0.011 OA 
ENDROOT
BRANCH   2   3
HETATM    3  C   UNL     1     -10.976  12.820  68.108  1.00  0.00    -0.247 A  
HETATM    4  C   UNL     1     -12.098  13.268  67.390  1.00  0.00    -0.327 A  
HETATM    5  C   UNL     1     -12.196  13.082  66.007  1.00  0.00    -0.463 A  
HETATM    6  C   UNL     1     -11.164  12.466  65.314  1.00  0.00    -0.359 A  
HETATM    7  C   UNL     1     -10.038  12.032  66.004  1.00  0.00    -0.257 A  
HETATM    8  C   UNL     1      -9.927  12.203  67.394  1.00  0.00    -0.199 A  
BRANCH   8   9
HETATM    9  O   UNL     1      -8.765  11.640  67.880  1.00  0.00    -0.142 OA 
BRANCH   9  10
HETATM   10  C   UNL     1      -8.580  10.296  67.919  1.00  0.00    -0.118 A  
HETATM   11  C   UNL     1      -9.086   9.410  68.844  1.00  0.00    -0.140 A  
HETATM   12  N   UNL     1      -8.939   8.080  68.778  1.00  0.00    -0.141 NA 
HETATM   13  N   UNL     1      -7.592   8.384  66.838  1.00  0.00    -0.090 NA 
HETATM   14  C   UNL     1      -8.226   7.605  67.736  1.00  0.00    -0.119 A  
HETATM   15  C   UNL     1      -7.764   9.712  66.964  1.00  0.00    -0.095 A  
BRANCH  11  16
HETATM   16  N   UNL     1      -9.839   9.747  69.994  1.00  0.00    -0.241 N  
HETATM   17  H   UNL     1      -9.533  10.506  70.602  1.00  0.00     0.000 HD 
BRANCH  16  18
HETATM   18  S   UNL     1     -11.235   8.894  70.353  1.00  0.00    -0.193 S  
HETATM   19  O   UNL     1     -11.999   9.641  71.337  1.00  0.00    -0.343 OA 
HETATM   20  O   UNL     1     -11.831   8.544  69.078  1.00  0.00     1.128 OA 
BRANCH  18  21
HETATM   21  C   UNL     1     -10.716   7.386  71.134  1.00  0.00    -0.231 A  
HETATM   22  C   UNL     1      -9.864   5.031  72.435  1.00  0.00    -0.214 A  
HETATM   23  C   UNL     1     -10.226   7.445  72.437  1.00  0.00    -0.240 A  
HETATM   24  C   UNL     1      -9.803   6.281  73.074  1.00  0.00    -0.175 A  
HETATM   25  C   UNL     1     -10.428   4.990  71.142  1.00  0.00    -0.205 A  
HETATM   26  C   UNL     1     -10.857   6.157  70.493  1.00  0.00    -0.364 A  
BRANCH  22  27
HETATM   27  C   UNL     1      -9.299   3.759  73.097  1.00  0.00    -0.122 C  
HETATM   28  C   UNL     1     -10.347   2.629  73.238  1.00  0.00    -0.222 C  
HETATM   29  C   UNL     1      -8.808   4.097  74.521  1.00  0.00    -0.100 C  
HETATM   30  C   UNL     1      -8.124   3.192  72.277  1.00  0.00    -0.059 C  
ENDBRANCH  22  27
ENDBRANCH  18  21
ENDBRANCH  16  18
ENDBRANCH  11  16
BRANCH  14  31
HETATM   31  C   UNL     1      -8.218   6.135  67.517  1.00  0.00    -0.109 A  
HETATM   32  N   UNL     1      -8.076   5.336  68.602  1.00  0.00    -0.090 NA 
HETATM   33  N   UNL     1      -8.272   5.676  66.243  1.00  0.00    -0.106 NA 
HETATM   34  C   UNL     1      -8.189   4.345  66.079  1.00  0.00    -0.109 A  
HETATM   35  C   UNL     1      -7.986   4.015  68.373  1.00  0.00    -0.072 A  
HETATM   36  C   UNL     1      -8.040   3.458  67.119  1.00  0.00    -0.083 A  
ENDBRANCH  14  31
BRANCH  15  37
HETATM   37  O   UNL     1      -7.068  10.547  66.110  1.00  0.00    -0.122 OA 
BRANCH  37  38
HETATM   38  C   UNL     1      -7.417  10.461  64.722  1.00  0.00    -0.049 C  
BRANCH  38  39
HETATM   39  C   UNL     1      -7.217   9.039  64.210  1.00  0.00    -0.091 C  
HETATM   40  O   UNL     1      -8.470   8.429  63.915  1.00  0.00    -0.360 OA 
HETATM   41  H   UNL     1      -8.346   7.543  63.596  1.00  0.00     0.000 HD 
ENDBRANCH  38  39
ENDBRANCH  37  38
ENDBRANCH  15  37
ENDBRANCH   9  10
ENDBRANCH   8   9
ENDBRANCH   2   3
TORSDOF 11
ENDMDL
MODEL      181
REMARK 921   NORMALIZED FREE ENERGY PREDICTED BY IDOCK:   -2.51 KCAL/MOL
REMARK 922        TOTAL FREE ENERGY PREDICTED BY IDOCK:   -6.58 KCAL/MOL
REMARK 923 INTER-LIGAND FREE ENERGY PREDICTED BY IDOCK:   -7.40 KCAL/MOL
REMARK 924 INTRA-LIGAND FREE ENERGY PREDICTED BY IDOCK:    0.82 KCAL/MOL
REMARK 927      BINDING AFFINITY PREDICTED BY RF-SCORE:    0.00 PKD
ROOT
HETATM    1  C   UNL     1     -12.072   8.989  71.867  1.00  0.00    -0.378 C  
HETATM    2  O   UNL     1     -10.874   8.428  72.405  1.00  0.00    -0.330 OA 
ENDROOT
BRANCH   2   3
HETATM    3  C   UNL     1     -10.706   7.071  72.281  1.00  0.00    -0.220 A  
HETATM    4  C   UNL     1     -10.727   6.200  73.384  1.00  0.00    -0.280 A  
HETATM    5  C   UNL     1     -10.491   4.830  73.231  1.00  0.00    -0.258 A  
HETATM    6  C   UNL     1     -10.252   4.303  71.970  1.00  0.00    -0.220 A  
HETATM    7  C   UNL     1     -10.244   5.146  70.865  1.00  0.00    -0.299 A  
HETATM    8  C   UNL     1     -10.471   6.525  71.002  1.00  0.00    -0.222 A  
BRANCH   8   9
HETATM    9  O   UNL     1     -10.351   7.179  69.793  1.00  0.00    -0.202 OA 
BRANCH   9  10
HETATM   10  C   UNL     1      -9.458   8.184  69.606  1.00  0.00    -0.159 A  
HETATM   11  C   UNL     1      -9.635   9.331  68.865  1.00  0.00    -0.155 A  
HETATM   12  N   UNL     1      -8.746  10.330  68.791  1.00  0.00    -0.135 NA 
HETATM   13  N   UNL     1      -7.273   9.041  70.147  1.00  0.00    -0.055 NA 
HETATM   14  C   UNL     1      -7.599  10.167  69.482  1.00  0.00    -0.139 A  
HETATM   15  C   UNL     1      -8.200   8.067  70.173  1.00  0.00    -0.120 A  
BRANCH  11  16
HETATM   16  N   UNL     1     -10.769   9.647  68.078  1.00  0.00    -0.336 N  
HETATM   17  H   UNL     1     -11.516   8.963  67.959  1.00  0.00     0.000 HD 
BRANCH  16  18
HETATM   18  S   UNL     1     -10.879  11.147  67.342  1.00  0.00    -0.283 S  
HETATM   19  O   UNL     1      -9.547  11.575  66.953  1.00  0.00    -0.183 OA 
HETATM   20  O   UNL     1     -11.928  11.031  66.348  1.00  0.00     0.272 OA 
BRANCH  18  21
HETATM   21  C   UNL     1     -11.445  12.278  68.588  1.00  0.00    -0.307 A  
HETATM   22  C   UNL     1     -12.330  14.021  70.624  1.00  0.00    -0.446 A  
HETATM   23  C   UNL     1     -11.306  11.918  69.927  1.00  0.00    -0.175 A  
HETATM   24  C   UNL     1     -11.748  12.779  70.929  1.00  0.00     0.567 A  
HETATM   25  C   UNL     1     -12.396  14.391  69.263  1.00  0.00    -0.188 A  
HETATM   26  C   UNL     1     -11.953  13.530  68.248  1.00  0.00    -0.377 A  
BRANCH  22  27
HETATM   27  C   UNL     1     -12.916  14.928  71.723  1.00  0.00    -0.417 C  
HETATM   28  C   UNL     1     -13.240  14.169  73.032  1.00  0.00    -0.436 C  
HETATM   29  C   UNL     1     -14.237  15.550  71.224  1.00  0.00    -0.301 C  
HETATM   30  C   UNL     1     -11.929  16.057  72.084  1.00  0.00    -0.629 C  
ENDBRANCH  22  27
ENDBRANCH  18  21
ENDBRANCH  16  18
ENDBRANCH  11  16
BRANCH  14  31
HETATM   31  C   UNL     1      -6.686  11.334  69.591  1.00  0.00    -0.122 A  
HETATM   32  N   UNL     1      -6.168  11.619  70.810  1.00  0.00    -0.223 NA 
HETATM   33  N   UNL     1      -6.485  12.097  68.488  1.00  0.00    -0.055 NA 
HETATM   34  C   UNL     1      -5.712  13.185  68.643  1.00  0.00    -0.074 A  
HETATM   35  C   UNL     1      -5.413  12.726  70.904  1.00  0.00    -0.173 A  
HETATM   36  C   UNL     1      -5.147  13.554  69.841  1.00  0.00    -0.083 A  
ENDBRANCH  14  31
BRANCH  15  37
HETATM   37  O   UNL     1      -7.873   6.868  70.779  1.00  0.00    -0.094 OA 
BRANCH  37  38
HETATM   38  C   UNL     1      -6.473   6.611  70.954  1.00  0.00    -0.052 C  
BRANCH  38  39
HETATM   39  C   UNL     1      -6.101   6.674  72.432  1.00  0.00    -0.042 C  
HETATM   40  O   UNL     1      -7.121   7.327  73.181  1.00  0.00    -0.071 OA 
HETATM   41  H   UNL     1      -6.889   7.366  74.102  1.00  0.00     0.000 HD 
ENDBRANCH  38  39
ENDBRANCH  37  38
ENDBRANCH  15  37
ENDBRANCH   9  10
ENDBRANCH   8   9
ENDBRANCH   2   3
TORSDOF 11
ENDMDL
MODEL      182
REMARK 921   NORMALIZED FREE ENERGY PREDICTED BY IDOCK:   -2.48 KCAL/MOL
REMARK 922        TOTAL FREE ENERGY PREDICTED BY IDOCK:   -6.53 KCAL/MOL
REMARK 923 INTER-LIGAND FREE ENERGY PREDICTED BY IDOCK:   -5.91 KCAL/MOL
REMARK 924 INTRA-LIGAND FREE ENERGY PREDICTED BY IDOCK:   -0.62 KCAL/MOL
REMARK 927      BINDING AFFINITY PREDICTED BY RF-SCORE:    0.00 PKD
ROOT
HETATM    1  C   UNL     1      -5.997  13.910  73.357  1.00  0.00     0.493 C  
HETATM    2  O   UNL     1      -5.832  13.455  72.014  1.00  0.00    -0.358 OA 
ENDROOT
BRANCH   2   3
HETATM    3  C   UNL     1      -5.835  14.406  71.024  1.00  0.00    -0.186 A  
HETATM    4  C   UNL     1      -5.132  15.617  71.132  1.00  0.00    -0.151 A  
HETATM    5  C   UNL     1      -5.207  16.591  70.131  1.00  0.00    -0.184 A  
HETATM    6  C   UNL     1      -5.968  16.362  68.994  1.00  0.00    -0.143 A  
HETATM    7  C   UNL     1      -6.657  15.163  68.861  1.00  0.00    -0.104 A  
HETATM    8  C   UNL     1      -6.600  14.177  69.860  1.00  0.00    -0.082 A  
BRANCH   8   9
HETATM    9  O   UNL     1      -7.409  13.102  69.555  1.00  0.00     0.225 OA 
BRANCH   9  10
HETATM   10  C   UNL     1      -8.158  13.065  68.424  1.00  0.00    -0.131 A  
HETATM   11  C   UNL     1      -7.834  12.468  67.226  1.00  0.00    -0.160 A  
HETATM   12  N   UNL     1      -8.655  12.391  66.171  1.00  0.00     0.178 NA 
HETATM   13  N   UNL     1     -10.250  13.669  67.394  1.00  0.00    -0.239 NA 
HETATM   14  C   UNL     1      -9.870  12.962  66.312  1.00  0.00    -0.273 A  
HETATM   15  C   UNL     1      -9.377  13.724  68.415  1.00  0.00    -0.190 A  
BRANCH  11  16
HETATM   16  N   UNL     1      -6.604  11.840  66.916  1.00  0.00    -0.260 N  
HETATM   17  H   UNL     1      -5.724  12.264  67.209  1.00  0.00     0.000 HD 
BRANCH  16  18
HETATM   18  S   UNL     1      -6.598  10.398  66.065  1.00  0.00    -0.127 S  
HETATM   19  O   UNL     1      -7.493  10.523  64.928  1.00  0.00    -0.104 OA 
HETATM   20  O   UNL     1      -5.203  10.056  65.862  1.00  0.00    -0.038 OA 
BRANCH  18  21
HETATM   21  C   UNL     1      -7.297   9.174  67.145  1.00  0.00    -0.087 A  
HETATM   22  C   UNL     1      -8.480   7.254  68.842  1.00  0.00    -0.126 A  
HETATM   23  C   UNL     1      -8.678   8.984  67.132  1.00  0.00    -0.123 A  
HETATM   24  C   UNL     1      -9.258   8.038  67.974  1.00  0.00    -0.139 A  
HETATM   25  C   UNL     1      -7.079   7.418  68.786  1.00  0.00    -0.081 A  
HETATM   26  C   UNL     1      -6.486   8.368  67.941  1.00  0.00    -0.057 A  
BRANCH  22  27
HETATM   27  C   UNL     1      -9.127   6.283  69.848  1.00  0.00    -0.145 C  
HETATM   28  C   UNL     1      -8.536   6.399  71.274  1.00  0.00    -0.123 C  
HETATM   29  C   UNL     1      -8.893   4.830  69.382  1.00  0.00    -0.116 C  
HETATM   30  C   UNL     1     -10.643   6.541  69.960  1.00  0.00    -0.280 C  
ENDBRANCH  22  27
ENDBRANCH  18  21
ENDBRANCH  16  18
ENDBRANCH  11  16
BRANCH  14  31
HETATM   31  C   UNL     1     -10.876  12.717  65.246  1.00  0.00    -0.288 A  
HETATM   32  N   UNL     1     -12.114  13.240  65.415  1.00  0.00    -0.395 NA 
HETATM   33  N   UNL     1     -10.528  11.918  64.207  1.00  0.00    -0.299 NA 
HETATM   34  C   UNL     1     -11.486  11.659  63.302  1.00  0.00    -0.166 A  
HETATM   35  C   UNL     1     -13.032  12.936  64.482  1.00  0.00    -0.085 A  
HETATM   36  C   UNL     1     -12.770  12.143  63.391  1.00  0.00    -0.508 A  
ENDBRANCH  14  31
BRANCH  15  37
HETATM   37  O   UNL     1      -9.698  14.504  69.511  1.00  0.00     0.021 OA 
BRANCH  37  38
HETATM   38  C   UNL     1     -10.731  15.477  69.310  1.00  0.00    -0.245 C  
BRANCH  38  39
HETATM   39  C   UNL     1     -11.730  15.439  70.462  1.00  0.00    -0.325 C  
HETATM   40  O   UNL     1     -11.610  14.224  71.194  1.00  0.00    -0.506 OA 
HETATM   41  H   UNL     1     -12.232  14.200  71.912  1.00  0.00     0.000 HD 
ENDBRANCH  38  39
ENDBRANCH  37  38
ENDBRANCH  15  37
ENDBRANCH   9  10
ENDBRANCH   8   9
ENDBRANCH   2   3
TORSDOF 11
ENDMDL
MODEL      183
REMARK 921   NORMALIZED FREE ENERGY PREDICTED BY IDOCK:   -2.44 KCAL/MOL
REMARK 922        TOTAL FREE ENERGY PREDICTED BY IDOCK:   -6.47 KCAL/MOL
REMARK 923 INTER-LIGAND FREE ENERGY PREDICTED BY IDOCK:   -5.79 KCAL/MOL
REMARK 924 INTRA-LIGAND FREE ENERGY PREDICTED BY IDOCK:   -0.68 KCAL/MOL
REMARK 927      BINDING AFFINITY PREDICTED BY RF-SCORE:    0.00 PKD
ROOT
HETATM    1  C   UNL     1     -10.709   9.038  67.810  1.00  0.00    -0.151 C  
HETATM    2  O   UNL     1      -9.963   9.815  68.747  1.00  0.00    -0.159 OA 
ENDROOT
BRANCH   2   3
HETATM    3  C   UNL     1      -8.842   9.238  69.291  1.00  0.00    -0.146 A  
HETATM    4  C   UNL     1      -7.946   9.944  70.111  1.00  0.00    -0.181 A  
HETATM    5  C   UNL     1      -6.781   9.342  70.599  1.00  0.00    -0.097 A  
HETATM    6  C   UNL     1      -6.503   8.018  70.293  1.00  0.00    -0.037 A  
HETATM    7  C   UNL     1      -7.386   7.298  69.497  1.00  0.00    -0.086 A  
HETATM    8  C   UNL     1      -8.556   7.889  68.993  1.00  0.00    -0.135 A  
BRANCH   8   9
HETATM    9  O   UNL     1      -9.248   7.019  68.175  1.00  0.00    -0.132 OA 
BRANCH   9  10
HETATM   10  C   UNL     1      -8.655   6.396  67.124  1.00  0.00    -0.111 A  
HETATM   11  C   UNL     1      -7.800   6.951  66.199  1.00  0.00    -0.102 A  
HETATM   12  N   UNL     1      -7.177   6.262  65.234  1.00  0.00    -0.068 NA 
HETATM   13  N   UNL     1      -8.343   4.314  65.954  1.00  0.00    -0.109 NA 
HETATM   14  C   UNL     1      -7.439   4.940  65.175  1.00  0.00    -0.076 A  
HETATM   15  C   UNL     1      -8.947   5.062  66.895  1.00  0.00    -0.112 A  
BRANCH  11  16
HETATM   16  N   UNL     1      -7.434   8.316  66.117  1.00  0.00    -0.080 N  
HETATM   17  H   UNL     1      -7.005   8.780  66.918  1.00  0.00     0.000 HD 
BRANCH  16  18
HETATM   18  S   UNL     1      -7.707   9.168  64.701  1.00  0.00    -0.119 S  
HETATM   19  O   UNL     1      -6.439   9.677  64.210  1.00  0.00    -0.095 OA 
HETATM   20  O   UNL     1      -8.521   8.306  63.866  1.00  0.00    -0.080 OA 
BRANCH  18  21
HETATM   21  C   UNL     1      -8.696  10.575  65.144  1.00  0.00    -0.185 A  
HETATM   22  C   UNL     1     -10.314  12.797  65.784  1.00  0.00    -0.297 A  
HETATM   23  C   UNL     1      -9.868  10.816  64.429  1.00  0.00    -0.374 A  
HETATM   24  C   UNL     1     -10.662  11.916  64.746  1.00  0.00    -0.356 A  
HETATM   25  C   UNL     1      -9.159  12.491  66.536  1.00  0.00    -0.177 A  
HETATM   26  C   UNL     1      -8.354  11.385  66.224  1.00  0.00    -0.111 A  
BRANCH  22  27
HETATM   27  C   UNL     1     -11.132  14.072  66.067  1.00  0.00    -0.303 C  
HETATM   28  C   UNL     1     -12.660  13.856  65.945  1.00  0.00    -0.498 C  
HETATM   29  C   UNL     1     -10.749  15.164  65.046  1.00  0.00    -0.451 C  
HETATM   30  C   UNL     1     -10.858  14.592  67.492  1.00  0.00    -0.286 C  
ENDBRANCH  22  27
ENDBRANCH  18  21
ENDBRANCH  16  18
ENDBRANCH  11  16
BRANCH  14  31
HETATM   31  C   UNL     1      -6.614   4.112  64.257  1.00  0.00    -0.043 A  
HETATM   32  N   UNL     1      -5.807   4.756  63.380  1.00  0.00    -0.017 NA 
HETATM   33  N   UNL     1      -6.772   2.766  64.290  1.00  0.00    -0.034 NA 
HETATM   34  C   UNL     1      -6.063   2.056  63.396  1.00  0.00    -0.010 A  
HETATM   35  C   UNL     1      -5.133   3.993  62.504  1.00  0.00    -0.005 A  
HETATM   36  C   UNL     1      -5.223   2.622  62.467  1.00  0.00    -0.004 A  
ENDBRANCH  14  31
BRANCH  15  37
HETATM   37  O   UNL     1      -9.936   4.475  67.663  1.00  0.00    -0.152 OA 
BRANCH  37  38
HETATM   38  C   UNL     1      -9.489   3.726  68.800  1.00  0.00    -0.151 C  
BRANCH  38  39
HETATM   39  C   UNL     1      -9.299   2.259  68.431  1.00  0.00    -0.203 C  
HETATM   40  O   UNL     1      -8.022   2.050  67.837  1.00  0.00    -0.058 OA 
HETATM   41  H   UNL     1      -7.903   1.136  67.607  1.00  0.00     0.000 HD 
ENDBRANCH  38  39
ENDBRANCH  37  38
ENDBRANCH  15  37
ENDBRANCH   9  10
ENDBRANCH   8   9
ENDBRANCH   2   3
TORSDOF 11
ENDMDL
MODEL      184
REMARK 921   NORMALIZED FREE ENERGY PREDICTED BY IDOCK:   -2.43 KCAL/MOL
REMARK 922        TOTAL FREE ENERGY PREDICTED BY IDOCK:   -6.46 KCAL/MOL
REMARK 923 INTER-LIGAND FREE ENERGY PREDICTED BY IDOCK:   -4.55 KCAL/MOL
REMARK 924 INTRA-LIGAND FREE ENERGY PREDICTED BY IDOCK:   -1.91 KCAL/MOL
REMARK 927      BINDING AFFINITY PREDICTED BY RF-SCORE:    0.00 PKD
ROOT
HETATM    1  C   UNL     1      -6.346   8.800  70.700  1.00  0.00    -0.041 C  
HETATM    2  O   UNL     1      -7.004   7.904  71.595  1.00  0.00    -0.059 OA 
ENDROOT
BRANCH   2   3
HETATM    3  C   UNL     1      -8.373   7.832  71.518  1.00  0.00    -0.109 A  
HETATM    4  C   UNL     1      -9.218   8.784  72.116  1.00  0.00    -0.248 A  
HETATM    5  C   UNL     1     -10.609   8.647  72.071  1.00  0.00    -0.421 A  
HETATM    6  C   UNL     1     -11.182   7.570  71.409  1.00  0.00    -0.267 A  
HETATM    7  C   UNL     1     -10.362   6.629  70.797  1.00  0.00    -0.232 A  
HETATM    8  C   UNL     1      -8.964   6.746  70.840  1.00  0.00    -0.150 A  
BRANCH   8   9
HETATM    9  O   UNL     1      -8.349   5.671  70.231  1.00  0.00    -0.108 OA 
BRANCH   9  10
HETATM   10  C   UNL     1      -8.772   5.184  69.036  1.00  0.00    -0.092 A  
HETATM   11  C   UNL     1      -9.002   5.894  67.879  1.00  0.00    -0.111 A  
HETATM   12  N   UNL     1      -9.335   5.341  66.705  1.00  0.00    -0.128 NA 
HETATM   13  N   UNL     1      -9.379   3.218  67.784  1.00  0.00    -0.196 NA 
HETATM   14  C   UNL     1      -9.469   3.999  66.688  1.00  0.00    -0.197 A  
HETATM   15  C   UNL     1      -9.057   3.831  68.936  1.00  0.00    -0.142 A  
BRANCH  11  16
HETATM   16  N   UNL     1      -8.917   7.299  67.734  1.00  0.00    -0.127 N  
HETATM   17  H   UNL     1      -9.532   7.907  68.275  1.00  0.00     0.000 HD 
BRANCH  16  18
HETATM   18  S   UNL     1      -7.805   7.960  66.671  1.00  0.00    -0.103 S  
HETATM   19  O   UNL     1      -6.531   7.287  66.849  1.00  0.00    -0.051 OA 
HETATM   20  O   UNL     1      -8.450   7.972  65.372  1.00  0.00    -0.149 OA 
BRANCH  18  21
HETATM   21  C   UNL     1      -7.575   9.649  67.170  1.00  0.00    -0.091 A  
HETATM   22  C   UNL     1      -7.131  12.325  67.949  1.00  0.00    -0.105 A  
HETATM   23  C   UNL     1      -6.319  10.228  66.999  1.00  0.00    -0.071 A  
HETATM   24  C   UNL     1      -6.103  11.549  67.388  1.00  0.00    -0.083 A  
HETATM   25  C   UNL     1      -8.410  11.736  68.047  1.00  0.00    -0.154 A  
HETATM   26  C   UNL     1      -8.637  10.408  67.658  1.00  0.00    -0.118 A  
BRANCH  22  27
HETATM   27  C   UNL     1      -6.869  13.749  68.477  1.00  0.00    -0.097 C  
HETATM   28  C   UNL     1      -6.667  14.789  67.350  1.00  0.00    -0.060 C  
HETATM   29  C   UNL     1      -5.581  13.751  69.327  1.00  0.00    -0.080 C  
HETATM   30  C   UNL     1      -8.048  14.236  69.342  1.00  0.00     0.260 C  
ENDBRANCH  22  27
ENDBRANCH  18  21
ENDBRANCH  16  18
ENDBRANCH  11  16
BRANCH  14  31
HETATM   31  C   UNL     1      -9.632   3.337  65.368  1.00  0.00    -0.069 A  
HETATM   32  N   UNL     1      -8.778   2.333  65.055  1.00  0.00    -0.108 NA 
HETATM   33  N   UNL     1     -10.569   3.824  64.518  1.00  0.00    -0.200 NA 
HETATM   34  C   UNL     1     -10.638   3.249  63.306  1.00  0.00    -0.241 A  
HETATM   35  C   UNL     1      -8.889   1.806  63.824  1.00  0.00    -0.090 A  
HETATM   36  C   UNL     1      -9.812   2.228  62.899  1.00  0.00    -0.091 A  
ENDBRANCH  14  31
BRANCH  15  37
HETATM   37  O   UNL     1      -9.031   3.077  70.095  1.00  0.00    -0.080 OA 
BRANCH  37  38
HETATM   38  C   UNL     1      -7.839   2.315  70.323  1.00  0.00    -0.042 C  
BRANCH  38  39
HETATM   39  C   UNL     1      -7.384   2.458  71.772  1.00  0.00    -0.040 C  
HETATM   40  O   UNL     1      -7.442   3.819  72.185  1.00  0.00    -0.054 OA 
HETATM   41  H   UNL     1      -7.159   3.909  73.088  1.00  0.00     0.000 HD 
ENDBRANCH  38  39
ENDBRANCH  37  38
ENDBRANCH  15  37
ENDBRANCH   9  10
ENDBRANCH   8   9
ENDBRANCH   2   3
TORSDOF 11
ENDMDL
MODEL      185
REMARK 921   NORMALIZED FREE ENERGY PREDICTED BY IDOCK:   -2.27 KCAL/MOL
REMARK 922        TOTAL FREE ENERGY PREDICTED BY IDOCK:   -6.19 KCAL/MOL
REMARK 923 INTER-LIGAND FREE ENERGY PREDICTED BY IDOCK:   -5.46 KCAL/MOL
REMARK 924 INTRA-LIGAND FREE ENERGY PREDICTED BY IDOCK:   -0.73 KCAL/MOL
REMARK 927      BINDING AFFINITY PREDICTED BY RF-SCORE:    0.00 PKD
ROOT
HETATM    1  C   UNL     1      -5.200  13.652  67.063  1.00  0.00     1.032 C  
HETATM    2  O   UNL     1      -5.137  12.822  68.223  1.00  0.00    -0.059 OA 
ENDROOT
BRANCH   2   3
HETATM    3  C   UNL     1      -5.280  13.437  69.443  1.00  0.00    -0.079 A  
HETATM    4  C   UNL     1      -5.194  14.830  69.606  1.00  0.00    -0.092 A  
HETATM    5  C   UNL     1      -5.282  15.419  70.871  1.00  0.00    -0.139 A  
HETATM    6  C   UNL     1      -5.480  14.628  71.994  1.00  0.00    -0.034 A  
HETATM    7  C   UNL     1      -5.584  13.249  71.851  1.00  0.00     0.111 A  
HETATM    8  C   UNL     1      -5.490  12.641  70.589  1.00  0.00    -0.172 A  
BRANCH   8   9
HETATM    9  O   UNL     1      -5.552  11.266  70.686  1.00  0.00    -0.122 OA 
BRANCH   9  10
HETATM   10  C   UNL     1      -6.631  10.563  70.253  1.00  0.00    -0.137 A  
HETATM   11  C   UNL     1      -7.676  11.027  69.487  1.00  0.00     0.049 A  
HETATM   12  N   UNL     1      -8.669  10.261  69.017  1.00  0.00    -0.154 NA 
HETATM   13  N   UNL     1      -7.719   8.416  70.186  1.00  0.00    -0.080 NA 
HETATM   14  C   UNL     1      -8.629   8.954  69.350  1.00  0.00    -0.133 A  
HETATM   15  C   UNL     1      -6.755   9.238  70.636  1.00  0.00    -0.085 A  
BRANCH  11  16
HETATM   16  N   UNL     1      -7.870  12.365  69.065  1.00  0.00    -0.332 N  
HETATM   17  H   UNL     1      -7.309  13.115  69.468  1.00  0.00     0.000 HD 
BRANCH  16  18
HETATM   18  S   UNL     1      -9.025  12.711  67.903  1.00  0.00    -0.197 S  
HETATM   19  O   UNL     1      -8.563  12.207  66.621  1.00  0.00    -0.185 OA 
HETATM   20  O   UNL     1     -10.292  12.265  68.450  1.00  0.00    -0.215 OA 
BRANCH  18  21
HETATM   21  C   UNL     1      -9.091  14.481  67.771  1.00  0.00    -0.190 A  
HETATM   22  C   UNL     1      -9.173  17.299  67.638  1.00  0.00    -0.229 A  
HETATM   23  C   UNL     1      -8.610  15.245  68.832  1.00  0.00    -0.207 A  
HETATM   24  C   UNL     1      -8.656  16.636  68.764  1.00  0.00    -0.261 A  
HETATM   25  C   UNL     1      -9.590  16.502  66.550  1.00  0.00    -0.292 A  
HETATM   26  C   UNL     1      -9.547  15.101  66.610  1.00  0.00    -0.272 A  
BRANCH  22  27
HETATM   27  C   UNL     1      -9.323  18.832  67.603  1.00  0.00    -0.320 C  
HETATM   28  C   UNL     1     -10.529  19.307  66.759  1.00  0.00    -0.544 C  
HETATM   29  C   UNL     1      -8.059  19.456  66.973  1.00  0.00    -0.290 C  
HETATM   30  C   UNL     1      -9.511  19.396  69.025  1.00  0.00    -0.399 C  
ENDBRANCH  22  27
ENDBRANCH  18  21
ENDBRANCH  16  18
ENDBRANCH  11  16
BRANCH  14  31
HETATM   31  C   UNL     1      -9.592   8.041  68.681  1.00  0.00    -0.148 A  
HETATM   32  N   UNL     1     -10.456   7.351  69.464  1.00  0.00    -0.228 NA 
HETATM   33  N   UNL     1      -9.501   7.885  67.338  1.00  0.00    -0.140 NA 
HETATM   34  C   UNL     1     -10.339   6.996  66.778  1.00  0.00    -0.221 A  
HETATM   35  C   UNL     1     -11.260   6.469  68.848  1.00  0.00    -0.264 A  
HETATM   36  C   UNL     1     -11.246   6.250  67.492  1.00  0.00    -0.234 A  
ENDBRANCH  14  31
BRANCH  15  37
HETATM   37  O   UNL     1      -5.848   8.743  71.556  1.00  0.00    -0.042 OA 
BRANCH  37  38
HETATM   38  C   UNL     1      -6.205   8.893  72.936  1.00  0.00     0.022 C  
BRANCH  38  39
HETATM   39  C   UNL     1      -6.682   7.564  73.511  1.00  0.00    -0.074 C  
HETATM   40  O   UNL     1      -8.060   7.354  73.219  1.00  0.00    -0.105 OA 
HETATM   41  H   UNL     1      -8.357   6.525  73.577  1.00  0.00     0.000 HD 
ENDBRANCH  38  39
ENDBRANCH  37  38
ENDBRANCH  15  37
ENDBRANCH   9  10
ENDBRANCH   8   9
ENDBRANCH   2   3
TORSDOF 11
ENDMDL
MODEL      186
REMARK 921   NORMALIZED FREE ENERGY PREDICTED BY IDOCK:   -2.25 KCAL/MOL
REMARK 922        TOTAL FREE ENERGY PREDICTED BY IDOCK:   -6.16 KCAL/MOL
REMARK 923 INTER-LIGAND FREE ENERGY PREDICTED BY IDOCK:   -6.97 KCAL/MOL
REMARK 924 INTRA-LIGAND FREE ENERGY PREDICTED BY IDOCK:    0.80 KCAL/MOL
REMARK 927      BINDING AFFINITY PREDICTED BY RF-SCORE:    0.00 PKD
ROOT
HETATM    1  C   UNL     1     -11.231   9.964  67.057  1.00  0.00     0.346 C  
HETATM    2  O   UNL     1     -10.235  10.837  67.590  1.00  0.00    -0.177 OA 
ENDROOT
BRANCH   2   3
HETATM    3  C   UNL     1     -10.670  11.902  68.340  1.00  0.00    -0.220 A  
HETATM    4  C   UNL     1     -11.635  11.773  69.353  1.00  0.00    -0.386 A  
HETATM    5  C   UNL     1     -12.102  12.888  70.056  1.00  0.00    -0.357 A  
HETATM    6  C   UNL     1     -11.595  14.149  69.775  1.00  0.00    -0.351 A  
HETATM    7  C   UNL     1     -10.628  14.294  68.788  1.00  0.00    -0.255 A  
HETATM    8  C   UNL     1     -10.155  13.186  68.066  1.00  0.00    -0.232 A  
BRANCH   8   9
HETATM    9  O   UNL     1      -9.252  13.566  67.094  1.00  0.00    -0.218 OA 
BRANCH   9  10
HETATM   10  C   UNL     1      -8.735  14.820  67.044  1.00  0.00    -0.235 A  
HETATM   11  C   UNL     1      -7.427  15.193  67.255  1.00  0.00    -0.194 A  
HETATM   12  N   UNL     1      -6.960  16.439  67.105  1.00  0.00    -0.185 NA 
HETATM   13  N   UNL     1      -9.182  17.148  66.619  1.00  0.00    -0.250 NA 
HETATM   14  C   UNL     1      -7.859  17.378  66.741  1.00  0.00    -0.238 A  
HETATM   15  C   UNL     1      -9.592  15.880  66.796  1.00  0.00    -0.236 A  
BRANCH  11  16
HETATM   16  N   UNL     1      -6.371  14.337  67.650  1.00  0.00    -0.151 N  
HETATM   17  H   UNL     1      -5.573  14.188  67.031  1.00  0.00     0.000 HD 
BRANCH  16  18
HETATM   18  S   UNL     1      -6.435  13.568  69.136  1.00  0.00    -0.110 S  
HETATM   19  O   UNL     1      -5.127  13.651  69.762  1.00  0.00    -0.084 OA 
HETATM   20  O   UNL     1      -7.603  14.098  69.812  1.00  0.00     0.204 OA 
BRANCH  18  21
HETATM   21  C   UNL     1      -6.742  11.851  68.802  1.00  0.00    -0.088 A  
HETATM   22  C   UNL     1      -7.258   9.114  68.344  1.00  0.00    -0.077 A  
HETATM   23  C   UNL     1      -7.411  11.095  69.762  1.00  0.00     0.126 A  
HETATM   24  C   UNL     1      -7.660   9.743  69.534  1.00  0.00    -0.114 A  
HETATM   25  C   UNL     1      -6.644   9.919  67.359  1.00  0.00    -0.069 A  
HETATM   26  C   UNL     1      -6.390  11.281  67.580  1.00  0.00    -0.059 A  
BRANCH  22  27
HETATM   27  C   UNL     1      -7.437   7.599  68.133  1.00  0.00    -0.108 C  
HETATM   28  C   UNL     1      -6.922   7.110  66.758  1.00  0.00    -0.073 C  
HETATM   29  C   UNL     1      -8.939   7.246  68.201  1.00  0.00    -0.132 C  
HETATM   30  C   UNL     1      -6.680   6.803  69.214  1.00  0.00    -0.053 C  
ENDBRANCH  22  27
ENDBRANCH  18  21
ENDBRANCH  16  18
ENDBRANCH  11  16
BRANCH  14  31
HETATM   31  C   UNL     1      -7.344  18.720  66.366  1.00  0.00    -0.244 A  
HETATM   32  N   UNL     1      -6.928  18.902  65.089  1.00  0.00    -0.458 NA 
HETATM   33  N   UNL     1      -7.241  19.662  67.335  1.00  0.00    -0.220 NA 
HETATM   34  C   UNL     1      -6.702  20.839  66.975  1.00  0.00    -0.313 A  
HETATM   35  C   UNL     1      -6.388  20.095  64.793  1.00  0.00    -0.282 A  
HETATM   36  C   UNL     1      -6.250  21.113  65.706  1.00  0.00    -0.212 A  
ENDBRANCH  14  31
BRANCH  15  37
HETATM   37  O   UNL     1     -10.949  15.618  66.755  1.00  0.00    -0.310 OA 
BRANCH  37  38
HETATM   38  C   UNL     1     -11.426  14.949  65.581  1.00  0.00    -0.290 C  
BRANCH  38  39
HETATM   39  C   UNL     1     -12.252  15.901  64.722  1.00  0.00     0.463 C  
HETATM   40  O   UNL     1     -11.620  16.122  63.466  1.00  0.00    -1.126 OA 
HETATM   41  H   UNL     1     -12.134  16.715  62.930  1.00  0.00     0.000 HD 
ENDBRANCH  38  39
ENDBRANCH  37  38
ENDBRANCH  15  37
ENDBRANCH   9  10
ENDBRANCH   8   9
ENDBRANCH   2   3
TORSDOF 11
ENDMDL
MODEL      187
REMARK 921   NORMALIZED FREE ENERGY PREDICTED BY IDOCK:   -2.25 KCAL/MOL
REMARK 922        TOTAL FREE ENERGY PREDICTED BY IDOCK:   -6.15 KCAL/MOL
REMARK 923 INTER-LIGAND FREE ENERGY PREDICTED BY IDOCK:   -7.26 KCAL/MOL
REMARK 924 INTRA-LIGAND FREE ENERGY PREDICTED BY IDOCK:    1.11 KCAL/MOL
REMARK 927      BINDING AFFINITY PREDICTED BY RF-SCORE:    0.00 PKD
ROOT
HETATM    1  C   UNL     1      -8.668   9.003  63.485  1.00  0.00    -0.076 C  
HETATM    2  O   UNL     1      -8.209   8.369  64.679  1.00  0.00    -0.156 OA 
ENDROOT
BRANCH   2   3
HETATM    3  C   UNL     1      -9.054   8.382  65.761  1.00  0.00    -0.139 A  
HETATM    4  C   UNL     1      -9.980   7.355  66.013  1.00  0.00     0.352 A  
HETATM    5  C   UNL     1     -10.869   7.430  67.090  1.00  0.00    -0.340 A  
HETATM    6  C   UNL     1     -10.834   8.521  67.947  1.00  0.00    -0.045 A  
HETATM    7  C   UNL     1      -9.913   9.538  67.723  1.00  0.00    -0.216 A  
HETATM    8  C   UNL     1      -9.019   9.483  66.642  1.00  0.00    -0.146 A  
BRANCH   8   9
HETATM    9  O   UNL     1      -8.245  10.623  66.569  1.00  0.00    -0.128 OA 
BRANCH   9  10
HETATM   10  C   UNL     1      -8.718  11.837  66.949  1.00  0.00    -0.189 A  
HETATM   11  C   UNL     1      -8.319  12.587  68.032  1.00  0.00    -0.171 A  
HETATM   12  N   UNL     1      -8.764  13.821  68.305  1.00  0.00    -0.177 NA 
HETATM   13  N   UNL     1     -10.223  13.645  66.430  1.00  0.00    -0.285 NA 
HETATM   14  C   UNL     1      -9.679  14.332  67.455  1.00  0.00    -0.235 A  
HETATM   15  C   UNL     1      -9.747  12.406  66.216  1.00  0.00    -0.246 A  
BRANCH  11  16
HETATM   16  N   UNL     1      -7.383  12.193  69.018  1.00  0.00    -0.282 N  
HETATM   17  H   UNL     1      -7.317  12.708  69.896  1.00  0.00     0.000 HD 
BRANCH  16  18
HETATM   18  S   UNL     1      -6.385  10.877  68.739  1.00  0.00    -0.050 S  
HETATM   19  O   UNL     1      -6.371  10.596  67.314  1.00  0.00    -0.060 OA 
HETATM   20  O   UNL     1      -5.147  11.156  69.441  1.00  0.00    -0.044 OA 
BRANCH  18  21
HETATM   21  C   UNL     1      -7.151   9.487  69.536  1.00  0.00    -0.068 A  
HETATM   22  C   UNL     1      -8.349   7.233  70.740  1.00  0.00    -0.124 A  
HETATM   23  C   UNL     1      -7.020   8.229  68.951  1.00  0.00    -0.066 A  
HETATM   24  C   UNL     1      -7.616   7.120  69.547  1.00  0.00    -0.101 A  
HETATM   25  C   UNL     1      -8.409   8.506  71.347  1.00  0.00    -0.204 A  
HETATM   26  C   UNL     1      -7.811   9.629  70.755  1.00  0.00     0.000 A  
BRANCH  22  27
HETATM   27  C   UNL     1      -9.098   6.029  71.343  1.00  0.00    -0.149 C  
HETATM   28  C   UNL     1     -10.357   6.435  72.146  1.00  0.00    -0.213 C  
HETATM   29  C   UNL     1      -8.163   5.282  72.320  1.00  0.00    -0.118 C  
HETATM   30  C   UNL     1      -9.554   5.058  70.237  1.00  0.00    -0.255 C  
ENDBRANCH  22  27
ENDBRANCH  18  21
ENDBRANCH  16  18
ENDBRANCH  11  16
BRANCH  14  31
HETATM   31  C   UNL     1     -10.037  15.766  67.605  1.00  0.00    -0.247 A  
HETATM   32  N   UNL     1     -10.059  16.532  66.488  1.00  0.00    -0.286 NA 
HETATM   33  N   UNL     1     -10.243  16.248  68.856  1.00  0.00    -0.241 NA 
HETATM   34  C   UNL     1     -10.492  17.564  68.959  1.00  0.00    -0.250 A  
HETATM   35  C   UNL     1     -10.303  17.842  66.657  1.00  0.00    -0.361 A  
HETATM   36  C   UNL     1     -10.531  18.419  67.883  1.00  0.00    -0.416 A  
ENDBRANCH  14  31
BRANCH  15  37
HETATM   37  O   UNL     1     -10.333  11.642  65.223  1.00  0.00    -0.247 OA 
BRANCH  37  38
HETATM   38  C   UNL     1     -10.165  12.117  63.881  1.00  0.00    -0.400 C  
BRANCH  38  39
HETATM   39  C   UNL     1     -11.521  12.294  63.205  1.00  0.00    -0.340 C  
HETATM   40  O   UNL     1     -12.476  12.818  64.122  1.00  0.00    -0.545 OA 
HETATM   41  H   UNL     1     -13.320  12.929  63.701  1.00  0.00     0.000 HD 
ENDBRANCH  38  39
ENDBRANCH  37  38
ENDBRANCH  15  37
ENDBRANCH   9  10
ENDBRANCH   8   9
ENDBRANCH   2   3
TORSDOF 11
ENDMDL
MODEL      188
REMARK 921   NORMALIZED FREE ENERGY PREDICTED BY IDOCK:   -2.15 KCAL/MOL
REMARK 922        TOTAL FREE ENERGY PREDICTED BY IDOCK:   -5.99 KCAL/MOL
REMARK 923 INTER-LIGAND FREE ENERGY PREDICTED BY IDOCK:   -4.64 KCAL/MOL
REMARK 924 INTRA-LIGAND FREE ENERGY PREDICTED BY IDOCK:   -1.35 KCAL/MOL
REMARK 927      BINDING AFFINITY PREDICTED BY RF-SCORE:    0.00 PKD
ROOT
HETATM    1  C   UNL     1     -11.522  14.307  70.371  1.00  0.00    -0.128 C  
HETATM    2  O   UNL     1     -10.416  13.507  69.953  1.00  0.00     0.532 OA 
ENDROOT
BRANCH   2   3
HETATM    3  C   UNL     1      -9.782  13.870  68.790  1.00  0.00    -0.093 A  
HETATM    4  C   UNL     1     -10.394  14.672  67.811  1.00  0.00    -0.237 A  
HETATM    5  C   UNL     1      -9.743  14.972  66.610  1.00  0.00    -0.273 A  
HETATM    6  C   UNL     1      -8.460  14.496  66.376  1.00  0.00     0.299 A  
HETATM    7  C   UNL     1      -7.833  13.716  67.341  1.00  0.00    -0.162 A  
HETATM    8  C   UNL     1      -8.475  13.398  68.549  1.00  0.00    -0.079 A  
BRANCH   8   9
HETATM    9  O   UNL     1      -7.701  12.562  69.327  1.00  0.00     0.210 OA 
BRANCH   9  10
HETATM   10  C   UNL     1      -7.626  11.227  69.091  1.00  0.00    -0.070 A  
HETATM   11  C   UNL     1      -8.533  10.261  69.464  1.00  0.00    -0.142 A  
HETATM   12  N   UNL     1      -8.446   8.968  69.123  1.00  0.00    -0.126 NA 
HETATM   13  N   UNL     1      -6.371   9.450  68.057  1.00  0.00    -0.057 NA 
HETATM   14  C   UNL     1      -7.376   8.613  68.382  1.00  0.00    -0.086 A  
HETATM   15  C   UNL     1      -6.508  10.732  68.439  1.00  0.00    -0.054 A  
BRANCH  11  16
HETATM   16  N   UNL     1      -9.694  10.467  70.247  1.00  0.00    -0.279 N  
HETATM   17  H   UNL     1      -9.617  10.876  71.178  1.00  0.00     0.000 HD 
BRANCH  16  18
HETATM   18  S   UNL     1     -11.194  10.036  69.641  1.00  0.00    -0.214 S  
HETATM   19  O   UNL     1     -11.263   8.588  69.549  1.00  0.00    -0.040 OA 
HETATM   20  O   UNL     1     -12.170  10.765  70.428  1.00  0.00    -0.294 OA 
BRANCH  18  21
HETATM   21  C   UNL     1     -11.266  10.666  67.982  1.00  0.00    -0.307 A  
HETATM   22  C   UNL     1     -11.320  11.620  65.326  1.00  0.00    -0.220 A  
HETATM   23  C   UNL     1     -10.482  10.058  67.004  1.00  0.00    -0.302 A  
HETATM   24  C   UNL     1     -10.509  10.534  65.695  1.00  0.00    -0.213 A  
HETATM   25  C   UNL     1     -12.155  12.174  66.321  1.00  0.00    -0.037 A  
HETATM   26  C   UNL     1     -12.135  11.701  67.641  1.00  0.00     0.133 A  
BRANCH  22  27
HETATM   27  C   UNL     1     -11.273  12.216  63.906  1.00  0.00    -0.485 C  
HETATM   28  C   UNL     1     -12.569  11.968  63.098  1.00  0.00    -0.352 C  
HETATM   29  C   UNL     1     -10.119  11.564  63.115  1.00  0.00    -0.395 C  
HETATM   30  C   UNL     1     -11.053  13.741  63.960  1.00  0.00    -0.052 C  
ENDBRANCH  22  27
ENDBRANCH  18  21
ENDBRANCH  16  18
ENDBRANCH  11  16
BRANCH  14  31
HETATM   31  C   UNL     1      -7.354   7.240  67.815  1.00  0.00    -0.093 A  
HETATM   32  N   UNL     1      -6.636   6.296  68.471  1.00  0.00    -0.056 NA 
HETATM   33  N   UNL     1      -7.983   7.023  66.633  1.00  0.00    -0.106 NA 
HETATM   34  C   UNL     1      -7.880   5.788  66.114  1.00  0.00    -0.101 A  
HETATM   35  C   UNL     1      -6.561   5.084  67.897  1.00  0.00    -0.050 A  
HETATM   36  C   UNL     1      -7.171   4.770  66.707  1.00  0.00    -0.080 A  
ENDBRANCH  14  31
BRANCH  15  37
HETATM   37  O   UNL     1      -5.464  11.604  68.193  1.00  0.00    -0.043 OA 
BRANCH  37  38
HETATM   38  C   UNL     1      -5.247  11.954  66.820  1.00  0.00    -0.040 C  
BRANCH  38  39
HETATM   39  C   UNL     1      -5.502  10.752  65.916  1.00  0.00    -0.133 C  
HETATM   40  O   UNL     1      -5.787  11.174  64.586  1.00  0.00    -0.413 OA 
HETATM   41  H   UNL     1      -5.946  10.425  64.023  1.00  0.00     0.000 HD 
ENDBRANCH  38  39
ENDBRANCH  37  38
ENDBRANCH  15  37
ENDBRANCH   9  10
ENDBRANCH   8   9
ENDBRANCH   2   3
TORSDOF 11
ENDMDL
MODEL      189
REMARK 921   NORMALIZED FREE ENERGY PREDICTED BY IDOCK:   -1.78 KCAL/MOL
REMARK 922        TOTAL FREE ENERGY PREDICTED BY IDOCK:   -5.38 KCAL/MOL
REMARK 923 INTER-LIGAND FREE ENERGY PREDICTED BY IDOCK:   -5.14 KCAL/MOL
REMARK 924 INTRA-LIGAND FREE ENERGY PREDICTED BY IDOCK:   -0.24 KCAL/MOL
REMARK 927      BINDING AFFINITY PREDICTED BY RF-SCORE:    0.00 PKD
ROOT
HETATM    1  C   UNL     1     -12.484   9.899  71.015  1.00  0.00    -0.346 C  
HETATM    2  O   UNL     1     -12.529   8.480  70.858  1.00  0.00    -0.162 OA 
ENDROOT
BRANCH   2   3
HETATM    3  C   UNL     1     -11.461   7.761  71.335  1.00  0.00    -0.260 A  
HETATM    4  C   UNL     1     -11.454   7.168  72.609  1.00  0.00    -0.274 A  
HETATM    5  C   UNL     1     -10.326   6.495  73.089  1.00  0.00    -0.252 A  
HETATM    6  C   UNL     1      -9.193   6.384  72.296  1.00  0.00    -0.139 A  
HETATM    7  C   UNL     1      -9.187   6.950  71.026  1.00  0.00    -0.156 A  
HETATM    8  C   UNL     1     -10.308   7.636  70.532  1.00  0.00    -0.211 A  
BRANCH   8   9
HETATM    9  O   UNL     1     -10.062   8.173  69.285  1.00  0.00    -0.191 OA 
BRANCH   9  10
HETATM   10  C   UNL     1      -9.204   7.590  68.409  1.00  0.00    -0.139 A  
HETATM   11  C   UNL     1      -7.875   7.894  68.214  1.00  0.00    -0.120 A  
HETATM   12  N   UNL     1      -7.057   7.221  67.395  1.00  0.00    -0.085 NA 
HETATM   13  N   UNL     1      -8.912   5.880  66.738  1.00  0.00    -0.117 NA 
HETATM   14  C   UNL     1      -7.602   6.194  66.711  1.00  0.00    -0.099 A  
HETATM   15  C   UNL     1      -9.687   6.600  67.569  1.00  0.00    -0.127 A  
BRANCH  11  16
HETATM   16  N   UNL     1      -7.161   8.943  68.841  1.00  0.00    -0.065 N  
HETATM   17  H   UNL     1      -7.071   8.966  69.856  1.00  0.00     0.000 HD 
BRANCH  16  18
HETATM   18  S   UNL     1      -6.464  10.147  67.909  1.00  0.00    -0.062 S  
HETATM   19  O   UNL     1      -5.944  11.178  68.790  1.00  0.00    -0.043 OA 
HETATM   20  O   UNL     1      -5.583   9.473  66.974  1.00  0.00    -0.046 OA 
BRANCH  18  21
HETATM   21  C   UNL     1      -7.780  10.882  66.970  1.00  0.00    -0.129 A  
HETATM   22  C   UNL     1      -9.866  12.114  65.522  1.00  0.00    -0.240 A  
HETATM   23  C   UNL     1      -8.097  12.219  67.201  1.00  0.00    -0.173 A  
HETATM   24  C   UNL     1      -9.130  12.822  66.487  1.00  0.00    -0.150 A  
HETATM   25  C   UNL     1      -9.479  10.782  65.259  1.00  0.00    -0.263 A  
HETATM   26  C   UNL     1      -8.440  10.166  65.973  1.00  0.00    -0.136 A  
BRANCH  22  27
HETATM   27  C   UNL     1     -11.076  12.745  64.807  1.00  0.00    -0.333 C  
HETATM   28  C   UNL     1     -11.215  12.298  63.333  1.00  0.00    -0.497 C  
HETATM   29  C   UNL     1     -10.921  14.281  64.799  1.00  0.00    -0.408 C  
HETATM   30  C   UNL     1     -12.390  12.373  65.523  1.00  0.00    -0.250 C  
ENDBRANCH  22  27
ENDBRANCH  18  21
ENDBRANCH  16  18
ENDBRANCH  11  16
BRANCH  14  31
HETATM   31  C   UNL     1      -6.684   5.302  65.956  1.00  0.00    -0.053 A  
HETATM   32  N   UNL     1      -6.226   5.735  64.757  1.00  0.00    -0.029 NA 
HETATM   33  N   UNL     1      -6.418   4.074  66.467  1.00  0.00    -0.037 NA 
HETATM   34  C   UNL     1      -5.644   3.268  65.722  1.00  0.00    -0.018 A  
HETATM   35  C   UNL     1      -5.466   4.879  64.054  1.00  0.00    -0.013 A  
HETATM   36  C   UNL     1      -5.137   3.620  64.493  1.00  0.00    -0.009 A  
ENDBRANCH  14  31
BRANCH  15  37
HETATM   37  O   UNL     1     -11.048   6.360  67.568  1.00  0.00    -0.352 OA 
BRANCH  37  38
HETATM   38  C   UNL     1     -11.600   5.865  66.341  1.00  0.00     1.210 C  
BRANCH  38  39
HETATM   39  C   UNL     1     -10.910   4.567  65.932  1.00  0.00     0.152 C  
HETATM   40  O   UNL     1     -10.901   4.428  64.515  1.00  0.00    -0.517 OA 
HETATM   41  H   UNL     1     -10.471   3.619  64.259  1.00  0.00     0.000 HD 
ENDBRANCH  38  39
ENDBRANCH  37  38
ENDBRANCH  15  37
ENDBRANCH   9  10
ENDBRANCH   8   9
ENDBRANCH   2   3
TORSDOF 11
ENDMDL
MODEL      190
REMARK 921   NORMALIZED FREE ENERGY PREDICTED BY IDOCK:   -1.76 KCAL/MOL
REMARK 922        TOTAL FREE ENERGY PREDICTED BY IDOCK:   -5.35 KCAL/MOL
REMARK 923 INTER-LIGAND FREE ENERGY PREDICTED BY IDOCK:   -4.55 KCAL/MOL
REMARK 924 INTRA-LIGAND FREE ENERGY PREDICTED BY IDOCK:   -0.80 KCAL/MOL
REMARK 927      BINDING AFFINITY PREDICTED BY RF-SCORE:    0.00 PKD
ROOT
HETATM    1  C   UNL     1      -5.368  12.897  73.459  1.00  0.00     0.479 C  
HETATM    2  O   UNL     1      -5.561  12.644  72.068  1.00  0.00    -0.353 OA 
ENDROOT
BRANCH   2   3
HETATM    3  C   UNL     1      -5.753  13.732  71.252  1.00  0.00    -0.210 A  
HETATM    4  C   UNL     1      -5.130  14.970  71.480  1.00  0.00    -0.147 A  
HETATM    5  C   UNL     1      -5.396  16.076  70.666  1.00  0.00    -0.151 A  
HETATM    6  C   UNL     1      -6.272  15.957  69.596  1.00  0.00    -0.177 A  
HETATM    7  C   UNL     1      -6.885  14.735  69.345  1.00  0.00    -0.162 A  
HETATM    8  C   UNL     1      -6.636  13.617  70.158  1.00  0.00     0.129 A  
BRANCH   8   9
HETATM    9  O   UNL     1      -7.398  12.534  69.772  1.00  0.00     0.464 OA 
BRANCH   9  10
HETATM   10  C   UNL     1      -8.093  12.524  68.606  1.00  0.00    -0.013 A  
HETATM   11  C   UNL     1      -7.735  11.914  67.425  1.00  0.00    -0.158 A  
HETATM   12  N   UNL     1      -8.507  11.866  66.332  1.00  0.00    -0.100 NA 
HETATM   13  N   UNL     1     -10.110  13.204  67.478  1.00  0.00    -0.220 NA 
HETATM   14  C   UNL     1      -9.705  12.482  66.414  1.00  0.00    -0.249 A  
HETATM   15  C   UNL     1      -9.285  13.227  68.540  1.00  0.00    -0.073 A  
BRANCH  11  16
HETATM   16  N   UNL     1      -6.515  11.241  67.172  1.00  0.00    -0.088 N  
HETATM   17  H   UNL     1      -5.670  11.772  66.966  1.00  0.00     0.000 HD 
BRANCH  16  18
HETATM   18  S   UNL     1      -6.466   9.567  67.214  1.00  0.00    -0.070 S  
HETATM   19  O   UNL     1      -7.723   9.050  66.702  1.00  0.00    -0.095 OA 
HETATM   20  O   UNL     1      -5.212   9.187  66.592  1.00  0.00    -0.037 OA 
BRANCH  18  21
HETATM   21  C   UNL     1      -6.374   9.109  68.927  1.00  0.00    -0.044 A  
HETATM   22  C   UNL     1      -6.304   8.363  71.648  1.00  0.00    -0.055 A  
HETATM   23  C   UNL     1      -7.482   8.503  69.515  1.00  0.00    -0.080 A  
HETATM   24  C   UNL     1      -7.445   8.139  70.859  1.00  0.00    -0.061 A  
HETATM   25  C   UNL     1      -5.172   8.915  71.011  1.00  0.00    -0.029 A  
HETATM   26  C   UNL     1      -5.200   9.284  69.658  1.00  0.00    -0.034 A  
BRANCH  22  27
HETATM   27  C   UNL     1      -6.297   8.059  73.159  1.00  0.00    -0.080 C  
HETATM   28  C   UNL     1      -5.231   8.868  73.937  1.00  0.00    -0.104 C  
HETATM   29  C   UNL     1      -5.978   6.565  73.380  1.00  0.00    -0.058 C  
HETATM   30  C   UNL     1      -7.666   8.384  73.788  1.00  0.00    -0.167 C  
ENDBRANCH  22  27
ENDBRANCH  18  21
ENDBRANCH  16  18
ENDBRANCH  11  16
BRANCH  14  31
HETATM   31  C   UNL     1     -10.668  12.273  65.302  1.00  0.00    -0.292 A  
HETATM   32  N   UNL     1     -10.186  11.788  64.133  1.00  0.00    -0.296 NA 
HETATM   33  N   UNL     1     -11.956  12.654  65.488  1.00  0.00    -0.437 NA 
HETATM   34  C   UNL     1     -12.781  12.518  64.436  1.00  0.00    -0.358 A  
HETATM   35  C   UNL     1     -11.056  11.687  63.115  1.00  0.00    -0.121 A  
HETATM   36  C   UNL     1     -12.380  12.038  63.212  1.00  0.00    -0.553 A  
ENDBRANCH  14  31
BRANCH  15  37
HETATM   37  O   UNL     1      -9.629  14.019  69.620  1.00  0.00     0.516 OA 
BRANCH  37  38
HETATM   38  C   UNL     1     -10.742  14.901  69.425  1.00  0.00    -0.256 C  
BRANCH  38  39
HETATM   39  C   UNL     1     -11.624  14.930  70.668  1.00  0.00    -0.291 C  
HETATM   40  O   UNL     1     -11.631  16.230  71.250  1.00  0.00    -0.518 OA 
HETATM   41  H   UNL     1     -12.181  16.248  72.025  1.00  0.00     0.000 HD 
ENDBRANCH  38  39
ENDBRANCH  37  38
ENDBRANCH  15  37
ENDBRANCH   9  10
ENDBRANCH   8   9
ENDBRANCH   2   3
TORSDOF 11
ENDMDL
MODEL      191
REMARK 921   NORMALIZED FREE ENERGY PREDICTED BY IDOCK:   -1.60 KCAL/MOL
REMARK 922        TOTAL FREE ENERGY PREDICTED BY IDOCK:   -5.09 KCAL/MOL
REMARK 923 INTER-LIGAND FREE ENERGY PREDICTED BY IDOCK:   -3.98 KCAL/MOL
REMARK 924 INTRA-LIGAND FREE ENERGY PREDICTED BY IDOCK:   -1.12 KCAL/MOL
REMARK 927      BINDING AFFINITY PREDICTED BY RF-SCORE:    0.00 PKD
ROOT
HETATM    1  C   UNL     1      -7.328  10.119  70.272  1.00  0.00    -0.095 C  
HETATM    2  O   UNL     1      -8.220   9.773  69.212  1.00  0.00    -0.111 OA 
ENDROOT
BRANCH   2   3
HETATM    3  C   UNL     1      -9.488  10.296  69.263  1.00  0.00    -0.215 A  
HETATM    4  C   UNL     1      -9.779  11.526  69.878  1.00  0.00     1.477 A  
HETATM    5  C   UNL     1     -11.091  11.999  69.966  1.00  0.00     0.259 A  
HETATM    6  C   UNL     1     -12.135  11.264  69.423  1.00  0.00    -0.384 A  
HETATM    7  C   UNL     1     -11.865  10.053  68.796  1.00  0.00     0.356 A  
HETATM    8  C   UNL     1     -10.554   9.558  68.705  1.00  0.00    -0.210 A  
BRANCH   8   9
HETATM    9  O   UNL     1     -10.524   8.315  68.106  1.00  0.00    -0.211 OA 
BRANCH   9  10
HETATM   10  C   UNL     1      -9.846   7.273  68.650  1.00  0.00    -0.161 A  
HETATM   11  C   UNL     1      -8.530   6.929  68.435  1.00  0.00    -0.123 A  
HETATM   12  N   UNL     1      -7.892   5.938  69.071  1.00  0.00    -0.094 NA 
HETATM   13  N   UNL     1      -9.938   5.406  70.170  1.00  0.00    -0.211 NA 
HETATM   14  C   UNL     1      -8.617   5.231  69.963  1.00  0.00    -0.112 A  
HETATM   15  C   UNL     1     -10.526   6.407  69.492  1.00  0.00    -0.230 A  
BRANCH  11  16
HETATM   16  N   UNL     1      -7.643   7.558  67.529  1.00  0.00    -0.110 N  
HETATM   17  H   UNL     1      -6.702   7.813  67.827  1.00  0.00     0.000 HD 
BRANCH  16  18
HETATM   18  S   UNL     1      -8.144   7.882  65.964  1.00  0.00    -0.119 S  
HETATM   19  O   UNL     1      -6.997   7.793  65.078  1.00  0.00    -0.057 OA 
HETATM   20  O   UNL     1      -9.309   7.050  65.735  1.00  0.00     0.030 OA 
BRANCH  18  21
HETATM   21  C   UNL     1      -8.683   9.574  65.949  1.00  0.00    -0.147 A  
HETATM   22  C   UNL     1      -9.472  12.284  65.962  1.00  0.00    -0.194 A  
HETATM   23  C   UNL     1      -7.792  10.560  66.369  1.00  0.00    -0.138 A  
HETATM   24  C   UNL     1      -8.187  11.896  66.378  1.00  0.00     0.049 A  
HETATM   25  C   UNL     1     -10.330  11.273  65.476  1.00  0.00    -0.321 A  
HETATM   26  C   UNL     1      -9.941   9.926  65.464  1.00  0.00    -0.363 A  
BRANCH  22  27
HETATM   27  C   UNL     1      -9.947  13.745  66.069  1.00  0.00    -0.319 C  
HETATM   28  C   UNL     1     -11.186  13.918  66.980  1.00  0.00    -0.327 C  
HETATM   29  C   UNL     1     -10.343  14.260  64.669  1.00  0.00    -0.256 C  
HETATM   30  C   UNL     1      -8.832  14.643  66.641  1.00  0.00    -0.240 C  
ENDBRANCH  22  27
ENDBRANCH  18  21
ENDBRANCH  16  18
ENDBRANCH  11  16
BRANCH  14  31
HETATM   31  C   UNL     1      -7.894   4.267  70.833  1.00  0.00    -0.063 A  
HETATM   32  N   UNL     1      -7.295   3.207  70.238  1.00  0.00    -0.040 NA 
HETATM   33  N   UNL     1      -7.941   4.453  72.175  1.00  0.00    -0.093 NA 
HETATM   34  C   UNL     1      -7.338   3.521  72.932  1.00  0.00    -0.058 A  
HETATM   35  C   UNL     1      -6.719   2.304  71.049  1.00  0.00    -0.031 A  
HETATM   36  C   UNL     1      -6.708   2.413  72.418  1.00  0.00    -0.018 A  
ENDBRANCH  14  31
BRANCH  15  37
HETATM   37  O   UNL     1     -11.893   6.569  69.618  1.00  0.00    -0.310 OA 
BRANCH  37  38
HETATM   38  C   UNL     1     -12.403   6.593  70.957  1.00  0.00    -0.230 C  
BRANCH  38  39
HETATM   39  C   UNL     1     -12.368   8.012  71.516  1.00  0.00    -0.308 C  
HETATM   40  O   UNL     1     -11.025   8.470  71.641  1.00  0.00    -0.252 OA 
HETATM   41  H   UNL     1     -11.003   9.354  71.989  1.00  0.00     0.000 HD 
ENDBRANCH  38  39
ENDBRANCH  37  38
ENDBRANCH  15  37
ENDBRANCH   9  10
ENDBRANCH   8   9
ENDBRANCH   2   3
TORSDOF 11
ENDMDL
MODEL      192
REMARK 921   NORMALIZED FREE ENERGY PREDICTED BY IDOCK:   -1.44 KCAL/MOL
REMARK 922        TOTAL FREE ENERGY PREDICTED BY IDOCK:   -4.83 KCAL/MOL
REMARK 923 INTER-LIGAND FREE ENERGY PREDICTED BY IDOCK:   -4.75 KCAL/MOL
REMARK 924 INTRA-LIGAND FREE ENERGY PREDICTED BY IDOCK:   -0.08 KCAL/MOL
REMARK 927      BINDING AFFINITY PREDICTED BY RF-SCORE:    0.00 PKD
ROOT
HETATM    1  C   UNL     1     -13.692  10.259  71.044  1.00  0.00     0.217 C  
HETATM    2  O   UNL     1     -13.049   9.038  70.676  1.00  0.00     0.160 OA 
ENDROOT
BRANCH   2   3
HETATM    3  C   UNL     1     -11.824   8.779  71.240  1.00  0.00    -0.303 A  
HETATM    4  C   UNL     1     -11.677   8.332  72.564  1.00  0.00    -0.451 A  
HETATM    5  C   UNL     1     -10.411   8.137  73.126  1.00  0.00    -0.110 A  
HETATM    6  C   UNL     1      -9.271   8.365  72.369  1.00  0.00    -0.345 A  
HETATM    7  C   UNL     1      -9.397   8.791  71.052  1.00  0.00    -0.280 A  
HETATM    8  C   UNL     1     -10.660   8.999  70.474  1.00  0.00    -0.227 A  
BRANCH   8   9
HETATM    9  O   UNL     1     -10.552   9.484  69.187  1.00  0.00    -0.214 OA 
BRANCH   9  10
HETATM   10  C   UNL     1      -9.642   8.992  68.308  1.00  0.00    -0.145 A  
HETATM   11  C   UNL     1      -8.384   9.486  68.044  1.00  0.00    -0.118 A  
HETATM   12  N   UNL     1      -7.497   8.902  67.228  1.00  0.00    -0.084 NA 
HETATM   13  N   UNL     1      -9.140   7.255  66.717  1.00  0.00    -0.141 NA 
HETATM   14  C   UNL     1      -7.896   7.765  66.620  1.00  0.00    -0.102 A  
HETATM   15  C   UNL     1      -9.990   7.893  67.540  1.00  0.00    -0.192 A  
BRANCH  11  16
HETATM   16  N   UNL     1      -7.823  10.667  68.586  1.00  0.00    -0.113 N  
HETATM   17  H   UNL     1      -8.002  10.920  69.558  1.00  0.00     0.000 HD 
BRANCH  16  18
HETATM   18  S   UNL     1      -6.862  11.648  67.627  1.00  0.00    -0.104 S  
HETATM   19  O   UNL     1      -5.676  12.019  68.378  1.00  0.00    -0.049 OA 
HETATM   20  O   UNL     1      -6.736  10.965  66.354  1.00  0.00    -0.121 OA 
BRANCH  18  21
HETATM   21  C   UNL     1      -7.788  13.137  67.346  1.00  0.00    -0.165 A  
HETATM   22  C   UNL     1      -9.196  15.547  66.926  1.00  0.00    -0.257 A  
HETATM   23  C   UNL     1      -7.139  14.362  67.493  1.00  0.00    -0.197 A  
HETATM   24  C   UNL     1      -7.839  15.549  67.289  1.00  0.00    -0.236 A  
HETATM   25  C   UNL     1      -9.811  14.293  66.717  1.00  0.00    -0.274 A  
HETATM   26  C   UNL     1      -9.114  13.093  66.920  1.00  0.00    -0.231 A  
BRANCH  22  27
HETATM   27  C   UNL     1     -10.000  16.856  66.803  1.00  0.00    -0.291 C  
HETATM   28  C   UNL     1     -11.078  16.806  65.694  1.00  0.00     0.147 C  
HETATM   29  C   UNL     1      -9.042  18.013  66.447  1.00  0.00    -0.251 C  
HETATM   30  C   UNL     1     -10.720  17.182  68.126  1.00  0.00    -0.366 C  
ENDBRANCH  22  27
ENDBRANCH  18  21
ENDBRANCH  16  18
ENDBRANCH  11  16
BRANCH  14  31
HETATM   31  C   UNL     1      -6.874   6.984  65.876  1.00  0.00    -0.057 A  
HETATM   32  N   UNL     1      -6.270   7.580  64.820  1.00  0.00    -0.038 NA 
HETATM   33  N   UNL     1      -6.660   5.696  66.241  1.00  0.00    -0.053 NA 
HETATM   34  C   UNL     1      -5.783   4.999  65.499  1.00  0.00    -0.018 A  
HETATM   35  C   UNL     1      -5.412   6.828  64.110  1.00  0.00    -0.027 A  
HETATM   36  C   UNL     1      -5.126   5.518  64.409  1.00  0.00    -0.009 A  
ENDBRANCH  14  31
BRANCH  15  37
HETATM   37  O   UNL     1     -11.297   7.446  67.606  1.00  0.00     0.134 OA 
BRANCH  37  38
HETATM   38  C   UNL     1     -11.532   6.114  67.131  1.00  0.00     0.422 C  
BRANCH  38  39
HETATM   39  C   UNL     1     -10.458   5.164  67.652  1.00  0.00    -0.061 C  
HETATM   40  O   UNL     1      -9.851   4.453  66.579  1.00  0.00    -0.199 OA 
HETATM   41  H   UNL     1      -9.182   3.861  66.904  1.00  0.00     0.000 HD 
ENDBRANCH  38  39
ENDBRANCH  37  38
ENDBRANCH  15  37
ENDBRANCH   9  10
ENDBRANCH   8   9
ENDBRANCH   2   3
TORSDOF 11
ENDMDL
MODEL      193
REMARK 921   NORMALIZED FREE ENERGY PREDICTED BY IDOCK:   -1.42 KCAL/MOL
REMARK 922        TOTAL FREE ENERGY PREDICTED BY IDOCK:   -4.79 KCAL/MOL
REMARK 923 INTER-LIGAND FREE ENERGY PREDICTED BY IDOCK:   -3.91 KCAL/MOL
REMARK 924 INTRA-LIGAND FREE ENERGY PREDICTED BY IDOCK:   -0.88 KCAL/MOL
REMARK 927      BINDING AFFINITY PREDICTED BY RF-SCORE:    0.00 PKD
ROOT
HETATM    1  C   UNL     1      -6.084  11.668  70.788  1.00  0.00     0.241 C  
HETATM    2  O   UNL     1      -5.135  10.609  70.918  1.00  0.00    -0.066 OA 
ENDROOT
BRANCH   2   3
HETATM    3  C   UNL     1      -5.497   9.534  71.691  1.00  0.00    -0.073 A  
HETATM    4  C   UNL     1      -5.313   9.504  73.084  1.00  0.00    -0.013 A  
HETATM    5  C   UNL     1      -5.636   8.368  73.834  1.00  0.00    -0.094 A  
HETATM    6  C   UNL     1      -6.169   7.250  73.208  1.00  0.00    -0.060 A  
HETATM    7  C   UNL     1      -6.374   7.268  71.833  1.00  0.00    -0.040 A  
HETATM    8  C   UNL     1      -6.048   8.396  71.064  1.00  0.00    -0.035 A  
BRANCH   8   9
HETATM    9  O   UNL     1      -6.269   8.172  69.721  1.00  0.00    -0.029 OA 
BRANCH   9  10
HETATM   10  C   UNL     1      -7.242   8.823  69.034  1.00  0.00    -0.072 A  
HETATM   11  C   UNL     1      -8.594   8.562  69.054  1.00  0.00    -0.130 A  
HETATM   12  N   UNL     1      -9.517   9.298  68.421  1.00  0.00    -0.138 NA 
HETATM   13  N   UNL     1      -7.756  10.629  67.526  1.00  0.00    -0.100 NA 
HETATM   14  C   UNL     1      -9.062  10.349  67.707  1.00  0.00    -0.131 A  
HETATM   15  C   UNL     1      -6.877   9.846  68.175  1.00  0.00    -0.064 A  
BRANCH  11  16
HETATM   16  N   UNL     1      -9.227   7.497  69.739  1.00  0.00    -0.148 N  
HETATM   17  H   UNL     1      -9.928   7.692  70.453  1.00  0.00     0.000 HD 
BRANCH  16  18
HETATM   18  S   UNL     1      -8.818   5.914  69.374  1.00  0.00    -0.122 S  
HETATM   19  O   UNL     1      -7.578   5.584  70.053  1.00  0.00    -0.074 OA 
HETATM   20  O   UNL     1     -10.013   5.127  69.611  1.00  0.00    -0.199 OA 
BRANCH  18  21
HETATM   21  C   UNL     1      -8.484   5.870  67.631  1.00  0.00    -0.103 A  
HETATM   22  C   UNL     1      -7.885   5.763  64.875  1.00  0.00    -0.113 A  
HETATM   23  C   UNL     1      -7.380   5.148  67.183  1.00  0.00    -0.082 A  
HETATM   24  C   UNL     1      -7.086   5.101  65.821  1.00  0.00    -0.068 A  
HETATM   25  C   UNL     1      -9.035   6.430  65.349  1.00  0.00     0.106 A  
HETATM   26  C   UNL     1      -9.339   6.483  66.717  1.00  0.00    -0.179 A  
BRANCH  22  27
HETATM   27  C   UNL     1      -7.503   5.801  63.383  1.00  0.00    -0.068 C  
HETATM   28  C   UNL     1      -8.644   5.329  62.449  1.00  0.00    -0.106 C  
HETATM   29  C   UNL     1      -6.303   4.861  63.137  1.00  0.00    -0.026 C  
HETATM   30  C   UNL     1      -7.123   7.231  62.951  1.00  0.00    -0.069 C  
ENDBRANCH  22  27
ENDBRANCH  18  21
ENDBRANCH  16  18
ENDBRANCH  11  16
BRANCH  14  31
HETATM   31  C   UNL     1     -10.065  11.303  67.166  1.00  0.00    -0.192 A  
HETATM   32  N   UNL     1      -9.829  11.842  65.946  1.00  0.00    -0.233 NA 
HETATM   33  N   UNL     1     -11.115  11.644  67.952  1.00  0.00    -0.229 NA 
HETATM   34  C   UNL     1     -11.961  12.564  67.460  1.00  0.00    -0.219 A  
HETATM   35  C   UNL     1     -10.704  12.765  65.513  1.00  0.00    -0.278 A  
HETATM   36  C   UNL     1     -11.801  13.168  66.235  1.00  0.00    -0.455 A  
ENDBRANCH  14  31
BRANCH  15  37
HETATM   37  O   UNL     1      -5.527  10.054  67.954  1.00  0.00    -0.039 OA 
BRANCH  37  38
HETATM   38  C   UNL     1      -5.177  10.617  66.684  1.00  0.00    -0.052 C  
BRANCH  38  39
HETATM   39  C   UNL     1      -5.410   9.603  65.569  1.00  0.00    -0.044 C  
HETATM   40  O   UNL     1      -6.419  10.061  64.675  1.00  0.00    -0.113 OA 
HETATM   41  H   UNL     1      -6.564   9.430  63.980  1.00  0.00     0.000 HD 
ENDBRANCH  38  39
ENDBRANCH  37  38
ENDBRANCH  15  37
ENDBRANCH   9  10
ENDBRANCH   8   9
ENDBRANCH   2   3
TORSDOF 11
ENDMDL
MODEL      194
REMARK 921   NORMALIZED FREE ENERGY PREDICTED BY IDOCK:   -1.37 KCAL/MOL
REMARK 922        TOTAL FREE ENERGY PREDICTED BY IDOCK:   -4.71 KCAL/MOL
REMARK 923 INTER-LIGAND FREE ENERGY PREDICTED BY IDOCK:   -4.40 KCAL/MOL
REMARK 924 INTRA-LIGAND FREE ENERGY PREDICTED BY IDOCK:   -0.31 KCAL/MOL
REMARK 927      BINDING AFFINITY PREDICTED BY RF-SCORE:    0.00 PKD
ROOT
HETATM    1  C   UNL     1      -5.186  16.844  71.151  1.00  0.00    -0.078 C  
HETATM    2  O   UNL     1      -5.127  18.053  70.395  1.00  0.00    -0.212 OA 
ENDROOT
BRANCH   2   3
HETATM    3  C   UNL     1      -6.318  18.580  69.959  1.00  0.00     0.000 A  
HETATM    4  C   UNL     1      -6.920  19.697  70.564  1.00  0.00     0.352 A  
HETATM    5  C   UNL     1      -8.164  20.170  70.134  1.00  0.00     1.195 A  
HETATM    6  C   UNL     1      -8.818  19.550  69.079  1.00  0.00    -0.225 A  
HETATM    7  C   UNL     1      -8.229  18.455  68.458  1.00  0.00    -0.338 A  
HETATM    8  C   UNL     1      -6.985  17.961  68.882  1.00  0.00    -0.260 A  
BRANCH   8   9
HETATM    9  O   UNL     1      -6.622  16.833  68.175  1.00  0.00    -0.138 OA 
BRANCH   9  10
HETATM   10  C   UNL     1      -7.545  16.008  67.616  1.00  0.00    -0.146 A  
HETATM   11  C   UNL     1      -8.078  14.862  68.161  1.00  0.00    -0.137 A  
HETATM   12  N   UNL     1      -9.053  14.137  67.597  1.00  0.00    -0.186 NA 
HETATM   13  N   UNL     1      -8.985  15.612  65.727  1.00  0.00    -0.166 NA 
HETATM   14  C   UNL     1      -9.511  14.571  66.404  1.00  0.00    -0.291 A  
HETATM   15  C   UNL     1      -8.000  16.291  66.339  1.00  0.00    -0.264 A  
BRANCH  11  16
HETATM   16  N   UNL     1      -7.700  14.271  69.391  1.00  0.00    -0.349 N  
HETATM   17  H   UNL     1      -8.320  14.330  70.199  1.00  0.00     0.000 HD 
BRANCH  16  18
HETATM   18  S   UNL     1      -6.233  13.474  69.514  1.00  0.00    -0.113 S  
HETATM   19  O   UNL     1      -5.275  14.120  68.634  1.00  0.00    -0.082 OA 
HETATM   20  O   UNL     1      -5.957  13.357  70.933  1.00  0.00    -0.165 OA 
BRANCH  18  21
HETATM   21  C   UNL     1      -6.496  11.835  68.884  1.00  0.00    -0.076 A  
HETATM   22  C   UNL     1      -6.942   9.208  67.952  1.00  0.00    -0.077 A  
HETATM   23  C   UNL     1      -7.154  10.909  69.690  1.00  0.00    -0.117 A  
HETATM   24  C   UNL     1      -7.369   9.612  69.228  1.00  0.00    -0.079 A  
HETATM   25  C   UNL     1      -6.340  10.185  67.129  1.00  0.00    -0.067 A  
HETATM   26  C   UNL     1      -6.120  11.493  67.586  1.00  0.00    -0.062 A  
BRANCH  22  27
HETATM   27  C   UNL     1      -7.083   7.749  67.479  1.00  0.00    -0.083 C  
HETATM   28  C   UNL     1      -7.249   6.744  68.644  1.00  0.00    -0.085 C  
HETATM   29  C   UNL     1      -5.812   7.335  66.706  1.00  0.00    -0.034 C  
HETATM   30  C   UNL     1      -8.310   7.588  66.559  1.00  0.00    -0.126 C  
ENDBRANCH  22  27
ENDBRANCH  18  21
ENDBRANCH  16  18
ENDBRANCH  11  16
BRANCH  14  31
HETATM   31  C   UNL     1     -10.725  13.917  65.850  1.00  0.00    -0.286 A  
HETATM   32  N   UNL     1     -10.565  12.744  65.190  1.00  0.00    -0.294 NA 
HETATM   33  N   UNL     1     -11.910  14.564  65.963  1.00  0.00    -0.362 NA 
HETATM   34  C   UNL     1     -12.973  13.977  65.387  1.00  0.00    -0.310 A  
HETATM   35  C   UNL     1     -11.661  12.213  64.625  1.00  0.00    -0.332 A  
HETATM   36  C   UNL     1     -12.905  12.791  64.695  1.00  0.00    -0.355 A  
ENDBRANCH  14  31
BRANCH  15  37
HETATM   37  O   UNL     1      -7.383  17.317  65.645  1.00  0.00    -0.299 OA 
BRANCH  37  38
HETATM   38  C   UNL     1      -8.161  18.506  65.457  1.00  0.00     0.730 C  
BRANCH  38  39
HETATM   39  C   UNL     1      -7.358  19.738  65.862  1.00  0.00    -0.318 C  
HETATM   40  O   UNL     1      -5.963  19.454  65.856  1.00  0.00    -0.170 OA 
HETATM   41  H   UNL     1      -5.462  20.221  66.109  1.00  0.00     0.000 HD 
ENDBRANCH  38  39
ENDBRANCH  37  38
ENDBRANCH  15  37
ENDBRANCH   9  10
ENDBRANCH   8   9
ENDBRANCH   2   3
TORSDOF 11
ENDMDL
MODEL      195
REMARK 921   NORMALIZED FREE ENERGY PREDICTED BY IDOCK:   -1.29 KCAL/MOL
REMARK 922        TOTAL FREE ENERGY PREDICTED BY IDOCK:   -4.58 KCAL/MOL
REMARK 923 INTER-LIGAND FREE ENERGY PREDICTED BY IDOCK:   -3.60 KCAL/MOL
REMARK 924 INTRA-LIGAND FREE ENERGY PREDICTED BY IDOCK:   -0.98 KCAL/MOL
REMARK 927      BINDING AFFINITY PREDICTED BY RF-SCORE:    0.00 PKD
ROOT
HETATM    1  C   UNL     1      -6.054  12.886  69.917  1.00  0.00    -0.126 C  
HETATM    2  O   UNL     1      -5.614  12.337  68.675  1.00  0.00    -0.053 OA 
ENDROOT
BRANCH   2   3
HETATM    3  C   UNL     1      -6.578  12.039  67.744  1.00  0.00    -0.093 A  
HETATM    4  C   UNL     1      -7.657  12.895  67.468  1.00  0.00    -0.164 A  
HETATM    5  C   UNL     1      -8.656  12.533  66.558  1.00  0.00     0.022 A  
HETATM    6  C   UNL     1      -8.581  11.319  65.891  1.00  0.00    -0.096 A  
HETATM    7  C   UNL     1      -7.512  10.466  66.138  1.00  0.00    -0.131 A  
HETATM    8  C   UNL     1      -6.505  10.810  67.055  1.00  0.00    -0.083 A  
BRANCH   8   9
HETATM    9  O   UNL     1      -5.582   9.794  67.196  1.00  0.00    -0.045 OA 
BRANCH   9  10
HETATM   10  C   UNL     1      -5.939   8.553  67.615  1.00  0.00    -0.047 A  
HETATM   11  C   UNL     1      -6.067   8.115  68.914  1.00  0.00    -0.040 A  
HETATM   12  N   UNL     1      -6.509   6.900  69.263  1.00  0.00    -0.042 NA 
HETATM   13  N   UNL     1      -6.632   6.344  66.951  1.00  0.00    -0.053 NA 
HETATM   14  C   UNL     1      -6.824   6.061  68.254  1.00  0.00    -0.070 A  
HETATM   15  C   UNL     1      -6.172   7.574  66.662  1.00  0.00    -0.045 A  
BRANCH  11  16
HETATM   16  N   UNL     1      -5.766   8.862  70.078  1.00  0.00    -0.031 N  
HETATM   17  H   UNL     1      -5.165   9.684  70.017  1.00  0.00     0.000 HD 
BRANCH  16  18
HETATM   18  S   UNL     1      -6.401   8.393  71.554  1.00  0.00    -0.058 S  
HETATM   19  O   UNL     1      -6.284   6.951  71.676  1.00  0.00    -0.037 OA 
HETATM   20  O   UNL     1      -5.795   9.261  72.546  1.00  0.00    -0.216 OA 
BRANCH  18  21
HETATM   21  C   UNL     1      -8.135   8.772  71.499  1.00  0.00    -0.122 A  
HETATM   22  C   UNL     1     -10.901   9.333  71.479  1.00  0.00    -0.442 A  
HETATM   23  C   UNL     1      -8.927   8.427  72.593  1.00  0.00    -0.304 A  
HETATM   24  C   UNL     1     -10.293   8.703  72.577  1.00  0.00    -0.229 A  
HETATM   25  C   UNL     1     -10.065   9.732  70.414  1.00  0.00    -0.313 A  
HETATM   26  C   UNL     1      -8.689   9.459  70.421  1.00  0.00    -0.278 A  
BRANCH  22  27
HETATM   27  C   UNL     1     -12.426   9.543  71.413  1.00  0.00    -0.450 C  
HETATM   28  C   UNL     1     -13.048   9.078  70.074  1.00  0.00     1.728 C  
HETATM   29  C   UNL     1     -12.743  11.047  71.558  1.00  0.00    -0.521 C  
HETATM   30  C   UNL     1     -13.134   8.765  72.540  1.00  0.00    -0.392 C  
ENDBRANCH  22  27
ENDBRANCH  18  21
ENDBRANCH  16  18
ENDBRANCH  11  16
BRANCH  14  31
HETATM   31  C   UNL     1      -7.510   4.789  68.602  1.00  0.00    -0.065 A  
HETATM   32  N   UNL     1      -7.949   4.010  67.584  1.00  0.00    -0.090 NA 
HETATM   33  N   UNL     1      -7.731   4.516  69.911  1.00  0.00    -0.057 NA 
HETATM   34  C   UNL     1      -8.417   3.394  70.184  1.00  0.00    -0.056 A  
HETATM   35  C   UNL     1      -8.639   2.908  67.920  1.00  0.00    -0.093 A  
HETATM   36  C   UNL     1      -8.904   2.546  69.218  1.00  0.00    -0.150 A  
ENDBRANCH  14  31
BRANCH  15  37
HETATM   37  O   UNL     1      -5.888   7.875  65.343  1.00  0.00    -0.037 OA 
BRANCH  37  38
HETATM   38  C   UNL     1      -6.686   7.204  64.359  1.00  0.00    -0.046 C  
BRANCH  38  39
HETATM   39  C   UNL     1      -7.472   8.215  63.530  1.00  0.00    -0.121 C  
HETATM   40  O   UNL     1      -8.804   7.762  63.314  1.00  0.00    -0.156 OA 
HETATM   41  H   UNL     1      -9.294   8.392  62.798  1.00  0.00     0.000 HD 
ENDBRANCH  38  39
ENDBRANCH  37  38
ENDBRANCH  15  37
ENDBRANCH   9  10
ENDBRANCH   8   9
ENDBRANCH   2   3
TORSDOF 11
ENDMDL
MODEL      196
REMARK 921   NORMALIZED FREE ENERGY PREDICTED BY IDOCK:   -1.01 KCAL/MOL
REMARK 922        TOTAL FREE ENERGY PREDICTED BY IDOCK:   -4.12 KCAL/MOL
REMARK 923 INTER-LIGAND FREE ENERGY PREDICTED BY IDOCK:   -4.84 KCAL/MOL
REMARK 924 INTRA-LIGAND FREE ENERGY PREDICTED BY IDOCK:    0.72 KCAL/MOL
REMARK 927      BINDING AFFINITY PREDICTED BY RF-SCORE:    0.00 PKD
ROOT
HETATM    1  C   UNL     1      -7.845   6.755  71.031  1.00  0.00    -0.101 C  
HETATM    2  O   UNL     1      -9.171   6.436  70.607  1.00  0.00    -0.157 OA 
ENDROOT
BRANCH   2   3
HETATM    3  C   UNL     1     -10.133   7.400  70.776  1.00  0.00    -0.189 A  
HETATM    4  C   UNL     1     -11.073   7.362  71.820  1.00  0.00    -0.269 A  
HETATM    5  C   UNL     1     -12.078   8.327  71.926  1.00  0.00    -0.382 A  
HETATM    6  C   UNL     1     -12.150   9.362  71.004  1.00  0.00    -0.373 A  
HETATM    7  C   UNL     1     -11.219   9.426  69.974  1.00  0.00    -0.217 A  
HETATM    8  C   UNL     1     -10.208   8.460  69.848  1.00  0.00    -0.201 A  
BRANCH   8   9
HETATM    9  O   UNL     1      -9.440   8.678  68.721  1.00  0.00    -0.142 OA 
BRANCH   9  10
HETATM   10  C   UNL     1      -9.765   9.624  67.803  1.00  0.00    -0.146 A  
HETATM   11  C   UNL     1     -10.104   9.425  66.484  1.00  0.00    -0.262 A  
HETATM   12  N   UNL     1     -10.500  10.395  65.650  1.00  0.00    -0.172 NA 
HETATM   13  N   UNL     1     -10.124  11.970  67.396  1.00  0.00    -0.193 NA 
HETATM   14  C   UNL     1     -10.541  11.645  66.157  1.00  0.00    -0.262 A  
HETATM   15  C   UNL     1      -9.723  10.956  68.182  1.00  0.00    -0.166 A  
BRANCH  11  16
HETATM   16  N   UNL     1     -10.100   8.186  65.801  1.00  0.00    -0.032 N  
HETATM   17  H   UNL     1     -10.966   7.813  65.411  1.00  0.00     0.000 HD 
BRANCH  16  18
HETATM   18  S   UNL     1      -8.669   7.332  65.635  1.00  0.00    -0.009 S  
HETATM   19  O   UNL     1      -8.668   6.669  64.343  1.00  0.00     0.233 OA 
HETATM   20  O   UNL     1      -7.607   8.256  65.982  1.00  0.00    -0.076 OA 
BRANCH  18  21
HETATM   21  C   UNL     1      -8.697   6.059  66.873  1.00  0.00    -0.112 A  
HETATM   22  C   UNL     1      -8.820   4.042  68.843  1.00  0.00    -0.149 A  
HETATM   23  C   UNL     1      -9.930   5.564  67.291  1.00  0.00    -0.190 A  
HETATM   24  C   UNL     1      -9.987   4.571  68.267  1.00  0.00    -0.098 A  
HETATM   25  C   UNL     1      -7.582   4.512  68.353  1.00  0.00    -0.068 A  
HETATM   26  C   UNL     1      -7.516   5.511  67.370  1.00  0.00    -0.084 A  
BRANCH  22  27
HETATM   27  C   UNL     1      -8.881   3.022  69.996  1.00  0.00    -0.151 C  
HETATM   28  C   UNL     1      -9.740   1.778  69.664  1.00  0.00     0.038 C  
HETATM   29  C   UNL     1      -9.514   3.688  71.237  1.00  0.00    -0.231 C  
HETATM   30  C   UNL     1      -7.469   2.518  70.357  1.00  0.00    -0.039 C  
ENDBRANCH  22  27
ENDBRANCH  18  21
ENDBRANCH  16  18
ENDBRANCH  11  16
BRANCH  14  31
HETATM   31  C   UNL     1     -11.170  12.707  65.328  1.00  0.00    -0.300 A  
HETATM   32  N   UNL     1     -11.901  13.654  65.964  1.00  0.00    -0.365 NA 
HETATM   33  N   UNL     1     -11.047  12.626  63.981  1.00  0.00    -0.375 NA 
HETATM   34  C   UNL     1     -11.690  13.561  63.261  1.00  0.00     0.110 A  
HETATM   35  C   UNL     1     -12.529  14.554  65.190  1.00  0.00    -0.284 A  
HETATM   36  C   UNL     1     -12.457  14.557  63.819  1.00  0.00     0.221 A  
ENDBRANCH  14  31
BRANCH  15  37
HETATM   37  O   UNL     1      -9.216  11.257  69.433  1.00  0.00     0.139 OA 
BRANCH  37  38
HETATM   38  C   UNL     1      -7.864  11.733  69.466  1.00  0.00     0.618 C  
BRANCH  38  39
HETATM   39  C   UNL     1      -7.735  13.027  68.669  1.00  0.00    -0.069 C  
HETATM   40  O   UNL     1      -7.479  14.128  69.535  1.00  0.00    -0.337 OA 
HETATM   41  H   UNL     1      -7.398  14.934  69.039  1.00  0.00     0.000 HD 
ENDBRANCH  38  39
ENDBRANCH  37  38
ENDBRANCH  15  37
ENDBRANCH   9  10
ENDBRANCH   8   9
ENDBRANCH   2   3
TORSDOF 11
ENDMDL
MODEL      197
REMARK 921   NORMALIZED FREE ENERGY PREDICTED BY IDOCK:   -0.32 KCAL/MOL
REMARK 922        TOTAL FREE ENERGY PREDICTED BY IDOCK:   -2.99 KCAL/MOL
REMARK 923 INTER-LIGAND FREE ENERGY PREDICTED BY IDOCK:   -2.07 KCAL/MOL
REMARK 924 INTRA-LIGAND FREE ENERGY PREDICTED BY IDOCK:   -0.92 KCAL/MOL
REMARK 927      BINDING AFFINITY PREDICTED BY RF-SCORE:    0.00 PKD
ROOT
HETATM    1  C   UNL     1     -11.876  10.615  71.186  1.00  0.00    -0.241 C  
HETATM    2  O   UNL     1     -11.582   9.972  69.945  1.00  0.00    -0.235 OA 
ENDROOT
BRANCH   2   3
HETATM    3  C   UNL     1     -11.503   8.602  69.951  1.00  0.00     0.152 A  
HETATM    4  C   UNL     1     -12.229   7.803  70.851  1.00  0.00    -0.166 A  
HETATM    5  C   UNL     1     -12.078   6.413  70.872  1.00  0.00    -0.176 A  
HETATM    6  C   UNL     1     -11.215   5.794  69.978  1.00  0.00    -0.210 A  
HETATM    7  C   UNL     1     -10.501   6.566  69.069  1.00  0.00    -0.252 A  
HETATM    8  C   UNL     1     -10.635   7.964  69.041  1.00  0.00    -0.162 A  
BRANCH   8   9
HETATM    9  O   UNL     1      -9.787   8.533  68.112  1.00  0.00    -0.155 OA 
BRANCH   9  10
HETATM   10  C   UNL     1      -9.203   9.740  68.318  1.00  0.00    -0.129 A  
HETATM   11  C   UNL     1      -9.577  10.952  67.781  1.00  0.00    -0.164 A  
HETATM   12  N   UNL     1      -9.012  12.125  68.093  1.00  0.00    -0.190 NA 
HETATM   13  N   UNL     1      -7.475  10.949  69.481  1.00  0.00    -0.117 NA 
HETATM   14  C   UNL     1      -7.996  12.087  68.981  1.00  0.00     0.179 A  
HETATM   15  C   UNL     1      -8.075   9.802  69.120  1.00  0.00    -0.107 A  
BRANCH  11  16
HETATM   16  N   UNL     1     -10.608  11.159  66.834  1.00  0.00    -0.246 N  
HETATM   17  H   UNL     1     -11.585  11.135  67.126  1.00  0.00     0.000 HD 
BRANCH  16  18
HETATM   18  S   UNL     1     -10.218  11.445  65.230  1.00  0.00    -0.284 S  
HETATM   19  O   UNL     1     -11.439  11.431  64.443  1.00  0.00    -0.225 OA 
HETATM   20  O   UNL     1      -9.361  12.615  65.228  1.00  0.00     0.109 OA 
BRANCH  18  21
HETATM   21  C   UNL     1      -9.239  10.064  64.696  1.00  0.00    -0.258 A  
HETATM   22  C   UNL     1      -7.640   7.916  63.804  1.00  0.00    -0.129 A  
HETATM   23  C   UNL     1      -8.099  10.310  63.935  1.00  0.00    -0.138 A  
HETATM   24  C   UNL     1      -7.314   9.247  63.493  1.00  0.00    -0.097 A  
HETATM   25  C   UNL     1      -8.761   7.699  64.633  1.00  0.00     0.315 A  
HETATM   26  C   UNL     1      -9.557   8.763  65.083  1.00  0.00     0.362 A  
BRANCH  22  27
HETATM   27  C   UNL     1      -6.835   6.734  63.230  1.00  0.00    -0.047 C  
HETATM   28  C   UNL     1      -7.695   5.768  62.380  1.00  0.00    -0.074 C  
HETATM   29  C   UNL     1      -6.243   5.906  64.390  1.00  0.00    -0.029 C  
HETATM   30  C   UNL     1      -5.690   7.238  62.330  1.00  0.00    -0.049 C  
ENDBRANCH  22  27
ENDBRANCH  18  21
ENDBRANCH  16  18
ENDBRANCH  11  16
BRANCH  14  31
HETATM   31  C   UNL     1      -7.487  13.381  69.505  1.00  0.00     0.501 A  
HETATM   32  N   UNL     1      -6.498  13.342  70.430  1.00  0.00     0.139 NA 
HETATM   33  N   UNL     1      -8.091  14.522  69.092  1.00  0.00    -0.085 NA 
HETATM   34  C   UNL     1      -7.653  15.667  69.642  1.00  0.00    -0.119 A  
HETATM   35  C   UNL     1      -6.112  14.518  70.952  1.00  0.00    -0.115 A  
HETATM   36  C   UNL     1      -6.658  15.725  70.590  1.00  0.00     0.652 A  
ENDBRANCH  14  31
BRANCH  15  37
HETATM   37  O   UNL     1      -7.522   8.609  69.550  1.00  0.00    -0.069 OA 
BRANCH  37  38
HETATM   38  C   UNL     1      -7.895   8.181  70.867  1.00  0.00    -0.091 C  
BRANCH  38  39
HETATM   39  C   UNL     1      -7.039   6.997  71.305  1.00  0.00    -0.073 C  
HETATM   40  O   UNL     1      -6.261   7.334  72.448  1.00  0.00    -0.044 OA 
HETATM   41  H   UNL     1      -5.728   6.597  72.722  1.00  0.00     0.000 HD 
ENDBRANCH  38  39
ENDBRANCH  37  38
ENDBRANCH  15  37
ENDBRANCH   9  10
ENDBRANCH   8   9
ENDBRANCH   2   3
TORSDOF 11
ENDMDL
MODEL      198
REMARK 921   NORMALIZED FREE ENERGY PREDICTED BY IDOCK:   -0.26 KCAL/MOL
REMARK 922        TOTAL FREE ENERGY PREDICTED BY IDOCK:   -2.90 KCAL/MOL
REMARK 923 INTER-LIGAND FREE ENERGY PREDICTED BY IDOCK:   -2.26 KCAL/MOL
REMARK 924 INTRA-LIGAND FREE ENERGY PREDICTED BY IDOCK:   -0.64 KCAL/MOL
REMARK 927      BINDING AFFINITY PREDICTED BY RF-SCORE:    0.00 PKD
ROOT
HETATM    1  C   UNL     1     -13.453   6.876  70.722  1.00  0.00     0.560 C  
HETATM    2  O   UNL     1     -12.392   7.825  70.613  1.00  0.00    -0.080 OA 
ENDROOT
BRANCH   2   3
HETATM    3  C   UNL     1     -12.669   9.121  70.970  1.00  0.00    -0.131 A  
HETATM    4  C   UNL     1     -13.623   9.452  71.948  1.00  0.00    -0.482 A  
HETATM    5  C   UNL     1     -13.926  10.785  72.244  1.00  0.00     0.470 A  
HETATM    6  C   UNL     1     -13.265  11.811  71.584  1.00  0.00    -0.368 A  
HETATM    7  C   UNL     1     -12.306  11.503  70.626  1.00  0.00    -0.457 A  
HETATM    8  C   UNL     1     -11.996  10.171  70.311  1.00  0.00    -0.233 A  
BRANCH   8   9
HETATM    9  O   UNL     1     -11.071  10.096  69.289  1.00  0.00    -0.225 OA 
BRANCH   9  10
HETATM   10  C   UNL     1     -10.082  11.016  69.148  1.00  0.00    -0.146 A  
HETATM   11  C   UNL     1      -8.819  10.974  69.694  1.00  0.00     0.574 A  
HETATM   12  N   UNL     1      -7.856  11.871  69.445  1.00  0.00     0.346 NA 
HETATM   13  N   UNL     1      -9.414  13.087  68.115  1.00  0.00    -0.216 NA 
HETATM   14  C   UNL     1      -8.179  12.885  68.615  1.00  0.00     0.015 A  
HETATM   15  C   UNL     1     -10.342  12.160  68.412  1.00  0.00    -0.229 A  
BRANCH  11  16
HETATM   16  N   UNL     1      -8.330   9.991  70.588  1.00  0.00    -0.034 N  
HETATM   17  H   UNL     1      -8.842   9.777  71.444  1.00  0.00     0.000 HD 
BRANCH  16  18
HETATM   18  S   UNL     1      -6.908   9.179  70.234  1.00  0.00    -0.065 S  
HETATM   19  O   UNL     1      -6.414   9.641  68.950  1.00  0.00    -0.046 OA 
HETATM   20  O   UNL     1      -6.079   9.289  71.419  1.00  0.00    -0.071 OA 
BRANCH  18  21
HETATM   21  C   UNL     1      -7.341   7.468  70.040  1.00  0.00    -0.081 A  
HETATM   22  C   UNL     1      -8.106   4.769  69.731  1.00  0.00    -0.069 A  
HETATM   23  C   UNL     1      -8.676   7.141  69.810  1.00  0.00    -0.142 A  
HETATM   24  C   UNL     1      -9.050   5.807  69.662  1.00  0.00    -0.148 A  
HETATM   25  C   UNL     1      -6.752   5.132  69.896  1.00  0.00    -0.040 A  
HETATM   26  C   UNL     1      -6.366   6.473  70.046  1.00  0.00    -0.039 A  
BRANCH  22  27
HETATM   27  C   UNL     1      -8.529   3.289  69.673  1.00  0.00    -0.099 C  
HETATM   28  C   UNL     1      -7.329   2.312  69.653  1.00  0.00    -0.043 C  
HETATM   29  C   UNL     1      -9.337   3.037  68.382  1.00  0.00    -0.248 C  
HETATM   30  C   UNL     1      -9.397   2.920  70.893  1.00  0.00    -0.220 C  
ENDBRANCH  22  27
ENDBRANCH  18  21
ENDBRANCH  16  18
ENDBRANCH  11  16
BRANCH  14  31
HETATM   31  C   UNL     1      -7.083  13.777  68.155  1.00  0.00    -0.118 A  
HETATM   32  N   UNL     1      -7.205  15.104  68.397  1.00  0.00    -0.110 NA 
HETATM   33  N   UNL     1      -6.064  13.229  67.448  1.00  0.00    -0.330 NA 
HETATM   34  C   UNL     1      -5.129  14.076  66.986  1.00  0.00     1.193 A  
HETATM   35  C   UNL     1      -6.246  15.901  67.899  1.00  0.00    -0.136 A  
HETATM   36  C   UNL     1      -5.172  15.436  67.180  1.00  0.00     0.515 A  
ENDBRANCH  14  31
BRANCH  15  37
HETATM   37  O   UNL     1     -11.640  12.371  67.982  1.00  0.00    -0.305 OA 
BRANCH  37  38
HETATM   38  C   UNL     1     -11.818  13.399  66.999  1.00  0.00    -0.394 C  
BRANCH  38  39
HETATM   39  C   UNL     1     -12.384  12.811  65.710  1.00  0.00    -0.323 C  
HETATM   40  O   UNL     1     -11.389  12.781  64.692  1.00  0.00    -0.300 OA 
HETATM   41  H   UNL     1     -11.741  12.415  63.889  1.00  0.00     0.000 HD 
ENDBRANCH  38  39
ENDBRANCH  37  38
ENDBRANCH  15  37
ENDBRANCH   9  10
ENDBRANCH   8   9
ENDBRANCH   2   3
TORSDOF 11
ENDMDL
MODEL      199
REMARK 921   NORMALIZED FREE ENERGY PREDICTED BY IDOCK:   -0.09 KCAL/MOL
REMARK 922        TOTAL FREE ENERGY PREDICTED BY IDOCK:   -2.62 KCAL/MOL
REMARK 923 INTER-LIGAND FREE ENERGY PREDICTED BY IDOCK:   -4.43 KCAL/MOL
REMARK 924 INTRA-LIGAND FREE ENERGY PREDICTED BY IDOCK:    1.81 KCAL/MOL
REMARK 927      BINDING AFFINITY PREDICTED BY RF-SCORE:    0.00 PKD
ROOT
HETATM    1  C   UNL     1     -10.427  19.808  66.039  1.00  0.00    -0.506 C  
HETATM    2  O   UNL     1      -9.032  19.798  65.736  1.00  0.00    -0.371 OA 
ENDROOT
BRANCH   2   3
HETATM    3  C   UNL     1      -8.301  18.724  66.180  1.00  0.00    -0.176 A  
HETATM    4  C   UNL     1      -7.007  18.440  65.710  1.00  0.00    -0.288 A  
HETATM    5  C   UNL     1      -6.315  17.303  66.137  1.00  0.00    -0.140 A  
HETATM    6  C   UNL     1      -6.893  16.441  67.059  1.00  0.00    -0.245 A  
HETATM    7  C   UNL     1      -8.165  16.716  67.548  1.00  0.00    -0.180 A  
HETATM    8  C   UNL     1      -8.878  17.849  67.124  1.00  0.00    -0.247 A  
BRANCH   8   9
HETATM    9  O   UNL     1     -10.139  17.889  67.681  1.00  0.00    -0.317 OA 
BRANCH   9  10
HETATM   10  C   UNL     1     -10.728  16.784  68.206  1.00  0.00    -0.364 A  
HETATM   11  C   UNL     1     -11.090  15.635  67.539  1.00  0.00    -0.289 A  
HETATM   12  N   UNL     1     -11.588  14.541  68.131  1.00  0.00    -0.314 NA 
HETATM   13  N   UNL     1     -11.543  15.713  70.204  1.00  0.00    -0.324 NA 
HETATM   14  C   UNL     1     -11.756  14.604  69.468  1.00  0.00    -0.324 A  
HETATM   15  C   UNL     1     -11.056  16.784  69.552  1.00  0.00    -0.051 A  
BRANCH  11  16
HETATM   16  N   UNL     1     -10.991  15.415  66.144  1.00  0.00    -0.310 N  
HETATM   17  H   UNL     1     -10.782  16.192  65.517  1.00  0.00     0.000 HD 
BRANCH  16  18
HETATM   18  S   UNL     1     -11.217  13.875  65.527  1.00  0.00    -0.315 S  
HETATM   19  O   UNL     1     -12.519  13.390  65.948  1.00  0.00    -0.439 OA 
HETATM   20  O   UNL     1     -10.889  13.956  64.116  1.00  0.00    -0.255 OA 
BRANCH  18  21
HETATM   21  C   UNL     1     -10.000  12.839  66.301  1.00  0.00    -0.264 A  
HETATM   22  C   UNL     1      -8.122  11.138  67.544  1.00  0.00    -0.119 A  
HETATM   23  C   UNL     1     -10.360  11.540  66.656  1.00  0.00    -0.262 A  
HETATM   24  C   UNL     1      -9.431  10.705  67.272  1.00  0.00    -0.178 A  
HETATM   25  C   UNL     1      -7.764  12.433  67.112  1.00  0.00    -0.122 A  
HETATM   26  C   UNL     1      -8.693  13.281  66.490  1.00  0.00     0.082 A  
BRANCH  22  27
HETATM   27  C   UNL     1      -7.126  10.255  68.319  1.00  0.00    -0.079 C  
HETATM   28  C   UNL     1      -6.283   9.336  67.402  1.00  0.00    -0.058 C  
HETATM   29  C   UNL     1      -7.902   9.336  69.287  1.00  0.00    -0.085 C  
HETATM   30  C   UNL     1      -6.140  11.122  69.126  1.00  0.00    -0.047 C  
ENDBRANCH  22  27
ENDBRANCH  18  21
ENDBRANCH  16  18
ENDBRANCH  11  16
BRANCH  14  31
HETATM   31  C   UNL     1     -12.108  13.348  70.180  1.00  0.00    -0.344 A  
HETATM   32  N   UNL     1     -12.891  13.445  71.282  1.00  0.00    -0.345 NA 
HETATM   33  N   UNL     1     -11.563  12.187  69.741  1.00  0.00    -0.289 NA 
HETATM   34  C   UNL     1     -11.845  11.083  70.453  1.00  0.00    -0.367 A  
HETATM   35  C   UNL     1     -13.127  12.309  71.959  1.00  0.00    -0.355 A  
HETATM   36  C   UNL     1     -12.626  11.086  71.584  1.00  0.00    -0.402 A  
ENDBRANCH  14  31
BRANCH  15  37
HETATM   37  O   UNL     1     -10.897  17.963  70.256  1.00  0.00     0.929 OA 
BRANCH  37  38
HETATM   38  C   UNL     1      -9.861  18.838  69.793  1.00  0.00     0.561 C  
BRANCH  38  39
HETATM   39  C   UNL     1      -9.781  20.083  70.671  1.00  0.00     1.399 C  
HETATM   40  O   UNL     1      -8.458  20.609  70.679  1.00  0.00     1.373 OA 
HETATM   41  H   UNL     1      -8.409  21.385  71.226  1.00  0.00     0.000 HD 
ENDBRANCH  38  39
ENDBRANCH  37  38
ENDBRANCH  15  37
ENDBRANCH   9  10
ENDBRANCH   8   9
ENDBRANCH   2   3
TORSDOF 11
ENDMDL
MODEL      200
REMARK 921   NORMALIZED FREE ENERGY PREDICTED BY IDOCK:    0.07 KCAL/MOL
REMARK 922        TOTAL FREE ENERGY PREDICTED BY IDOCK:   -2.34 KCAL/MOL
REMARK 923 INTER-LIGAND FREE ENERGY PREDICTED BY IDOCK:   -1.74 KCAL/MOL
REMARK 924 INTRA-LIGAND FREE ENERGY PREDICTED BY IDOCK:   -0.60 KCAL/MOL
REMARK 927      BINDING AFFINITY PREDICTED BY RF-SCORE:    0.00 PKD
ROOT
HETATM    1  C   UNL     1     -13.622   6.881  70.697  1.00  0.00     0.964 C  
HETATM    2  O   UNL     1     -12.604   7.875  70.581  1.00  0.00     0.048 OA 
ENDROOT
BRANCH   2   3
HETATM    3  C   UNL     1     -12.897   9.132  71.050  1.00  0.00    -0.106 A  
HETATM    4  C   UNL     1     -13.725   9.352  72.164  1.00  0.00    -0.490 A  
HETATM    5  C   UNL     1     -14.055  10.646  72.578  1.00  0.00     0.868 A  
HETATM    6  C   UNL     1     -13.544  11.744  71.901  1.00  0.00    -0.101 A  
HETATM    7  C   UNL     1     -12.709  11.546  70.807  1.00  0.00    -0.318 A  
HETATM    8  C   UNL     1     -12.375  10.253  70.373  1.00  0.00    -0.238 A  
BRANCH   8   9
HETATM    9  O   UNL     1     -11.594  10.289  69.235  1.00  0.00    -0.206 OA 
BRANCH   9  10
HETATM   10  C   UNL     1     -10.490  11.073  69.147  1.00  0.00    -0.210 A  
HETATM   11  C   UNL     1      -9.209  10.758  69.540  1.00  0.00     0.131 A  
HETATM   12  N   UNL     1      -8.142  11.544  69.345  1.00  0.00     0.264 NA 
HETATM   13  N   UNL     1      -9.595  13.187  68.416  1.00  0.00    -0.215 NA 
HETATM   14  C   UNL     1      -8.369  12.728  68.739  1.00  0.00     0.140 A  
HETATM   15  C   UNL     1     -10.628  12.359  68.649  1.00  0.00    -0.218 A  
BRANCH  11  16
HETATM   16  N   UNL     1      -8.808   9.569  70.196  1.00  0.00    -0.220 N  
HETATM   17  H   UNL     1      -8.823   9.516  71.214  1.00  0.00     0.000 HD 
BRANCH  16  18
HETATM   18  S   UNL     1      -8.307   8.250  69.294  1.00  0.00    -0.123 S  
HETATM   19  O   UNL     1      -9.174   8.121  68.135  1.00  0.00    -0.134 OA 
HETATM   20  O   UNL     1      -6.875   8.402  69.121  1.00  0.00    -0.053 OA 
BRANCH  18  21
HETATM   21  C   UNL     1      -8.576   6.817  70.307  1.00  0.00    -0.140 A  
HETATM   22  C   UNL     1      -9.055   4.580  71.960  1.00  0.00    -0.161 A  
HETATM   23  C   UNL     1      -9.600   6.852  71.251  1.00  0.00    -0.165 A  
HETATM   24  C   UNL     1      -9.831   5.746  72.068  1.00  0.00    -0.183 A  
HETATM   25  C   UNL     1      -8.069   4.547  70.950  1.00  0.00    -0.077 A  
HETATM   26  C   UNL     1      -7.830   5.654  70.123  1.00  0.00    -0.091 A  
BRANCH  22  27
HETATM   27  C   UNL     1      -9.238   3.398  72.931  1.00  0.00    -0.122 C  
HETATM   28  C   UNL     1      -9.636   2.082  72.221  1.00  0.00    -0.173 C  
HETATM   29  C   UNL     1     -10.366   3.727  73.932  1.00  0.00    -0.236 C  
HETATM   30  C   UNL     1      -7.936   3.122  73.708  1.00  0.00    -0.069 C  
ENDBRANCH  22  27
ENDBRANCH  18  21
ENDBRANCH  16  18
ENDBRANCH  11  16
BRANCH  14  31
HETATM   31  C   UNL     1      -7.189  13.529  68.322  1.00  0.00    -0.111 A  
HETATM   32  N   UNL     1      -7.047  14.767  68.854  1.00  0.00    -0.110 NA 
HETATM   33  N   UNL     1      -6.366  13.014  67.376  1.00  0.00    -0.249 NA 
HETATM   34  C   UNL     1      -5.352  13.797  66.971  1.00  0.00     1.137 A  
HETATM   35  C   UNL     1      -6.021  15.507  68.400  1.00  0.00    -0.107 A  
HETATM   36  C   UNL     1      -5.131  15.067  67.451  1.00  0.00     0.296 A  
ENDBRANCH  14  31
BRANCH  15  37
HETATM   37  O   UNL     1     -11.908  12.822  68.403  1.00  0.00    -0.314 OA 
BRANCH  37  38
HETATM   38  C   UNL     1     -12.009  14.174  67.937  1.00  0.00    -0.343 C  
BRANCH  38  39
HETATM   39  C   UNL     1     -12.520  15.084  69.049  1.00  0.00     0.107 C  
HETATM   40  O   UNL     1     -13.140  14.321  70.079  1.00  0.00    -0.412 OA 
HETATM   41  H   UNL     1     -13.459  14.888  70.772  1.00  0.00     0.000 HD 
ENDBRANCH  38  39
ENDBRANCH  37  38
ENDBRANCH  15  37
ENDBRANCH   9  10
ENDBRANCH   8   9
ENDBRANCH   2   3
TORSDOF 11
ENDMDL
MODEL      201
REMARK 921   NORMALIZED FREE ENERGY PREDICTED BY IDOCK:    0.56 KCAL/MOL
REMARK 922        TOTAL FREE ENERGY PREDICTED BY IDOCK:   -1.54 KCAL/MOL
REMARK 923 INTER-LIGAND FREE ENERGY PREDICTED BY IDOCK:   -5.01 KCAL/MOL
REMARK 924 INTRA-LIGAND FREE ENERGY PREDICTED BY IDOCK:    3.47 KCAL/MOL
REMARK 927      BINDING AFFINITY PREDICTED BY RF-SCORE:    0.00 PKD
ROOT
HETATM    1  C   UNL     1      -7.720   8.433  72.701  1.00  0.00    -0.080 C  
HETATM    2  O   UNL     1      -6.438   8.620  72.100  1.00  0.00    -0.074 OA 
ENDROOT
BRANCH   2   3
HETATM    3  C   UNL     1      -6.407   9.198  70.855  1.00  0.00    -0.070 A  
HETATM    4  C   UNL     1      -5.429  10.135  70.478  1.00  0.00    -0.060 A  
HETATM    5  C   UNL     1      -5.462  10.752  69.224  1.00  0.00    -0.041 A  
HETATM    6  C   UNL     1      -6.460  10.426  68.315  1.00  0.00    -0.059 A  
HETATM    7  C   UNL     1      -7.425   9.490  68.664  1.00  0.00    -0.079 A  
HETATM    8  C   UNL     1      -7.412   8.867  69.923  1.00  0.00    -0.058 A  
BRANCH   8   9
HETATM    9  O   UNL     1      -8.495   8.027  70.082  1.00  0.00    -0.124 OA 
BRANCH   9  10
HETATM   10  C   UNL     1      -8.745   7.006  69.222  1.00  0.00    -0.136 A  
HETATM   11  C   UNL     1      -9.880   6.808  68.468  1.00  0.00    -0.141 A  
HETATM   12  N   UNL     1     -10.030   5.826  67.570  1.00  0.00    -0.136 NA 
HETATM   13  N   UNL     1      -7.882   5.007  68.193  1.00  0.00    -0.086 NA 
HETATM   14  C   UNL     1      -8.992   4.975  67.429  1.00  0.00    -0.110 A  
HETATM   15  C   UNL     1      -7.795   6.007  69.087  1.00  0.00    -0.099 A  
BRANCH  11  16
HETATM   16  N   UNL     1     -11.054   7.598  68.508  1.00  0.00    -0.403 N  
HETATM   17  H   UNL     1     -11.838   7.380  67.894  1.00  0.00     0.000 HD 
BRANCH  16  18
HETATM   18  S   UNL     1     -11.150   8.893  69.566  1.00  0.00     0.094 S  
HETATM   19  O   UNL     1     -12.454   8.877  70.205  1.00  0.00     0.334 OA 
HETATM   20  O   UNL     1      -9.942   8.847  70.368  1.00  0.00    -0.177 OA 
BRANCH  18  21
HETATM   21  C   UNL     1     -11.076  10.362  68.571  1.00  0.00    -0.266 A  
HETATM   22  C   UNL     1     -10.939  12.652  66.927  1.00  0.00    -0.297 A  
HETATM   23  C   UNL     1     -10.901  10.226  67.195  1.00  0.00    -0.278 A  
HETATM   24  C   UNL     1     -10.830  11.359  66.388  1.00  0.00    -0.323 A  
HETATM   25  C   UNL     1     -11.184  12.759  68.313  1.00  0.00    -0.308 A  
HETATM   26  C   UNL     1     -11.257  11.623  69.134  1.00  0.00    -0.325 A  
BRANCH  22  27
HETATM   27  C   UNL     1     -10.756  13.908  66.054  1.00  0.00    -0.287 C  
HETATM   28  C   UNL     1     -10.222  15.127  66.844  1.00  0.00    -0.259 C  
HETATM   29  C   UNL     1     -12.119  14.320  65.456  1.00  0.00    -0.397 C  
HETATM   30  C   UNL     1      -9.762  13.636  64.907  1.00  0.00     0.143 C  
ENDBRANCH  22  27
ENDBRANCH  18  21
ENDBRANCH  16  18
ENDBRANCH  11  16
BRANCH  14  31
HETATM   31  C   UNL     1      -9.041   4.007  66.303  1.00  0.00    -0.139 A  
HETATM   32  N   UNL     1      -9.284   4.493  65.062  1.00  0.00    -0.154 NA 
HETATM   33  N   UNL     1      -8.921   2.687  66.587  1.00  0.00    -0.145 NA 
HETATM   34  C   UNL     1      -9.044   1.836  65.555  1.00  0.00    -0.079 A  
HETATM   35  C   UNL     1      -9.408   3.593  64.073  1.00  0.00    -0.136 A  
HETATM   36  C   UNL     1      -9.294   2.237  64.263  1.00  0.00    -0.131 A  
ENDBRANCH  14  31
BRANCH  15  37
HETATM   37  O   UNL     1      -6.707   6.029  69.941  1.00  0.00    -0.048 OA 
BRANCH  37  38
HETATM   38  C   UNL     1      -6.759   5.121  71.049  1.00  0.00    -0.040 C  
BRANCH  38  39
HETATM   39  C   UNL     1      -5.687   4.045  70.907  1.00  0.00    -0.013 C  
HETATM   40  O   UNL     1      -6.049   3.103  69.903  1.00  0.00    -0.022 OA 
HETATM   41  H   UNL     1      -5.382   2.433  69.814  1.00  0.00     0.000 HD 
ENDBRANCH  38  39
ENDBRANCH  37  38
ENDBRANCH  15  37
ENDBRANCH   9  10
ENDBRANCH   8   9
ENDBRANCH   2   3
TORSDOF 11
ENDMDL
MODEL      202
REMARK 921   NORMALIZED FREE ENERGY PREDICTED BY IDOCK:    0.65 KCAL/MOL
REMARK 922        TOTAL FREE ENERGY PREDICTED BY IDOCK:   -1.39 KCAL/MOL
REMARK 923 INTER-LIGAND FREE ENERGY PREDICTED BY IDOCK:   -2.32 KCAL/MOL
REMARK 924 INTRA-LIGAND FREE ENERGY PREDICTED BY IDOCK:    0.93 KCAL/MOL
REMARK 927      BINDING AFFINITY PREDICTED BY RF-SCORE:    0.00 PKD
ROOT
HETATM    1  C   UNL     1     -10.736  19.789  68.157  1.00  0.00    -0.092 C  
HETATM    2  O   UNL     1      -9.497  19.838  67.449  1.00  0.00    -0.313 OA 
ENDROOT
BRANCH   2   3
HETATM    3  C   UNL     1      -8.377  19.403  68.114  1.00  0.00    -0.328 A  
HETATM    4  C   UNL     1      -7.074  19.661  67.655  1.00  0.00    -0.275 A  
HETATM    5  C   UNL     1      -5.956  19.150  68.323  1.00  0.00    -0.228 A  
HETATM    6  C   UNL     1      -6.120  18.391  69.473  1.00  0.00    -0.260 A  
HETATM    7  C   UNL     1      -7.400  18.139  69.950  1.00  0.00     0.839 A  
HETATM    8  C   UNL     1      -8.534  18.637  69.288  1.00  0.00     0.195 A  
BRANCH   8   9
HETATM    9  O   UNL     1      -9.699  18.212  69.893  1.00  0.00     0.590 OA 
BRANCH   9  10
HETATM   10  C   UNL     1     -10.210  16.973  69.676  1.00  0.00    -0.008 A  
HETATM   11  C   UNL     1      -9.993  16.160  68.586  1.00  0.00    -0.228 A  
HETATM   12  N   UNL     1     -10.457  14.909  68.471  1.00  0.00    -0.236 NA 
HETATM   13  N   UNL     1     -11.569  15.192  70.558  1.00  0.00    -0.277 NA 
HETATM   14  C   UNL     1     -11.201  14.446  69.497  1.00  0.00    -0.254 A  
HETATM   15  C   UNL     1     -11.085  16.445  70.611  1.00  0.00    -0.159 A  
BRANCH  11  16
HETATM   16  N   UNL     1      -9.251  16.499  67.429  1.00  0.00    -0.215 N  
HETATM   17  H   UNL     1      -8.478  17.162  67.493  1.00  0.00     0.000 HD 
BRANCH  16  18
HETATM   18  S   UNL     1      -9.645  15.807  65.956  1.00  0.00    -0.362 S  
HETATM   19  O   UNL     1     -11.082  15.895  65.769  1.00  0.00    -0.216 OA 
HETATM   20  O   UNL     1      -8.744  16.394  64.983  1.00  0.00     1.218 OA 
BRANCH  18  21
HETATM   21  C   UNL     1      -9.242  14.082  66.087  1.00  0.00    -0.031 A  
HETATM   22  C   UNL     1      -8.672  11.324  66.264  1.00  0.00    -0.184 A  
HETATM   23  C   UNL     1     -10.118  13.150  65.534  1.00  0.00    -0.271 A  
HETATM   24  C   UNL     1      -9.835  11.789  65.627  1.00  0.00    -0.265 A  
HETATM   25  C   UNL     1      -7.768  12.291  66.754  1.00  0.00     0.074 A  
HETATM   26  C   UNL     1      -8.045  13.664  66.664  1.00  0.00     0.475 A  
BRANCH  22  27
HETATM   27  C   UNL     1      -8.409   9.819  66.461  1.00  0.00    -0.124 C  
HETATM   28  C   UNL     1      -7.025   9.368  65.935  1.00  0.00    -0.090 C  
HETATM   29  C   UNL     1      -9.470   9.007  65.688  1.00  0.00    -0.273 C  
HETATM   30  C   UNL     1      -8.473   9.443  67.955  1.00  0.00    -0.116 C  
ENDBRANCH  22  27
ENDBRANCH  18  21
ENDBRANCH  16  18
ENDBRANCH  11  16
BRANCH  14  31
HETATM   31  C   UNL     1     -11.555  13.003  69.498  1.00  0.00    -0.276 A  
HETATM   32  N   UNL     1     -12.741  12.644  70.045  1.00  0.00     0.197 NA 
HETATM   33  N   UNL     1     -10.642  12.118  69.028  1.00  0.00    -0.139 NA 
HETATM   34  C   UNL     1     -10.966  10.817  69.113  1.00  0.00    -0.244 A  
HETATM   35  C   UNL     1     -13.004  11.329  70.112  1.00  0.00     0.186 A  
HETATM   36  C   UNL     1     -12.145  10.360  69.654  1.00  0.00    -0.167 A  
ENDBRANCH  14  31
BRANCH  15  37
HETATM   37  O   UNL     1     -11.502  17.265  71.643  1.00  0.00     0.534 OA 
BRANCH  37  38
HETATM   38  C   UNL     1     -11.686  16.632  72.915  1.00  0.00    -0.082 C  
BRANCH  38  39
HETATM   39  C   UNL     1     -13.118  16.125  73.056  1.00  0.00    -0.395 C  
HETATM   40  O   UNL     1     -13.238  15.264  74.184  1.00  0.00    -0.517 OA 
HETATM   41  H   UNL     1     -14.130  14.948  74.273  1.00  0.00     0.000 HD 
ENDBRANCH  38  39
ENDBRANCH  37  38
ENDBRANCH  15  37
ENDBRANCH   9  10
ENDBRANCH   8   9
ENDBRANCH   2   3
TORSDOF 11
ENDMDL
MODEL      203
REMARK 921   NORMALIZED FREE ENERGY PREDICTED BY IDOCK:    0.94 KCAL/MOL
REMARK 922        TOTAL FREE ENERGY PREDICTED BY IDOCK:   -0.92 KCAL/MOL
REMARK 923 INTER-LIGAND FREE ENERGY PREDICTED BY IDOCK:   -2.91 KCAL/MOL
REMARK 924 INTRA-LIGAND FREE ENERGY PREDICTED BY IDOCK:    1.99 KCAL/MOL
REMARK 927      BINDING AFFINITY PREDICTED BY RF-SCORE:    0.00 PKD
ROOT
HETATM    1  C   UNL     1     -10.684  15.408  72.286  1.00  0.00     0.978 C  
HETATM    2  O   UNL     1     -11.782  15.270  71.383  1.00  0.00    -0.324 OA 
ENDROOT
BRANCH   2   3
HETATM    3  C   UNL     1     -11.483  15.092  70.055  1.00  0.00    -0.276 A  
HETATM    4  C   UNL     1     -11.579  16.127  69.109  1.00  0.00    -0.285 A  
HETATM    5  C   UNL     1     -11.328  15.896  67.753  1.00  0.00    -0.199 A  
HETATM    6  C   UNL     1     -10.953  14.631  67.321  1.00  0.00    -0.317 A  
HETATM    7  C   UNL     1     -10.836  13.599  68.245  1.00  0.00    -0.268 A  
HETATM    8  C   UNL     1     -11.093  13.812  69.608  1.00  0.00    -0.038 A  
BRANCH   8   9
HETATM    9  O   UNL     1     -10.984  12.641  70.331  1.00  0.00     0.849 OA 
BRANCH   9  10
HETATM   10  C   UNL     1     -10.730  11.449  69.733  1.00  0.00     0.145 A  
HETATM   11  C   UNL     1     -11.409  10.265  69.910  1.00  0.00    -0.290 A  
HETATM   12  N   UNL     1     -11.165   9.141  69.223  1.00  0.00     0.034 NA 
HETATM   13  N   UNL     1      -9.365  10.265  68.141  1.00  0.00    -0.138 NA 
HETATM   14  C   UNL     1     -10.167   9.196  68.316  1.00  0.00    -0.206 A  
HETATM   15  C   UNL     1      -9.650  11.358  68.870  1.00  0.00    -0.073 A  
BRANCH  11  16
HETATM   16  N   UNL     1     -12.466  10.040  70.824  1.00  0.00    -0.410 N  
HETATM   17  H   UNL     1     -13.070  10.812  71.109  1.00  0.00     0.000 HD 
BRANCH  16  18
HETATM   18  S   UNL     1     -12.723   8.503  71.438  1.00  0.00    -0.227 S  
HETATM   19  O   UNL     1     -13.368   8.619  72.734  1.00  0.00    -0.296 OA 
HETATM   20  O   UNL     1     -13.354   7.746  70.373  1.00  0.00     0.660 OA 
BRANCH  18  21
HETATM   21  C   UNL     1     -11.117   7.798  71.717  1.00  0.00    -0.245 A  
HETATM   22  C   UNL     1      -8.579   6.626  72.103  1.00  0.00    -0.118 A  
HETATM   23  C   UNL     1     -10.659   6.818  70.839  1.00  0.00    -0.252 A  
HETATM   24  C   UNL     1      -9.407   6.239  71.036  1.00  0.00    -0.170 A  
HETATM   25  C   UNL     1      -9.038   7.669  72.936  1.00  0.00    -0.231 A  
HETATM   26  C   UNL     1     -10.297   8.258  72.745  1.00  0.00    -0.330 A  
BRANCH  22  27
HETATM   27  C   UNL     1      -7.241   5.915  72.385  1.00  0.00    -0.089 C  
HETATM   28  C   UNL     1      -7.161   4.500  71.763  1.00  0.00    -0.055 C  
HETATM   29  C   UNL     1      -7.061   5.748  73.909  1.00  0.00    -0.082 C  
HETATM   30  C   UNL     1      -6.060   6.729  71.822  1.00  0.00    -0.038 C  
ENDBRANCH  22  27
ENDBRANCH  18  21
ENDBRANCH  16  18
ENDBRANCH  11  16
BRANCH  14  31
HETATM   31  C   UNL     1     -10.006   8.041  67.395  1.00  0.00    -0.207 A  
HETATM   32  N   UNL     1      -8.851   7.950  66.692  1.00  0.00    -0.139 NA 
HETATM   33  N   UNL     1     -11.050   7.188  67.247  1.00  0.00    -0.253 NA 
HETATM   34  C   UNL     1     -10.895   6.199  66.352  1.00  0.00     0.054 A  
HETATM   35  C   UNL     1      -8.761   6.946  65.804  1.00  0.00    -0.106 A  
HETATM   36  C   UNL     1      -9.761   6.030  65.592  1.00  0.00     0.310 A  
ENDBRANCH  14  31
BRANCH  15  37
HETATM   37  O   UNL     1      -8.804  12.448  68.775  1.00  0.00    -0.014 OA 
BRANCH  37  38
HETATM   38  C   UNL     1      -7.412  12.151  68.609  1.00  0.00    -0.105 C  
BRANCH  38  39
HETATM   39  C   UNL     1      -6.783  11.774  69.947  1.00  0.00     0.085 C  
HETATM   40  O   UNL     1      -6.554  12.935  70.740  1.00  0.00    -0.244 OA 
HETATM   41  H   UNL     1      -6.162  12.700  71.573  1.00  0.00     0.000 HD 
ENDBRANCH  38  39
ENDBRANCH  37  38
ENDBRANCH  15  37
ENDBRANCH   9  10
ENDBRANCH   8   9
ENDBRANCH   2   3
TORSDOF 11
ENDMDL
MODEL      204
REMARK 921   NORMALIZED FREE ENERGY PREDICTED BY IDOCK:    1.29 KCAL/MOL
REMARK 922        TOTAL FREE ENERGY PREDICTED BY IDOCK:   -0.35 KCAL/MOL
REMARK 923 INTER-LIGAND FREE ENERGY PREDICTED BY IDOCK:    0.71 KCAL/MOL
REMARK 924 INTRA-LIGAND FREE ENERGY PREDICTED BY IDOCK:   -1.06 KCAL/MOL
REMARK 927      BINDING AFFINITY PREDICTED BY RF-SCORE:    0.00 PKD
ROOT
HETATM    1  C   UNL     1     -11.695   6.586  65.790  1.00  0.00     4.275 C  
HETATM    2  O   UNL     1     -10.749   7.406  66.475  1.00  0.00    -0.119 OA 
ENDROOT
BRANCH   2   3
HETATM    3  C   UNL     1     -10.593   7.192  67.823  1.00  0.00    -0.225 A  
HETATM    4  C   UNL     1     -11.655   6.806  68.658  1.00  0.00     0.259 A  
HETATM    5  C   UNL     1     -11.475   6.656  70.037  1.00  0.00    -0.434 A  
HETATM    6  C   UNL     1     -10.225   6.868  70.602  1.00  0.00    -0.212 A  
HETATM    7  C   UNL     1      -9.159   7.233  69.789  1.00  0.00    -0.141 A  
HETATM    8  C   UNL     1      -9.324   7.396  68.404  1.00  0.00    -0.144 A  
BRANCH   8   9
HETATM    9  O   UNL     1      -8.158   7.826  67.804  1.00  0.00    -0.121 OA 
BRANCH   9  10
HETATM   10  C   UNL     1      -7.688   9.088  67.971  1.00  0.00    -0.097 A  
HETATM   11  C   UNL     1      -7.741  10.125  67.067  1.00  0.00    -0.096 A  
HETATM   12  N   UNL     1      -7.337  11.376  67.325  1.00  0.00    -0.122 NA 
HETATM   13  N   UNL     1      -6.625  10.641  69.475  1.00  0.00    -0.077 NA 
HETATM   14  C   UNL     1      -6.829  11.603  68.554  1.00  0.00    -0.073 A  
HETATM   15  C   UNL     1      -7.037   9.402  69.154  1.00  0.00    -0.062 A  
BRANCH  11  16
HETATM   16  N   UNL     1      -8.230  10.049  65.741  1.00  0.00    -0.125 N  
HETATM   17  H   UNL     1      -9.219  10.209  65.550  1.00  0.00     0.000 HD 
BRANCH  16  18
HETATM   18  S   UNL     1      -7.179   9.696  64.486  1.00  0.00    -0.127 S  
HETATM   19  O   UNL     1      -7.817  10.049  63.230  1.00  0.00    -0.140 OA 
HETATM   20  O   UNL     1      -5.906  10.288  64.850  1.00  0.00    -0.112 OA 
BRANCH  18  21
HETATM   21  C   UNL     1      -6.970   7.933  64.486  1.00  0.00    -0.071 A  
HETATM   22  C   UNL     1      -6.707   5.123  64.451  1.00  0.00    -0.047 A  
HETATM   23  C   UNL     1      -7.904   7.152  63.809  1.00  0.00    -0.110 A  
HETATM   24  C   UNL     1      -7.773   5.765  63.797  1.00  0.00    -0.097 A  
HETATM   25  C   UNL     1      -5.739   5.941  65.071  1.00  0.00    -0.024 A  
HETATM   26  C   UNL     1      -5.862   7.339  65.087  1.00  0.00    -0.037 A  
BRANCH  22  27
HETATM   27  C   UNL     1      -6.618   3.587  64.529  1.00  0.00    -0.036 C  
HETATM   28  C   UNL     1      -6.364   3.064  65.964  1.00  0.00    -0.028 C  
HETATM   29  C   UNL     1      -5.442   3.097  63.658  1.00  0.00    -0.009 C  
HETATM   30  C   UNL     1      -7.924   2.937  64.031  1.00  0.00    -0.082 C  
ENDBRANCH  22  27
ENDBRANCH  18  21
ENDBRANCH  16  18
ENDBRANCH  11  16
BRANCH  14  31
HETATM   31  C   UNL     1      -6.566  13.013  68.943  1.00  0.00    -0.094 A  
HETATM   32  N   UNL     1      -6.887  13.984  68.055  1.00  0.00    -0.126 NA 
HETATM   33  N   UNL     1      -5.947  13.247  70.127  1.00  0.00    -0.147 NA 
HETATM   34  C   UNL     1      -5.659  14.528  70.412  1.00  0.00    -0.129 A  
HETATM   35  C   UNL     1      -6.563  15.243  68.391  1.00  0.00    -0.110 A  
HETATM   36  C   UNL     1      -5.944  15.578  69.571  1.00  0.00    -0.126 A  
ENDBRANCH  14  31
BRANCH  15  37
HETATM   37  O   UNL     1      -6.776   8.374  70.041  1.00  0.00    -0.041 OA 
BRANCH  37  38
HETATM   38  C   UNL     1      -5.552   7.658  69.831  1.00  0.00    -0.023 C  
BRANCH  38  39
HETATM   39  C   UNL     1      -5.236   6.779  71.037  1.00  0.00    -0.023 C  
HETATM   40  O   UNL     1      -5.135   7.564  72.220  1.00  0.00    -0.035 OA 
HETATM   41  H   UNL     1      -4.938   7.017  72.971  1.00  0.00     0.000 HD 
ENDBRANCH  38  39
ENDBRANCH  37  38
ENDBRANCH  15  37
ENDBRANCH   9  10
ENDBRANCH   8   9
ENDBRANCH   2   3
TORSDOF 11
ENDMDL
MODEL      205
REMARK 921   NORMALIZED FREE ENERGY PREDICTED BY IDOCK:    1.30 KCAL/MOL
REMARK 922        TOTAL FREE ENERGY PREDICTED BY IDOCK:   -0.32 KCAL/MOL
REMARK 923 INTER-LIGAND FREE ENERGY PREDICTED BY IDOCK:   -2.44 KCAL/MOL
REMARK 924 INTRA-LIGAND FREE ENERGY PREDICTED BY IDOCK:    2.12 KCAL/MOL
REMARK 927      BINDING AFFINITY PREDICTED BY RF-SCORE:    0.00 PKD
ROOT
HETATM    1  C   UNL     1     -12.287  10.969  70.308  1.00  0.00    -0.328 C  
HETATM    2  O   UNL     1     -11.531  11.809  69.435  1.00  0.00    -0.267 OA 
ENDROOT
BRANCH   2   3
HETATM    3  C   UNL     1     -11.317  11.355  68.157  1.00  0.00    -0.304 A  
HETATM    4  C   UNL     1     -10.451  10.288  67.865  1.00  0.00    -0.253 A  
HETATM    5  C   UNL     1     -10.208   9.891  66.546  1.00  0.00    -0.292 A  
HETATM    6  C   UNL     1     -10.845  10.539  65.497  1.00  0.00     0.077 A  
HETATM    7  C   UNL     1     -11.718  11.586  65.767  1.00  0.00     0.181 A  
HETATM    8  C   UNL     1     -11.967  12.002  67.085  1.00  0.00    -0.030 A  
BRANCH   8   9
HETATM    9  O   UNL     1     -12.808  13.096  67.118  1.00  0.00     0.314 OA 
BRANCH   9  10
HETATM   10  C   UNL     1     -12.336  14.367  67.059  1.00  0.00    -0.097 A  
HETATM   11  C   UNL     1     -12.234  15.269  68.094  1.00  0.00     0.251 A  
HETATM   12  N   UNL     1     -11.676  16.482  67.990  1.00  0.00     0.144 NA 
HETATM   13  N   UNL     1     -11.359  16.071  65.665  1.00  0.00     0.084 NA 
HETATM   14  C   UNL     1     -11.210  16.827  66.771  1.00  0.00     0.424 A  
HETATM   15  C   UNL     1     -11.940  14.870  65.830  1.00  0.00    -0.054 A  
BRANCH  11  16
HETATM   16  N   UNL     1     -12.684  15.067  69.421  1.00  0.00    -0.491 N  
HETATM   17  H   UNL     1     -13.661  14.836  69.601  1.00  0.00     0.000 HD 
BRANCH  16  18
HETATM   18  S   UNL     1     -11.606  15.210  70.695  1.00  0.00    -0.337 S  
HETATM   19  O   UNL     1     -11.643  16.576  71.186  1.00  0.00    -0.330 OA 
HETATM   20  O   UNL     1     -11.893  14.105  71.589  1.00  0.00    -0.150 OA 
BRANCH  18  21
HETATM   21  C   UNL     1      -9.987  14.944  70.017  1.00  0.00     0.173 A  
HETATM   22  C   UNL     1      -7.442  14.461  68.896  1.00  0.00    -0.132 A  
HETATM   23  C   UNL     1      -9.841  14.019  68.985  1.00  0.00     0.005 A  
HETATM   24  C   UNL     1      -8.583  13.780  68.437  1.00  0.00    -0.156 A  
HETATM   25  C   UNL     1      -7.629  15.442  69.894  1.00  0.00     0.005 A  
HETATM   26  C   UNL     1      -8.893  15.689  70.451  1.00  0.00     1.236 A  
BRANCH  22  27
HETATM   27  C   UNL     1      -6.035  14.125  68.366  1.00  0.00    -0.103 C  
HETATM   28  C   UNL     1      -5.283  15.357  67.810  1.00  0.00    -0.095 C  
HETATM   29  C   UNL     1      -6.153  13.109  67.209  1.00  0.00     0.131 C  
HETATM   30  C   UNL     1      -5.161  13.521  69.482  1.00  0.00    -0.083 C  
ENDBRANCH  22  27
ENDBRANCH  18  21
ENDBRANCH  16  18
ENDBRANCH  11  16
BRANCH  14  31
HETATM   31  C   UNL     1     -10.405  18.071  66.666  1.00  0.00    -0.371 A  
HETATM   32  N   UNL     1     -11.004  19.240  66.997  1.00  0.00    -0.408 NA 
HETATM   33  N   UNL     1      -9.147  17.981  66.169  1.00  0.00    -0.504 NA 
HETATM   34  C   UNL     1      -8.475  19.135  66.020  1.00  0.00    -0.117 A  
HETATM   35  C   UNL     1     -10.286  20.361  66.815  1.00  0.00    -0.257 A  
HETATM   36  C   UNL     1      -9.002  20.368  66.326  1.00  0.00    -0.146 A  
ENDBRANCH  14  31
BRANCH  15  37
HETATM   37  O   UNL     1     -12.180  14.098  64.708  1.00  0.00    -0.411 OA 
BRANCH  37  38
HETATM   38  C   UNL     1     -11.099  13.994  63.772  1.00  0.00     0.583 C  
BRANCH  38  39
HETATM   39  C   UNL     1      -9.899  13.310  64.418  1.00  0.00     0.183 C  
HETATM   40  O   UNL     1      -9.377  14.105  65.478  1.00  0.00    -0.513 OA 
HETATM   41  H   UNL     1      -8.629  13.679  65.880  1.00  0.00     0.000 HD 
ENDBRANCH  38  39
ENDBRANCH  37  38
ENDBRANCH  15  37
ENDBRANCH   9  10
ENDBRANCH   8   9
ENDBRANCH   2   3
TORSDOF 11
ENDMDL
MODEL      206
REMARK 921   NORMALIZED FREE ENERGY PREDICTED BY IDOCK:    1.33 KCAL/MOL
REMARK 922        TOTAL FREE ENERGY PREDICTED BY IDOCK:   -0.28 KCAL/MOL
REMARK 923 INTER-LIGAND FREE ENERGY PREDICTED BY IDOCK:   -1.99 KCAL/MOL
REMARK 924 INTRA-LIGAND FREE ENERGY PREDICTED BY IDOCK:    1.71 KCAL/MOL
REMARK 927      BINDING AFFINITY PREDICTED BY RF-SCORE:    0.00 PKD
ROOT
HETATM    1  C   UNL     1     -10.481  19.730  68.335  1.00  0.00    -0.276 C  
HETATM    2  O   UNL     1      -9.282  20.232  67.744  1.00  0.00    -0.332 OA 
ENDROOT
BRANCH   2   3
HETATM    3  C   UNL     1      -8.116  20.064  68.450  1.00  0.00    -0.116 A  
HETATM    4  C   UNL     1      -7.112  21.046  68.503  1.00  0.00     0.493 A  
HETATM    5  C   UNL     1      -5.910  20.817  69.179  1.00  0.00    -0.373 A  
HETATM    6  C   UNL     1      -5.699  19.612  69.834  1.00  0.00    -0.298 A  
HETATM    7  C   UNL     1      -6.688  18.636  69.807  1.00  0.00     0.004 A  
HETATM    8  C   UNL     1      -7.897  18.845  69.125  1.00  0.00    -0.114 A  
BRANCH   8   9
HETATM    9  O   UNL     1      -8.702  17.725  69.170  1.00  0.00    -0.055 OA 
BRANCH   9  10
HETATM   10  C   UNL     1      -8.205  16.476  68.984  1.00  0.00    -0.208 A  
HETATM   11  C   UNL     1      -7.192  16.099  68.131  1.00  0.00    -0.134 A  
HETATM   12  N   UNL     1      -6.685  14.861  68.057  1.00  0.00    -0.126 NA 
HETATM   13  N   UNL     1      -8.304  14.166  69.660  1.00  0.00     0.580 NA 
HETATM   14  C   UNL     1      -7.236  13.936  68.871  1.00  0.00    -0.103 A  
HETATM   15  C   UNL     1      -8.777  15.424  69.681  1.00  0.00    -0.134 A  
BRANCH  11  16
HETATM   16  N   UNL     1      -6.522  16.940  67.211  1.00  0.00    -0.151 N  
HETATM   17  H   UNL     1      -5.557  17.224  67.385  1.00  0.00     0.000 HD 
BRANCH  16  18
HETATM   18  S   UNL     1      -7.317  17.470  65.836  1.00  0.00     0.006 S  
HETATM   19  O   UNL     1      -7.828  18.808  66.078  1.00  0.00    -0.399 OA 
HETATM   20  O   UNL     1      -6.414  17.223  64.729  1.00  0.00     1.562 OA 
BRANCH  18  21
HETATM   21  C   UNL     1      -8.724  16.406  65.628  1.00  0.00     0.411 A  
HETATM   22  C   UNL     1     -10.912  14.653  65.306  1.00  0.00    -0.374 A  
HETATM   23  C   UNL     1      -8.559  15.038  65.832  1.00  0.00     0.759 A  
HETATM   24  C   UNL     1      -9.641  14.175  65.668  1.00  0.00    -0.115 A  
HETATM   25  C   UNL     1     -11.067  16.050  65.172  1.00  0.00    -0.291 A  
HETATM   26  C   UNL     1      -9.983  16.926  65.335  1.00  0.00     0.149 A  
BRANCH  22  27
HETATM   27  C   UNL     1     -12.083  13.693  65.021  1.00  0.00    -0.418 C  
HETATM   28  C   UNL     1     -12.251  13.367  63.517  1.00  0.00    -0.468 C  
HETATM   29  C   UNL     1     -13.403  14.341  65.491  1.00  0.00     0.396 C  
HETATM   30  C   UNL     1     -11.885  12.354  65.759  1.00  0.00    -0.467 C  
ENDBRANCH  22  27
ENDBRANCH  18  21
ENDBRANCH  16  18
ENDBRANCH  11  16
BRANCH  14  31
HETATM   31  C   UNL     1      -6.567  12.613  68.966  1.00  0.00    -0.100 A  
HETATM   32  N   UNL     1      -5.866  12.181  67.889  1.00  0.00    -0.060 NA 
HETATM   33  N   UNL     1      -6.759  11.876  70.087  1.00  0.00     0.053 NA 
HETATM   34  C   UNL     1      -6.199  10.654  70.107  1.00  0.00    -0.125 A  
HETATM   35  C   UNL     1      -5.340  10.947  67.965  1.00  0.00    -0.039 A  
HETATM   36  C   UNL     1      -5.474  10.132  69.062  1.00  0.00    -0.034 A  
ENDBRANCH  14  31
BRANCH  15  37
HETATM   37  O   UNL     1      -9.918  15.683  70.420  1.00  0.00    -0.100 OA 
BRANCH  37  38
HETATM   38  C   UNL     1     -11.099  14.976  70.021  1.00  0.00    -0.263 C  
BRANCH  38  39
HETATM   39  C   UNL     1     -12.338  15.620  70.636  1.00  0.00    -0.413 C  
HETATM   40  O   UNL     1     -13.047  14.681  71.438  1.00  0.00    -0.312 OA 
HETATM   41  H   UNL     1     -13.819  15.082  71.821  1.00  0.00     0.000 HD 
ENDBRANCH  38  39
ENDBRANCH  37  38
ENDBRANCH  15  37
ENDBRANCH   9  10
ENDBRANCH   8   9
ENDBRANCH   2   3
TORSDOF 11
ENDMDL
MODEL      207
REMARK 921   NORMALIZED FREE ENERGY PREDICTED BY IDOCK:    1.38 KCAL/MOL
REMARK 922        TOTAL FREE ENERGY PREDICTED BY IDOCK:   -0.20 KCAL/MOL
REMARK 923 INTER-LIGAND FREE ENERGY PREDICTED BY IDOCK:   -4.05 KCAL/MOL
REMARK 924 INTRA-LIGAND FREE ENERGY PREDICTED BY IDOCK:    3.85 KCAL/MOL
REMARK 927      BINDING AFFINITY PREDICTED BY RF-SCORE:    0.00 PKD
ROOT
HETATM    1  C   UNL     1     -10.582  13.637  66.624  1.00  0.00    -0.277 C  
HETATM    2  O   UNL     1     -11.312  12.420  66.780  1.00  0.00    -0.295 OA 
ENDROOT
BRANCH   2   3
HETATM    3  C   UNL     1     -11.200  11.771  67.985  1.00  0.00    -0.263 A  
HETATM    4  C   UNL     1     -11.193  12.450  69.216  1.00  0.00    -0.264 A  
HETATM    5  C   UNL     1     -11.015  11.763  70.421  1.00  0.00     1.028 A  
HETATM    6  C   UNL     1     -10.863  10.384  70.420  1.00  0.00    -0.257 A  
HETATM    7  C   UNL     1     -10.884   9.694  69.214  1.00  0.00    -0.227 A  
HETATM    8  C   UNL     1     -11.054  10.368  67.994  1.00  0.00    -0.298 A  
BRANCH   8   9
HETATM    9  O   UNL     1     -10.975   9.501  66.923  1.00  0.00    -0.093 OA 
BRANCH   9  10
HETATM   10  C   UNL     1     -10.001   8.560  66.831  1.00  0.00    -0.265 A  
HETATM   11  C   UNL     1     -10.053   7.258  67.278  1.00  0.00    -0.225 A  
HETATM   12  N   UNL     1      -9.088   6.350  67.079  1.00  0.00    -0.124 NA 
HETATM   13  N   UNL     1      -7.789   8.048  66.027  1.00  0.00    -0.091 NA 
HETATM   14  C   UNL     1      -7.995   6.772  66.410  1.00  0.00    -0.106 A  
HETATM   15  C   UNL     1      -8.787   8.916  66.268  1.00  0.00    -0.158 A  
BRANCH  11  16
HETATM   16  N   UNL     1     -11.116   6.668  68.002  1.00  0.00    -0.516 N  
HETATM   17  H   UNL     1     -11.842   6.146  67.512  1.00  0.00     0.000 HD 
BRANCH  16  18
HETATM   18  S   UNL     1     -11.179   6.831  69.668  1.00  0.00    -0.270 S  
HETATM   19  O   UNL     1     -10.655   8.136  70.030  1.00  0.00    -0.231 OA 
HETATM   20  O   UNL     1     -12.523   6.450  70.058  1.00  0.00     0.293 OA 
BRANCH  18  21
HETATM   21  C   UNL     1     -10.064   5.620  70.334  1.00  0.00    -0.219 A  
HETATM   22  C   UNL     1      -8.299   3.730  71.464  1.00  0.00    -0.080 A  
HETATM   23  C   UNL     1      -9.854   5.596  71.712  1.00  0.00    -0.208 A  
HETATM   24  C   UNL     1      -8.979   4.663  72.265  1.00  0.00    -0.140 A  
HETATM   25  C   UNL     1      -8.582   3.733  70.081  1.00  0.00    -0.107 A  
HETATM   26  C   UNL     1      -9.462   4.668  69.516  1.00  0.00    -0.236 A  
BRANCH  22  27
HETATM   27  C   UNL     1      -7.252   2.769  72.059  1.00  0.00    -0.039 C  
HETATM   28  C   UNL     1      -7.881   1.569  72.806  1.00  0.00    -0.044 C  
HETATM   29  C   UNL     1      -6.381   3.530  73.082  1.00  0.00    -0.023 C  
HETATM   30  C   UNL     1      -6.346   2.194  70.952  1.00  0.00    -0.023 C  
ENDBRANCH  22  27
ENDBRANCH  18  21
ENDBRANCH  16  18
ENDBRANCH  11  16
BRANCH  14  31
HETATM   31  C   UNL     1      -7.003   5.747  65.991  1.00  0.00    -0.059 A  
HETATM   32  N   UNL     1      -6.428   5.885  64.772  1.00  0.00    -0.037 NA 
HETATM   33  N   UNL     1      -6.788   4.689  66.812  1.00  0.00    -0.054 NA 
HETATM   34  C   UNL     1      -5.941   3.746  66.368  1.00  0.00    -0.024 A  
HETATM   35  C   UNL     1      -5.600   4.904  64.379  1.00  0.00    -0.014 A  
HETATM   36  C   UNL     1      -5.314   3.800  65.145  1.00  0.00    -0.009 A  
ENDBRANCH  14  31
BRANCH  15  37
HETATM   37  O   UNL     1      -8.584  10.249  65.960  1.00  0.00    -0.137 OA 
BRANCH  37  38
HETATM   38  C   UNL     1      -7.286  10.588  65.455  1.00  0.00    -0.103 C  
BRANCH  38  39
HETATM   39  C   UNL     1      -7.312  10.674  63.933  1.00  0.00     0.232 C  
HETATM   40  O   UNL     1      -6.975   9.419  63.352  1.00  0.00    -0.094 OA 
HETATM   41  H   UNL     1      -6.991   9.472  62.403  1.00  0.00     0.000 HD 
ENDBRANCH  38  39
ENDBRANCH  37  38
ENDBRANCH  15  37
ENDBRANCH   9  10
ENDBRANCH   8   9
ENDBRANCH   2   3
TORSDOF 11
ENDMDL
MODEL      208
REMARK 921   NORMALIZED FREE ENERGY PREDICTED BY IDOCK:    1.64 KCAL/MOL
REMARK 922        TOTAL FREE ENERGY PREDICTED BY IDOCK:    0.23 KCAL/MOL
REMARK 923 INTER-LIGAND FREE ENERGY PREDICTED BY IDOCK:   -2.11 KCAL/MOL
REMARK 924 INTRA-LIGAND FREE ENERGY PREDICTED BY IDOCK:    2.35 KCAL/MOL
REMARK 927      BINDING AFFINITY PREDICTED BY RF-SCORE:    0.00 PKD
ROOT
HETATM    1  C   UNL     1     -13.153   7.027  70.669  1.00  0.00     0.330 C  
HETATM    2  O   UNL     1     -13.003   6.256  71.861  1.00  0.00    -0.097 OA 
ENDROOT
BRANCH   2   3
HETATM    3  C   UNL     1     -11.770   6.268  72.465  1.00  0.00    -0.204 A  
HETATM    4  C   UNL     1     -11.606   6.168  73.857  1.00  0.00     1.575 A  
HETATM    5  C   UNL     1     -10.339   6.245  74.445  1.00  0.00    -0.278 A  
HETATM    6  C   UNL     1      -9.212   6.401  73.650  1.00  0.00    -0.143 A  
HETATM    7  C   UNL     1      -9.354   6.484  72.270  1.00  0.00    -0.137 A  
HETATM    8  C   UNL     1     -10.619   6.417  71.664  1.00  0.00    -0.222 A  
BRANCH   8   9
HETATM    9  O   UNL     1     -10.533   6.589  70.297  1.00  0.00    -0.201 OA 
BRANCH   9  10
HETATM   10  C   UNL     1      -9.538   6.028  69.564  1.00  0.00    -0.143 A  
HETATM   11  C   UNL     1      -8.193   6.007  69.859  1.00  0.00    -0.118 A  
HETATM   12  N   UNL     1      -7.269   5.360  69.138  1.00  0.00    -0.057 NA 
HETATM   13  N   UNL     1      -8.981   4.757  67.596  1.00  0.00    -0.108 NA 
HETATM   14  C   UNL     1      -7.710   4.709  68.041  1.00  0.00    -0.081 A  
HETATM   15  C   UNL     1      -9.860   5.434  68.355  1.00  0.00    -0.147 A  
BRANCH  11  16
HETATM   16  N   UNL     1      -7.573   6.647  70.959  1.00  0.00    -0.084 N  
HETATM   17  H   UNL     1      -7.639   6.240  71.892  1.00  0.00     0.000 HD 
BRANCH  16  18
HETATM   18  S   UNL     1      -6.729   8.074  70.724  1.00  0.00    -0.038 S  
HETATM   19  O   UNL     1      -6.722   8.823  71.968  1.00  0.00    -0.125 OA 
HETATM   20  O   UNL     1      -5.480   7.702  70.088  1.00  0.00    -0.023 OA 
BRANCH  18  21
HETATM   21  C   UNL     1      -7.665   9.024  69.550  1.00  0.00    -0.082 A  
HETATM   22  C   UNL     1      -9.196  10.560  67.745  1.00  0.00    -0.151 A  
HETATM   23  C   UNL     1      -8.606   9.932  70.029  1.00  0.00    -0.196 A  
HETATM   24  C   UNL     1      -9.363  10.686  69.134  1.00  0.00    -0.174 A  
HETATM   25  C   UNL     1      -8.189   9.683  67.289  1.00  0.00    -0.114 A  
HETATM   26  C   UNL     1      -7.422   8.920  68.182  1.00  0.00    -0.092 A  
BRANCH  22  27
HETATM   27  C   UNL     1     -10.103  11.313  66.753  1.00  0.00    -0.254 C  
HETATM   28  C   UNL     1      -9.608  12.747  66.442  1.00  0.00    -0.254 C  
HETATM   29  C   UNL     1     -11.519  11.446  67.352  1.00  0.00    -0.328 C  
HETATM   30  C   UNL     1     -10.189  10.560  65.411  1.00  0.00    -0.340 C  
ENDBRANCH  22  27
ENDBRANCH  18  21
ENDBRANCH  16  18
ENDBRANCH  11  16
BRANCH  14  31
HETATM   31  C   UNL     1      -6.754   3.815  67.338  1.00  0.00    -0.046 A  
HETATM   32  N   UNL     1      -6.786   3.797  65.983  1.00  0.00    -0.059 NA 
HETATM   33  N   UNL     1      -5.962   3.008  68.085  1.00  0.00    -0.023 NA 
HETATM   34  C   UNL     1      -5.163   2.161  67.415  1.00  0.00    -0.012 A  
HETATM   35  C   UNL     1      -5.974   2.920  65.370  1.00  0.00    -0.019 A  
HETATM   36  C   UNL     1      -5.130   2.070  66.043  1.00  0.00    -0.005 A  
ENDBRANCH  14  31
BRANCH  15  37
HETATM   37  O   UNL     1     -11.156   5.570  67.892  1.00  0.00     0.024 OA 
BRANCH  37  38
HETATM   38  C   UNL     1     -11.299   6.069  66.556  1.00  0.00     0.460 C  
BRANCH  38  39
HETATM   39  C   UNL     1     -10.936   4.989  65.542  1.00  0.00     0.201 C  
HETATM   40  O   UNL     1      -9.567   5.095  65.163  1.00  0.00    -0.351 OA 
HETATM   41  H   UNL     1      -9.340   4.422  64.532  1.00  0.00     0.000 HD 
ENDBRANCH  38  39
ENDBRANCH  37  38
ENDBRANCH  15  37
ENDBRANCH   9  10
ENDBRANCH   8   9
ENDBRANCH   2   3
TORSDOF 11
ENDMDL
MODEL      209
REMARK 921   NORMALIZED FREE ENERGY PREDICTED BY IDOCK:    1.82 KCAL/MOL
REMARK 922        TOTAL FREE ENERGY PREDICTED BY IDOCK:    0.53 KCAL/MOL
REMARK 923 INTER-LIGAND FREE ENERGY PREDICTED BY IDOCK:   -1.72 KCAL/MOL
REMARK 924 INTRA-LIGAND FREE ENERGY PREDICTED BY IDOCK:    2.25 KCAL/MOL
REMARK 927      BINDING AFFINITY PREDICTED BY RF-SCORE:    0.00 PKD
ROOT
HETATM    1  C   UNL     1      -7.628  10.253  71.080  1.00  0.00     1.752 C  
HETATM    2  O   UNL     1      -8.454   9.562  70.143  1.00  0.00    -0.171 OA 
ENDROOT
BRANCH   2   3
HETATM    3  C   UNL     1      -9.753   9.990  70.016  1.00  0.00    -0.175 A  
HETATM    4  C   UNL     1     -10.132  11.330  70.203  1.00  0.00     1.298 A  
HETATM    5  C   UNL     1     -11.472  11.721  70.128  1.00  0.00    -0.169 A  
HETATM    6  C   UNL     1     -12.455  10.784  69.842  1.00  0.00    -0.277 A  
HETATM    7  C   UNL     1     -12.097   9.457  69.637  1.00  0.00     0.676 A  
HETATM    8  C   UNL     1     -10.757   9.045  69.717  1.00  0.00    -0.225 A  
BRANCH   8   9
HETATM    9  O   UNL     1     -10.637   7.681  69.549  1.00  0.00    -0.229 OA 
BRANCH   9  10
HETATM   10  C   UNL     1      -9.715   6.952  70.228  1.00  0.00    -0.172 A  
HETATM   11  C   UNL     1      -8.369   6.848  69.958  1.00  0.00    -0.139 A  
HETATM   12  N   UNL     1      -7.493   6.180  70.720  1.00  0.00    -0.089 NA 
HETATM   13  N   UNL     1      -9.307   5.501  72.106  1.00  0.00    -0.143 NA 
HETATM   14  C   UNL     1      -7.993   5.560  71.809  1.00  0.00    -0.114 A  
HETATM   15  C   UNL     1     -10.139   6.178  71.296  1.00  0.00    -0.188 A  
BRANCH  11  16
HETATM   16  N   UNL     1      -7.695   7.424  68.855  1.00  0.00    -0.113 N  
HETATM   17  H   UNL     1      -6.839   7.960  69.001  1.00  0.00     0.000 HD 
BRANCH  16  18
HETATM   18  S   UNL     1      -8.306   7.225  67.309  1.00  0.00    -0.119 S  
HETATM   19  O   UNL     1      -7.214   6.884  66.415  1.00  0.00    -0.072 OA 
HETATM   20  O   UNL     1      -9.447   6.340  67.439  1.00  0.00    -0.115 OA 
BRANCH  18  21
HETATM   21  C   UNL     1      -8.917   8.814  66.801  1.00  0.00    -0.135 A  
HETATM   22  C   UNL     1      -9.936  11.302  65.945  1.00  0.00    -0.277 A  
HETATM   23  C   UNL     1     -10.020   8.862  65.951  1.00  0.00    -0.099 A  
HETATM   24  C   UNL     1     -10.518  10.093  65.527  1.00  0.00    -0.076 A  
HETATM   25  C   UNL     1      -8.864  11.226  66.859  1.00  0.00    -0.165 A  
HETATM   26  C   UNL     1      -8.356   9.991  67.291  1.00  0.00    -0.121 A  
BRANCH  22  27
HETATM   27  C   UNL     1     -10.417  12.659  65.395  1.00  0.00    -0.306 C  
HETATM   28  C   UNL     1     -11.843  13.036  65.865  1.00  0.00    -0.468 C  
HETATM   29  C   UNL     1     -10.451  12.605  63.853  1.00  0.00    -0.441 C  
HETATM   30  C   UNL     1      -9.475  13.795  65.841  1.00  0.00    -0.067 C  
ENDBRANCH  22  27
ENDBRANCH  18  21
ENDBRANCH  16  18
ENDBRANCH  11  16
BRANCH  14  31
HETATM   31  C   UNL     1      -7.028   4.988  72.783  1.00  0.00    -0.081 A  
HETATM   32  N   UNL     1      -6.330   5.851  73.560  1.00  0.00    -0.063 NA 
HETATM   33  N   UNL     1      -6.838   3.646  72.786  1.00  0.00    -0.037 NA 
HETATM   34  C   UNL     1      -5.905   3.173  73.629  1.00  0.00     0.000 A  
HETATM   35  C   UNL     1      -5.402   5.319  74.373  1.00  0.00    -0.023 A  
HETATM   36  C   UNL     1      -5.146   3.972  74.451  1.00  0.00    -0.004 A  
ENDBRANCH  14  31
BRANCH  15  37
HETATM   37  O   UNL     1     -11.499   6.079  71.523  1.00  0.00    -0.281 OA 
BRANCH  37  38
HETATM   38  C   UNL     1     -11.902   5.146  72.534  1.00  0.00     0.115 C  
BRANCH  38  39
HETATM   39  C   UNL     1     -10.724   4.273  72.955  1.00  0.00    -0.167 C  
HETATM   40  O   UNL     1     -10.584   4.266  74.372  1.00  0.00    -0.239 OA 
HETATM   41  H   UNL     1      -9.850   3.722  74.634  1.00  0.00     0.000 HD 
ENDBRANCH  38  39
ENDBRANCH  37  38
ENDBRANCH  15  37
ENDBRANCH   9  10
ENDBRANCH   8   9
ENDBRANCH   2   3
TORSDOF 11
ENDMDL
MODEL      210
REMARK 921   NORMALIZED FREE ENERGY PREDICTED BY IDOCK:    2.77 KCAL/MOL
REMARK 922        TOTAL FREE ENERGY PREDICTED BY IDOCK:    2.08 KCAL/MOL
REMARK 923 INTER-LIGAND FREE ENERGY PREDICTED BY IDOCK:    0.42 KCAL/MOL
REMARK 924 INTRA-LIGAND FREE ENERGY PREDICTED BY IDOCK:    1.67 KCAL/MOL
REMARK 927      BINDING AFFINITY PREDICTED BY RF-SCORE:    0.00 PKD
ROOT
HETATM    1  C   UNL     1      -7.004   6.714  70.639  1.00  0.00    -0.064 C  
HETATM    2  O   UNL     1      -7.616   7.660  71.516  1.00  0.00    -0.077 OA 
ENDROOT
BRANCH   2   3
HETATM    3  C   UNL     1      -8.575   8.484  70.980  1.00  0.00    -0.158 A  
HETATM    4  C   UNL     1      -8.502   9.886  71.060  1.00  0.00     0.928 A  
HETATM    5  C   UNL     1      -9.527  10.694  70.557  1.00  0.00     1.562 A  
HETATM    6  C   UNL     1     -10.631  10.118  69.946  1.00  0.00    -0.331 A  
HETATM    7  C   UNL     1     -10.712   8.734  69.842  1.00  0.00    -0.228 A  
HETATM    8  C   UNL     1      -9.696   7.907  70.349  1.00  0.00    -0.179 A  
BRANCH   8   9
HETATM    9  O   UNL     1     -10.012   6.572  70.200  1.00  0.00    -0.166 OA 
BRANCH   9  10
HETATM   10  C   UNL     1      -9.435   5.800  69.244  1.00  0.00    -0.129 A  
HETATM   11  C   UNL     1      -9.190   6.139  67.932  1.00  0.00    -0.115 A  
HETATM   12  N   UNL     1      -8.536   5.363  67.058  1.00  0.00    -0.110 NA 
HETATM   13  N   UNL     1      -8.401   3.683  68.741  1.00  0.00    -0.072 NA 
HETATM   14  C   UNL     1      -8.118   4.164  67.514  1.00  0.00    -0.095 A  
HETATM   15  C   UNL     1      -9.073   4.503  69.569  1.00  0.00    -0.110 A  
BRANCH  11  16
HETATM   16  N   UNL     1      -9.573   7.346  67.299  1.00  0.00    -0.143 N  
HETATM   17  H   UNL     1     -10.357   7.888  67.662  1.00  0.00     0.000 HD 
BRANCH  16  18
HETATM   18  S   UNL     1      -8.733   7.882  65.953  1.00  0.00    -0.135 S  
HETATM   19  O   UNL     1      -7.347   8.103  66.324  1.00  0.00    -0.076 OA 
HETATM   20  O   UNL     1      -9.065   6.963  64.881  1.00  0.00     0.439 OA 
BRANCH  18  21
HETATM   21  C   UNL     1      -9.417   9.465  65.531  1.00  0.00    -0.260 A  
HETATM   22  C   UNL     1     -10.575  11.956  64.882  1.00  0.00    -0.333 A  
HETATM   23  C   UNL     1     -10.749   9.722  65.850  1.00  0.00     0.319 A  
HETATM   24  C   UNL     1     -11.318  10.951  65.524  1.00  0.00     0.361 A  
HETATM   25  C   UNL     1      -9.211  11.696  64.633  1.00  0.00     0.119 A  
HETATM   26  C   UNL     1      -8.629  10.461  64.957  1.00  0.00    -0.190 A  
BRANCH  22  27
HETATM   27  C   UNL     1     -11.229  13.275  64.427  1.00  0.00    -0.409 C  
HETATM   28  C   UNL     1     -11.808  13.205  62.993  1.00  0.00     0.122 C  
HETATM   29  C   UNL     1     -10.171  14.399  64.430  1.00  0.00     0.453 C  
HETATM   30  C   UNL     1     -12.386  13.666  65.367  1.00  0.00    -0.510 C  
ENDBRANCH  22  27
ENDBRANCH  18  21
ENDBRANCH  16  18
ENDBRANCH  11  16
BRANCH  14  31
HETATM   31  C   UNL     1      -7.215   3.369  66.642  1.00  0.00    -0.067 A  
HETATM   32  N   UNL     1      -7.000   3.817  65.382  1.00  0.00    -0.060 NA 
HETATM   33  N   UNL     1      -6.722   2.202  67.123  1.00  0.00    -0.038 NA 
HETATM   34  C   UNL     1      -5.969   1.475  66.281  1.00  0.00    -0.019 A  
HETATM   35  C   UNL     1      -6.250   3.040  64.583  1.00  0.00    -0.023 A  
HETATM   36  C   UNL     1      -5.700   1.847  64.985  1.00  0.00    -0.013 A  
ENDBRANCH  14  31
BRANCH  15  37
HETATM   37  O   UNL     1      -9.449   4.018  70.808  1.00  0.00    -0.140 OA 
BRANCH  37  38
HETATM   38  C   UNL     1     -10.414   4.800  71.524  1.00  0.00    -0.072 C  
BRANCH  38  39
HETATM   39  C   UNL     1     -11.311   3.900  72.366  1.00  0.00     0.729 C  
HETATM   40  O   UNL     1     -12.087   4.672  73.277  1.00  0.00    -0.295 OA 
HETATM   41  H   UNL     1     -12.647   4.111  73.802  1.00  0.00     0.000 HD 
ENDBRANCH  38  39
ENDBRANCH  37  38
ENDBRANCH  15  37
ENDBRANCH   9  10
ENDBRANCH   8   9
ENDBRANCH   2   3
TORSDOF 11
ENDMDL
MODEL      211
REMARK 921   NORMALIZED FREE ENERGY PREDICTED BY IDOCK:    2.94 KCAL/MOL
REMARK 922        TOTAL FREE ENERGY PREDICTED BY IDOCK:    2.38 KCAL/MOL
REMARK 923 INTER-LIGAND FREE ENERGY PREDICTED BY IDOCK:    3.99 KCAL/MOL
REMARK 924 INTRA-LIGAND FREE ENERGY PREDICTED BY IDOCK:   -1.61 KCAL/MOL
REMARK 927      BINDING AFFINITY PREDICTED BY RF-SCORE:    0.00 PKD
ROOT
HETATM    1  C   UNL     1      -6.403  11.982  72.321  1.00  0.00     4.048 C  
HETATM    2  O   UNL     1      -5.890  12.255  71.017  1.00  0.00    -0.356 OA 
ENDROOT
BRANCH   2   3
HETATM    3  C   UNL     1      -6.749  12.096  69.958  1.00  0.00     0.309 A  
HETATM    4  C   UNL     1      -7.994  12.743  69.887  1.00  0.00     2.122 A  
HETATM    5  C   UNL     1      -8.872  12.510  68.824  1.00  0.00     0.161 A  
HETATM    6  C   UNL     1      -8.512  11.644  67.801  1.00  0.00    -0.144 A  
HETATM    7  C   UNL     1      -7.277  11.009  67.846  1.00  0.00    -0.086 A  
HETATM    8  C   UNL     1      -6.387  11.224  68.910  1.00  0.00    -0.055 A  
BRANCH   8   9
HETATM    9  O   UNL     1      -5.255  10.444  68.787  1.00  0.00    -0.039 OA 
BRANCH   9  10
HETATM   10  C   UNL     1      -5.289   9.098  68.959  1.00  0.00    -0.037 A  
HETATM   11  C   UNL     1      -5.271   8.408  70.150  1.00  0.00    -0.022 A  
HETATM   12  N   UNL     1      -5.395   7.079  70.258  1.00  0.00    -0.022 NA 
HETATM   13  N   UNL     1      -5.442   6.951  67.880  1.00  0.00    -0.015 NA 
HETATM   14  C   UNL     1      -5.525   6.392  69.103  1.00  0.00    -0.013 A  
HETATM   15  C   UNL     1      -5.302   8.287  67.836  1.00  0.00    -0.034 A  
BRANCH  11  16
HETATM   16  N   UNL     1      -5.129   8.976  71.439  1.00  0.00    -0.034 N  
HETATM   17  H   UNL     1      -4.521   9.782  71.579  1.00  0.00     0.000 HD 
BRANCH  16  18
HETATM   18  S   UNL     1      -5.963   8.318  72.734  1.00  0.00    -0.071 S  
HETATM   19  O   UNL     1      -5.470   6.974  72.973  1.00  0.00    -0.038 OA 
HETATM   20  O   UNL     1      -5.915   9.312  73.789  1.00  0.00    -0.301 OA 
BRANCH  18  21
HETATM   21  C   UNL     1      -7.655   8.167  72.217  1.00  0.00    -0.117 A  
HETATM   22  C   UNL     1     -10.346   8.004  71.380  1.00  0.00    -0.243 A  
HETATM   23  C   UNL     1      -8.275   9.272  71.636  1.00  0.00     0.347 A  
HETATM   24  C   UNL     1      -9.605   9.188  71.228  1.00  0.00    -0.331 A  
HETATM   25  C   UNL     1      -9.674   6.881  71.908  1.00  0.00    -0.166 A  
HETATM   26  C   UNL     1      -8.335   6.955  72.322  1.00  0.00    -0.106 A  
BRANCH  22  27
HETATM   27  C   UNL     1     -11.844   7.940  71.028  1.00  0.00    -0.285 C  
HETATM   28  C   UNL     1     -12.485   9.336  70.833  1.00  0.00    -0.189 C  
HETATM   29  C   UNL     1     -12.612   7.250  72.175  1.00  0.00    -0.169 C  
HETATM   30  C   UNL     1     -12.066   7.150  69.723  1.00  0.00     0.370 C  
ENDBRANCH  22  27
ENDBRANCH  18  21
ENDBRANCH  16  18
ENDBRANCH  11  16
BRANCH  14  31
HETATM   31  C   UNL     1      -5.872   4.950  69.193  1.00  0.00    -0.017 A  
HETATM   32  N   UNL     1      -6.118   4.287  68.037  1.00  0.00    -0.030 NA 
HETATM   33  N   UNL     1      -6.003   4.397  70.424  1.00  0.00    -0.017 NA 
HETATM   34  C   UNL     1      -6.389   3.110  70.467  1.00  0.00    -0.027 A  
HETATM   35  C   UNL     1      -6.512   3.007  68.146  1.00  0.00    -0.036 A  
HETATM   36  C   UNL     1      -6.663   2.360  69.348  1.00  0.00    -0.033 A  
ENDBRANCH  14  31
BRANCH  15  37
HETATM   37  O   UNL     1      -5.136   8.889  66.602  1.00  0.00    -0.033 OA 
BRANCH  37  38
HETATM   38  C   UNL     1      -6.123   8.575  65.611  1.00  0.00    -0.048 C  
BRANCH  38  39
HETATM   39  C   UNL     1      -6.662   9.852  64.973  1.00  0.00    -0.121 C  
HETATM   40  O   UNL     1      -8.060   9.741  64.729  1.00  0.00    -0.131 OA 
HETATM   41  H   UNL     1      -8.396  10.536  64.331  1.00  0.00     0.000 HD 
ENDBRANCH  38  39
ENDBRANCH  37  38
ENDBRANCH  15  37
ENDBRANCH   9  10
ENDBRANCH   8   9
ENDBRANCH   2   3
TORSDOF 11
ENDMDL
MODEL      212
REMARK 921   NORMALIZED FREE ENERGY PREDICTED BY IDOCK:    3.62 KCAL/MOL
REMARK 922        TOTAL FREE ENERGY PREDICTED BY IDOCK:    3.49 KCAL/MOL
REMARK 923 INTER-LIGAND FREE ENERGY PREDICTED BY IDOCK:    1.71 KCAL/MOL
REMARK 924 INTRA-LIGAND FREE ENERGY PREDICTED BY IDOCK:    1.78 KCAL/MOL
REMARK 927      BINDING AFFINITY PREDICTED BY RF-SCORE:    0.00 PKD
ROOT
HETATM    1  C   UNL     1      -7.341   9.672  71.463  1.00  0.00     0.676 C  
HETATM    2  O   UNL     1      -8.284   9.057  70.584  1.00  0.00    -0.144 OA 
ENDROOT
BRANCH   2   3
HETATM    3  C   UNL     1      -9.554   9.579  70.562  1.00  0.00    -0.251 A  
HETATM    4  C   UNL     1      -9.822  10.935  70.815  1.00  0.00     2.738 A  
HETATM    5  C   UNL     1     -11.132  11.422  70.845  1.00  0.00     1.469 A  
HETATM    6  C   UNL     1     -12.197  10.567  70.600  1.00  0.00    -0.446 A  
HETATM    7  C   UNL     1     -11.951   9.226  70.330  1.00  0.00     0.065 A  
HETATM    8  C   UNL     1     -10.642   8.719  70.304  1.00  0.00    -0.216 A  
BRANCH   8   9
HETATM    9  O   UNL     1     -10.633   7.357  70.086  1.00  0.00    -0.219 OA 
BRANCH   9  10
HETATM   10  C   UNL     1      -9.733   6.539  70.688  1.00  0.00    -0.179 A  
HETATM   11  C   UNL     1      -8.407   6.369  70.358  1.00  0.00    -0.126 A  
HETATM   12  N   UNL     1      -7.546   5.611  71.048  1.00  0.00    -0.092 NA 
HETATM   13  N   UNL     1      -9.344   4.967  72.472  1.00  0.00    -0.132 NA 
HETATM   14  C   UNL     1      -8.042   4.964  72.124  1.00  0.00    -0.111 A  
HETATM   15  C   UNL     1     -10.163   5.735  71.732  1.00  0.00    -0.197 A  
BRANCH  11  16
HETATM   16  N   UNL     1      -7.740   6.963  69.260  1.00  0.00    -0.103 N  
HETATM   17  H   UNL     1      -8.037   7.875  68.913  1.00  0.00     0.000 HD 
BRANCH  16  18
HETATM   18  S   UNL     1      -6.463   6.162  68.530  1.00  0.00    -0.055 S  
HETATM   19  O   UNL     1      -5.447   7.134  68.169  1.00  0.00    -0.019 OA 
HETATM   20  O   UNL     1      -6.134   5.052  69.403  1.00  0.00    -0.020 OA 
BRANCH  18  21
HETATM   21  C   UNL     1      -7.095   5.483  67.016  1.00  0.00    -0.070 A  
HETATM   22  C   UNL     1      -8.170   4.398  64.642  1.00  0.00    -0.106 A  
HETATM   23  C   UNL     1      -8.466   5.262  66.906  1.00  0.00    -0.106 A  
HETATM   24  C   UNL     1      -8.992   4.723  65.734  1.00  0.00    -0.138 A  
HETATM   25  C   UNL     1      -6.794   4.695  64.754  1.00  0.00    -0.045 A  
HETATM   26  C   UNL     1      -6.256   5.239  65.930  1.00  0.00    -0.034 A  
BRANCH  22  27
HETATM   27  C   UNL     1      -8.733   3.704  63.387  1.00  0.00    -0.096 C  
HETATM   28  C   UNL     1      -9.871   2.704  63.702  1.00  0.00    -0.136 C  
HETATM   29  C   UNL     1      -7.608   2.903  62.696  1.00  0.00    -0.054 C  
HETATM   30  C   UNL     1      -9.298   4.741  62.396  1.00  0.00    -0.058 C  
ENDBRANCH  22  27
ENDBRANCH  18  21
ENDBRANCH  16  18
ENDBRANCH  11  16
BRANCH  14  31
HETATM   31  C   UNL     1      -7.077   4.285  73.028  1.00  0.00    -0.068 A  
HETATM   32  N   UNL     1      -6.043   5.015  73.510  1.00  0.00    -0.036 NA 
HETATM   33  N   UNL     1      -7.236   2.958  73.255  1.00  0.00    -0.043 NA 
HETATM   34  C   UNL     1      -6.303   2.363  74.017  1.00  0.00    -0.019 A  
HETATM   35  C   UNL     1      -5.136   4.362  74.256  1.00  0.00    -0.008 A  
HETATM   36  C   UNL     1      -5.218   3.022  74.547  1.00  0.00     0.000 A  
ENDBRANCH  14  31
BRANCH  15  37
HETATM   37  O   UNL     1     -11.517   5.705  72.009  1.00  0.00    -0.233 OA 
BRANCH  37  38
HETATM   38  C   UNL     1     -11.945   4.713  72.952  1.00  0.00     0.207 C  
BRANCH  38  39
HETATM   39  C   UNL     1     -11.191   3.406  72.729  1.00  0.00     0.307 C  
HETATM   40  O   UNL     1     -11.155   2.636  73.926  1.00  0.00    -0.194 OA 
HETATM   41  H   UNL     1     -10.686   1.822  73.788  1.00  0.00     0.000 HD 
ENDBRANCH  38  39
ENDBRANCH  37  38
ENDBRANCH  15  37
ENDBRANCH   9  10
ENDBRANCH   8   9
ENDBRANCH   2   3
TORSDOF 11
ENDMDL
MODEL      213
REMARK 921   NORMALIZED FREE ENERGY PREDICTED BY IDOCK:    3.86 KCAL/MOL
REMARK 922        TOTAL FREE ENERGY PREDICTED BY IDOCK:    3.87 KCAL/MOL
REMARK 923 INTER-LIGAND FREE ENERGY PREDICTED BY IDOCK:    0.98 KCAL/MOL
REMARK 924 INTRA-LIGAND FREE ENERGY PREDICTED BY IDOCK:    2.90 KCAL/MOL
REMARK 927      BINDING AFFINITY PREDICTED BY RF-SCORE:    0.00 PKD
ROOT
HETATM    1  C   UNL     1     -11.427  19.666  68.092  1.00  0.00     1.404 C  
HETATM    2  O   UNL     1     -10.238  20.110  67.438  1.00  0.00    -0.411 OA 
ENDROOT
BRANCH   2   3
HETATM    3  C   UNL     1      -9.068  20.048  68.155  1.00  0.00    -0.212 A  
HETATM    4  C   UNL     1      -7.935  20.810  67.824  1.00  0.00    -0.077 A  
HETATM    5  C   UNL     1      -6.739  20.677  68.537  1.00  0.00    -0.170 A  
HETATM    6  C   UNL     1      -6.661  19.797  69.607  1.00  0.00    -0.351 A  
HETATM    7  C   UNL     1      -7.777  19.047  69.959  1.00  0.00     0.881 A  
HETATM    8  C   UNL     1      -8.983  19.162  69.249  1.00  0.00     0.007 A  
BRANCH   8   9
HETATM    9  O   UNL     1      -9.934  18.281  69.723  1.00  0.00     0.236 OA 
BRANCH   9  10
HETATM   10  C   UNL     1      -9.919  16.964  69.395  1.00  0.00    -0.113 A  
HETATM   11  C   UNL     1      -9.153  16.353  68.427  1.00  0.00    -0.214 A  
HETATM   12  N   UNL     1      -9.119  15.032  68.210  1.00  0.00    -0.177 NA 
HETATM   13  N   UNL     1     -10.785  14.772  69.892  1.00  0.00    -0.167 NA 
HETATM   14  C   UNL     1      -9.913  14.273  68.993  1.00  0.00    -0.097 A  
HETATM   15  C   UNL     1     -10.784  16.107  70.055  1.00  0.00    -0.318 A  
BRANCH  11  16
HETATM   16  N   UNL     1      -8.283  17.005  67.520  1.00  0.00    -0.179 N  
HETATM   17  H   UNL     1      -7.387  17.370  67.843  1.00  0.00     0.000 HD 
BRANCH  16  18
HETATM   18  S   UNL     1      -8.730  17.175  65.915  1.00  0.00     0.184 S  
HETATM   19  O   UNL     1      -9.693  18.257  65.811  1.00  0.00    -0.494 OA 
HETATM   20  O   UNL     1      -7.495  17.222  65.157  1.00  0.00     0.835 OA 
BRANCH  18  21
HETATM   21  C   UNL     1      -9.577  15.680  65.468  1.00  0.00    -0.202 A  
HETATM   22  C   UNL     1     -10.991  13.345  64.750  1.00  0.00    -0.371 A  
HETATM   23  C   UNL     1     -10.906  15.766  65.056  1.00  0.00    -0.461 A  
HETATM   24  C   UNL     1     -11.601  14.610  64.707  1.00  0.00    -0.418 A  
HETATM   25  C   UNL     1      -9.625  13.295  65.105  1.00  0.00     0.185 A  
HETATM   26  C   UNL     1      -8.917  14.453  65.458  1.00  0.00     1.071 A  
BRANCH  22  27
HETATM   27  C   UNL     1     -11.786  12.056  64.467  1.00  0.00    -0.363 C  
HETATM   28  C   UNL     1     -12.277  11.348  65.753  1.00  0.00     1.534 C  
HETATM   29  C   UNL     1     -10.885  11.052  63.717  1.00  0.00    -0.201 C  
HETATM   30  C   UNL     1     -13.030  12.359  63.609  1.00  0.00    -0.229 C  
ENDBRANCH  22  27
ENDBRANCH  18  21
ENDBRANCH  16  18
ENDBRANCH  11  16
BRANCH  14  31
HETATM   31  C   UNL     1      -9.747  12.798  68.922  1.00  0.00     0.201 A  
HETATM   32  N   UNL     1     -10.770  12.026  69.362  1.00  0.00    -0.015 NA 
HETATM   33  N   UNL     1      -8.557  12.306  68.500  1.00  0.00    -0.117 NA 
HETATM   34  C   UNL     1      -8.418  10.970  68.519  1.00  0.00    -0.153 A  
HETATM   35  C   UNL     1     -10.567  10.698  69.368  1.00  0.00    -0.239 A  
HETATM   36  C   UNL     1      -9.399  10.108  68.951  1.00  0.00    -0.179 A  
ENDBRANCH  14  31
BRANCH  15  37
HETATM   37  O   UNL     1     -11.717  16.663  70.911  1.00  0.00    -0.069 OA 
BRANCH  37  38
HETATM   38  C   UNL     1     -12.867  15.857  71.199  1.00  0.00    -0.225 C  
BRANCH  38  39
HETATM   39  C   UNL     1     -13.440  15.268  69.914  1.00  0.00     0.834 C  
HETATM   40  O   UNL     1     -12.940  13.952  69.697  1.00  0.00    -0.173 OA 
HETATM   41  H   UNL     1     -13.297  13.584  68.897  1.00  0.00     0.000 HD 
ENDBRANCH  38  39
ENDBRANCH  37  38
ENDBRANCH  15  37
ENDBRANCH   9  10
ENDBRANCH   8   9
ENDBRANCH   2   3
TORSDOF 11
ENDMDL
MODEL      214
REMARK 921   NORMALIZED FREE ENERGY PREDICTED BY IDOCK:    4.19 KCAL/MOL
REMARK 922        TOTAL FREE ENERGY PREDICTED BY IDOCK:    4.42 KCAL/MOL
REMARK 923 INTER-LIGAND FREE ENERGY PREDICTED BY IDOCK:    5.69 KCAL/MOL
REMARK 924 INTRA-LIGAND FREE ENERGY PREDICTED BY IDOCK:   -1.27 KCAL/MOL
REMARK 927      BINDING AFFINITY PREDICTED BY RF-SCORE:    0.00 PKD
ROOT
HETATM    1  C   UNL     1      -5.167  16.908  70.703  1.00  0.00    -0.220 C  
HETATM    2  O   UNL     1      -5.182  18.278  70.303  1.00  0.00    -0.212 OA 
ENDROOT
BRANCH   2   3
HETATM    3  C   UNL     1      -6.403  18.831  70.001  1.00  0.00    -0.044 A  
HETATM    4  C   UNL     1      -7.052  19.746  70.848  1.00  0.00     0.724 A  
HETATM    5  C   UNL     1      -8.322  20.242  70.540  1.00  0.00     1.661 A  
HETATM    6  C   UNL     1      -8.957  19.851  69.370  1.00  0.00     0.302 A  
HETATM    7  C   UNL     1      -8.323  18.960  68.512  1.00  0.00    -0.384 A  
HETATM    8  C   UNL     1      -7.051  18.446  68.810  1.00  0.00    -0.283 A  
BRANCH   8   9
HETATM    9  O   UNL     1      -6.642  17.531  67.860  1.00  0.00    -0.167 OA 
BRANCH   9  10
HETATM   10  C   UNL     1      -7.530  16.811  67.128  1.00  0.00    -0.182 A  
HETATM   11  C   UNL     1      -8.367  15.813  67.575  1.00  0.00    -0.166 A  
HETATM   12  N   UNL     1      -9.285  15.199  66.818  1.00  0.00    -0.237 NA 
HETATM   13  N   UNL     1      -8.518  16.474  64.958  1.00  0.00     2.267 NA 
HETATM   14  C   UNL     1      -9.361  15.590  65.528  1.00  0.00    -0.027 A  
HETATM   15  C   UNL     1      -7.608  17.046  65.765  1.00  0.00     0.402 A  
BRANCH  11  16
HETATM   16  N   UNL     1      -8.403  15.283  68.887  1.00  0.00    -0.181 N  
HETATM   17  H   UNL     1      -9.118  15.593  69.545  1.00  0.00     0.000 HD 
BRANCH  16  18
HETATM   18  S   UNL     1      -7.268  14.145  69.356  1.00  0.00     0.055 S  
HETATM   19  O   UNL     1      -6.314  13.964  68.276  1.00  0.00    -0.087 OA 
HETATM   20  O   UNL     1      -6.812  14.551  70.672  1.00  0.00     0.038 OA 
BRANCH  18  21
HETATM   21  C   UNL     1      -8.141  12.611  69.542  1.00  0.00     1.231 A  
HETATM   22  C   UNL     1      -9.460  10.134  69.846  1.00  0.00    -0.150 A  
HETATM   23  C   UNL     1      -7.421  11.475  69.906  1.00  0.00     0.730 A  
HETATM   24  C   UNL     1      -8.075  10.253  70.052  1.00  0.00     0.016 A  
HETATM   25  C   UNL     1     -10.176  11.313  69.545  1.00  0.00     0.122 A  
HETATM   26  C   UNL     1      -9.525  12.547  69.397  1.00  0.00     1.122 A  
BRANCH  22  27
HETATM   27  C   UNL     1     -10.168   8.767  69.903  1.00  0.00    -0.206 C  
HETATM   28  C   UNL     1      -9.207   7.595  70.213  1.00  0.00    -0.157 C  
HETATM   29  C   UNL     1     -10.815   8.468  68.533  1.00  0.00     0.020 C  
HETATM   30  C   UNL     1     -11.261   8.761  70.990  1.00  0.00    -0.329 C  
ENDBRANCH  22  27
ENDBRANCH  18  21
ENDBRANCH  16  18
ENDBRANCH  11  16
BRANCH  14  31
HETATM   31  C   UNL     1     -10.499  15.083  64.719  1.00  0.00    -0.234 A  
HETATM   32  N   UNL     1     -11.474  15.961  64.381  1.00  0.00    -0.366 NA 
HETATM   33  N   UNL     1     -10.543  13.759  64.432  1.00  0.00    -0.379 NA 
HETATM   34  C   UNL     1     -11.623  13.324  63.761  1.00  0.00    -0.375 A  
HETATM   35  C   UNL     1     -12.534  15.465  63.722  1.00  0.00     0.590 A  
HETATM   36  C   UNL     1     -12.662  14.140  63.380  1.00  0.00     0.873 A  
ENDBRANCH  14  31
BRANCH  15  37
HETATM   37  O   UNL     1      -6.677  17.899  65.201  1.00  0.00    -0.240 OA 
BRANCH  37  38
HETATM   38  C   UNL     1      -7.155  19.199  64.833  1.00  0.00     0.656 C  
BRANCH  38  39
HETATM   39  C   UNL     1      -5.988  20.158  64.628  1.00  0.00    -0.252 C  
HETATM   40  O   UNL     1      -5.854  20.502  63.252  1.00  0.00    -0.241 OA 
HETATM   41  H   UNL     1      -5.127  21.100  63.124  1.00  0.00     0.000 HD 
ENDBRANCH  38  39
ENDBRANCH  37  38
ENDBRANCH  15  37
ENDBRANCH   9  10
ENDBRANCH   8   9
ENDBRANCH   2   3
TORSDOF 11
ENDMDL
MODEL      215
REMARK 921   NORMALIZED FREE ENERGY PREDICTED BY IDOCK:    4.74 KCAL/MOL
REMARK 922        TOTAL FREE ENERGY PREDICTED BY IDOCK:    5.33 KCAL/MOL
REMARK 923 INTER-LIGAND FREE ENERGY PREDICTED BY IDOCK:    0.63 KCAL/MOL
REMARK 924 INTRA-LIGAND FREE ENERGY PREDICTED BY IDOCK:    4.70 KCAL/MOL
REMARK 927      BINDING AFFINITY PREDICTED BY RF-SCORE:    0.00 PKD
ROOT
HETATM    1  C   UNL     1      -9.678   9.248  63.658  1.00  0.00     1.389 C  
HETATM    2  O   UNL     1      -8.908   8.848  64.792  1.00  0.00    -0.173 OA 
ENDROOT
BRANCH   2   3
HETATM    3  C   UNL     1      -9.566   8.747  65.993  1.00  0.00    -0.226 A  
HETATM    4  C   UNL     1     -10.232   7.578  66.399  1.00  0.00    -0.022 A  
HETATM    5  C   UNL     1     -10.944   7.530  67.601  1.00  0.00    -0.093 A  
HETATM    6  C   UNL     1     -10.986   8.642  68.430  1.00  0.00     0.126 A  
HETATM    7  C   UNL     1     -10.319   9.801  68.054  1.00  0.00    -0.250 A  
HETATM    8  C   UNL     1      -9.605   9.870  66.847  1.00  0.00    -0.179 A  
BRANCH   8   9
HETATM    9  O   UNL     1      -9.081  11.130  66.641  1.00  0.00    -0.162 OA 
BRANCH   9  10
HETATM   10  C   UNL     1      -9.370  12.171  67.463  1.00  0.00    -0.181 A  
HETATM   11  C   UNL     1      -8.507  12.835  68.305  1.00  0.00    -0.161 A  
HETATM   12  N   UNL     1      -8.834  13.915  69.028  1.00  0.00     0.124 NA 
HETATM   13  N   UNL     1     -11.064  13.708  68.218  1.00  0.00    -0.246 NA 
HETATM   14  C   UNL     1     -10.108  14.346  68.921  1.00  0.00    -0.200 A  
HETATM   15  C   UNL     1     -10.679  12.622  67.525  1.00  0.00    -0.225 A  
BRANCH  11  16
HETATM   16  N   UNL     1      -7.151  12.503  68.538  1.00  0.00    -0.101 N  
HETATM   17  H   UNL     1      -6.512  13.198  68.925  1.00  0.00     0.000 HD 
BRANCH  16  18
HETATM   18  S   UNL     1      -6.597  10.965  68.174  1.00  0.00    -0.062 S  
HETATM   19  O   UNL     1      -7.303  10.479  67.001  1.00  0.00    -0.093 OA 
HETATM   20  O   UNL     1      -5.149  11.049  68.172  1.00  0.00    -0.037 OA 
BRANCH  18  21
HETATM   21  C   UNL     1      -7.072   9.925  69.533  1.00  0.00    -0.082 A  
HETATM   22  C   UNL     1      -7.887   8.321  71.708  1.00  0.00    -0.147 A  
HETATM   23  C   UNL     1      -8.280  10.183  70.178  1.00  0.00     0.032 A  
HETATM   24  C   UNL     1      -8.677   9.391  71.254  1.00  0.00     0.146 A  
HETATM   25  C   UNL     1      -6.702   8.040  70.994  1.00  0.00    -0.041 A  
HETATM   26  C   UNL     1      -6.295   8.832  69.910  1.00  0.00    -0.037 A  
BRANCH  22  27
HETATM   27  C   UNL     1      -8.271   7.511  72.961  1.00  0.00    -0.150 C  
HETATM   28  C   UNL     1      -9.435   6.522  72.714  1.00  0.00    -0.150 C  
HETATM   29  C   UNL     1      -8.730   8.477  74.075  1.00  0.00     0.246 C  
HETATM   30  C   UNL     1      -7.071   6.687  73.469  1.00  0.00    -0.076 C  
ENDBRANCH  22  27
ENDBRANCH  18  21
ENDBRANCH  16  18
ENDBRANCH  11  16
BRANCH  14  31
HETATM   31  C   UNL     1     -10.449  15.653  69.541  1.00  0.00    -0.270 A  
HETATM   32  N   UNL     1     -11.207  15.640  70.664  1.00  0.00    -0.331 NA 
HETATM   33  N   UNL     1     -10.054  16.785  68.910  1.00  0.00    -0.269 NA 
HETATM   34  C   UNL     1     -10.443  17.948  69.460  1.00  0.00     0.373 A  
HETATM   35  C   UNL     1     -11.575  16.833  71.160  1.00  0.00     0.460 A  
HETATM   36  C   UNL     1     -11.215  18.032  70.595  1.00  0.00     3.094 A  
ENDBRANCH  14  31
BRANCH  15  37
HETATM   37  O   UNL     1     -11.646  11.895  66.854  1.00  0.00    -0.465 OA 
BRANCH  37  38
HETATM   38  C   UNL     1     -12.525  12.648  66.009  1.00  0.00     0.105 C  
BRANCH  38  39
HETATM   39  C   UNL     1     -11.738  13.332  64.895  1.00  0.00    -0.342 C  
HETATM   40  O   UNL     1     -12.612  14.040  64.023  1.00  0.00    -0.689 OA 
HETATM   41  H   UNL     1     -12.122  14.467  63.329  1.00  0.00     0.000 HD 
ENDBRANCH  38  39
ENDBRANCH  37  38
ENDBRANCH  15  37
ENDBRANCH   9  10
ENDBRANCH   8   9
ENDBRANCH   2   3
TORSDOF 11
ENDMDL
MODEL      216
REMARK 921   NORMALIZED FREE ENERGY PREDICTED BY IDOCK:    5.71 KCAL/MOL
REMARK 922        TOTAL FREE ENERGY PREDICTED BY IDOCK:    6.93 KCAL/MOL
REMARK 923 INTER-LIGAND FREE ENERGY PREDICTED BY IDOCK:    3.96 KCAL/MOL
REMARK 924 INTRA-LIGAND FREE ENERGY PREDICTED BY IDOCK:    2.97 KCAL/MOL
REMARK 927      BINDING AFFINITY PREDICTED BY RF-SCORE:    0.00 PKD
ROOT
HETATM    1  C   UNL     1     -12.985   5.652  71.050  1.00  0.00     3.311 C  
HETATM    2  O   UNL     1     -12.651   4.957  72.251  1.00  0.00     1.107 OA 
ENDROOT
BRANCH   2   3
HETATM    3  C   UNL     1     -11.360   5.068  72.703  1.00  0.00    -0.133 A  
HETATM    4  C   UNL     1     -10.972   4.681  73.997  1.00  0.00    -0.261 A  
HETATM    5  C   UNL     1      -9.661   4.865  74.447  1.00  0.00    -0.150 A  
HETATM    6  C   UNL     1      -8.708   5.419  73.603  1.00  0.00    -0.116 A  
HETATM    7  C   UNL     1      -9.069   5.792  72.314  1.00  0.00    -0.145 A  
HETATM    8  C   UNL     1     -10.383   5.621  71.849  1.00  0.00    -0.215 A  
BRANCH   8   9
HETATM    9  O   UNL     1     -10.534   6.120  70.571  1.00  0.00    -0.209 OA 
BRANCH   9  10
HETATM   10  C   UNL     1      -9.589   5.940  69.614  1.00  0.00    -0.148 A  
HETATM   11  C   UNL     1      -8.231   6.131  69.735  1.00  0.00    -0.123 A  
HETATM   12  N   UNL     1      -7.338   5.852  68.776  1.00  0.00    -0.082 NA 
HETATM   13  N   UNL     1      -9.148   5.250  67.349  1.00  0.00    -0.112 NA 
HETATM   14  C   UNL     1      -7.832   5.369  67.616  1.00  0.00    -0.100 A  
HETATM   15  C   UNL     1      -9.996   5.560  68.345  1.00  0.00    -0.159 A  
BRANCH  11  16
HETATM   16  N   UNL     1      -7.560   6.639  70.873  1.00  0.00    -0.087 N  
HETATM   17  H   UNL     1      -7.382   6.034  71.675  1.00  0.00     0.000 HD 
BRANCH  16  18
HETATM   18  S   UNL     1      -7.060   8.237  70.900  1.00  0.00    -0.058 S  
HETATM   19  O   UNL     1      -8.093   9.039  71.531  1.00  0.00    -0.303 OA 
HETATM   20  O   UNL     1      -5.713   8.227  71.438  1.00  0.00    -0.033 OA 
BRANCH  18  21
HETATM   21  C   UNL     1      -6.956   8.760  69.207  1.00  0.00    -0.058 A  
HETATM   22  C   UNL     1      -6.870   9.602  66.514  1.00  0.00    -0.084 A  
HETATM   23  C   UNL     1      -8.104   9.258  68.592  1.00  0.00    -0.105 A  
HETATM   24  C   UNL     1      -8.058   9.669  67.262  1.00  0.00    -0.110 A  
HETATM   25  C   UNL     1      -5.707   9.158  67.180  1.00  0.00    -0.045 A  
HETATM   26  C   UNL     1      -5.744   8.742  68.519  1.00  0.00    -0.038 A  
BRANCH  22  27
HETATM   27  C   UNL     1      -6.841   9.955  65.015  1.00  0.00    -0.126 C  
HETATM   28  C   UNL     1      -5.541  10.676  64.584  1.00  0.00    -0.077 C  
HETATM   29  C   UNL     1      -8.012  10.907  64.689  1.00  0.00     0.281 C  
HETATM   30  C   UNL     1      -6.966   8.685  64.151  1.00  0.00    -0.089 C  
ENDBRANCH  22  27
ENDBRANCH  18  21
ENDBRANCH  16  18
ENDBRANCH  11  16
BRANCH  14  31
HETATM   31  C   UNL     1      -6.864   4.856  66.614  1.00  0.00    -0.062 A  
HETATM   32  N   UNL     1      -6.890   5.401  65.373  1.00  0.00    -0.058 NA 
HETATM   33  N   UNL     1      -6.065   3.819  66.966  1.00  0.00    -0.024 NA 
HETATM   34  C   UNL     1      -5.254   3.333  66.011  1.00  0.00    -0.009 A  
HETATM   35  C   UNL     1      -6.065   4.865  64.459  1.00  0.00    -0.022 A  
HETATM   36  C   UNL     1      -5.215   3.820  64.725  1.00  0.00    -0.009 A  
ENDBRANCH  14  31
BRANCH  15  37
HETATM   37  O   UNL     1     -11.354   5.523  68.085  1.00  0.00     0.449 OA 
BRANCH  37  38
HETATM   38  C   UNL     1     -11.958   6.771  67.721  1.00  0.00     2.134 C  
BRANCH  38  39
HETATM   39  C   UNL     1     -10.888   7.805  67.387  1.00  0.00    -0.137 C  
HETATM   40  O   UNL     1     -10.574   7.773  65.999  1.00  0.00     0.162 OA 
HETATM   41  H   UNL     1      -9.907   8.417  65.790  1.00  0.00     0.000 HD 
ENDBRANCH  38  39
ENDBRANCH  37  38
ENDBRANCH  15  37
ENDBRANCH   9  10
ENDBRANCH   8   9
ENDBRANCH   2   3
TORSDOF 11
ENDMDL
MODEL      217
REMARK 921   NORMALIZED FREE ENERGY PREDICTED BY IDOCK:    6.85 KCAL/MOL
REMARK 922        TOTAL FREE ENERGY PREDICTED BY IDOCK:    8.79 KCAL/MOL
REMARK 923 INTER-LIGAND FREE ENERGY PREDICTED BY IDOCK:    4.82 KCAL/MOL
REMARK 924 INTRA-LIGAND FREE ENERGY PREDICTED BY IDOCK:    3.97 KCAL/MOL
REMARK 927      BINDING AFFINITY PREDICTED BY RF-SCORE:    0.00 PKD
ROOT
HETATM    1  C   UNL     1     -12.470  11.400  68.362  1.00  0.00     0.834 C  
HETATM    2  O   UNL     1     -12.202  12.754  67.999  1.00  0.00    -0.215 OA 
ENDROOT
BRANCH   2   3
HETATM    3  C   UNL     1     -12.087  13.033  66.659  1.00  0.00    -0.319 A  
HETATM    4  C   UNL     1     -11.658  12.081  65.719  1.00  0.00    -0.353 A  
HETATM    5  C   UNL     1     -11.492  12.415  64.372  1.00  0.00    -0.408 A  
HETATM    6  C   UNL     1     -11.774  13.702  63.935  1.00  0.00    -0.363 A  
HETATM    7  C   UNL     1     -12.215  14.654  64.847  1.00  0.00    -0.363 A  
HETATM    8  C   UNL     1     -12.379  14.337  66.205  1.00  0.00    -0.373 A  
BRANCH   8   9
HETATM    9  O   UNL     1     -12.758  15.442  66.939  1.00  0.00     1.200 OA 
BRANCH   9  10
HETATM   10  C   UNL     1     -11.848  16.302  67.464  1.00  0.00     0.640 A  
HETATM   11  C   UNL     1     -11.612  16.557  68.796  1.00  0.00    -0.042 A  
HETATM   12  N   UNL     1     -10.637  17.353  69.254  1.00  0.00    -0.219 NA 
HETATM   13  N   UNL     1     -10.073  17.861  66.996  1.00  0.00    -0.324 NA 
HETATM   14  C   UNL     1      -9.861  17.949  68.325  1.00  0.00    -0.348 A  
HETATM   15  C   UNL     1     -11.075  17.059  66.598  1.00  0.00     0.337 A  
BRANCH  11  16
HETATM   16  N   UNL     1     -12.340  16.024  69.888  1.00  0.00    -0.406 N  
HETATM   17  H   UNL     1     -13.179  16.497  70.223  1.00  0.00     0.000 HD 
BRANCH  16  18
HETATM   18  S   UNL     1     -11.817  14.616  70.627  1.00  0.00    -0.306 S  
HETATM   19  O   UNL     1     -11.617  14.878  72.042  1.00  0.00    -0.363 OA 
HETATM   20  O   UNL     1     -12.732  13.575  70.200  1.00  0.00    -0.166 OA 
BRANCH  18  21
HETATM   21  C   UNL     1     -10.224  14.246  69.937  1.00  0.00     0.526 A  
HETATM   22  C   UNL     1      -7.669  13.732  68.852  1.00  0.00    -0.021 A  
HETATM   23  C   UNL     1      -9.223  15.212  70.016  1.00  0.00     0.267 A  
HETATM   24  C   UNL     1      -7.965  14.956  69.476  1.00  0.00    -0.084 A  
HETATM   25  C   UNL     1      -8.679  12.746  68.846  1.00  0.00     0.326 A  
HETATM   26  C   UNL     1      -9.949  12.995  69.388  1.00  0.00     0.755 A  
BRANCH  22  27
HETATM   27  C   UNL     1      -6.314  13.486  68.162  1.00  0.00    -0.124 C  
HETATM   28  C   UNL     1      -6.350  12.317  67.149  1.00  0.00    -0.117 C  
HETATM   29  C   UNL     1      -5.255  13.127  69.225  1.00  0.00    -0.074 C  
HETATM   30  C   UNL     1      -5.856  14.741  67.393  1.00  0.00     0.257 C  
ENDBRANCH  22  27
ENDBRANCH  18  21
ENDBRANCH  16  18
ENDBRANCH  11  16
BRANCH  14  31
HETATM   31  C   UNL     1      -8.649  18.669  68.794  1.00  0.00    -0.260 A  
HETATM   32  N   UNL     1      -8.736  19.360  69.956  1.00  0.00     0.840 NA 
HETATM   33  N   UNL     1      -7.551  18.662  68.000  1.00  0.00    -0.254 NA 
HETATM   34  C   UNL     1      -6.499  19.384  68.422  1.00  0.00    -0.245 A  
HETATM   35  C   UNL     1      -7.656  20.072  70.319  1.00  0.00     0.778 A  
HETATM   36  C   UNL     1      -6.497  20.119  69.584  1.00  0.00    -0.333 A  
ENDBRANCH  14  31
BRANCH  15  37
HETATM   37  O   UNL     1     -11.373  17.002  65.249  1.00  0.00     0.069 OA 
BRANCH  37  38
HETATM   38  C   UNL     1     -10.265  16.773  64.369  1.00  0.00     2.558 C  
BRANCH  38  39
HETATM   39  C   UNL     1      -9.175  15.979  65.080  1.00  0.00     1.193 C  
HETATM   40  O   UNL     1      -8.060  16.812  65.381  1.00  0.00     0.312 OA 
HETATM   41  H   UNL     1      -7.380  16.318  65.824  1.00  0.00     0.000 HD 
ENDBRANCH  38  39
ENDBRANCH  37  38
ENDBRANCH  15  37
ENDBRANCH   9  10
ENDBRANCH   8   9
ENDBRANCH   2   3
TORSDOF 11
ENDMDL
MODEL      218
REMARK 921   NORMALIZED FREE ENERGY PREDICTED BY IDOCK:    7.19 KCAL/MOL
REMARK 922        TOTAL FREE ENERGY PREDICTED BY IDOCK:    9.34 KCAL/MOL
REMARK 923 INTER-LIGAND FREE ENERGY PREDICTED BY IDOCK:    4.95 KCAL/MOL
REMARK 924 INTRA-LIGAND FREE ENERGY PREDICTED BY IDOCK:    4.40 KCAL/MOL
REMARK 927      BINDING AFFINITY PREDICTED BY RF-SCORE:    0.00 PKD
ROOT
HETATM    1  C   UNL     1      -5.129  14.167  65.643  1.00  0.00     8.967 C  
HETATM    2  O   UNL     1      -5.460  13.606  66.913  1.00  0.00     0.251 OA 
ENDROOT
BRANCH   2   3
HETATM    3  C   UNL     1      -5.817  14.479  67.911  1.00  0.00    -0.125 A  
HETATM    4  C   UNL     1      -5.945  15.863  67.699  1.00  0.00    -0.177 A  
HETATM    5  C   UNL     1      -6.249  16.732  68.751  1.00  0.00    -0.151 A  
HETATM    6  C   UNL     1      -6.455  16.232  70.029  1.00  0.00     0.009 A  
HETATM    7  C   UNL     1      -6.350  14.864  70.254  1.00  0.00    -0.138 A  
HETATM    8  C   UNL     1      -6.037  13.978  69.211  1.00  0.00    -0.100 A  
BRANCH   8   9
HETATM    9  O   UNL     1      -5.917  12.682  69.669  1.00  0.00    -0.102 OA 
BRANCH   9  10
HETATM   10  C   UNL     1      -6.908  11.768  69.506  1.00  0.00    -0.026 A  
HETATM   11  C   UNL     1      -7.981  11.846  68.648  1.00  0.00    -0.101 A  
HETATM   12  N   UNL     1      -8.880  10.869  68.469  1.00  0.00    -0.147 NA 
HETATM   13  N   UNL     1      -7.764   9.614  70.158  1.00  0.00    -0.154 NA 
HETATM   14  C   UNL     1      -8.710   9.753  69.208  1.00  0.00    -0.164 A  
HETATM   15  C   UNL     1      -6.900  10.634  70.301  1.00  0.00    -0.038 A  
BRANCH  11  16
HETATM   16  N   UNL     1      -8.306  12.945  67.818  1.00  0.00    -0.164 N  
HETATM   17  H   UNL     1      -7.567  13.542  67.445  1.00  0.00     0.000 HD 
BRANCH  16  18
HETATM   18  S   UNL     1      -9.908  13.265  67.449  1.00  0.00    -0.232 S  
HETATM   19  O   UNL     1     -10.219  12.671  66.161  1.00  0.00    -0.248 OA 
HETATM   20  O   UNL     1     -10.672  12.897  68.626  1.00  0.00    -0.246 OA 
BRANCH  18  21
HETATM   21  C   UNL     1     -10.038  15.025  67.255  1.00  0.00    -0.235 A  
HETATM   22  C   UNL     1     -10.192  17.819  66.888  1.00  0.00    -0.346 A  
HETATM   23  C   UNL     1      -9.384  15.627  66.182  1.00  0.00    -0.382 A  
HETATM   24  C   UNL     1      -9.459  17.007  66.007  1.00  0.00    -0.195 A  
HETATM   25  C   UNL     1     -10.901  17.177  67.926  1.00  0.00    -0.294 A  
HETATM   26  C   UNL     1     -10.831  15.788  68.110  1.00  0.00    -0.307 A  
BRANCH  22  27
HETATM   27  C   UNL     1     -10.190  19.355  66.759  1.00  0.00    -0.521 C  
HETATM   28  C   UNL     1     -11.610  19.956  66.627  1.00  0.00     1.085 C  
HETATM   29  C   UNL     1      -9.410  19.761  65.491  1.00  0.00     0.384 C  
HETATM   30  C   UNL     1      -9.531  20.007  67.991  1.00  0.00    -0.427 C  
ENDBRANCH  22  27
ENDBRANCH  18  21
ENDBRANCH  16  18
ENDBRANCH  11  16
BRANCH  14  31
HETATM   31  C   UNL     1      -9.560   8.576  68.888  1.00  0.00    -0.160 A  
HETATM   32  N   UNL     1     -10.339   8.073  69.876  1.00  0.00    -0.216 NA 
HETATM   33  N   UNL     1      -9.450   8.022  67.656  1.00  0.00    -0.143 NA 
HETATM   34  C   UNL     1     -10.178   6.916  67.428  1.00  0.00    -0.203 A  
HETATM   35  C   UNL     1     -11.034   6.959  69.591  1.00  0.00    -0.259 A  
HETATM   36  C   UNL     1     -10.993   6.333  68.369  1.00  0.00    -0.409 A  
ENDBRANCH  14  31
BRANCH  15  37
HETATM   37  O   UNL     1      -5.964  10.562  71.317  1.00  0.00    -0.318 OA 
BRANCH  37  38
HETATM   38  C   UNL     1      -5.141  11.722  71.497  1.00  0.00    -0.033 C  
BRANCH  38  39
HETATM   39  C   UNL     1      -5.979  12.899  71.985  1.00  0.00     1.416 C  
HETATM   40  O   UNL     1      -5.480  13.392  73.225  1.00  0.00    -0.408 OA 
HETATM   41  H   UNL     1      -6.002  14.126  73.529  1.00  0.00     0.000 HD 
ENDBRANCH  38  39
ENDBRANCH  37  38
ENDBRANCH  15  37
ENDBRANCH   9  10
ENDBRANCH   8   9
ENDBRANCH   2   3
TORSDOF 11
ENDMDL
MODEL      219
REMARK 921   NORMALIZED FREE ENERGY PREDICTED BY IDOCK:    7.63 KCAL/MOL
REMARK 922        TOTAL FREE ENERGY PREDICTED BY IDOCK:   10.07 KCAL/MOL
REMARK 923 INTER-LIGAND FREE ENERGY PREDICTED BY IDOCK:    0.61 KCAL/MOL
REMARK 924 INTRA-LIGAND FREE ENERGY PREDICTED BY IDOCK:    9.46 KCAL/MOL
REMARK 927      BINDING AFFINITY PREDICTED BY RF-SCORE:    0.00 PKD
ROOT
HETATM    1  C   UNL     1     -12.612  12.581  66.210  1.00  0.00     0.736 C  
HETATM    2  O   UNL     1     -12.547  11.414  65.390  1.00  0.00     0.958 OA 
ENDROOT
BRANCH   2   3
HETATM    3  C   UNL     1     -11.464  11.293  64.555  1.00  0.00     0.075 A  
HETATM    4  C   UNL     1     -11.591  11.053  63.177  1.00  0.00     0.892 A  
HETATM    5  C   UNL     1     -10.466  10.873  62.365  1.00  0.00     0.805 A  
HETATM    6  C   UNL     1      -9.193  10.953  62.913  1.00  0.00    -0.348 A  
HETATM    7  C   UNL     1      -9.048  11.207  64.272  1.00  0.00    -0.046 A  
HETATM    8  C   UNL     1     -10.167  11.382  65.102  1.00  0.00    -0.277 A  
BRANCH   8   9
HETATM    9  O   UNL     1      -9.795  11.555  66.420  1.00  0.00    -0.197 OA 
BRANCH   9  10
HETATM   10  C   UNL     1     -10.041  10.611  67.365  1.00  0.00    -0.194 A  
HETATM   11  C   UNL     1      -9.390   9.410  67.533  1.00  0.00    -0.127 A  
HETATM   12  N   UNL     1      -9.621   8.558  68.541  1.00  0.00    -0.150 NA 
HETATM   13  N   UNL     1     -11.350  10.013  69.296  1.00  0.00    -0.167 NA 
HETATM   14  C   UNL     1     -10.575   8.918  69.426  1.00  0.00    -0.217 A  
HETATM   15  C   UNL     1     -11.080  10.821  68.256  1.00  0.00    -0.271 A  
BRANCH  11  16
HETATM   16  N   UNL     1      -8.381   8.884  66.691  1.00  0.00    -0.110 N  
HETATM   17  H   UNL     1      -8.397   7.899  66.426  1.00  0.00     0.000 HD 
BRANCH  16  18
HETATM   18  S   UNL     1      -7.160   9.884  66.132  1.00  0.00    -0.108 S  
HETATM   19  O   UNL     1      -5.901   9.162  66.191  1.00  0.00    -0.052 OA 
HETATM   20  O   UNL     1      -7.632  10.427  64.872  1.00  0.00    -0.140 OA 
BRANCH  18  21
HETATM   21  C   UNL     1      -7.044  11.229  67.285  1.00  0.00    -0.114 A  
HETATM   22  C   UNL     1      -6.875  13.317  69.177  1.00  0.00    -0.067 A  
HETATM   23  C   UNL     1      -7.102  10.944  68.648  1.00  0.00    -0.080 A  
HETATM   24  C   UNL     1      -7.022  11.978  69.578  1.00  0.00     0.085 A  
HETATM   25  C   UNL     1      -6.751  13.570  67.794  1.00  0.00    -0.173 A  
HETATM   26  C   UNL     1      -6.829  12.535  66.850  1.00  0.00     0.199 A  
BRANCH  22  27
HETATM   27  C   UNL     1      -6.893  14.471  70.197  1.00  0.00    -0.026 C  
HETATM   28  C   UNL     1      -6.644  14.003  71.651  1.00  0.00     1.372 C  
HETATM   29  C   UNL     1      -8.278  15.153  70.176  1.00  0.00     0.542 C  
HETATM   30  C   UNL     1      -5.809  15.515  69.862  1.00  0.00    -0.144 C  
ENDBRANCH  22  27
ENDBRANCH  18  21
ENDBRANCH  16  18
ENDBRANCH  11  16
BRANCH  14  31
HETATM   31  C   UNL     1     -10.712   8.105  70.662  1.00  0.00    -0.224 A  
HETATM   32  N   UNL     1     -11.962   7.770  71.062  1.00  0.00    -0.290 NA 
HETATM   33  N   UNL     1      -9.590   7.814  71.366  1.00  0.00    -0.155 NA 
HETATM   34  C   UNL     1      -9.761   7.141  72.517  1.00  0.00    -0.154 A  
HETATM   35  C   UNL     1     -12.069   7.108  72.226  1.00  0.00    -0.181 A  
HETATM   36  C   UNL     1     -10.990   6.762  73.002  1.00  0.00    -0.293 A  
ENDBRANCH  14  31
BRANCH  15  37
HETATM   37  O   UNL     1     -11.902  11.913  68.045  1.00  0.00    -0.460 OA 
BRANCH  37  38
HETATM   38  C   UNL     1     -12.408  12.557  69.221  1.00  0.00     0.132 C  
BRANCH  38  39
HETATM   39  C   UNL     1     -11.305  13.353  69.910  1.00  0.00    -0.012 C  
HETATM   40  O   UNL     1     -10.191  13.526  69.040  1.00  0.00    -0.416 OA 
HETATM   41  H   UNL     1      -9.503  14.021  69.469  1.00  0.00     0.000 HD 
ENDBRANCH  38  39
ENDBRANCH  37  38
ENDBRANCH  15  37
ENDBRANCH   9  10
ENDBRANCH   8   9
ENDBRANCH   2   3
TORSDOF 11
ENDMDL
MODEL      220
REMARK 921   NORMALIZED FREE ENERGY PREDICTED BY IDOCK:    7.69 KCAL/MOL
REMARK 922        TOTAL FREE ENERGY PREDICTED BY IDOCK:   10.17 KCAL/MOL
REMARK 923 INTER-LIGAND FREE ENERGY PREDICTED BY IDOCK:    9.86 KCAL/MOL
REMARK 924 INTRA-LIGAND FREE ENERGY PREDICTED BY IDOCK:    0.30 KCAL/MOL
REMARK 927      BINDING AFFINITY PREDICTED BY RF-SCORE:    0.00 PKD
ROOT
HETATM    1  C   UNL     1      -5.413  16.857  70.315  1.00  0.00    -0.221 C  
HETATM    2  O   UNL     1      -5.186  18.214  70.695  1.00  0.00    -0.242 OA 
ENDROOT
BRANCH   2   3
HETATM    3  C   UNL     1      -6.174  19.121  70.404  1.00  0.00    -0.011 A  
HETATM    4  C   UNL     1      -6.783  19.922  71.385  1.00  0.00     0.408 A  
HETATM    5  C   UNL     1      -7.830  20.792  71.064  1.00  0.00     2.734 A  
HETATM    6  C   UNL     1      -8.272  20.893  69.752  1.00  0.00     2.747 A  
HETATM    7  C   UNL     1      -7.671  20.121  68.765  1.00  0.00     0.006 A  
HETATM    8  C   UNL     1      -6.624  19.237  69.072  1.00  0.00    -0.304 A  
BRANCH   8   9
HETATM    9  O   UNL     1      -6.223  18.525  67.960  1.00  0.00    -0.189 OA 
BRANCH   9  10
HETATM   10  C   UNL     1      -7.079  17.728  67.271  1.00  0.00    -0.181 A  
HETATM   11  C   UNL     1      -7.872  16.721  67.775  1.00  0.00    -0.176 A  
HETATM   12  N   UNL     1      -8.764  16.027  67.057  1.00  0.00    -0.195 NA 
HETATM   13  N   UNL     1      -8.053  17.227  65.126  1.00  0.00     1.545 NA 
HETATM   14  C   UNL     1      -8.857  16.341  65.747  1.00  0.00     0.032 A  
HETATM   15  C   UNL     1      -7.168  17.882  65.897  1.00  0.00    -0.242 A  
BRANCH  11  16
HETATM   16  N   UNL     1      -7.885  16.265  69.115  1.00  0.00    -0.242 N  
HETATM   17  H   UNL     1      -7.688  16.911  69.879  1.00  0.00     0.000 HD 
BRANCH  16  18
HETATM   18  S   UNL     1      -8.226  14.658  69.443  1.00  0.00     0.148 S  
HETATM   19  O   UNL     1      -8.477  13.969  68.189  1.00  0.00    -0.155 OA 
HETATM   20  O   UNL     1      -7.177  14.198  70.332  1.00  0.00     0.347 OA 
BRANCH  18  21
HETATM   21  C   UNL     1      -9.748  14.643  70.358  1.00  0.00     1.120 A  
HETATM   22  C   UNL     1     -12.185  14.551  71.778  1.00  0.00    -0.385 A  
HETATM   23  C   UNL     1     -10.558  13.512  70.285  1.00  0.00     1.466 A  
HETATM   24  C   UNL     1     -11.762  13.472  70.984  1.00  0.00     0.338 A  
HETATM   25  C   UNL     1     -11.314  15.657  71.889  1.00  0.00    -0.421 A  
HETATM   26  C   UNL     1     -10.100  15.705  71.188  1.00  0.00     1.181 A  
BRANCH  22  27
HETATM   27  C   UNL     1     -13.564  14.554  72.466  1.00  0.00    -0.586 C  
HETATM   28  C   UNL     1     -14.408  13.297  72.144  1.00  0.00    -0.100 C  
HETATM   29  C   UNL     1     -14.375  15.776  71.986  1.00  0.00    -0.300 C  
HETATM   30  C   UNL     1     -13.409  14.619  73.999  1.00  0.00     1.781 C  
ENDBRANCH  22  27
ENDBRANCH  18  21
ENDBRANCH  16  18
ENDBRANCH  11  16
BRANCH  14  31
HETATM   31  C   UNL     1      -9.972  15.742  64.970  1.00  0.00     0.143 A  
HETATM   32  N   UNL     1     -11.027  16.535  64.664  1.00  0.00    -0.795 NA 
HETATM   33  N   UNL     1      -9.914  14.418  64.681  1.00  0.00    -0.093 NA 
HETATM   34  C   UNL     1     -10.973  13.896  64.041  1.00  0.00     0.122 A  
HETATM   35  C   UNL     1     -12.061  15.952  64.036  1.00  0.00     0.323 A  
HETATM   36  C   UNL     1     -12.088  14.622  63.694  1.00  0.00     0.332 A  
ENDBRANCH  14  31
BRANCH  15  37
HETATM   37  O   UNL     1      -6.274  18.741  65.284  1.00  0.00    -0.250 OA 
BRANCH  37  38
HETATM   38  C   UNL     1      -6.841  19.702  64.384  1.00  0.00     0.653 C  
BRANCH  38  39
HETATM   39  C   UNL     1      -6.016  20.985  64.385  1.00  0.00    -0.275 C  
HETATM   40  O   UNL     1      -5.324  21.138  63.150  1.00  0.00    -0.200 OA 
HETATM   41  H   UNL     1      -4.809  21.937  63.150  1.00  0.00     0.000 HD 
ENDBRANCH  38  39
ENDBRANCH  37  38
ENDBRANCH  15  37
ENDBRANCH   9  10
ENDBRANCH   8   9
ENDBRANCH   2   3
TORSDOF 11
ENDMDL
MODEL      221
REMARK 921   NORMALIZED FREE ENERGY PREDICTED BY IDOCK:    7.88 KCAL/MOL
REMARK 922        TOTAL FREE ENERGY PREDICTED BY IDOCK:   10.48 KCAL/MOL
REMARK 923 INTER-LIGAND FREE ENERGY PREDICTED BY IDOCK:    4.92 KCAL/MOL
REMARK 924 INTRA-LIGAND FREE ENERGY PREDICTED BY IDOCK:    5.56 KCAL/MOL
REMARK 927      BINDING AFFINITY PREDICTED BY RF-SCORE:    0.00 PKD
ROOT
HETATM    1  C   UNL     1      -5.154  14.165  65.633  1.00  0.00     8.967 C  
HETATM    2  O   UNL     1      -5.510  13.559  66.876  1.00  0.00     0.166 OA 
ENDROOT
BRANCH   2   3
HETATM    3  C   UNL     1      -5.978  14.388  67.866  1.00  0.00    -0.138 A  
HETATM    4  C   UNL     1      -6.233  15.754  67.655  1.00  0.00    -0.185 A  
HETATM    5  C   UNL     1      -6.650  16.583  68.701  1.00  0.00    -0.145 A  
HETATM    6  C   UNL     1      -6.842  16.058  69.971  1.00  0.00     0.156 A  
HETATM    7  C   UNL     1      -6.611  14.705  70.195  1.00  0.00    -0.143 A  
HETATM    8  C   UNL     1      -6.184  13.860  69.158  1.00  0.00    -0.098 A  
BRANCH   8   9
HETATM    9  O   UNL     1      -5.951  12.579  69.615  1.00  0.00    -0.102 OA 
BRANCH   9  10
HETATM   10  C   UNL     1      -6.836  11.570  69.405  1.00  0.00    -0.099 A  
HETATM   11  C   UNL     1      -7.874  11.545  68.501  1.00  0.00    -0.140 A  
HETATM   12  N   UNL     1      -8.660  10.483  68.280  1.00  0.00    -0.123 NA 
HETATM   13  N   UNL     1      -7.495   9.335  70.012  1.00  0.00    -0.081 NA 
HETATM   14  C   UNL     1      -8.409   9.384  69.022  1.00  0.00    -0.124 A  
HETATM   15  C   UNL     1      -6.747  10.436  70.196  1.00  0.00    -0.150 A  
BRANCH  11  16
HETATM   16  N   UNL     1      -8.274  12.612  67.662  1.00  0.00    -0.161 N  
HETATM   17  H   UNL     1      -7.591  13.306  67.356  1.00  0.00     0.000 HD 
BRANCH  16  18
HETATM   18  S   UNL     1      -9.871  12.733  67.173  1.00  0.00    -0.220 S  
HETATM   19  O   UNL     1      -9.987  13.826  66.224  1.00  0.00    -0.289 OA 
HETATM   20  O   UNL     1     -10.279  11.393  66.798  1.00  0.00    -0.211 OA 
BRANCH  18  21
HETATM   21  C   UNL     1     -10.804  13.193  68.613  1.00  0.00    -0.259 A  
HETATM   22  C   UNL     1     -12.276  13.851  70.929  1.00  0.00    -0.436 A  
HETATM   23  C   UNL     1     -10.888  12.288  69.668  1.00  0.00     0.212 A  
HETATM   24  C   UNL     1     -11.620  12.615  70.809  1.00  0.00     0.676 A  
HETATM   25  C   UNL     1     -12.118  14.777  69.874  1.00  0.00    -0.381 A  
HETATM   26  C   UNL     1     -11.383  14.456  68.723  1.00  0.00    -0.299 A  
BRANCH  22  27
HETATM   27  C   UNL     1     -13.172  14.174  72.141  1.00  0.00    -0.510 C  
HETATM   28  C   UNL     1     -12.440  14.978  73.242  1.00  0.00    -0.570 C  
HETATM   29  C   UNL     1     -13.651  12.857  72.788  1.00  0.00     0.075 C  
HETATM   30  C   UNL     1     -14.398  15.002  71.709  1.00  0.00    -0.674 C  
ENDBRANCH  22  27
ENDBRANCH  18  21
ENDBRANCH  16  18
ENDBRANCH  11  16
BRANCH  14  31
HETATM   31  C   UNL     1      -9.119   8.130  68.661  1.00  0.00    -0.143 A  
HETATM   32  N   UNL     1      -8.986   7.671  67.393  1.00  0.00    -0.126 NA 
HETATM   33  N   UNL     1      -9.923   7.558  69.590  1.00  0.00    -0.181 NA 
HETATM   34  C   UNL     1     -10.606   6.467  69.205  1.00  0.00    -0.255 A  
HETATM   35  C   UNL     1      -9.703   6.584  67.064  1.00  0.00    -0.151 A  
HETATM   36  C   UNL     1     -10.536   5.932  67.940  1.00  0.00    -0.322 A  
ENDBRANCH  14  31
BRANCH  15  37
HETATM   37  O   UNL     1      -5.853  10.452  71.251  1.00  0.00    -0.273 OA 
BRANCH  37  38
HETATM   38  C   UNL     1      -5.167  11.690  71.476  1.00  0.00     0.030 C  
BRANCH  38  39
HETATM   39  C   UNL     1      -6.148  12.770  71.920  1.00  0.00     1.827 C  
HETATM   40  O   UNL     1      -5.771  13.303  73.185  1.00  0.00    -0.199 OA 
HETATM   41  H   UNL     1      -6.382  13.976  73.462  1.00  0.00     0.000 HD 
ENDBRANCH  38  39
ENDBRANCH  37  38
ENDBRANCH  15  37
ENDBRANCH   9  10
ENDBRANCH   8   9
ENDBRANCH   2   3
TORSDOF 11
ENDMDL
MODEL      222
REMARK 921   NORMALIZED FREE ENERGY PREDICTED BY IDOCK:    7.97 KCAL/MOL
REMARK 922        TOTAL FREE ENERGY PREDICTED BY IDOCK:   10.63 KCAL/MOL
REMARK 923 INTER-LIGAND FREE ENERGY PREDICTED BY IDOCK:    0.19 KCAL/MOL
REMARK 924 INTRA-LIGAND FREE ENERGY PREDICTED BY IDOCK:   10.44 KCAL/MOL
REMARK 927      BINDING AFFINITY PREDICTED BY RF-SCORE:    0.00 PKD
ROOT
HETATM    1  C   UNL     1     -11.871  10.694  71.330  1.00  0.00    -0.161 C  
HETATM    2  O   UNL     1     -11.658   9.468  70.629  1.00  0.00    -0.267 OA 
ENDROOT
BRANCH   2   3
HETATM    3  C   UNL     1     -11.794   8.304  71.345  1.00  0.00    -0.293 A  
HETATM    4  C   UNL     1     -12.727   8.158  72.386  1.00  0.00    -0.235 A  
HETATM    5  C   UNL     1     -12.798   6.980  73.136  1.00  0.00     1.912 A  
HETATM    6  C   UNL     1     -11.952   5.919  72.845  1.00  0.00     0.087 A  
HETATM    7  C   UNL     1     -11.035   6.039  71.808  1.00  0.00    -0.323 A  
HETATM    8  C   UNL     1     -10.945   7.217  71.050  1.00  0.00    -0.251 A  
BRANCH   8   9
HETATM    9  O   UNL     1      -9.926   7.144  70.123  1.00  0.00    -0.185 OA 
BRANCH   9  10
HETATM   10  C   UNL     1      -9.438   8.250  69.504  1.00  0.00    -0.162 A  
HETATM   11  C   UNL     1      -9.533   8.569  68.168  1.00  0.00    -0.141 A  
HETATM   12  N   UNL     1      -9.106   9.720  67.632  1.00  0.00    -0.131 NA 
HETATM   13  N   UNL     1      -8.283  10.345  69.778  1.00  0.00    -0.095 NA 
HETATM   14  C   UNL     1      -8.530  10.600  68.477  1.00  0.00    -0.136 A  
HETATM   15  C   UNL     1      -8.722   9.167  70.255  1.00  0.00    -0.200 A  
BRANCH  11  16
HETATM   16  N   UNL     1     -10.094   7.754  67.155  1.00  0.00    -0.229 N  
HETATM   17  H   UNL     1     -11.067   7.879  66.878  1.00  0.00     0.000 HD 
BRANCH  16  18
HETATM   18  S   UNL     1      -9.154   6.583  66.413  1.00  0.00    -0.146 S  
HETATM   19  O   UNL     1      -9.994   5.810  65.515  1.00  0.00     0.244 OA 
HETATM   20  O   UNL     1      -7.982   7.271  65.906  1.00  0.00    -0.103 OA 
BRANCH  18  21
HETATM   21  C   UNL     1      -8.615   5.482  67.698  1.00  0.00    -0.108 A  
HETATM   22  C   UNL     1      -7.761   3.793  69.791  1.00  0.00    -0.051 A  
HETATM   23  C   UNL     1      -8.578   5.956  69.008  1.00  0.00    -0.114 A  
HETATM   24  C   UNL     1      -8.151   5.119  70.038  1.00  0.00    -0.082 A  
HETATM   25  C   UNL     1      -7.873   3.318  68.466  1.00  0.00    -0.059 A  
HETATM   26  C   UNL     1      -8.302   4.153  67.423  1.00  0.00    -0.099 A  
BRANCH  22  27
HETATM   27  C   UNL     1      -7.189   2.900  70.909  1.00  0.00    -0.033 C  
HETATM   28  C   UNL     1      -5.845   3.417  71.475  1.00  0.00    -0.013 C  
HETATM   29  C   UNL     1      -6.927   1.485  70.350  1.00  0.00    -0.033 C  
HETATM   30  C   UNL     1      -8.175   2.803  72.090  1.00  0.00    -0.059 C  
ENDBRANCH  22  27
ENDBRANCH  18  21
ENDBRANCH  16  18
ENDBRANCH  11  16
BRANCH  14  31
HETATM   31  C   UNL     1      -8.235  11.961  67.961  1.00  0.00    -0.157 A  
HETATM   32  N   UNL     1      -7.735  12.872  68.832  1.00  0.00     0.021 NA 
HETATM   33  N   UNL     1      -8.556  12.244  66.675  1.00  0.00    -0.147 NA 
HETATM   34  C   UNL     1      -8.343  13.505  66.265  1.00  0.00     0.914 A  
HETATM   35  C   UNL     1      -7.556  14.119  68.366  1.00  0.00    -0.130 A  
HETATM   36  C   UNL     1      -7.843  14.496  67.077  1.00  0.00    -0.015 A  
ENDBRANCH  14  31
BRANCH  15  37
HETATM   37  O   UNL     1      -8.420   8.837  71.563  1.00  0.00    -0.171 OA 
BRANCH  37  38
HETATM   38  C   UNL     1      -9.379   8.017  72.243  1.00  0.00    -0.197 C  
BRANCH  38  39
HETATM   39  C   UNL     1      -9.188   8.112  73.753  1.00  0.00     0.006 C  
HETATM   40  O   UNL     1      -8.838   9.439  74.133  1.00  0.00     1.536 OA 
HETATM   41  H   UNL     1      -8.719   9.499  75.074  1.00  0.00     0.000 HD 
ENDBRANCH  38  39
ENDBRANCH  37  38
ENDBRANCH  15  37
ENDBRANCH   9  10
ENDBRANCH   8   9
ENDBRANCH   2   3
TORSDOF 11
ENDMDL
MODEL      223
REMARK 921   NORMALIZED FREE ENERGY PREDICTED BY IDOCK:   10.10 KCAL/MOL
REMARK 922        TOTAL FREE ENERGY PREDICTED BY IDOCK:   14.14 KCAL/MOL
REMARK 923 INTER-LIGAND FREE ENERGY PREDICTED BY IDOCK:   13.06 KCAL/MOL
REMARK 924 INTRA-LIGAND FREE ENERGY PREDICTED BY IDOCK:    1.08 KCAL/MOL
REMARK 927      BINDING AFFINITY PREDICTED BY RF-SCORE:    0.00 PKD
ROOT
HETATM    1  C   UNL     1      -7.710  14.031  72.633  1.00  0.00     7.333 C  
HETATM    2  O   UNL     1      -7.890  13.101  71.565  1.00  0.00     6.751 OA 
ENDROOT
BRANCH   2   3
HETATM    3  C   UNL     1      -7.064  13.228  70.475  1.00  0.00     1.760 A  
HETATM    4  C   UNL     1      -5.957  14.093  70.459  1.00  0.00    -0.182 A  
HETATM    5  C   UNL     1      -5.173  14.246  69.311  1.00  0.00    -0.078 A  
HETATM    6  C   UNL     1      -5.468  13.519  68.166  1.00  0.00    -0.108 A  
HETATM    7  C   UNL     1      -6.550  12.646  68.169  1.00  0.00    -0.081 A  
HETATM    8  C   UNL     1      -7.352  12.487  69.310  1.00  0.00     0.220 A  
BRANCH   8   9
HETATM    9  O   UNL     1      -8.405  11.627  69.071  1.00  0.00    -0.019 OA 
BRANCH   9  10
HETATM   10  C   UNL     1      -8.208  10.350  68.656  1.00  0.00    -0.121 A  
HETATM   11  C   UNL     1      -8.403   9.197  69.383  1.00  0.00    -0.124 A  
HETATM   12  N   UNL     1      -8.275   7.959  68.888  1.00  0.00    -0.125 NA 
HETATM   13  N   UNL     1      -7.583   8.920  66.821  1.00  0.00    -0.086 NA 
HETATM   14  C   UNL     1      -7.909   7.863  67.592  1.00  0.00    -0.122 A  
HETATM   15  C   UNL     1      -7.717  10.136  67.378  1.00  0.00    -0.095 A  
BRANCH  11  16
HETATM   16  N   UNL     1      -8.773   9.125  70.747  1.00  0.00    -0.224 N  
HETATM   17  H   UNL     1      -9.737   9.308  71.027  1.00  0.00     0.000 HD 
BRANCH  16  18
HETATM   18  S   UNL     1      -7.623   8.740  71.902  1.00  0.00     0.067 S  
HETATM   19  O   UNL     1      -6.414   9.497  71.628  1.00  0.00    -0.286 OA 
HETATM   20  O   UNL     1      -8.286   8.863  73.186  1.00  0.00    -0.354 OA 
BRANCH  18  21
HETATM   21  C   UNL     1      -7.227   7.025  71.666  1.00  0.00    -0.078 A  
HETATM   22  C   UNL     1      -6.531   4.321  71.255  1.00  0.00    -0.019 A  
HETATM   23  C   UNL     1      -5.965   6.695  71.175  1.00  0.00    -0.035 A  
HETATM   24  C   UNL     1      -5.627   5.358  70.970  1.00  0.00    -0.009 A  
HETATM   25  C   UNL     1      -7.776   4.680  71.815  1.00  0.00    -0.096 A  
HETATM   26  C   UNL     1      -8.125   6.022  72.025  1.00  0.00    -0.107 A  
BRANCH  22  27
HETATM   27  C   UNL     1      -6.199   2.852  70.931  1.00  0.00    -0.019 C  
HETATM   28  C   UNL     1      -5.536   2.102  72.111  1.00  0.00    -0.008 C  
HETATM   29  C   UNL     1      -5.206   2.799  69.750  1.00  0.00    -0.011 C  
HETATM   30  C   UNL     1      -7.475   2.073  70.554  1.00  0.00    -0.032 C  
ENDBRANCH  22  27
ENDBRANCH  18  21
ENDBRANCH  16  18
ENDBRANCH  11  16
BRANCH  14  31
HETATM   31  C   UNL     1      -7.960   6.521  66.957  1.00  0.00    -0.112 A  
HETATM   32  N   UNL     1      -7.135   5.562  67.442  1.00  0.00    -0.072 NA 
HETATM   33  N   UNL     1      -8.764   6.351  65.879  1.00  0.00    -0.151 NA 
HETATM   34  C   UNL     1      -8.728   5.146  65.286  1.00  0.00    -0.150 A  
HETATM   35  C   UNL     1      -7.135   4.382  66.800  1.00  0.00    -0.067 A  
HETATM   36  C   UNL     1      -7.922   4.115  65.706  1.00  0.00    -0.094 A  
ENDBRANCH  14  31
BRANCH  15  37
HETATM   37  O   UNL     1      -7.320  11.240  66.645  1.00  0.00    -0.142 OA 
BRANCH  37  38
HETATM   38  C   UNL     1      -7.391  11.108  65.220  1.00  0.00     0.514 C  
BRANCH  38  39
HETATM   39  C   UNL     1      -8.822  10.814  64.782  1.00  0.00    -0.149 C  
HETATM   40  O   UNL     1      -9.743  11.646  65.481  1.00  0.00    -0.226 OA 
HETATM   41  H   UNL     1     -10.635  11.463  65.208  1.00  0.00     0.000 HD 
ENDBRANCH  38  39
ENDBRANCH  37  38
ENDBRANCH  15  37
ENDBRANCH   9  10
ENDBRANCH   8   9
ENDBRANCH   2   3
TORSDOF 11
ENDMDL
MODEL      224
REMARK 921   NORMALIZED FREE ENERGY PREDICTED BY IDOCK:   10.90 KCAL/MOL
REMARK 922        TOTAL FREE ENERGY PREDICTED BY IDOCK:   15.45 KCAL/MOL
REMARK 923 INTER-LIGAND FREE ENERGY PREDICTED BY IDOCK:    0.60 KCAL/MOL
REMARK 924 INTRA-LIGAND FREE ENERGY PREDICTED BY IDOCK:   14.85 KCAL/MOL
REMARK 927      BINDING AFFINITY PREDICTED BY RF-SCORE:    0.00 PKD
ROOT
HETATM    1  C   UNL     1      -9.614  14.166  65.743  1.00  0.00    -0.133 C  
HETATM    2  O   UNL     1     -10.543  13.082  65.731  1.00  0.00    -0.269 OA 
ENDROOT
BRANCH   2   3
HETATM    3  C   UNL     1     -10.619  12.308  66.863  1.00  0.00    -0.224 A  
HETATM    4  C   UNL     1     -10.676  12.856  68.155  1.00  0.00    -0.258 A  
HETATM    5  C   UNL     1     -10.690  12.039  69.290  1.00  0.00    -0.063 A  
HETATM    6  C   UNL     1     -10.671  10.658  69.152  1.00  0.00    -0.264 A  
HETATM    7  C   UNL     1     -10.632  10.097  67.881  1.00  0.00    -0.294 A  
HETATM    8  C   UNL     1     -10.609  10.903  66.732  1.00  0.00    -0.259 A  
BRANCH   8   9
HETATM    9  O   UNL     1     -10.502  10.143  65.585  1.00  0.00    -0.182 OA 
BRANCH   9  10
HETATM   10  C   UNL     1      -9.580   9.155  65.462  1.00  0.00    -0.169 A  
HETATM   11  C   UNL     1      -9.705   7.843  65.860  1.00  0.00     0.247 A  
HETATM   12  N   UNL     1      -8.790   6.891  65.631  1.00  0.00    -0.076 NA 
HETATM   13  N   UNL     1      -7.395   8.553  64.648  1.00  0.00    -0.089 NA 
HETATM   14  C   UNL     1      -7.671   7.276  64.982  1.00  0.00    -0.115 A  
HETATM   15  C   UNL     1      -8.345   9.465  64.917  1.00  0.00    -0.150 A  
BRANCH  11  16
HETATM   16  N   UNL     1     -10.803   7.285  66.558  1.00  0.00    -0.328 N  
HETATM   17  H   UNL     1     -11.315   6.497  66.161  1.00  0.00     0.000 HD 
BRANCH  16  18
HETATM   18  S   UNL     1     -11.260   7.924  68.037  1.00  0.00     0.794 S  
HETATM   19  O   UNL     1     -11.517   9.344  67.873  1.00  0.00     0.272 OA 
HETATM   20  O   UNL     1     -12.296   7.048  68.550  1.00  0.00     2.112 OA 
BRANCH  18  21
HETATM   21  C   UNL     1      -9.851   7.771  69.107  1.00  0.00    -0.173 A  
HETATM   22  C   UNL     1      -7.573   7.580  70.763  1.00  0.00    -0.081 A  
HETATM   23  C   UNL     1      -8.773   8.633  68.916  1.00  0.00    -0.131 A  
HETATM   24  C   UNL     1      -7.649   8.533  69.734  1.00  0.00    -0.083 A  
HETATM   25  C   UNL     1      -8.706   6.766  70.979  1.00  0.00    -0.137 A  
HETATM   26  C   UNL     1      -9.842   6.860  70.161  1.00  0.00    -0.185 A  
BRANCH  22  27
HETATM   27  C   UNL     1      -6.292   7.397  71.599  1.00  0.00    -0.039 C  
HETATM   28  C   UNL     1      -6.575   7.025  73.075  1.00  0.00    -0.065 C  
HETATM   29  C   UNL     1      -5.496   8.719  71.613  1.00  0.00    -0.044 C  
HETATM   30  C   UNL     1      -5.409   6.280  71.008  1.00  0.00    -0.018 C  
ENDBRANCH  22  27
ENDBRANCH  18  21
ENDBRANCH  16  18
ENDBRANCH  11  16
BRANCH  14  31
HETATM   31  C   UNL     1      -6.735   6.215  64.530  1.00  0.00    -0.042 A  
HETATM   32  N   UNL     1      -5.941   6.486  63.466  1.00  0.00    -0.029 NA 
HETATM   33  N   UNL     1      -6.782   5.011  65.151  1.00  0.00    -0.047 NA 
HETATM   34  C   UNL     1      -5.973   4.053  64.667  1.00  0.00    -0.022 A  
HETATM   35  C   UNL     1      -5.163   5.484  63.021  1.00  0.00    -0.013 A  
HETATM   36  C   UNL     1      -5.136   4.235  63.591  1.00  0.00    -0.005 A  
ENDBRANCH  14  31
BRANCH  15  37
HETATM   37  O   UNL     1      -8.068  10.795  64.660  1.00  0.00    -0.044 OA 
BRANCH  37  38
HETATM   38  C   UNL     1      -6.680  11.144  64.573  1.00  0.00     1.071 C  
BRANCH  38  39
HETATM   39  C   UNL     1      -6.173  10.967  63.146  1.00  0.00     0.232 C  
HETATM   40  O   UNL     1      -5.906   9.595  62.873  1.00  0.00    -0.091 OA 
HETATM   41  H   UNL     1      -5.591   9.484  61.983  1.00  0.00     0.000 HD 
ENDBRANCH  38  39
ENDBRANCH  37  38
ENDBRANCH  15  37
ENDBRANCH   9  10
ENDBRANCH   8   9
ENDBRANCH   2   3
TORSDOF 11
ENDMDL
MODEL      225
REMARK 921   NORMALIZED FREE ENERGY PREDICTED BY IDOCK:   11.93 KCAL/MOL
REMARK 922        TOTAL FREE ENERGY PREDICTED BY IDOCK:   17.13 KCAL/MOL
REMARK 923 INTER-LIGAND FREE ENERGY PREDICTED BY IDOCK:   17.21 KCAL/MOL
REMARK 924 INTRA-LIGAND FREE ENERGY PREDICTED BY IDOCK:   -0.08 KCAL/MOL
REMARK 927      BINDING AFFINITY PREDICTED BY RF-SCORE:    0.00 PKD
ROOT
HETATM    1  C   UNL     1     -10.586   5.830  63.604  1.00  0.00     4.395 C  
HETATM    2  O   UNL     1     -10.108   6.844  64.488  1.00  0.00     3.537 OA 
ENDROOT
BRANCH   2   3
HETATM    3  C   UNL     1     -10.642   6.877  65.753  1.00  0.00     1.990 A  
HETATM    4  C   UNL     1     -11.963   6.485  66.029  1.00  0.00     4.185 A  
HETATM    5  C   UNL     1     -12.496   6.589  67.318  1.00  0.00     5.922 A  
HETATM    6  C   UNL     1     -11.711   7.067  68.358  1.00  0.00     0.876 A  
HETATM    7  C   UNL     1     -10.397   7.444  68.107  1.00  0.00    -0.235 A  
HETATM    8  C   UNL     1      -9.849   7.353  66.818  1.00  0.00    -0.220 A  
BRANCH   8   9
HETATM    9  O   UNL     1      -8.559   7.841  66.782  1.00  0.00    -0.124 OA 
BRANCH   9  10
HETATM   10  C   UNL     1      -8.284   9.159  66.964  1.00  0.00    -0.116 A  
HETATM   11  C   UNL     1      -7.998  10.093  65.994  1.00  0.00    -0.124 A  
HETATM   12  N   UNL     1      -7.822  11.400  66.229  1.00  0.00    -0.076 NA 
HETATM   13  N   UNL     1      -8.081  10.956  68.554  1.00  0.00    -0.129 NA 
HETATM   14  C   UNL     1      -7.918  11.798  67.515  1.00  0.00    -0.148 A  
HETATM   15  C   UNL     1      -8.237   9.654  68.257  1.00  0.00    -0.106 A  
BRANCH  11  16
HETATM   16  N   UNL     1      -7.851   9.837  64.609  1.00  0.00    -0.129 N  
HETATM   17  H   UNL     1      -8.623  10.026  63.969  1.00  0.00     0.000 HD 
BRANCH  16  18
HETATM   18  S   UNL     1      -6.407   9.222  64.025  1.00  0.00    -0.093 S  
HETATM   19  O   UNL     1      -6.464   9.197  62.574  1.00  0.00    -0.095 OA 
HETATM   20  O   UNL     1      -5.355   9.956  64.702  1.00  0.00    -0.060 OA 
BRANCH  18  21
HETATM   21  C   UNL     1      -6.321   7.535  64.572  1.00  0.00    -0.041 A  
HETATM   22  C   UNL     1      -6.257   4.842  65.413  1.00  0.00    -0.034 A  
HETATM   23  C   UNL     1      -7.351   6.666  64.215  1.00  0.00    -0.077 A  
HETATM   24  C   UNL     1      -7.317   5.338  64.636  1.00  0.00    -0.067 A  
HETATM   25  C   UNL     1      -5.195   5.725  65.702  1.00  0.00    -0.009 A  
HETATM   26  C   UNL     1      -5.220   7.063  65.283  1.00  0.00    -0.027 A  
BRANCH  22  27
HETATM   27  C   UNL     1      -6.269   3.405  65.968  1.00  0.00    -0.031 C  
HETATM   28  C   UNL     1      -5.511   2.398  65.070  1.00  0.00    -0.009 C  
HETATM   29  C   UNL     1      -7.727   2.907  66.070  1.00  0.00    -0.077 C  
HETATM   30  C   UNL     1      -5.617   3.352  67.364  1.00  0.00    -0.021 C  
ENDBRANCH  22  27
ENDBRANCH  18  21
ENDBRANCH  16  18
ENDBRANCH  11  16
BRANCH  14  31
HETATM   31  C   UNL     1      -7.935  13.258  67.787  1.00  0.00    -0.166 A  
HETATM   32  N   UNL     1      -7.043  13.744  68.683  1.00  0.00    -0.099 NA 
HETATM   33  N   UNL     1      -8.891  14.011  67.188  1.00  0.00    -0.219 NA 
HETATM   34  C   UNL     1      -8.922  15.314  67.515  1.00  0.00    -0.185 A  
HETATM   35  C   UNL     1      -7.132  15.052  68.977  1.00  0.00    -0.133 A  
HETATM   36  C   UNL     1      -8.060  15.894  68.415  1.00  0.00    -0.149 A  
ENDBRANCH  14  31
BRANCH  15  37
HETATM   37  O   UNL     1      -8.331   8.750  69.299  1.00  0.00    -0.116 OA 
BRANCH  37  38
HETATM   38  C   UNL     1      -7.526   9.032  70.451  1.00  0.00    -0.089 C  
BRANCH  38  39
HETATM   39  C   UNL     1      -7.805   8.020  71.557  1.00  0.00    -0.100 C  
HETATM   40  O   UNL     1      -8.264   8.676  72.735  1.00  0.00    -0.385 OA 
HETATM   41  H   UNL     1      -8.438   8.046  73.425  1.00  0.00     0.000 HD 
ENDBRANCH  38  39
ENDBRANCH  37  38
ENDBRANCH  15  37
ENDBRANCH   9  10
ENDBRANCH   8   9
ENDBRANCH   2   3
TORSDOF 11
ENDMDL
MODEL      226
REMARK 921   NORMALIZED FREE ENERGY PREDICTED BY IDOCK:   12.17 KCAL/MOL
REMARK 922        TOTAL FREE ENERGY PREDICTED BY IDOCK:   17.53 KCAL/MOL
REMARK 923 INTER-LIGAND FREE ENERGY PREDICTED BY IDOCK:   11.92 KCAL/MOL
REMARK 924 INTRA-LIGAND FREE ENERGY PREDICTED BY IDOCK:    5.61 KCAL/MOL
REMARK 927      BINDING AFFINITY PREDICTED BY RF-SCORE:    0.00 PKD
ROOT
HETATM    1  C   UNL     1     -12.439   9.228  69.130  1.00  0.00     2.576 C  
HETATM    2  O   UNL     1     -11.723   9.384  70.355  1.00  0.00    -0.239 OA 
ENDROOT
BRANCH   2   3
HETATM    3  C   UNL     1     -10.384   9.080  70.343  1.00  0.00    -0.212 A  
HETATM    4  C   UNL     1      -9.747   8.413  71.403  1.00  0.00    -0.260 A  
HETATM    5  C   UNL     1      -8.370   8.174  71.386  1.00  0.00    -0.146 A  
HETATM    6  C   UNL     1      -7.607   8.576  70.299  1.00  0.00    -0.075 A  
HETATM    7  C   UNL     1      -8.222   9.222  69.233  1.00  0.00    -0.108 A  
HETATM    8  C   UNL     1      -9.603   9.478  69.237  1.00  0.00    -0.175 A  
BRANCH   8   9
HETATM    9  O   UNL     1      -9.989  10.186  68.117  1.00  0.00    -0.143 OA 
BRANCH   9  10
HETATM   10  C   UNL     1     -10.173  11.530  68.146  1.00  0.00    -0.194 A  
HETATM   11  C   UNL     1      -9.307  12.481  68.636  1.00  0.00     0.012 A  
HETATM   12  N   UNL     1      -9.509  13.803  68.556  1.00  0.00    -0.196 NA 
HETATM   13  N   UNL     1     -11.625  13.359  67.557  1.00  0.00    -0.323 NA 
HETATM   14  C   UNL     1     -10.657  14.202  67.969  1.00  0.00    -0.239 A  
HETATM   15  C   UNL     1     -11.371  12.045  67.677  1.00  0.00    -0.307 A  
BRANCH  11  16
HETATM   16  N   UNL     1      -8.076  12.229  69.288  1.00  0.00    -0.132 N  
HETATM   17  H   UNL     1      -8.065  11.834  70.228  1.00  0.00     0.000 HD 
BRANCH  16  18
HETATM   18  S   UNL     1      -6.636  12.583  68.510  1.00  0.00    -0.084 S  
HETATM   19  O   UNL     1      -5.589  12.726  69.507  1.00  0.00    -0.079 OA 
HETATM   20  O   UNL     1      -6.503  11.606  67.447  1.00  0.00    -0.079 OA 
BRANCH  18  21
HETATM   21  C   UNL     1      -6.851  14.174  67.752  1.00  0.00    -0.176 A  
HETATM   22  C   UNL     1      -7.257  16.675  66.508  1.00  0.00    -0.241 A  
HETATM   23  C   UNL     1      -7.988  14.393  66.976  1.00  0.00    -0.045 A  
HETATM   24  C   UNL     1      -8.183  15.628  66.360  1.00  0.00    -0.133 A  
HETATM   25  C   UNL     1      -6.150  16.449  67.353  1.00  0.00    -0.199 A  
HETATM   26  C   UNL     1      -5.946  15.209  67.978  1.00  0.00    -0.159 A  
BRANCH  22  27
HETATM   27  C   UNL     1      -7.415  18.004  65.744  1.00  0.00    -0.118 C  
HETATM   28  C   UNL     1      -8.196  19.076  66.542  1.00  0.00    -0.312 C  
HETATM   29  C   UNL     1      -8.201  17.754  64.439  1.00  0.00     7.895 C  
HETATM   30  C   UNL     1      -6.038  18.604  65.399  1.00  0.00    -0.300 C  
ENDBRANCH  22  27
ENDBRANCH  18  21
ENDBRANCH  16  18
ENDBRANCH  11  16
BRANCH  14  31
HETATM   31  C   UNL     1     -10.817  15.650  67.678  1.00  0.00    -0.307 A  
HETATM   32  N   UNL     1     -10.474  16.531  68.648  1.00  0.00    -0.284 NA 
HETATM   33  N   UNL     1     -11.372  16.008  66.494  1.00  0.00     0.158 NA 
HETATM   34  C   UNL     1     -11.569  17.323  66.296  1.00  0.00     1.728 A  
HETATM   35  C   UNL     1     -10.707  17.830  68.396  1.00  0.00    -0.197 A  
HETATM   36  C   UNL     1     -11.256  18.288  67.224  1.00  0.00     0.344 A  
ENDBRANCH  14  31
BRANCH  15  37
HETATM   37  O   UNL     1     -12.370  11.150  67.337  1.00  0.00     0.244 OA 
BRANCH  37  38
HETATM   38  C   UNL     1     -12.332  10.644  65.997  1.00  0.00     4.637 C  
BRANCH  38  39
HETATM   39  C   UNL     1     -12.222  11.790  64.997  1.00  0.00     0.284 C  
HETATM   40  O   UNL     1     -11.616  11.346  63.787  1.00  0.00    -0.495 OA 
HETATM   41  H   UNL     1     -11.547  12.060  63.164  1.00  0.00     0.000 HD 
ENDBRANCH  38  39
ENDBRANCH  37  38
ENDBRANCH  15  37
ENDBRANCH   9  10
ENDBRANCH   8   9
ENDBRANCH   2   3
TORSDOF 11
ENDMDL
MODEL      227
REMARK 921   NORMALIZED FREE ENERGY PREDICTED BY IDOCK:   12.48 KCAL/MOL
REMARK 922        TOTAL FREE ENERGY PREDICTED BY IDOCK:   18.05 KCAL/MOL
REMARK 923 INTER-LIGAND FREE ENERGY PREDICTED BY IDOCK:   11.98 KCAL/MOL
REMARK 924 INTRA-LIGAND FREE ENERGY PREDICTED BY IDOCK:    6.06 KCAL/MOL
REMARK 927      BINDING AFFINITY PREDICTED BY RF-SCORE:    0.00 PKD
ROOT
HETATM    1  C   UNL     1      -9.310  11.727  64.365  1.00  0.00     0.136 C  
HETATM    2  O   UNL     1      -8.427  11.298  65.402  1.00  0.00    -0.039 OA 
ENDROOT
BRANCH   2   3
HETATM    3  C   UNL     1      -8.988  10.658  66.479  1.00  0.00    -0.156 A  
HETATM    4  C   UNL     1      -9.258   9.279  66.487  1.00  0.00    -0.206 A  
HETATM    5  C   UNL     1      -9.887   8.670  67.577  1.00  0.00    -0.234 A  
HETATM    6  C   UNL     1     -10.236   9.423  68.689  1.00  0.00    -0.222 A  
HETATM    7  C   UNL     1      -9.961  10.786  68.706  1.00  0.00    -0.201 A  
HETATM    8  C   UNL     1      -9.338  11.415  67.617  1.00  0.00    -0.159 A  
BRANCH   8   9
HETATM    9  O   UNL     1      -9.223  12.776  67.818  1.00  0.00    -0.183 OA 
BRANCH   9  10
HETATM   10  C   UNL     1      -9.610  13.365  68.979  1.00  0.00     0.310 A  
HETATM   11  C   UNL     1      -8.802  13.957  69.923  1.00  0.00     1.796 A  
HETATM   12  N   UNL     1      -9.252  14.601  71.008  1.00  0.00     2.600 NA 
HETATM   13  N   UNL     1     -11.467  13.998  70.375  1.00  0.00    -0.123 NA 
HETATM   14  C   UNL     1     -10.591  14.639  71.173  1.00  0.00     1.008 A  
HETATM   15  C   UNL     1     -10.955  13.356  69.310  1.00  0.00    -0.109 A  
BRANCH  11  16
HETATM   16  N   UNL     1      -7.387  13.993  69.904  1.00  0.00    -0.281 N  
HETATM   17  H   UNL     1      -6.885  14.694  70.449  1.00  0.00     0.000 HD 
BRANCH  16  18
HETATM   18  S   UNL     1      -6.539  12.881  68.983  1.00  0.00    -0.098 S  
HETATM   19  O   UNL     1      -7.282  12.622  67.763  1.00  0.00    -0.100 OA 
HETATM   20  O   UNL     1      -5.175  13.370  68.918  1.00  0.00    -0.072 OA 
BRANCH  18  21
HETATM   21  C   UNL     1      -6.522  11.368  69.912  1.00  0.00    -0.118 A  
HETATM   22  C   UNL     1      -6.442   8.995  71.439  1.00  0.00    -0.079 A  
HETATM   23  C   UNL     1      -5.820  11.334  71.116  1.00  0.00     0.208 A  
HETATM   24  C   UNL     1      -5.780  10.159  71.864  1.00  0.00     0.251 A  
HETATM   25  C   UNL     1      -7.201   9.077  70.252  1.00  0.00    -0.058 A  
HETATM   26  C   UNL     1      -7.248  10.256  69.492  1.00  0.00    -0.122 A  
BRANCH  22  27
HETATM   27  C   UNL     1      -6.312   7.667  72.209  1.00  0.00    -0.043 C  
HETATM   28  C   UNL     1      -5.945   7.860  73.699  1.00  0.00    -0.072 C  
HETATM   29  C   UNL     1      -5.191   6.815  71.576  1.00  0.00    -0.027 C  
HETATM   30  C   UNL     1      -7.635   6.877  72.163  1.00  0.00    -0.092 C  
ENDBRANCH  22  27
ENDBRANCH  18  21
ENDBRANCH  16  18
ENDBRANCH  11  16
BRANCH  14  31
HETATM   31  C   UNL     1     -11.131  15.515  72.245  1.00  0.00     0.077 A  
HETATM   32  N   UNL     1     -11.604  14.921  73.367  1.00  0.00    -0.063 NA 
HETATM   33  N   UNL     1     -11.196  16.849  72.011  1.00  0.00     0.524 NA 
HETATM   34  C   UNL     1     -11.757  17.601  72.972  1.00  0.00     1.575 A  
HETATM   35  C   UNL     1     -12.164  15.725  74.287  1.00  0.00    -0.560 A  
HETATM   36  C   UNL     1     -12.267  17.087  74.141  1.00  0.00    -0.063 A  
ENDBRANCH  14  31
BRANCH  15  37
HETATM   37  O   UNL     1     -11.813  12.623  68.511  1.00  0.00    -0.306 OA 
BRANCH  37  38
HETATM   38  C   UNL     1     -13.144  13.138  68.379  1.00  0.00     2.852 C  
BRANCH  38  39
HETATM   39  C   UNL     1     -13.113  14.649  68.171  1.00  0.00     2.582 C  
HETATM   40  O   UNL     1     -13.820  15.314  69.213  1.00  0.00     1.853 OA 
HETATM   41  H   UNL     1     -13.801  16.256  69.084  1.00  0.00     0.000 HD 
ENDBRANCH  38  39
ENDBRANCH  37  38
ENDBRANCH  15  37
ENDBRANCH   9  10
ENDBRANCH   8   9
ENDBRANCH   2   3
TORSDOF 11
ENDMDL
MODEL      228
REMARK 921   NORMALIZED FREE ENERGY PREDICTED BY IDOCK:   12.84 KCAL/MOL
REMARK 922        TOTAL FREE ENERGY PREDICTED BY IDOCK:   18.64 KCAL/MOL
REMARK 923 INTER-LIGAND FREE ENERGY PREDICTED BY IDOCK:   16.86 KCAL/MOL
REMARK 924 INTRA-LIGAND FREE ENERGY PREDICTED BY IDOCK:    1.79 KCAL/MOL
REMARK 927      BINDING AFFINITY PREDICTED BY RF-SCORE:    0.00 PKD
ROOT
HETATM    1  C   UNL     1      -7.051   6.806  70.662  1.00  0.00    -0.068 C  
HETATM    2  O   UNL     1      -7.509   7.656  71.714  1.00  0.00    -0.076 OA 
ENDROOT
BRANCH   2   3
HETATM    3  C   UNL     1      -8.357   8.679  71.369  1.00  0.00    -0.168 A  
HETATM    4  C   UNL     1      -8.169  10.001  71.808  1.00  0.00     2.996 A  
HETATM    5  C   UNL     1      -9.085  11.008  71.490  1.00  0.00     8.605 A  
HETATM    6  C   UNL     1     -10.194  10.717  70.708  1.00  0.00     1.666 A  
HETATM    7  C   UNL     1     -10.388   9.419  70.250  1.00  0.00    -0.293 A  
HETATM    8  C   UNL     1      -9.482   8.394  70.567  1.00  0.00    -0.169 A  
BRANCH   8   9
HETATM    9  O   UNL     1      -9.902   7.178  70.069  1.00  0.00    -0.177 OA 
BRANCH   9  10
HETATM   10  C   UNL     1      -9.324   6.610  68.980  1.00  0.00    -0.133 A  
HETATM   11  C   UNL     1      -9.072   7.204  67.764  1.00  0.00    -0.127 A  
HETATM   12  N   UNL     1      -8.418   6.616  66.754  1.00  0.00    -0.114 NA 
HETATM   13  N   UNL     1      -8.298   4.632  68.067  1.00  0.00    -0.098 NA 
HETATM   14  C   UNL     1      -8.007   5.347  66.962  1.00  0.00    -0.101 A  
HETATM   15  C   UNL     1      -8.969   5.272  69.039  1.00  0.00    -0.106 A  
BRANCH  11  16
HETATM   16  N   UNL     1      -9.446   8.516  67.384  1.00  0.00    -0.146 N  
HETATM   17  H   UNL     1      -8.950   9.321  67.766  1.00  0.00     0.000 HD 
BRANCH  16  18
HETATM   18  S   UNL     1     -10.708   8.742  66.307  1.00  0.00     1.099 S  
HETATM   19  O   UNL     1     -10.283   8.298  64.991  1.00  0.00     2.053 OA 
HETATM   20  O   UNL     1     -11.879   8.158  66.931  1.00  0.00     2.684 OA 
BRANCH  18  21
HETATM   21  C   UNL     1     -10.974  10.495  66.204  1.00  0.00     0.138 A  
HETATM   22  C   UNL     1     -11.383  13.286  66.118  1.00  0.00    -0.335 A  
HETATM   23  C   UNL     1     -10.739  11.271  67.336  1.00  0.00    -0.285 A  
HETATM   24  C   UNL     1     -10.946  12.649  67.291  1.00  0.00    -0.291 A  
HETATM   25  C   UNL     1     -11.547  12.486  64.966  1.00  0.00    -0.392 A  
HETATM   26  C   UNL     1     -11.341  11.099  65.003  1.00  0.00     0.097 A  
BRANCH  22  27
HETATM   27  C   UNL     1     -11.714  14.790  66.093  1.00  0.00    -0.255 C  
HETATM   28  C   UNL     1     -10.682  15.654  66.857  1.00  0.00    -0.307 C  
HETATM   29  C   UNL     1     -13.083  15.025  66.768  1.00  0.00     2.427 C  
HETATM   30  C   UNL     1     -11.767  15.316  64.645  1.00  0.00    -0.308 C  
ENDBRANCH  22  27
ENDBRANCH  18  21
ENDBRANCH  16  18
ENDBRANCH  11  16
BRANCH  14  31
HETATM   31  C   UNL     1      -7.104   4.739  65.951  1.00  0.00    -0.071 A  
HETATM   32  N   UNL     1      -6.283   3.741  66.357  1.00  0.00    -0.031 NA 
HETATM   33  N   UNL     1      -7.091   5.267  64.702  1.00  0.00    -0.053 NA 
HETATM   34  C   UNL     1      -6.210   4.739  63.836  1.00  0.00    -0.022 A  
HETATM   35  C   UNL     1      -5.416   3.263  65.449  1.00  0.00    -0.010 A  
HETATM   36  C   UNL     1      -5.336   3.728  64.159  1.00  0.00    -0.009 A  
ENDBRANCH  14  31
BRANCH  15  37
HETATM   37  O   UNL     1      -9.353   4.551  70.155  1.00  0.00    -0.118 OA 
BRANCH  37  38
HETATM   38  C   UNL     1     -10.360   5.153  70.978  1.00  0.00    -0.208 C  
BRANCH  38  39
HETATM   39  C   UNL     1     -10.494   4.396  72.296  1.00  0.00    -0.122 C  
HETATM   40  O   UNL     1     -11.390   5.070  73.174  1.00  0.00    -0.314 OA 
HETATM   41  H   UNL     1     -11.474   4.599  73.995  1.00  0.00     0.000 HD 
ENDBRANCH  38  39
ENDBRANCH  37  38
ENDBRANCH  15  37
ENDBRANCH   9  10
ENDBRANCH   8   9
ENDBRANCH   2   3
TORSDOF 11
ENDMDL
MODEL      229
REMARK 921   NORMALIZED FREE ENERGY PREDICTED BY IDOCK:   13.35 KCAL/MOL
REMARK 922        TOTAL FREE ENERGY PREDICTED BY IDOCK:   19.48 KCAL/MOL
REMARK 923 INTER-LIGAND FREE ENERGY PREDICTED BY IDOCK:    7.88 KCAL/MOL
REMARK 924 INTRA-LIGAND FREE ENERGY PREDICTED BY IDOCK:   11.59 KCAL/MOL
REMARK 927      BINDING AFFINITY PREDICTED BY RF-SCORE:    0.00 PKD
ROOT
HETATM    1  C   UNL     1     -12.612  12.581  66.210  1.00  0.00     0.736 C  
HETATM    2  O   UNL     1     -12.567  11.430  65.367  1.00  0.00     0.958 OA 
ENDROOT
BRANCH   2   3
HETATM    3  C   UNL     1     -11.483  11.305  64.533  1.00  0.00     0.075 A  
HETATM    4  C   UNL     1     -11.611  11.094  63.149  1.00  0.00     0.593 A  
HETATM    5  C   UNL     1     -10.487  10.909  62.338  1.00  0.00     0.805 A  
HETATM    6  C   UNL     1      -9.215  10.954  62.891  1.00  0.00    -0.348 A  
HETATM    7  C   UNL     1      -9.069  11.178  64.255  1.00  0.00    -0.046 A  
HETATM    8  C   UNL     1     -10.186  11.358  65.085  1.00  0.00    -0.277 A  
BRANCH   8   9
HETATM    9  O   UNL     1      -9.816  11.497  66.407  1.00  0.00    -0.197 OA 
BRANCH   9  10
HETATM   10  C   UNL     1     -10.600  12.141  67.309  1.00  0.00    -0.227 A  
HETATM   11  C   UNL     1     -11.767  11.682  67.879  1.00  0.00    -0.259 A  
HETATM   12  N   UNL     1     -12.450  12.330  68.831  1.00  0.00     0.174 NA 
HETATM   13  N   UNL     1     -10.883  14.115  68.659  1.00  0.00    -0.248 NA 
HETATM   14  C   UNL     1     -11.951  13.520  69.226  1.00  0.00    -0.330 A  
HETATM   15  C   UNL     1     -10.247  13.423  67.698  1.00  0.00    -0.228 A  
BRANCH  11  16
HETATM   16  N   UNL     1     -12.424  10.468  67.566  1.00  0.00     2.512 N  
HETATM   17  H   UNL     1     -13.438  10.449  67.455  1.00  0.00     0.000 HD 
BRANCH  16  18
HETATM   18  S   UNL     1     -11.532   9.063  67.380  1.00  0.00     2.096 S  
HETATM   19  O   UNL     1     -12.246   7.969  68.015  1.00  0.00     3.388 OA 
HETATM   20  O   UNL     1     -11.186   8.991  65.974  1.00  0.00     1.591 OA 
BRANCH  18  21
HETATM   21  C   UNL     1     -10.026   9.299  68.291  1.00  0.00    -0.173 A  
HETATM   22  C   UNL     1      -7.673   9.715  69.793  1.00  0.00    -0.133 A  
HETATM   23  C   UNL     1     -10.097   9.883  69.554  1.00  0.00    -0.240 A  
HETATM   24  C   UNL     1      -8.932  10.090  70.291  1.00  0.00     0.051 A  
HETATM   25  C   UNL     1      -7.637   9.065  68.541  1.00  0.00    -0.093 A  
HETATM   26  C   UNL     1      -8.805   8.852  67.792  1.00  0.00    -0.136 A  
BRANCH  22  27
HETATM   27  C   UNL     1      -6.375  10.038  70.558  1.00  0.00    -0.116 C  
HETATM   28  C   UNL     1      -6.123  11.557  70.716  1.00  0.00     0.197 C  
HETATM   29  C   UNL     1      -5.169   9.460  69.788  1.00  0.00    -0.033 C  
HETATM   30  C   UNL     1      -6.410   9.432  71.975  1.00  0.00     0.197 C  
ENDBRANCH  22  27
ENDBRANCH  18  21
ENDBRANCH  16  18
ENDBRANCH  11  16
BRANCH  14  31
HETATM   31  C   UNL     1     -12.562  14.164  70.417  1.00  0.00    -0.332 A  
HETATM   32  N   UNL     1     -11.824  15.082  71.087  1.00  0.00    -0.310 NA 
HETATM   33  N   UNL     1     -13.787  13.744  70.817  1.00  0.00     0.375 NA 
HETATM   34  C   UNL     1     -14.276  14.296  71.940  1.00  0.00    -0.510 A  
HETATM   35  C   UNL     1     -12.361  15.589  72.209  1.00  0.00    -0.395 A  
HETATM   36  C   UNL     1     -13.598  15.231  72.686  1.00  0.00    -0.617 A  
ENDBRANCH  14  31
BRANCH  15  37
HETATM   37  O   UNL     1      -9.194  14.032  67.040  1.00  0.00    -0.233 OA 
BRANCH  37  38
HETATM   38  C   UNL     1      -8.372  14.898  67.832  1.00  0.00    -0.146 C  
BRANCH  38  39
HETATM   39  C   UNL     1      -7.489  14.084  68.771  1.00  0.00    -0.124 C  
HETATM   40  O   UNL     1      -7.461  12.716  68.376  1.00  0.00    -0.115 OA 
HETATM   41  H   UNL     1      -6.911  12.208  68.961  1.00  0.00     0.000 HD 
ENDBRANCH  38  39
ENDBRANCH  37  38
ENDBRANCH  15  37
ENDBRANCH   9  10
ENDBRANCH   8   9
ENDBRANCH   2   3
TORSDOF 11
ENDMDL
MODEL      230
REMARK 921   NORMALIZED FREE ENERGY PREDICTED BY IDOCK:   16.86 KCAL/MOL
REMARK 922        TOTAL FREE ENERGY PREDICTED BY IDOCK:   25.24 KCAL/MOL
REMARK 923 INTER-LIGAND FREE ENERGY PREDICTED BY IDOCK:    1.34 KCAL/MOL
REMARK 924 INTRA-LIGAND FREE ENERGY PREDICTED BY IDOCK:   23.90 KCAL/MOL
REMARK 927      BINDING AFFINITY PREDICTED BY RF-SCORE:    0.00 PKD
ROOT
HETATM    1  C   UNL     1      -8.659   7.264  73.799  1.00  0.00    -0.167 C  
HETATM    2  O   UNL     1      -8.410   7.271  72.393  1.00  0.00    -0.106 OA 
ENDROOT
BRANCH   2   3
HETATM    3  C   UNL     1      -7.367   8.044  71.944  1.00  0.00    -0.082 A  
HETATM    4  C   UNL     1      -6.284   8.407  72.763  1.00  0.00    -0.085 A  
HETATM    5  C   UNL     1      -5.270   9.247  72.293  1.00  0.00    -0.075 A  
HETATM    6  C   UNL     1      -5.307   9.720  70.989  1.00  0.00    -0.058 A  
HETATM    7  C   UNL     1      -6.362   9.357  70.159  1.00  0.00    -0.058 A  
HETATM    8  C   UNL     1      -7.393   8.522  70.617  1.00  0.00    -0.061 A  
BRANCH   8   9
HETATM    9  O   UNL     1      -8.367   8.348  69.655  1.00  0.00    -0.118 OA 
BRANCH   9  10
HETATM   10  C   UNL     1      -9.043   9.396  69.120  1.00  0.00    -0.148 A  
HETATM   11  C   UNL     1      -8.512  10.493  68.480  1.00  0.00    -0.131 A  
HETATM   12  N   UNL     1      -9.239  11.454  67.894  1.00  0.00    -0.159 NA 
HETATM   13  N   UNL     1     -11.205  10.354  68.666  1.00  0.00    -0.260 NA 
HETATM   14  C   UNL     1     -10.580  11.324  67.969  1.00  0.00    -0.195 A  
HETATM   15  C   UNL     1     -10.423   9.427  69.244  1.00  0.00    -0.218 A  
BRANCH  11  16
HETATM   16  N   UNL     1      -7.134  10.782  68.328  1.00  0.00    -0.076 N  
HETATM   17  H   UNL     1      -6.814  11.750  68.300  1.00  0.00     0.000 HD 
BRANCH  16  18
HETATM   18  S   UNL     1      -6.032   9.529  68.192  1.00  0.00    -0.047 S  
HETATM   19  O   UNL     1      -5.158   9.795  67.063  1.00  0.00    -0.040 OA 
HETATM   20  O   UNL     1      -5.475   9.340  69.518  1.00  0.00    -0.034 OA 
BRANCH  18  21
HETATM   21  C   UNL     1      -6.969   8.075  67.793  1.00  0.00    -0.078 A  
HETATM   22  C   UNL     1      -8.400   5.719  67.184  1.00  0.00    -0.104 A  
HETATM   23  C   UNL     1      -6.468   6.833  68.177  1.00  0.00    -0.053 A  
HETATM   24  C   UNL     1      -7.176   5.672  67.871  1.00  0.00    -0.072 A  
HETATM   25  C   UNL     1      -8.918   6.994  66.867  1.00  0.00    -0.135 A  
HETATM   26  C   UNL     1      -8.213   8.168  67.171  1.00  0.00    -0.120 A  
BRANCH  22  27
HETATM   27  C   UNL     1      -9.132   4.434  66.751  1.00  0.00    -0.133 C  
HETATM   28  C   UNL     1      -8.333   3.145  67.059  1.00  0.00    -0.090 C  
HETATM   29  C   UNL     1      -9.364   4.466  65.226  1.00  0.00    -0.164 C  
HETATM   30  C   UNL     1     -10.491   4.311  67.468  1.00  0.00     0.538 C  
ENDBRANCH  22  27
ENDBRANCH  18  21
ENDBRANCH  16  18
ENDBRANCH  11  16
BRANCH  14  31
HETATM   31  C   UNL     1     -11.410  12.252  67.159  1.00  0.00    -0.335 A  
HETATM   32  N   UNL     1     -10.783  13.012  66.229  1.00  0.00    -0.274 NA 
HETATM   33  N   UNL     1     -12.731  12.349  67.448  1.00  0.00     0.977 NA 
HETATM   34  C   UNL     1     -13.436  13.251  66.745  1.00  0.00     4.369 A  
HETATM   35  C   UNL     1     -11.539  13.904  65.567  1.00  0.00    -0.327 A  
HETATM   36  C   UNL     1     -12.885  14.067  65.785  1.00  0.00    -0.416 A  
ENDBRANCH  14  31
BRANCH  15  37
HETATM   37  O   UNL     1     -11.023   8.461  70.031  1.00  0.00    -0.244 OA 
BRANCH  37  38
HETATM   38  C   UNL     1     -11.651   7.380  69.331  1.00  0.00     0.412 C  
BRANCH  38  39
HETATM   39  C   UNL     1     -11.698   6.132  70.207  1.00  0.00    -0.066 C  
HETATM   40  O   UNL     1     -10.608   6.120  71.123  1.00  0.00    -0.227 OA 
HETATM   41  H   UNL     1     -10.637   5.343  71.669  1.00  0.00     0.000 HD 
ENDBRANCH  38  39
ENDBRANCH  37  38
ENDBRANCH  15  37
ENDBRANCH   9  10
ENDBRANCH   8   9
ENDBRANCH   2   3
TORSDOF 11
ENDMDL
MODEL      231
REMARK 921   NORMALIZED FREE ENERGY PREDICTED BY IDOCK:   17.14 KCAL/MOL
REMARK 922        TOTAL FREE ENERGY PREDICTED BY IDOCK:   25.71 KCAL/MOL
REMARK 923 INTER-LIGAND FREE ENERGY PREDICTED BY IDOCK:    2.05 KCAL/MOL
REMARK 924 INTRA-LIGAND FREE ENERGY PREDICTED BY IDOCK:   23.66 KCAL/MOL
REMARK 927      BINDING AFFINITY PREDICTED BY RF-SCORE:    0.00 PKD
ROOT
HETATM    1  C   UNL     1     -11.821  16.855  67.811  1.00  0.00     1.011 C  
HETATM    2  O   UNL     1     -11.660  17.227  66.442  1.00  0.00     1.090 OA 
ENDROOT
BRANCH   2   3
HETATM    3  C   UNL     1     -10.908  18.346  66.180  1.00  0.00     0.010 A  
HETATM    4  C   UNL     1     -11.217  19.244  65.144  1.00  0.00     1.107 A  
HETATM    5  C   UNL     1     -10.395  20.340  64.865  1.00  0.00     1.027 A  
HETATM    6  C   UNL     1      -9.261  20.571  65.630  1.00  0.00     0.380 A  
HETATM    7  C   UNL     1      -8.948  19.703  66.670  1.00  0.00    -0.419 A  
HETATM    8  C   UNL     1      -9.758  18.593  66.959  1.00  0.00    -0.308 A  
BRANCH   8   9
HETATM    9  O   UNL     1      -9.227  17.833  67.981  1.00  0.00    -0.260 OA 
BRANCH   9  10
HETATM   10  C   UNL     1      -9.163  16.479  67.910  1.00  0.00    -0.211 A  
HETATM   11  C   UNL     1      -8.272  15.722  67.182  1.00  0.00    -0.206 A  
HETATM   12  N   UNL     1      -8.205  14.385  67.223  1.00  0.00    -0.204 NA 
HETATM   13  N   UNL     1     -10.081  14.393  68.691  1.00  0.00    -0.239 NA 
HETATM   14  C   UNL     1      -9.094  13.762  68.024  1.00  0.00    -0.191 A  
HETATM   15  C   UNL     1     -10.106  15.734  68.600  1.00  0.00    -0.211 A  
BRANCH  11  16
HETATM   16  N   UNL     1      -7.291  16.219  66.292  1.00  0.00     0.049 N  
HETATM   17  H   UNL     1      -6.715  15.573  65.752  1.00  0.00     0.000 HD 
BRANCH  16  18
HETATM   18  S   UNL     1      -7.077  17.872  66.127  1.00  0.00    -0.310 S  
HETATM   19  O   UNL     1      -5.892  18.112  65.323  1.00  0.00    -0.187 OA 
HETATM   20  O   UNL     1      -8.361  18.403  65.712  1.00  0.00    -0.478 OA 
BRANCH  18  21
HETATM   21  C   UNL     1      -6.738  18.499  67.753  1.00  0.00    -0.212 A  
HETATM   22  C   UNL     1      -6.169  19.426  70.358  1.00  0.00    -0.129 A  
HETATM   23  C   UNL     1      -6.013  17.702  68.637  1.00  0.00    -0.179 A  
HETATM   24  C   UNL     1      -5.737  18.162  69.923  1.00  0.00    -0.249 A  
HETATM   25  C   UNL     1      -6.843  20.240  69.422  1.00  0.00    -0.113 A  
HETATM   26  C   UNL     1      -7.124  19.786  68.125  1.00  0.00    -0.327 A  
BRANCH  22  27
HETATM   27  C   UNL     1      -5.959  19.894  71.811  1.00  0.00    -0.252 C  
HETATM   28  C   UNL     1      -5.142  21.204  71.917  1.00  0.00     0.065 C  
HETATM   29  C   UNL     1      -5.178  18.813  72.589  1.00  0.00     2.294 C  
HETATM   30  C   UNL     1      -7.312  20.142  72.507  1.00  0.00     2.246 C  
ENDBRANCH  22  27
ENDBRANCH  18  21
ENDBRANCH  16  18
ENDBRANCH  11  16
BRANCH  14  31
HETATM   31  C   UNL     1      -8.915  12.305  68.253  1.00  0.00    -0.182 A  
HETATM   32  N   UNL     1      -9.999  11.588  68.639  1.00  0.00    -0.213 NA 
HETATM   33  N   UNL     1      -7.667  11.786  68.143  1.00  0.00    -0.116 NA 
HETATM   34  C   UNL     1      -7.531  10.481  68.429  1.00  0.00    -0.092 A  
HETATM   35  C   UNL     1      -9.797  10.291  68.923  1.00  0.00    -0.195 A  
HETATM   36  C   UNL     1      -8.572   9.677  68.831  1.00  0.00    -0.127 A  
ENDBRANCH  14  31
BRANCH  15  37
HETATM   37  O   UNL     1     -11.148  16.413  69.206  1.00  0.00    -0.311 OA 
BRANCH  37  38
HETATM   38  C   UNL     1     -11.225  16.300  70.633  1.00  0.00    -0.288 C  
BRANCH  38  39
HETATM   39  C   UNL     1     -12.493  15.557  71.041  1.00  0.00    -0.436 C  
HETATM   40  O   UNL     1     -13.043  14.854  69.932  1.00  0.00    -0.585 OA 
HETATM   41  H   UNL     1     -13.833  14.391  70.185  1.00  0.00     0.000 HD 
ENDBRANCH  38  39
ENDBRANCH  37  38
ENDBRANCH  15  37
ENDBRANCH   9  10
ENDBRANCH   8   9
ENDBRANCH   2   3
TORSDOF 11
ENDMDL
MODEL      232
REMARK 921   NORMALIZED FREE ENERGY PREDICTED BY IDOCK:   20.93 KCAL/MOL
REMARK 922        TOTAL FREE ENERGY PREDICTED BY IDOCK:   31.92 KCAL/MOL
REMARK 923 INTER-LIGAND FREE ENERGY PREDICTED BY IDOCK:   16.20 KCAL/MOL
REMARK 924 INTRA-LIGAND FREE ENERGY PREDICTED BY IDOCK:   15.73 KCAL/MOL
REMARK 927      BINDING AFFINITY PREDICTED BY RF-SCORE:    0.00 PKD
ROOT
HETATM    1  C   UNL     1      -8.045   8.415  72.537  1.00  0.00    -0.116 C  
HETATM    2  O   UNL     1      -6.832   8.805  71.892  1.00  0.00    -0.122 OA 
ENDROOT
BRANCH   2   3
HETATM    3  C   UNL     1      -6.926   9.746  70.896  1.00  0.00     0.023 A  
HETATM    4  C   UNL     1      -5.879  10.631  70.588  1.00  0.00    -0.112 A  
HETATM    5  C   UNL     1      -6.030  11.619  69.610  1.00  0.00    -0.106 A  
HETATM    6  C   UNL     1      -7.221  11.725  68.906  1.00  0.00    -0.107 A  
HETATM    7  C   UNL     1      -8.262  10.846  69.185  1.00  0.00    -0.090 A  
HETATM    8  C   UNL     1      -8.130   9.854  70.170  1.00  0.00    -0.146 A  
BRANCH   8   9
HETATM    9  O   UNL     1      -9.302   9.142  70.328  1.00  0.00    -0.185 OA 
BRANCH   9  10
HETATM   10  C   UNL     1      -9.685   8.184  69.446  1.00  0.00    -0.170 A  
HETATM   11  C   UNL     1     -10.627   8.296  68.449  1.00  0.00    -0.099 A  
HETATM   12  N   UNL     1     -10.898   7.339  67.552  1.00  0.00    -0.239 NA 
HETATM   13  N   UNL     1      -9.338   5.930  68.672  1.00  0.00    -0.117 NA 
HETATM   14  C   UNL     1     -10.200   6.190  67.669  1.00  0.00    -0.174 A  
HETATM   15  C   UNL     1      -9.118   6.924  69.550  1.00  0.00    -0.142 A  
BRANCH  11  16
HETATM   16  N   UNL     1     -11.448   9.422  68.202  1.00  0.00    -0.167 N  
HETATM   17  H   UNL     1     -12.278   9.332  67.616  1.00  0.00     0.000 HD 
BRANCH  16  18
HETATM   18  S   UNL     1     -11.052  10.904  68.874  1.00  0.00    -0.276 S  
HETATM   19  O   UNL     1     -12.184  11.384  69.647  1.00  0.00    -0.296 OA 
HETATM   20  O   UNL     1      -9.759  10.725  69.507  1.00  0.00    -0.133 OA 
BRANCH  18  21
HETATM   21  C   UNL     1     -10.834  12.029  67.518  1.00  0.00    -0.241 A  
HETATM   22  C   UNL     1     -10.498  13.758  65.313  1.00  0.00    -0.376 A  
HETATM   23  C   UNL     1     -11.066  11.566  66.225  1.00  0.00    -0.321 A  
HETATM   24  C   UNL     1     -10.895  12.422  65.138  1.00  0.00    -0.333 A  
HETATM   25  C   UNL     1     -10.336  14.220  66.637  1.00  0.00    -0.279 A  
HETATM   26  C   UNL     1     -10.506  13.366  67.736  1.00  0.00    -0.246 A  
BRANCH  22  27
HETATM   27  C   UNL     1     -10.206  14.676  64.110  1.00  0.00     1.481 C  
HETATM   28  C   UNL     1      -9.271  15.858  64.459  1.00  0.00     4.207 C  
HETATM   29  C   UNL     1     -11.528  15.284  63.597  1.00  0.00     1.113 C  
HETATM   30  C   UNL     1      -9.536  13.885  62.969  1.00  0.00     8.922 C  
ENDBRANCH  22  27
ENDBRANCH  18  21
ENDBRANCH  16  18
ENDBRANCH  11  16
BRANCH  14  31
HETATM   31  C   UNL     1     -10.323   5.192  66.575  1.00  0.00    -0.291 A  
HETATM   32  N   UNL     1     -10.047   5.602  65.313  1.00  0.00     0.598 NA 
HETATM   33  N   UNL     1     -10.780   3.954  66.884  1.00  0.00     1.424 NA 
HETATM   34  C   UNL     1     -10.949   3.102  65.859  1.00  0.00     3.327 A  
HETATM   35  C   UNL     1     -10.247   4.708  64.329  1.00  0.00     0.333 A  
HETATM   36  C   UNL     1     -10.698   3.430  64.547  1.00  0.00     0.109 A  
ENDBRANCH  14  31
BRANCH  15  37
HETATM   37  O   UNL     1      -8.300   6.670  70.635  1.00  0.00    -0.126 OA 
BRANCH  37  38
HETATM   38  C   UNL     1      -8.936   6.087  71.780  1.00  0.00    -0.138 C  
BRANCH  38  39
HETATM   39  C   UNL     1      -8.221   6.509  73.060  1.00  0.00    -0.111 C  
HETATM   40  O   UNL     1      -6.987   5.812  73.200  1.00  0.00    -0.081 OA 
HETATM   41  H   UNL     1      -6.541   6.074  73.997  1.00  0.00     0.000 HD 
ENDBRANCH  38  39
ENDBRANCH  37  38
ENDBRANCH  15  37
ENDBRANCH   9  10
ENDBRANCH   8   9
ENDBRANCH   2   3
TORSDOF 11
ENDMDL
MODEL      233
REMARK 921   NORMALIZED FREE ENERGY PREDICTED BY IDOCK:   23.43 KCAL/MOL
REMARK 922        TOTAL FREE ENERGY PREDICTED BY IDOCK:   36.04 KCAL/MOL
REMARK 923 INTER-LIGAND FREE ENERGY PREDICTED BY IDOCK:   17.75 KCAL/MOL
REMARK 924 INTRA-LIGAND FREE ENERGY PREDICTED BY IDOCK:   18.28 KCAL/MOL
REMARK 927      BINDING AFFINITY PREDICTED BY RF-SCORE:    0.00 PKD
ROOT
HETATM    1  C   UNL     1      -8.320   8.399  72.477  1.00  0.00    -0.147 C  
HETATM    2  O   UNL     1      -7.689   9.233  71.505  1.00  0.00    -0.340 OA 
ENDROOT
BRANCH   2   3
HETATM    3  C   UNL     1      -8.508   9.948  70.665  1.00  0.00     0.387 A  
HETATM    4  C   UNL     1      -8.526  11.353  70.638  1.00  0.00     4.762 A  
HETATM    5  C   UNL     1      -9.417  12.050  69.815  1.00  0.00     1.952 A  
HETATM    6  C   UNL     1     -10.288  11.356  68.989  1.00  0.00    -0.166 A  
HETATM    7  C   UNL     1     -10.272   9.966  68.989  1.00  0.00    -0.213 A  
HETATM    8  C   UNL     1      -9.391   9.250  69.815  1.00  0.00    -0.188 A  
BRANCH   8   9
HETATM    9  O   UNL     1      -9.591   7.889  69.707  1.00  0.00    -0.167 OA 
BRANCH   9  10
HETATM   10  C   UNL     1      -8.971   7.146  68.756  1.00  0.00    -0.128 A  
HETATM   11  C   UNL     1      -9.415   6.884  67.479  1.00  0.00    -0.128 A  
HETATM   12  N   UNL     1      -8.714   6.214  66.556  1.00  0.00    -0.128 NA 
HETATM   13  N   UNL     1      -7.016   5.858  68.188  1.00  0.00    -0.067 NA 
HETATM   14  C   UNL     1      -7.501   5.758  66.935  1.00  0.00    -0.084 A  
HETATM   15  C   UNL     1      -7.772   6.529  69.075  1.00  0.00    -0.109 A  
BRANCH  11  16
HETATM   16  N   UNL     1     -10.661   7.277  66.934  1.00  0.00    -0.444 N  
HETATM   17  H   UNL     1     -10.981   6.880  66.051  1.00  0.00     0.000 HD 
BRANCH  16  18
HETATM   18  S   UNL     1     -11.606   8.398  67.744  1.00  0.00     2.454 S  
HETATM   19  O   UNL     1     -13.001   8.014  67.612  1.00  0.00     9.077 OA 
HETATM   20  O   UNL     1     -11.011   8.550  69.058  1.00  0.00    -0.064 OA 
BRANCH  18  21
HETATM   21  C   UNL     1     -11.407   9.938  66.884  1.00  0.00     0.754 A  
HETATM   22  C   UNL     1     -11.051  12.350  65.461  1.00  0.00    -0.338 A  
HETATM   23  C   UNL     1     -10.826   9.924  65.618  1.00  0.00     0.688 A  
HETATM   24  C   UNL     1     -10.648  11.117  64.920  1.00  0.00    -0.356 A  
HETATM   25  C   UNL     1     -11.699  12.328  66.715  1.00  0.00    -0.411 A  
HETATM   26  C   UNL     1     -11.882  11.132  67.424  1.00  0.00     0.157 A  
BRANCH  22  27
HETATM   27  C   UNL     1     -10.760  13.680  64.740  1.00  0.00    -0.420 C  
HETATM   28  C   UNL     1      -9.317  14.192  64.965  1.00  0.00     0.997 C  
HETATM   29  C   UNL     1     -11.713  14.771  65.272  1.00  0.00    -0.311 C  
HETATM   30  C   UNL     1     -10.959  13.532  63.218  1.00  0.00     1.176 C  
ENDBRANCH  22  27
ENDBRANCH  18  21
ENDBRANCH  16  18
ENDBRANCH  11  16
BRANCH  14  31
HETATM   31  C   UNL     1      -6.614   5.196  65.883  1.00  0.00    -0.048 A  
HETATM   32  N   UNL     1      -6.303   5.990  64.830  1.00  0.00    -0.033 NA 
HETATM   33  N   UNL     1      -6.232   3.900  65.991  1.00  0.00    -0.031 NA 
HETATM   34  C   UNL     1      -5.492   3.405  64.985  1.00  0.00    -0.010 A  
HETATM   35  C   UNL     1      -5.570   5.435  63.850  1.00  0.00    -0.013 A  
HETATM   36  C   UNL     1      -5.130   4.134  63.876  1.00  0.00    -0.005 A  
ENDBRANCH  14  31
BRANCH  15  37
HETATM   37  O   UNL     1      -7.345   6.586  70.389  1.00  0.00    -0.080 OA 
BRANCH  37  38
HETATM   38  C   UNL     1      -8.024   5.724  71.310  1.00  0.00    -0.113 C  
BRANCH  38  39
HETATM   39  C   UNL     1      -7.099   4.604  71.774  1.00  0.00    -0.060 C  
HETATM   40  O   UNL     1      -7.648   3.331  71.451  1.00  0.00    -0.046 OA 
HETATM   41  H   UNL     1      -7.071   2.633  71.740  1.00  0.00     0.000 HD 
ENDBRANCH  38  39
ENDBRANCH  37  38
ENDBRANCH  15  37
ENDBRANCH   9  10
ENDBRANCH   8   9
ENDBRANCH   2   3
TORSDOF 11
ENDMDL
MODEL      234
REMARK 921   NORMALIZED FREE ENERGY PREDICTED BY IDOCK:   27.41 KCAL/MOL
REMARK 922        TOTAL FREE ENERGY PREDICTED BY IDOCK:   42.58 KCAL/MOL
REMARK 923 INTER-LIGAND FREE ENERGY PREDICTED BY IDOCK:   34.33 KCAL/MOL
REMARK 924 INTRA-LIGAND FREE ENERGY PREDICTED BY IDOCK:    8.24 KCAL/MOL
REMARK 927      BINDING AFFINITY PREDICTED BY RF-SCORE:    0.00 PKD
ROOT
HETATM    1  C   UNL     1     -12.665  12.565  66.204  1.00  0.00     0.977 C  
HETATM    2  O   UNL     1     -12.738  11.426  65.346  1.00  0.00     1.317 OA 
ENDROOT
BRANCH   2   3
HETATM    3  C   UNL     1     -11.638  11.153  64.571  1.00  0.00     0.391 A  
HETATM    4  C   UNL     1     -11.705  11.036  63.172  1.00  0.00     0.990 A  
HETATM    5  C   UNL     1     -10.577  10.696  62.418  1.00  0.00     1.167 A  
HETATM    6  C   UNL     1      -9.357  10.488  63.046  1.00  0.00    -0.343 A  
HETATM    7  C   UNL     1      -9.268  10.617  64.427  1.00  0.00    -0.267 A  
HETATM    8  C   UNL     1     -10.392  10.950  65.200  1.00  0.00    -0.278 A  
BRANCH   8   9
HETATM    9  O   UNL     1     -10.093  10.956  66.548  1.00  0.00    -0.207 OA 
BRANCH   9  10
HETATM   10  C   UNL     1      -9.381   9.958  67.130  1.00  0.00    -0.146 A  
HETATM   11  C   UNL     1      -8.055   9.650  66.925  1.00  0.00    -0.113 A  
HETATM   12  N   UNL     1      -7.384   8.705  67.598  1.00  0.00    -0.088 NA 
HETATM   13  N   UNL     1      -9.410   8.151  68.721  1.00  0.00    -0.144 NA 
HETATM   14  C   UNL     1      -8.085   8.011  68.519  1.00  0.00    -0.125 A  
HETATM   15  C   UNL     1     -10.031   9.104  68.006  1.00  0.00    -0.178 A  
BRANCH  11  16
HETATM   16  N   UNL     1      -7.190  10.272  65.993  1.00  0.00    -0.122 N  
HETATM   17  H   UNL     1      -6.550   9.708  65.434  1.00  0.00     0.000 HD 
BRANCH  16  18
HETATM   18  S   UNL     1      -7.220  11.936  65.813  1.00  0.00     1.682 S  
HETATM   19  O   UNL     1      -5.855  12.418  65.695  1.00  0.00     2.042 OA 
HETATM   20  O   UNL     1      -8.184  12.209  64.764  1.00  0.00     1.692 OA 
BRANCH  18  21
HETATM   21  C   UNL     1      -7.875  12.594  67.327  1.00  0.00    -0.155 A  
HETATM   22  C   UNL     1      -8.903  13.570  69.767  1.00  0.00     1.943 A  
HETATM   23  C   UNL     1      -7.805  11.812  68.478  1.00  0.00    -0.144 A  
HETATM   24  C   UNL     1      -8.317  12.296  69.680  1.00  0.00     1.653 A  
HETATM   25  C   UNL     1      -8.900  14.368  68.603  1.00  0.00    -0.167 A  
HETATM   26  C   UNL     1      -8.386  13.889  67.388  1.00  0.00    -0.208 A  
BRANCH  22  27
HETATM   27  C   UNL     1      -9.565  14.066  71.067  1.00  0.00     4.856 C  
HETATM   28  C   UNL     1     -10.271  12.939  71.859  1.00  0.00    11.867 C  
HETATM   29  C   UNL     1     -10.642  15.117  70.726  1.00  0.00    -0.010 C  
HETATM   30  C   UNL     1      -8.519  14.698  72.007  1.00  0.00     6.138 C  
ENDBRANCH  22  27
ENDBRANCH  18  21
ENDBRANCH  16  18
ENDBRANCH  11  16
BRANCH  14  31
HETATM   31  C   UNL     1      -7.330   7.105  69.423  1.00  0.00    -0.090 A  
HETATM   32  N   UNL     1      -6.515   7.671  70.346  1.00  0.00    -0.038 NA 
HETATM   33  N   UNL     1      -7.433   5.768  69.224  1.00  0.00    -0.082 NA 
HETATM   34  C   UNL     1      -6.679   4.984  70.013  1.00  0.00    -0.037 A  
HETATM   35  C   UNL     1      -5.777   6.835  71.096  1.00  0.00    -0.028 A  
HETATM   36  C   UNL     1      -5.822   5.468  70.973  1.00  0.00    -0.020 A  
ENDBRANCH  14  31
BRANCH  15  37
HETATM   37  O   UNL     1     -11.403   9.227  68.129  1.00  0.00     0.143 OA 
BRANCH  37  38
HETATM   38  C   UNL     1     -11.944   8.969  69.432  1.00  0.00     1.180 C  
BRANCH  38  39
HETATM   39  C   UNL     1     -11.150   9.720  70.496  1.00  0.00    -0.321 C  
HETATM   40  O   UNL     1     -11.928   9.891  71.676  1.00  0.00    -0.393 OA 
HETATM   41  H   UNL     1     -11.434  10.359  72.340  1.00  0.00     0.000 HD 
ENDBRANCH  38  39
ENDBRANCH  37  38
ENDBRANCH  15  37
ENDBRANCH   9  10
ENDBRANCH   8   9
ENDBRANCH   2   3
TORSDOF 11
ENDMDL
MODEL      235
REMARK 921   NORMALIZED FREE ENERGY PREDICTED BY IDOCK:   30.21 KCAL/MOL
REMARK 922        TOTAL FREE ENERGY PREDICTED BY IDOCK:   47.17 KCAL/MOL
REMARK 923 INTER-LIGAND FREE ENERGY PREDICTED BY IDOCK:   33.89 KCAL/MOL
REMARK 924 INTRA-LIGAND FREE ENERGY PREDICTED BY IDOCK:   13.28 KCAL/MOL
REMARK 927      BINDING AFFINITY PREDICTED BY RF-SCORE:    0.00 PKD
ROOT
HETATM    1  C   UNL     1     -10.462  16.211  73.289  1.00  0.00     5.223 C  
HETATM    2  O   UNL     1     -11.788  16.534  72.869  1.00  0.00    -0.519 OA 
ENDROOT
BRANCH   2   3
HETATM    3  C   UNL     1     -12.124  16.242  71.569  1.00  0.00    -0.242 A  
HETATM    4  C   UNL     1     -12.543  17.224  70.655  1.00  0.00     6.631 A  
HETATM    5  C   UNL     1     -12.936  16.884  69.357  1.00  0.00     4.922 A  
HETATM    6  C   UNL     1     -12.897  15.560  68.942  1.00  0.00     0.971 A  
HETATM    7  C   UNL     1     -12.468  14.578  69.827  1.00  0.00    -0.259 A  
HETATM    8  C   UNL     1     -12.077  14.900  71.137  1.00  0.00    -0.327 A  
BRANCH   8   9
HETATM    9  O   UNL     1     -11.756  13.770  71.861  1.00  0.00     0.601 OA 
BRANCH   9  10
HETATM   10  C   UNL     1     -11.228  12.667  71.272  1.00  0.00     3.302 A  
HETATM   11  C   UNL     1     -11.841  11.449  71.077  1.00  0.00     0.132 A  
HETATM   12  N   UNL     1     -11.295  10.425  70.409  1.00  0.00    -0.319 NA 
HETATM   13  N   UNL     1      -9.316  11.724  70.150  1.00  0.00     2.630 NA 
HETATM   14  C   UNL     1     -10.052  10.618  69.922  1.00  0.00     0.103 A  
HETATM   15  C   UNL     1      -9.912  12.713  70.839  1.00  0.00     7.411 A  
BRANCH  11  16
HETATM   16  N   UNL     1     -13.130  11.084  71.534  1.00  0.00    -0.422 N  
HETATM   17  H   UNL     1     -13.807  11.804  71.785  1.00  0.00     0.000 HD 
BRANCH  16  18
HETATM   18  S   UNL     1     -13.539   9.465  71.662  1.00  0.00    -0.331 S  
HETATM   19  O   UNL     1     -14.345   9.280  72.856  1.00  0.00    -0.461 OA 
HETATM   20  O   UNL     1     -14.058   9.079  70.364  1.00  0.00     0.605 OA 
BRANCH  18  21
HETATM   21  C   UNL     1     -12.021   8.581  71.916  1.00  0.00    -0.345 A  
HETATM   22  C   UNL     1      -9.606   7.158  72.244  1.00  0.00    -0.161 A  
HETATM   23  C   UNL     1     -11.343   8.088  70.803  1.00  0.00    -0.282 A  
HETATM   24  C   UNL     1     -10.153   7.383  70.969  1.00  0.00    -0.191 A  
HETATM   25  C   UNL     1     -10.276   7.726  73.348  1.00  0.00    -0.315 A  
HETATM   26  C   UNL     1     -11.474   8.439  73.190  1.00  0.00     0.500 A  
BRANCH  22  27
HETATM   27  C   UNL     1      -8.348   6.289  72.439  1.00  0.00    -0.111 C  
HETATM   28  C   UNL     1      -8.590   5.064  73.353  1.00  0.00    -0.109 C  
HETATM   29  C   UNL     1      -7.240   7.133  73.103  1.00  0.00    -0.075 C  
HETATM   30  C   UNL     1      -7.837   5.755  71.086  1.00  0.00    -0.111 C  
ENDBRANCH  22  27
ENDBRANCH  18  21
ENDBRANCH  16  18
ENDBRANCH  11  16
BRANCH  14  31
HETATM   31  C   UNL     1      -9.501   9.588  69.004  1.00  0.00    -0.158 A  
HETATM   32  N   UNL     1      -8.194   9.681  68.661  1.00  0.00    -0.104 NA 
HETATM   33  N   UNL     1     -10.350   8.660  68.497  1.00  0.00    -0.202 NA 
HETATM   34  C   UNL     1      -9.832   7.790  67.614  1.00  0.00    -0.163 A  
HETATM   35  C   UNL     1      -7.738   8.790  67.765  1.00  0.00    -0.102 A  
HETATM   36  C   UNL     1      -8.520   7.811  67.205  1.00  0.00    -0.124 A  
ENDBRANCH  14  31
BRANCH  15  37
HETATM   37  O   UNL     1      -9.165  13.832  71.159  1.00  0.00     5.588 OA 
BRANCH  37  38
HETATM   38  C   UNL     1      -9.802  15.097  70.943  1.00  0.00     1.195 C  
BRANCH  38  39
HETATM   39  C   UNL     1      -9.821  15.438  69.456  1.00  0.00    -0.260 C  
HETATM   40  O   UNL     1      -9.671  16.840  69.259  1.00  0.00    -0.230 OA 
HETATM   41  H   UNL     1      -9.682  17.052  68.333  1.00  0.00     0.000 HD 
ENDBRANCH  38  39
ENDBRANCH  37  38
ENDBRANCH  15  37
ENDBRANCH   9  10
ENDBRANCH   8   9
ENDBRANCH   2   3
TORSDOF 11
ENDMDL
MODEL      236
REMARK 921   NORMALIZED FREE ENERGY PREDICTED BY IDOCK:   31.22 KCAL/MOL
REMARK 922        TOTAL FREE ENERGY PREDICTED BY IDOCK:   48.84 KCAL/MOL
REMARK 923 INTER-LIGAND FREE ENERGY PREDICTED BY IDOCK:   38.88 KCAL/MOL
REMARK 924 INTRA-LIGAND FREE ENERGY PREDICTED BY IDOCK:    9.95 KCAL/MOL
REMARK 927      BINDING AFFINITY PREDICTED BY RF-SCORE:    0.00 PKD
ROOT
HETATM    1  C   UNL     1     -12.822  12.548  66.315  1.00  0.00     1.528 C  
HETATM    2  O   UNL     1     -12.779  11.160  65.984  1.00  0.00     2.775 OA 
ENDROOT
BRANCH   2   3
HETATM    3  C   UNL     1     -11.597  10.672  65.482  1.00  0.00     1.439 A  
HETATM    4  C   UNL     1     -11.547   9.740  64.431  1.00  0.00     6.729 A  
HETATM    5  C   UNL     1     -10.329   9.216  63.986  1.00  0.00     3.867 A  
HETATM    6  C   UNL     1      -9.139   9.631  64.566  1.00  0.00    -0.287 A  
HETATM    7  C   UNL     1      -9.169  10.564  65.595  1.00  0.00    -0.221 A  
HETATM    8  C   UNL     1     -10.383  11.095  66.061  1.00  0.00    -0.254 A  
BRANCH   8   9
HETATM    9  O   UNL     1     -10.185  11.948  67.127  1.00  0.00    -0.206 OA 
BRANCH   9  10
HETATM   10  C   UNL     1      -9.337  11.644  68.142  1.00  0.00    -0.188 A  
HETATM   11  C   UNL     1      -7.976  11.448  68.063  1.00  0.00    -0.127 A  
HETATM   12  N   UNL     1      -7.179  11.236  69.118  1.00  0.00    -0.120 NA 
HETATM   13  N   UNL     1      -9.112  11.263  70.510  1.00  0.00     2.875 NA 
HETATM   14  C   UNL     1      -7.778  11.197  70.327  1.00  0.00     1.561 A  
HETATM   15  C   UNL     1      -9.861  11.461  69.411  1.00  0.00     0.302 A  
BRANCH  11  16
HETATM   16  N   UNL     1      -7.203  11.445  66.877  1.00  0.00    -0.139 N  
HETATM   17  H   UNL     1      -6.496  10.725  66.729  1.00  0.00     0.000 HD 
BRANCH  16  18
HETATM   18  S   UNL     1      -7.452  12.629  65.719  1.00  0.00     3.508 S  
HETATM   19  O   UNL     1      -6.178  12.955  65.103  1.00  0.00     6.460 OA 
HETATM   20  O   UNL     1      -8.560  12.168  64.906  1.00  0.00     0.918 OA 
BRANCH  18  21
HETATM   21  C   UNL     1      -7.994  14.078  66.590  1.00  0.00     0.640 A  
HETATM   22  C   UNL     1      -8.832  16.349  68.043  1.00  0.00    -0.184 A  
HETATM   23  C   UNL     1      -7.710  14.183  67.950  1.00  0.00    -0.161 A  
HETATM   24  C   UNL     1      -8.129  15.304  68.665  1.00  0.00    -0.156 A  
HETATM   25  C   UNL     1      -9.047  16.249  66.651  1.00  0.00    -0.278 A  
HETATM   26  C   UNL     1      -8.628  15.125  65.924  1.00  0.00     0.669 A  
BRANCH  22  27
HETATM   27  C   UNL     1      -9.388  17.538  68.849  1.00  0.00    -0.169 C  
HETATM   28  C   UNL     1      -9.835  17.149  70.279  1.00  0.00     1.529 C  
HETATM   29  C   UNL     1     -10.629  18.109  68.130  1.00  0.00    -0.320 C  
HETATM   30  C   UNL     1      -8.328  18.648  68.989  1.00  0.00    -0.119 C  
ENDBRANCH  22  27
ENDBRANCH  18  21
ENDBRANCH  16  18
ENDBRANCH  11  16
BRANCH  14  31
HETATM   31  C   UNL     1      -6.906  11.172  71.530  1.00  0.00     3.374 A  
HETATM   32  N   UNL     1      -6.217  12.298  71.833  1.00  0.00     1.622 NA 
HETATM   33  N   UNL     1      -6.785  10.006  72.210  1.00  0.00     0.790 NA 
HETATM   34  C   UNL     1      -5.932  10.001  73.248  1.00  0.00     0.921 A  
HETATM   35  C   UNL     1      -5.371  12.228  72.874  1.00  0.00     0.774 A  
HETATM   36  C   UNL     1      -5.188  11.094  73.627  1.00  0.00     0.584 A  
ENDBRANCH  14  31
BRANCH  15  37
HETATM   37  O   UNL     1     -11.237  11.457  69.547  1.00  0.00    -0.254 OA 
BRANCH  37  38
HETATM   38  C   UNL     1     -11.804  10.306  70.187  1.00  0.00    -0.263 C  
BRANCH  38  39
HETATM   39  C   UNL     1     -10.908   9.835  71.328  1.00  0.00    -0.206 C  
HETATM   40  O   UNL     1     -11.633   9.002  72.226  1.00  0.00    -0.328 OA 
HETATM   41  H   UNL     1     -11.075   8.709  72.937  1.00  0.00     0.000 HD 
ENDBRANCH  38  39
ENDBRANCH  37  38
ENDBRANCH  15  37
ENDBRANCH   9  10
ENDBRANCH   8   9
ENDBRANCH   2   3
TORSDOF 11
ENDMDL
MODEL      237
REMARK 921   NORMALIZED FREE ENERGY PREDICTED BY IDOCK:   46.89 KCAL/MOL
REMARK 922        TOTAL FREE ENERGY PREDICTED BY IDOCK:   74.58 KCAL/MOL
REMARK 923 INTER-LIGAND FREE ENERGY PREDICTED BY IDOCK:   39.57 KCAL/MOL
REMARK 924 INTRA-LIGAND FREE ENERGY PREDICTED BY IDOCK:   35.00 KCAL/MOL
REMARK 927      BINDING AFFINITY PREDICTED BY RF-SCORE:    0.00 PKD
ROOT
HETATM    1  C   UNL     1      -8.654   9.972  70.920  1.00  0.00     1.105 C  
HETATM    2  O   UNL     1      -9.237   9.343  69.779  1.00  0.00    -0.168 OA 
ENDROOT
BRANCH   2   3
HETATM    3  C   UNL     1      -9.293  10.075  68.619  1.00  0.00    -0.156 A  
HETATM    4  C   UNL     1      -8.903  11.424  68.553  1.00  0.00    -0.151 A  
HETATM    5  C   UNL     1      -9.031  12.158  67.369  1.00  0.00    -0.180 A  
HETATM    6  C   UNL     1      -9.530  11.551  66.225  1.00  0.00    -0.235 A  
HETATM    7  C   UNL     1      -9.905  10.214  66.267  1.00  0.00    -0.288 A  
HETATM    8  C   UNL     1      -9.791   9.464  67.449  1.00  0.00    -0.172 A  
BRANCH   8   9
HETATM    9  O   UNL     1     -10.281   8.184  67.284  1.00  0.00    -0.223 OA 
BRANCH   9  10
HETATM   10  C   UNL     1     -10.768   7.463  68.326  1.00  0.00    -0.099 A  
HETATM   11  C   UNL     1     -10.151   7.216  69.532  1.00  0.00    -0.179 A  
HETATM   12  N   UNL     1     -10.721   6.568  70.556  1.00  0.00    -0.240 NA 
HETATM   13  N   UNL     1     -12.633   6.205  69.184  1.00  0.00     3.622 NA 
HETATM   14  C   UNL     1     -11.978   6.120  70.359  1.00  0.00     0.241 A  
HETATM   15  C   UNL     1     -12.004   6.853  68.189  1.00  0.00     1.964 A  
BRANCH  11  16
HETATM   16  N   UNL     1      -8.837   7.606  69.890  1.00  0.00    -0.143 N  
HETATM   17  H   UNL     1      -8.685   8.458  70.430  1.00  0.00     0.000 HD 
BRANCH  16  18
HETATM   18  S   UNL     1      -7.534   6.663  69.424  1.00  0.00    -0.096 S  
HETATM   19  O   UNL     1      -6.316   7.436  69.590  1.00  0.00    -0.030 OA 
HETATM   20  O   UNL     1      -7.692   5.394  70.106  1.00  0.00    -0.074 OA 
BRANCH  18  21
HETATM   21  C   UNL     1      -7.727   6.363  67.684  1.00  0.00    -0.102 A  
HETATM   22  C   UNL     1      -8.020   5.964  64.906  1.00  0.00    -0.125 A  
HETATM   23  C   UNL     1      -7.451   7.400  66.795  1.00  0.00    -0.096 A  
HETATM   24  C   UNL     1      -7.601   7.200  65.424  1.00  0.00    -0.100 A  
HETATM   25  C   UNL     1      -8.227   4.911  65.823  1.00  0.00    -0.113 A  
HETATM   26  C   UNL     1      -8.078   5.103  67.204  1.00  0.00    -0.104 A  
BRANCH  22  27
HETATM   27  C   UNL     1      -8.288   5.770  63.401  1.00  0.00    -0.020 C  
HETATM   28  C   UNL     1      -8.660   4.314  63.030  1.00  0.00    -0.103 C  
HETATM   29  C   UNL     1      -7.015   6.126  62.603  1.00  0.00    -0.042 C  
HETATM   30  C   UNL     1      -9.448   6.671  62.932  1.00  0.00     2.264 C  
ENDBRANCH  22  27
ENDBRANCH  18  21
ENDBRANCH  16  18
ENDBRANCH  11  16
BRANCH  14  31
HETATM   31  C   UNL     1     -12.713   5.584  71.534  1.00  0.00     2.138 A  
HETATM   32  N   UNL     1     -12.658   4.248  71.757  1.00  0.00     4.657 NA 
HETATM   33  N   UNL     1     -13.461   6.443  72.269  1.00  0.00     0.199 NA 
HETATM   34  C   UNL     1     -14.169   5.910  73.279  1.00  0.00     3.866 A  
HETATM   35  C   UNL     1     -13.397   3.774  72.774  1.00  0.00     2.839 A  
HETATM   36  C   UNL     1     -14.178   4.568  73.578  1.00  0.00     6.478 A  
ENDBRANCH  14  31
BRANCH  15  37
HETATM   37  O   UNL     1     -12.611   6.894  66.947  1.00  0.00     4.441 OA 
BRANCH  37  38
HETATM   38  C   UNL     1     -12.055   7.820  66.004  1.00  0.00     8.682 C  
BRANCH  38  39
HETATM   39  C   UNL     1     -10.921   8.615  66.644  1.00  0.00     0.631 C  
HETATM   40  O   UNL     1      -9.657   8.076  66.274  1.00  0.00    -0.314 OA 
HETATM   41  H   UNL     1      -8.950   8.571  66.672  1.00  0.00     0.000 HD 
ENDBRANCH  38  39
ENDBRANCH  37  38
ENDBRANCH  15  37
ENDBRANCH   9  10
ENDBRANCH   8   9
ENDBRANCH   2   3
TORSDOF 11
ENDMDL
MODEL      238
REMARK 921   NORMALIZED FREE ENERGY PREDICTED BY IDOCK:   52.46 KCAL/MOL
REMARK 922        TOTAL FREE ENERGY PREDICTED BY IDOCK:   83.74 KCAL/MOL
REMARK 923 INTER-LIGAND FREE ENERGY PREDICTED BY IDOCK:   77.33 KCAL/MOL
REMARK 924 INTRA-LIGAND FREE ENERGY PREDICTED BY IDOCK:    6.41 KCAL/MOL
REMARK 927      BINDING AFFINITY PREDICTED BY RF-SCORE:    0.00 PKD
ROOT
HETATM    1  C   UNL     1      -8.548  17.481  63.105  1.00  0.00    22.833 C  
HETATM    2  O   UNL     1      -8.107  16.166  63.442  1.00  0.00    16.021 OA 
ENDROOT
BRANCH   2   3
HETATM    3  C   UNL     1      -7.419  16.017  64.621  1.00  0.00    10.338 A  
HETATM    4  C   UNL     1      -6.271  16.768  64.929  1.00  0.00     4.949 A  
HETATM    5  C   UNL     1      -5.558  16.548  66.112  1.00  0.00     1.170 A  
HETATM    6  C   UNL     1      -5.991  15.590  67.018  1.00  0.00     0.515 A  
HETATM    7  C   UNL     1      -7.134  14.851  66.738  1.00  0.00     0.900 A  
HETATM    8  C   UNL     1      -7.858  15.053  65.551  1.00  0.00     4.794 A  
BRANCH   8   9
HETATM    9  O   UNL     1      -8.912  14.168  65.447  1.00  0.00     0.746 OA 
BRANCH   9  10
HETATM   10  C   UNL     1      -9.424  13.530  66.530  1.00  0.00    -0.256 A  
HETATM   11  C   UNL     1      -9.356  12.185  66.815  1.00  0.00    -0.212 A  
HETATM   12  N   UNL     1      -9.806  11.627  67.947  1.00  0.00    -0.179 NA 
HETATM   13  N   UNL     1     -10.598  13.770  68.619  1.00  0.00    -0.251 NA 
HETATM   14  C   UNL     1     -10.378  12.460  68.842  1.00  0.00    -0.049 A  
HETATM   15  C   UNL     1     -10.137  14.270  67.459  1.00  0.00    -0.236 A  
BRANCH  11  16
HETATM   16  N   UNL     1      -8.803  11.183  65.981  1.00  0.00    -0.188 N  
HETATM   17  H   UNL     1      -7.943  11.365  65.465  1.00  0.00     0.000 HD 
BRANCH  16  18
HETATM   18  S   UNL     1      -9.567   9.699  65.845  1.00  0.00    -0.274 S  
HETATM   19  O   UNL     1     -10.959   9.853  66.231  1.00  0.00     0.121 OA 
HETATM   20  O   UNL     1      -9.226   9.191  64.530  1.00  0.00    -0.111 OA 
BRANCH  18  21
HETATM   21  C   UNL     1      -8.810   8.632  67.045  1.00  0.00    -0.132 A  
HETATM   22  C   UNL     1      -7.579   6.890  68.894  1.00  0.00    -0.105 A  
HETATM   23  C   UNL     1      -7.977   7.609  66.595  1.00  0.00    -0.107 A  
HETATM   24  C   UNL     1      -7.374   6.749  67.511  1.00  0.00    -0.096 A  
HETATM   25  C   UNL     1      -8.371   7.975  69.326  1.00  0.00    -0.134 A  
HETATM   26  C   UNL     1      -8.982   8.846  68.411  1.00  0.00    -0.134 A  
BRANCH  22  27
HETATM   27  C   UNL     1      -7.000   5.878  69.901  1.00  0.00    -0.066 C  
HETATM   28  C   UNL     1      -7.303   4.407  69.529  1.00  0.00    -0.051 C  
HETATM   29  C   UNL     1      -7.622   6.127  71.292  1.00  0.00    -0.094 C  
HETATM   30  C   UNL     1      -5.468   6.018  69.999  1.00  0.00    -0.013 C  
ENDBRANCH  22  27
ENDBRANCH  18  21
ENDBRANCH  16  18
ENDBRANCH  11  16
BRANCH  14  31
HETATM   31  C   UNL     1     -10.698  11.915  70.187  1.00  0.00     1.133 A  
HETATM   32  N   UNL     1     -11.342  12.726  71.060  1.00  0.00     1.599 NA 
HETATM   33  N   UNL     1     -10.259  10.670  70.495  1.00  0.00     0.563 NA 
HETATM   34  C   UNL     1     -10.503  10.239  71.744  1.00  0.00     2.617 A  
HETATM   35  C   UNL     1     -11.546  12.243  72.297  1.00  0.00     4.935 A  
HETATM   36  C   UNL     1     -11.145  10.992  72.698  1.00  0.00     8.158 A  
ENDBRANCH  14  31
BRANCH  15  37
HETATM   37  O   UNL     1     -10.412  15.592  67.159  1.00  0.00    -0.275 OA 
BRANCH  37  38
HETATM   38  C   UNL     1      -9.488  16.242  66.278  1.00  0.00    -0.316 C  
BRANCH  38  39
HETATM   39  C   UNL     1      -9.245  17.680  66.726  1.00  0.00    -0.271 C  
HETATM   40  O   UNL     1      -9.944  18.594  65.888  1.00  0.00    -0.517 OA 
HETATM   41  H   UNL     1      -9.793  19.489  66.168  1.00  0.00     0.000 HD 
ENDBRANCH  38  39
ENDBRANCH  37  38
ENDBRANCH  15  37
ENDBRANCH   9  10
ENDBRANCH   8   9
ENDBRANCH   2   3
TORSDOF 11
ENDMDL
MODEL      239
REMARK 921   NORMALIZED FREE ENERGY PREDICTED BY IDOCK:   81.35 KCAL/MOL
REMARK 922        TOTAL FREE ENERGY PREDICTED BY IDOCK:  131.20 KCAL/MOL
REMARK 923 INTER-LIGAND FREE ENERGY PREDICTED BY IDOCK:   54.10 KCAL/MOL
REMARK 924 INTRA-LIGAND FREE ENERGY PREDICTED BY IDOCK:   77.10 KCAL/MOL
REMARK 927      BINDING AFFINITY PREDICTED BY RF-SCORE:    0.00 PKD
ROOT
HETATM    1  C   UNL     1     -11.950  16.751  67.743  1.00  0.00     1.158 C  
HETATM    2  O   UNL     1     -11.466  17.289  66.512  1.00  0.00     0.746 OA 
ENDROOT
BRANCH   2   3
HETATM    3  C   UNL     1     -10.284  17.986  66.554  1.00  0.00    -0.382 A  
HETATM    4  C   UNL     1     -10.059  19.146  65.792  1.00  0.00    -0.174 A  
HETATM    5  C   UNL     1      -8.822  19.797  65.811  1.00  0.00     0.009 A  
HETATM    6  C   UNL     1      -7.794  19.313  66.608  1.00  0.00    -0.284 A  
HETATM    7  C   UNL     1      -8.003  18.177  67.381  1.00  0.00    -0.229 A  
HETATM    8  C   UNL     1      -9.237  17.507  67.368  1.00  0.00    -0.238 A  
BRANCH   8   9
HETATM    9  O   UNL     1      -9.202  16.371  68.151  1.00  0.00    -0.196 OA 
BRANCH   9  10
HETATM   10  C   UNL     1      -9.488  15.143  67.649  1.00  0.00    -0.201 A  
HETATM   11  C   UNL     1      -8.601  14.227  67.127  1.00  0.00    -0.216 A  
HETATM   12  N   UNL     1      -8.935  12.994  66.727  1.00  0.00    -0.207 NA 
HETATM   13  N   UNL     1     -11.206  13.511  67.222  1.00  0.00    -0.289 NA 
HETATM   14  C   UNL     1     -10.238  12.658  66.833  1.00  0.00    -0.234 A  
HETATM   15  C   UNL     1     -10.812  14.740  67.598  1.00  0.00    -0.285 A  
BRANCH  11  16
HETATM   16  N   UNL     1      -7.213  14.428  66.938  1.00  0.00     0.000 N  
HETATM   17  H   UNL     1      -6.604  13.635  66.732  1.00  0.00     0.000 HD 
BRANCH  16  18
HETATM   18  S   UNL     1      -6.572  15.971  67.052  1.00  0.00     0.064 S  
HETATM   19  O   UNL     1      -5.154  15.867  67.349  1.00  0.00    -0.271 OA 
HETATM   20  O   UNL     1      -7.019  16.680  65.868  1.00  0.00     0.161 OA 
BRANCH  18  21
HETATM   21  C   UNL     1      -7.344  16.733  68.457  1.00  0.00    -0.205 A  
HETATM   22  C   UNL     1      -8.539  17.890  70.737  1.00  0.00     5.635 A  
HETATM   23  C   UNL     1      -7.025  16.262  69.729  1.00  0.00     0.034 A  
HETATM   24  C   UNL     1      -7.621  16.833  70.852  1.00  0.00     4.420 A  
HETATM   25  C   UNL     1      -8.792  18.394  69.443  1.00  0.00     0.410 A  
HETATM   26  C   UNL     1      -8.197  17.825  68.307  1.00  0.00    -0.285 A  
BRANCH  22  27
HETATM   27  C   UNL     1      -9.278  18.453  71.967  1.00  0.00    10.422 C  
HETATM   28  C   UNL     1      -9.669  17.363  72.994  1.00  0.00    11.029 C  
HETATM   29  C   UNL     1     -10.587  19.132  71.511  1.00  0.00     3.277 C  
HETATM   30  C   UNL     1      -8.403  19.484  72.706  1.00  0.00     4.785 C  
ENDBRANCH  22  27
ENDBRANCH  18  21
ENDBRANCH  16  18
ENDBRANCH  11  16
BRANCH  14  31
HETATM   31  C   UNL     1     -10.607  11.239  66.596  1.00  0.00    -0.262 A  
HETATM   32  N   UNL     1     -11.557  10.692  67.392  1.00  0.00    -0.360 NA 
HETATM   33  N   UNL     1      -9.920  10.546  65.655  1.00  0.00    -0.254 NA 
HETATM   34  C   UNL     1     -10.231   9.246  65.519  1.00  0.00     0.446 A  
HETATM   35  C   UNL     1     -11.816   9.386  67.217  1.00  0.00     3.381 A  
HETATM   36  C   UNL     1     -11.178   8.605  66.283  1.00  0.00     2.406 A  
ENDBRANCH  14  31
BRANCH  15  37
HETATM   37  O   UNL     1     -11.783  15.667  67.929  1.00  0.00    -0.262 OA 
BRANCH  37  38
HETATM   38  C   UNL     1     -11.592  16.991  67.414  1.00  0.00     0.819 C  
BRANCH  38  39
HETATM   39  C   UNL     1     -12.818  17.854  67.692  1.00  0.00     6.371 C  
HETATM   40  O   UNL     1     -12.598  19.194  67.264  1.00  0.00     3.360 OA 
HETATM   41  H   UNL     1     -13.362  19.732  67.437  1.00  0.00     0.000 HD 
ENDBRANCH  38  39
ENDBRANCH  37  38
ENDBRANCH  15  37
ENDBRANCH   9  10
ENDBRANCH   8   9
ENDBRANCH   2   3
TORSDOF 11
ENDMDL
