MODEL        1
REMARK 921   NORMALIZED FREE ENERGY PREDICTED BY IDOCK:   -7.33 KCAL/MOL
REMARK 922        TOTAL FREE ENERGY PREDICTED BY IDOCK:  -12.52 KCAL/MOL
REMARK 923 INTER-LIGAND FREE ENERGY PREDICTED BY IDOCK:  -11.18 KCAL/MOL
REMARK 924 INTRA-LIGAND FREE ENERGY PREDICTED BY IDOCK:   -1.34 KCAL/MOL
REMARK 927      BINDING AFFINITY PREDICTED BY RF-SCORE:    0.00 PKD
ROOT
HETATM    1  C   UNL     1     -10.354  19.398  65.806  1.00  0.00    -0.349 C  
HETATM    2  O   UNL     1      -9.530  18.321  66.243  1.00  0.00    -0.390 OA 
ENDROOT
BRANCH   2   3
HETATM    3  C   UNL     1     -10.116  17.444  67.121  1.00  0.00    -0.307 A  
HETATM    4  C   UNL     1     -10.822  16.309  66.705  1.00  0.00    -0.125 A  
HETATM    5  C   UNL     1     -11.420  15.432  67.623  1.00  0.00    -0.251 A  
HETATM    6  C   UNL     1     -11.289  15.726  68.992  1.00  0.00    -0.354 A  
HETATM    7  C   UNL     1     -10.035  17.728  68.489  1.00  0.00    -0.370 A  
HETATM    8 CL   UNL     1     -11.972  14.678  70.187  1.00  0.00    -0.346 Cl 
HETATM    9  C   UNL     1     -10.607  16.867  69.425  1.00  0.00    -0.292 A  
HETATM   10 CL   UNL     1      -9.201  19.127  69.070  1.00  0.00    -0.349 Cl 
BRANCH   5  11
HETATM   11  N   UNL     1     -12.216  14.340  67.188  1.00  0.00    -0.589 NA 
HETATM   12  H   UNL     1     -13.171  14.321  67.544  1.00  0.00     0.000 HD 
BRANCH  11  13
HETATM   13  C   UNL     1     -11.863  13.271  66.323  1.00  0.00    -0.395 A  
HETATM   14  C   UNL     1     -12.203  14.662  64.274  1.00  0.00    -0.408 C  
HETATM   15  C   UNL     1     -11.795  13.461  64.927  1.00  0.00    -0.403 A  
HETATM   16  C   UNL     1     -11.324  12.422  64.147  1.00  0.00    -0.379 A  
HETATM   17  N   UNL     1     -10.903  11.239  64.636  1.00  0.00    -0.299 NA 
HETATM   18  N   UNL     1     -12.499  15.630  63.706  1.00  0.00    -0.454 NA 
HETATM   19  C   UNL     1     -10.960  11.049  65.959  1.00  0.00    -0.067 A  
HETATM   20  C   UNL     1     -10.491   9.839  66.440  1.00  0.00    -0.190 A  
HETATM   21  C   UNL     1     -10.462   9.541  67.806  1.00  0.00    -0.254 A  
HETATM   22  C   UNL     1     -11.449  12.019  66.862  1.00  0.00    -0.402 A  
HETATM   23  C   UNL     1     -10.967  10.472  68.713  1.00  0.00    -0.251 A  
HETATM   24  C   UNL     1     -11.471  11.689  68.239  1.00  0.00    -0.369 A  
BRANCH  21  25
HETATM   25  O   UNL     1     -10.036   8.325  68.266  1.00  0.00    -0.177 OA 
BRANCH  25  26
HETATM   26  C   UNL     1     -10.497   7.196  67.512  1.00  0.00    -0.260 C  
BRANCH  26  27
HETATM   27  C   UNL     1     -10.749   6.071  68.504  1.00  0.00    -0.354 C  
BRANCH  27  28
HETATM   28  C   UNL     1     -11.366   6.562  69.815  1.00  0.00    -0.393 C  
BRANCH  28  29
HETATM   29  N   UNL     1     -10.818   5.933  71.029  1.00  0.00    -0.273 NA 
HETATM   30  C   UNL     1      -9.362   6.141  71.187  1.00  0.00    -0.164 C  
HETATM   31  C   UNL     1      -8.958   7.598  71.514  1.00  0.00    -0.131 C  
HETATM   32  N   UNL     1      -9.632   8.165  72.699  1.00  0.00    -0.258 NA 
HETATM   33  C   UNL     1     -11.088   7.924  72.609  1.00  0.00    -0.385 C  
HETATM   34  C   UNL     1      -9.080   7.610  73.934  1.00  0.00    -0.261 C  
HETATM   35  C   UNL     1     -11.493   6.474  72.235  1.00  0.00    -0.289 C  
ENDBRANCH  28  29
ENDBRANCH  27  28
ENDBRANCH  26  27
ENDBRANCH  25  26
ENDBRANCH  21  25
BRANCH  23  36
HETATM   36  O   UNL     1     -11.067  10.311  70.070  1.00  0.00    -0.267 OA 
HETATM   37  C   UNL     1     -12.094  11.072  70.699  1.00  0.00    -0.373 C  
ENDBRANCH  23  36
ENDBRANCH  11  13
ENDBRANCH   5  11
ENDBRANCH   2   3
TORSDOF 9
ENDMDL
MODEL        2
REMARK 921   NORMALIZED FREE ENERGY PREDICTED BY IDOCK:   -7.31 KCAL/MOL
REMARK 922        TOTAL FREE ENERGY PREDICTED BY IDOCK:  -12.50 KCAL/MOL
REMARK 923 INTER-LIGAND FREE ENERGY PREDICTED BY IDOCK:  -11.46 KCAL/MOL
REMARK 924 INTRA-LIGAND FREE ENERGY PREDICTED BY IDOCK:   -1.04 KCAL/MOL
REMARK 927      BINDING AFFINITY PREDICTED BY RF-SCORE:    0.00 PKD
ROOT
HETATM    1  C   UNL     1     -10.729  20.316  65.611  1.00  0.00    -0.015 C  
HETATM    2  O   UNL     1      -9.729  20.290  66.627  1.00  0.00    -0.415 OA 
ENDROOT
BRANCH   2   3
HETATM    3  C   UNL     1      -9.600  19.102  67.301  1.00  0.00    -0.314 A  
HETATM    4  C   UNL     1     -10.646  18.180  67.425  1.00  0.00    -0.406 A  
HETATM    5  C   UNL     1     -10.491  16.975  68.127  1.00  0.00    -0.357 A  
HETATM    6  C   UNL     1      -9.238  16.713  68.713  1.00  0.00    -0.253 A  
HETATM    7  C   UNL     1      -8.377  18.828  67.925  1.00  0.00    -0.276 A  
HETATM    8 CL   UNL     1      -8.959  15.236  69.570  1.00  0.00    -0.225 Cl 
HETATM    9  C   UNL     1      -8.190  17.632  68.618  1.00  0.00    -0.264 A  
HETATM   10 CL   UNL     1      -7.052  19.935  67.835  1.00  0.00    -0.307 Cl 
BRANCH   5  11
HETATM   11  N   UNL     1     -11.586  16.095  68.330  1.00  0.00    -0.310 NA 
HETATM   12  H   UNL     1     -12.426  16.519  68.722  1.00  0.00     0.000 HD 
BRANCH  11  13
HETATM   13  C   UNL     1     -11.670  14.703  68.061  1.00  0.00    -0.342 A  
HETATM   14  C   UNL     1     -10.902  14.994  65.702  1.00  0.00    -0.349 C  
HETATM   15  C   UNL     1     -11.272  14.182  66.814  1.00  0.00    -0.330 A  
HETATM   16  C   UNL     1     -11.256  12.809  66.652  1.00  0.00    -0.301 A  
HETATM   17  N   UNL     1     -11.578  11.929  67.621  1.00  0.00    -0.454 NA 
HETATM   18  N   UNL     1     -10.568  15.617  64.780  1.00  0.00    -0.456 NA 
HETATM   19  C   UNL     1     -11.953  12.413  68.811  1.00  0.00    -0.229 A  
HETATM   20  C   UNL     1     -12.246  11.490  69.800  1.00  0.00    -0.310 A  
HETATM   21  C   UNL     1     -12.611  11.875  71.093  1.00  0.00    -0.288 A  
HETATM   22  C   UNL     1     -12.041  13.794  69.095  1.00  0.00    -0.374 A  
HETATM   23  C   UNL     1     -12.732  13.233  71.387  1.00  0.00    -0.309 A  
HETATM   24  C   UNL     1     -12.466  14.178  70.389  1.00  0.00    -0.424 A  
BRANCH  21  25
HETATM   25  O   UNL     1     -12.939  10.954  72.050  1.00  0.00    -0.457 OA 
BRANCH  25  26
HETATM   26  C   UNL     1     -13.257   9.648  71.551  1.00  0.00    -0.399 C  
BRANCH  26  27
HETATM   27  C   UNL     1     -12.377   8.659  72.301  1.00  0.00    -0.449 C  
BRANCH  27  28
HETATM   28  C   UNL     1     -12.230   7.323  71.572  1.00  0.00    -0.352 C  
BRANCH  28  29
HETATM   29  N   UNL     1     -10.841   6.864  71.397  1.00  0.00    -0.226 NA 
HETATM   30  C   UNL     1     -10.705   5.779  70.401  1.00  0.00    -0.302 C  
HETATM   31  C   UNL     1     -10.958   6.221  68.940  1.00  0.00    -0.368 C  
HETATM   32  N   UNL     1     -10.126   7.356  68.495  1.00  0.00    -0.170 NA 
HETATM   33  C   UNL     1     -10.185   8.442  69.496  1.00  0.00    -0.207 C  
HETATM   34  C   UNL     1      -8.746   6.935  68.254  1.00  0.00    -0.123 C  
HETATM   35  C   UNL     1      -9.978   7.993  70.967  1.00  0.00    -0.182 C  
ENDBRANCH  28  29
ENDBRANCH  27  28
ENDBRANCH  26  27
ENDBRANCH  25  26
ENDBRANCH  21  25
BRANCH  23  36
HETATM   36  O   UNL     1     -13.136  13.772  72.581  1.00  0.00    -0.450 OA 
HETATM   37  C   UNL     1     -13.695  15.079  72.500  1.00  0.00    -0.469 C  
ENDBRANCH  23  36
ENDBRANCH  11  13
ENDBRANCH   5  11
ENDBRANCH   2   3
TORSDOF 9
ENDMDL
MODEL        3
REMARK 921   NORMALIZED FREE ENERGY PREDICTED BY IDOCK:   -7.15 KCAL/MOL
REMARK 922        TOTAL FREE ENERGY PREDICTED BY IDOCK:  -12.26 KCAL/MOL
REMARK 923 INTER-LIGAND FREE ENERGY PREDICTED BY IDOCK:  -10.86 KCAL/MOL
REMARK 924 INTRA-LIGAND FREE ENERGY PREDICTED BY IDOCK:   -1.40 KCAL/MOL
REMARK 927      BINDING AFFINITY PREDICTED BY RF-SCORE:    0.00 PKD
ROOT
HETATM    1  C   UNL     1      -6.884   8.544  71.475  1.00  0.00    -0.079 C  
HETATM    2  O   UNL     1      -7.811   8.825  72.520  1.00  0.00    -0.363 OA 
ENDROOT
BRANCH   2   3
HETATM    3  C   UNL     1      -9.127   8.566  72.232  1.00  0.00    -0.248 A  
HETATM    4  C   UNL     1      -9.793   9.138  71.141  1.00  0.00    -0.371 A  
HETATM    5  C   UNL     1     -11.143   8.863  70.871  1.00  0.00    -0.271 A  
HETATM    6  C   UNL     1     -11.819   7.985  71.737  1.00  0.00    -0.296 A  
HETATM    7  C   UNL     1      -9.838   7.724  73.095  1.00  0.00    -0.298 A  
HETATM    8 CL   UNL     1     -13.476   7.573  71.455  1.00  0.00    -0.426 Cl 
HETATM    9  C   UNL     1     -11.177   7.423  72.844  1.00  0.00    -0.368 A  
HETATM   10 CL   UNL     1      -9.085   7.006  74.475  1.00  0.00    -0.238 Cl 
BRANCH   5  11
HETATM   11  N   UNL     1     -11.834   9.524  69.823  1.00  0.00    -0.427 NA 
HETATM   12  H   UNL     1     -12.841   9.371  69.793  1.00  0.00     0.000 HD 
BRANCH  11  13
HETATM   13  C   UNL     1     -11.312  10.371  68.809  1.00  0.00    -0.214 A  
HETATM   14  C   UNL     1     -10.573   8.438  67.410  1.00  0.00    -0.243 C  
HETATM   15  C   UNL     1     -10.771   9.833  67.624  1.00  0.00    -0.334 A  
HETATM   16  C   UNL     1     -10.394  10.706  66.621  1.00  0.00    -0.241 A  
HETATM   17  N   UNL     1     -10.531  12.045  66.692  1.00  0.00    -0.212 NA 
HETATM   18  N   UNL     1     -10.419   7.309  67.185  1.00  0.00    -0.293 NA 
HETATM   19  C   UNL     1     -11.047  12.567  67.812  1.00  0.00    -0.249 A  
HETATM   20  C   UNL     1     -11.207  13.941  67.848  1.00  0.00    -0.302 A  
HETATM   21  C   UNL     1     -11.772  14.596  68.946  1.00  0.00    -0.309 A  
HETATM   22  C   UNL     1     -11.441  11.787  68.921  1.00  0.00    -0.357 A  
HETATM   23  C   UNL     1     -12.142  13.848  70.064  1.00  0.00    -0.345 A  
HETATM   24  C   UNL     1     -11.959  12.460  70.053  1.00  0.00    -0.372 A  
BRANCH  21  25
HETATM   25  O   UNL     1     -11.887  15.958  68.987  1.00  0.00    -0.389 OA 
BRANCH  25  26
HETATM   26  C   UNL     1     -11.095  16.663  68.023  1.00  0.00    -0.255 C  
BRANCH  26  27
HETATM   27  C   UNL     1     -10.061  17.466  68.798  1.00  0.00    -0.346 C  
BRANCH  27  28
HETATM   28  C   UNL     1      -8.638  17.263  68.275  1.00  0.00    -0.247 C  
BRANCH  28  29
HETATM   29  N   UNL     1      -7.779  18.458  68.343  1.00  0.00    -0.288 NA 
HETATM   30  C   UNL     1      -6.467  18.271  67.685  1.00  0.00    -0.191 C  
HETATM   31  C   UNL     1      -6.537  18.159  66.144  1.00  0.00    -0.246 C  
HETATM   32  N   UNL     1      -7.223  19.287  65.483  1.00  0.00    -0.449 NA 
HETATM   33  C   UNL     1      -8.516  19.547  66.152  1.00  0.00    -0.314 C  
HETATM   34  C   UNL     1      -6.382  20.483  65.476  1.00  0.00    -0.249 C  
HETATM   35  C   UNL     1      -8.455  19.612  67.701  1.00  0.00    -0.319 C  
ENDBRANCH  28  29
ENDBRANCH  27  28
ENDBRANCH  26  27
ENDBRANCH  25  26
ENDBRANCH  21  25
BRANCH  23  36
HETATM   36  O   UNL     1     -12.650  14.341  71.237  1.00  0.00    -0.322 OA 
HETATM   37  C   UNL     1     -13.070  13.357  72.178  1.00  0.00    -0.388 C  
ENDBRANCH  23  36
ENDBRANCH  11  13
ENDBRANCH   5  11
ENDBRANCH   2   3
TORSDOF 9
ENDMDL
MODEL        4
REMARK 921   NORMALIZED FREE ENERGY PREDICTED BY IDOCK:   -7.04 KCAL/MOL
REMARK 922        TOTAL FREE ENERGY PREDICTED BY IDOCK:  -12.09 KCAL/MOL
REMARK 923 INTER-LIGAND FREE ENERGY PREDICTED BY IDOCK:  -10.82 KCAL/MOL
REMARK 924 INTRA-LIGAND FREE ENERGY PREDICTED BY IDOCK:   -1.27 KCAL/MOL
REMARK 927      BINDING AFFINITY PREDICTED BY RF-SCORE:    0.00 PKD
ROOT
HETATM    1  C   UNL     1      -8.721   7.912  73.375  1.00  0.00    -0.249 C  
HETATM    2  O   UNL     1      -8.114   8.732  72.379  1.00  0.00    -0.368 OA 
ENDROOT
BRANCH   2   3
HETATM    3  C   UNL     1      -8.736   8.738  71.157  1.00  0.00    -0.212 A  
HETATM    4  C   UNL     1      -9.892   9.484  70.895  1.00  0.00    -0.279 A  
HETATM    5  C   UNL     1     -10.515   9.468  69.638  1.00  0.00    -0.223 A  
HETATM    6  C   UNL     1      -9.939   8.671  68.631  1.00  0.00    -0.183 A  
HETATM    7  C   UNL     1      -8.209   7.929  70.144  1.00  0.00    -0.125 A  
HETATM    8 CL   UNL     1     -10.631   8.621  67.046  1.00  0.00    -0.347 Cl 
HETATM    9  C   UNL     1      -8.799   7.903  68.880  1.00  0.00    -0.142 A  
HETATM   10 CL   UNL     1      -6.800   6.962  70.406  1.00  0.00    -0.056 Cl 
BRANCH   5  11
HETATM   11  N   UNL     1     -11.740  10.148  69.414  1.00  0.00    -0.476 NA 
HETATM   12  H   UNL     1     -12.360   9.724  68.725  1.00  0.00     0.000 HD 
BRANCH  11  13
HETATM   13  C   UNL     1     -12.220  11.339  70.020  1.00  0.00    -0.314 A  
HETATM   14  C   UNL     1     -13.285  10.090  71.904  1.00  0.00    -0.452 C  
HETATM   15  C   UNL     1     -12.902  11.300  71.254  1.00  0.00    -0.491 A  
HETATM   16  C   UNL     1     -13.234  12.498  71.857  1.00  0.00    -0.392 A  
HETATM   17  N   UNL     1     -12.928  13.710  71.352  1.00  0.00    -0.352 NA 
HETATM   18  N   UNL     1     -13.592   9.130  72.480  1.00  0.00    -0.476 NA 
HETATM   19  C   UNL     1     -12.278  13.759  70.184  1.00  0.00    -0.356 A  
HETATM   20  C   UNL     1     -11.945  15.014  69.703  1.00  0.00    -0.356 A  
HETATM   21  C   UNL     1     -11.231  15.190  68.514  1.00  0.00    -0.293 A  
HETATM   22  C   UNL     1     -11.909  12.609  69.452  1.00  0.00    -0.356 A  
HETATM   23  C   UNL     1     -10.883  14.069  67.760  1.00  0.00    -0.247 A  
HETATM   24  C   UNL     1     -11.237  12.795  68.220  1.00  0.00    -0.308 A  
BRANCH  21  25
HETATM   25  O   UNL     1     -10.946  16.436  68.027  1.00  0.00    -0.345 OA 
BRANCH  25  26
HETATM   26  C   UNL     1     -10.362  17.339  68.976  1.00  0.00    -0.330 C  
BRANCH  26  27
HETATM   27  C   UNL     1     -10.160  18.666  68.260  1.00  0.00    -0.431 C  
BRANCH  27  28
HETATM   28  C   UNL     1      -8.819  19.322  68.593  1.00  0.00    -0.374 C  
BRANCH  28  29
HETATM   29  N   UNL     1      -8.295  20.219  67.548  1.00  0.00    -0.327 NA 
HETATM   30  C   UNL     1      -6.899  20.646  67.792  1.00  0.00    -0.323 C  
HETATM   31  C   UNL     1      -5.852  19.518  67.634  1.00  0.00    -0.187 C  
HETATM   32  N   UNL     1      -5.897  18.824  66.332  1.00  0.00    -0.153 NA 
HETATM   33  C   UNL     1      -7.289  18.434  66.021  1.00  0.00    -0.238 C  
HETATM   34  C   UNL     1      -5.333  19.658  65.271  1.00  0.00    -0.161 C  
HETATM   35  C   UNL     1      -8.347  19.551  66.225  1.00  0.00    -0.345 C  
ENDBRANCH  28  29
ENDBRANCH  27  28
ENDBRANCH  26  27
ENDBRANCH  25  26
ENDBRANCH  21  25
BRANCH  23  36
HETATM   36  O   UNL     1     -10.240  14.074  66.550  1.00  0.00    -0.268 OA 
HETATM   37  C   UNL     1     -10.609  13.024  65.662  1.00  0.00    -0.282 C  
ENDBRANCH  23  36
ENDBRANCH  11  13
ENDBRANCH   5  11
ENDBRANCH   2   3
TORSDOF 9
ENDMDL
MODEL        5
REMARK 921   NORMALIZED FREE ENERGY PREDICTED BY IDOCK:   -7.03 KCAL/MOL
REMARK 922        TOTAL FREE ENERGY PREDICTED BY IDOCK:  -12.07 KCAL/MOL
REMARK 923 INTER-LIGAND FREE ENERGY PREDICTED BY IDOCK:   -9.91 KCAL/MOL
REMARK 924 INTRA-LIGAND FREE ENERGY PREDICTED BY IDOCK:   -2.15 KCAL/MOL
REMARK 927      BINDING AFFINITY PREDICTED BY RF-SCORE:    0.00 PKD
ROOT
HETATM    1  C   UNL     1     -12.158  11.648  70.380  1.00  0.00    -0.373 C  
HETATM    2  O   UNL     1     -12.474  13.003  70.689  1.00  0.00    -0.331 OA 
ENDROOT
BRANCH   2   3
HETATM    3  C   UNL     1     -11.975  13.941  69.821  1.00  0.00    -0.338 A  
HETATM    4  C   UNL     1     -11.397  13.607  68.590  1.00  0.00    -0.321 A  
HETATM    5  C   UNL     1     -10.886  14.585  67.723  1.00  0.00    -0.264 A  
HETATM    6  C   UNL     1     -10.971  15.930  68.128  1.00  0.00    -0.335 A  
HETATM    7  C   UNL     1     -12.012  15.285  70.210  1.00  0.00    -0.330 A  
HETATM    8 CL   UNL     1     -10.391  17.196  67.102  1.00  0.00    -0.309 Cl 
HETATM    9  C   UNL     1     -11.524  16.280  69.362  1.00  0.00    -0.238 A  
HETATM   10 CL   UNL     1     -12.686  15.765  71.728  1.00  0.00    -0.505 Cl 
BRANCH   5  11
HETATM   11  N   UNL     1     -10.215  14.229  66.525  1.00  0.00    -0.270 NA 
HETATM   12  H   UNL     1      -9.387  14.780  66.302  1.00  0.00     0.000 HD 
BRANCH  11  13
HETATM   13  C   UNL     1     -10.539  13.207  65.594  1.00  0.00    -0.277 A  
HETATM   14  C   UNL     1     -12.124  14.683  64.348  1.00  0.00    -0.462 C  
HETATM   15  C   UNL     1     -11.407  13.462  64.512  1.00  0.00    -0.391 A  
HETATM   16  C   UNL     1     -11.586  12.468  63.568  1.00  0.00    -0.508 A  
HETATM   17  N   UNL     1     -10.967  11.272  63.602  1.00  0.00    -0.362 NA 
HETATM   18  N   UNL     1     -12.706  15.671  64.162  1.00  0.00    -0.464 NA 
HETATM   19  C   UNL     1     -10.139  11.020  64.622  1.00  0.00    -0.311 A  
HETATM   20  C   UNL     1      -9.490   9.797  64.617  1.00  0.00    -0.295 A  
HETATM   21  C   UNL     1      -8.571   9.438  65.607  1.00  0.00    -0.142 A  
HETATM   22  C   UNL     1      -9.893  11.938  65.667  1.00  0.00    -0.266 A  
HETATM   23  C   UNL     1      -8.336  10.317  66.664  1.00  0.00    -0.125 A  
HETATM   24  C   UNL     1      -9.006  11.546  66.698  1.00  0.00    -0.185 A  
BRANCH  21  25
HETATM   25  O   UNL     1      -7.968   8.210  65.614  1.00  0.00    -0.096 OA 
BRANCH  25  26
HETATM   26  C   UNL     1      -8.747   7.156  66.195  1.00  0.00    -0.151 C  
BRANCH  26  27
HETATM   27  C   UNL     1      -7.973   6.643  67.400  1.00  0.00    -0.114 C  
BRANCH  27  28
HETATM   28  C   UNL     1      -8.717   6.858  68.719  1.00  0.00    -0.129 C  
BRANCH  28  29
HETATM   29  N   UNL     1     -10.156   7.139  68.577  1.00  0.00    -0.163 NA 
HETATM   30  C   UNL     1     -11.017   6.078  69.144  1.00  0.00    -0.359 C  
HETATM   31  C   UNL     1     -10.980   5.984  70.687  1.00  0.00    -0.307 C  
HETATM   32  N   UNL     1     -11.296   7.248  71.381  1.00  0.00    -0.248 NA 
HETATM   33  C   UNL     1     -10.500   8.350  70.801  1.00  0.00    -0.197 C  
HETATM   34  C   UNL     1     -12.728   7.540  71.315  1.00  0.00    -0.302 C  
HETATM   35  C   UNL     1     -10.498   8.417  69.251  1.00  0.00    -0.215 C  
ENDBRANCH  28  29
ENDBRANCH  27  28
ENDBRANCH  26  27
ENDBRANCH  25  26
ENDBRANCH  21  25
BRANCH  23  36
HETATM   36  O   UNL     1      -7.516  10.092  67.740  1.00  0.00    -0.088 OA 
HETATM   37  C   UNL     1      -7.793  10.884  68.890  1.00  0.00    -0.142 C  
ENDBRANCH  23  36
ENDBRANCH  11  13
ENDBRANCH   5  11
ENDBRANCH   2   3
TORSDOF 9
ENDMDL
MODEL        6
REMARK 921   NORMALIZED FREE ENERGY PREDICTED BY IDOCK:   -6.97 KCAL/MOL
REMARK 922        TOTAL FREE ENERGY PREDICTED BY IDOCK:  -11.98 KCAL/MOL
REMARK 923 INTER-LIGAND FREE ENERGY PREDICTED BY IDOCK:  -10.20 KCAL/MOL
REMARK 924 INTRA-LIGAND FREE ENERGY PREDICTED BY IDOCK:   -1.78 KCAL/MOL
REMARK 927      BINDING AFFINITY PREDICTED BY RF-SCORE:    0.00 PKD
ROOT
HETATM    1  C   UNL     1     -10.302  15.492  69.781  1.00  0.00    -0.309 C  
HETATM    2  O   UNL     1     -10.048  16.126  68.530  1.00  0.00    -0.228 OA 
ENDROOT
BRANCH   2   3
HETATM    3  C   UNL     1     -10.562  15.490  67.428  1.00  0.00    -0.292 A  
HETATM    4  C   UNL     1     -11.035  14.172  67.462  1.00  0.00    -0.292 A  
HETATM    5  C   UNL     1     -11.548  13.540  66.319  1.00  0.00    -0.345 A  
HETATM    6  C   UNL     1     -11.577  14.276  65.121  1.00  0.00    -0.355 A  
HETATM    7  C   UNL     1     -10.571  16.182  66.212  1.00  0.00    -0.274 A  
HETATM    8 CL   UNL     1     -12.222  13.577  63.675  1.00  0.00    -0.504 Cl 
HETATM    9  C   UNL     1     -11.089  15.584  65.063  1.00  0.00    -0.411 A  
HETATM   10 CL   UNL     1      -9.978  17.801  66.093  1.00  0.00    -0.309 Cl 
BRANCH   5  11
HETATM   11  N   UNL     1     -11.932  12.174  66.343  1.00  0.00    -0.621 NA 
HETATM   12  H   UNL     1     -12.884  11.978  66.036  1.00  0.00     0.000 HD 
BRANCH  11  13
HETATM   13  C   UNL     1     -11.169  11.043  66.735  1.00  0.00    -0.089 A  
HETATM   14  C   UNL     1     -10.194  10.762  64.452  1.00  0.00    -0.364 C  
HETATM   15  C   UNL     1     -10.286  10.417  65.832  1.00  0.00    -0.302 A  
HETATM   16  C   UNL     1      -9.477   9.401  66.305  1.00  0.00    -0.214 A  
HETATM   17  N   UNL     1      -9.461   8.980  67.585  1.00  0.00    -0.139 NA 
HETATM   18  N   UNL     1     -10.069  11.029  63.329  1.00  0.00    -0.355 NA 
HETATM   19  C   UNL     1     -10.293   9.569  68.452  1.00  0.00    -0.206 A  
HETATM   20  C   UNL     1     -10.234   9.143  69.768  1.00  0.00    -0.219 A  
HETATM   21  C   UNL     1     -11.025   9.711  70.770  1.00  0.00    -0.327 A  
HETATM   22  C   UNL     1     -11.191  10.597  68.089  1.00  0.00    -0.366 A  
HETATM   23  C   UNL     1     -11.940  10.707  70.429  1.00  0.00    -0.346 A  
HETATM   24  C   UNL     1     -12.030  11.129  69.097  1.00  0.00    -0.413 A  
BRANCH  21  25
HETATM   25  O   UNL     1     -10.989   9.252  72.059  1.00  0.00    -0.315 OA 
BRANCH  25  26
HETATM   26  C   UNL     1     -11.738   8.053  72.296  1.00  0.00    -0.371 C  
BRANCH  26  27
HETATM   27  C   UNL     1     -10.859   7.140  73.138  1.00  0.00    -0.373 C  
BRANCH  27  28
HETATM   28  C   UNL     1      -9.457   6.960  72.553  1.00  0.00    -0.138 C  
BRANCH  28  29
HETATM   29  N   UNL     1      -9.122   5.578  72.168  1.00  0.00    -0.143 NA 
HETATM   30  C   UNL     1     -10.196   4.910  71.400  1.00  0.00    -0.187 C  
HETATM   31  C   UNL     1     -10.404   5.473  69.975  1.00  0.00    -0.288 C  
HETATM   32  N   UNL     1      -9.187   5.486  69.140  1.00  0.00    -0.114 NA 
HETATM   33  C   UNL     1      -8.070   6.092  69.896  1.00  0.00    -0.119 C  
HETATM   34  C   UNL     1      -8.846   4.138  68.686  1.00  0.00    -0.104 C  
HETATM   35  C   UNL     1      -7.888   5.562  71.343  1.00  0.00    -0.110 C  
ENDBRANCH  28  29
ENDBRANCH  27  28
ENDBRANCH  26  27
ENDBRANCH  25  26
ENDBRANCH  21  25
BRANCH  23  36
HETATM   36  O   UNL     1     -12.826  11.321  71.276  1.00  0.00    -0.393 OA 
HETATM   37  C   UNL     1     -12.840  12.743  71.214  1.00  0.00    -0.262 C  
ENDBRANCH  23  36
ENDBRANCH  11  13
ENDBRANCH   5  11
ENDBRANCH   2   3
TORSDOF 9
ENDMDL
MODEL        7
REMARK 921   NORMALIZED FREE ENERGY PREDICTED BY IDOCK:   -6.96 KCAL/MOL
REMARK 922        TOTAL FREE ENERGY PREDICTED BY IDOCK:  -11.96 KCAL/MOL
REMARK 923 INTER-LIGAND FREE ENERGY PREDICTED BY IDOCK:  -10.24 KCAL/MOL
REMARK 924 INTRA-LIGAND FREE ENERGY PREDICTED BY IDOCK:   -1.73 KCAL/MOL
REMARK 927      BINDING AFFINITY PREDICTED BY RF-SCORE:    0.00 PKD
ROOT
HETATM    1  C   UNL     1      -7.214  16.776  69.128  1.00  0.00    -0.214 C  
HETATM    2  O   UNL     1      -8.388  17.476  68.724  1.00  0.00    -0.275 OA 
ENDROOT
BRANCH   2   3
HETATM    3  C   UNL     1      -9.224  16.793  67.877  1.00  0.00    -0.225 A  
HETATM    4  C   UNL     1     -10.247  15.952  68.333  1.00  0.00    -0.226 A  
HETATM    5  C   UNL     1     -11.084  15.257  67.447  1.00  0.00    -0.326 A  
HETATM    6  C   UNL     1     -10.867  15.431  66.068  1.00  0.00    -0.314 A  
HETATM    7  C   UNL     1      -9.012  16.916  66.499  1.00  0.00    -0.272 A  
HETATM    8 CL   UNL     1     -11.876  14.632  64.911  1.00  0.00    -0.396 Cl 
HETATM    9  C   UNL     1      -9.838  16.248  65.595  1.00  0.00    -0.255 A  
HETATM   10 CL   UNL     1      -7.751  17.916  65.868  1.00  0.00    -0.209 Cl 
BRANCH   5  11
HETATM   11  N   UNL     1     -12.051  14.332  67.919  1.00  0.00    -0.567 NA 
HETATM   12  H   UNL     1     -12.994  14.452  67.549  1.00  0.00     0.000 HD 
BRANCH  11  13
HETATM   13  C   UNL     1     -11.884  13.263  68.838  1.00  0.00    -0.327 A  
HETATM   14  C   UNL     1     -12.910  14.559  70.713  1.00  0.00    -0.361 C  
HETATM   15  C   UNL     1     -12.365  13.363  70.160  1.00  0.00    -0.322 A  
HETATM   16  C   UNL     1     -12.287  12.246  70.971  1.00  0.00    -0.220 A  
HETATM   17  N   UNL     1     -11.799  11.055  70.574  1.00  0.00    -0.353 NA 
HETATM   18  N   UNL     1     -13.384  15.504  71.194  1.00  0.00    -0.517 NA 
HETATM   19  C   UNL     1     -11.344  10.947  69.320  1.00  0.00    -0.277 A  
HETATM   20  C   UNL     1     -10.879   9.705  68.925  1.00  0.00    -0.201 A  
HETATM   21  C   UNL     1     -10.416   9.461  67.629  1.00  0.00    -0.268 A  
HETATM   22  C   UNL     1     -11.338  12.021  68.402  1.00  0.00    -0.332 A  
HETATM   23  C   UNL     1     -10.374  10.514  66.715  1.00  0.00    -0.245 A  
HETATM   24  C   UNL     1     -10.815  11.783  67.108  1.00  0.00    -0.303 A  
BRANCH  21  25
HETATM   25  O   UNL     1      -9.920   8.240  67.262  1.00  0.00    -0.182 OA 
BRANCH  25  26
HETATM   26  C   UNL     1     -10.879   7.175  67.247  1.00  0.00    -0.312 C  
BRANCH  26  27
HETATM   27  C   UNL     1     -10.313   6.053  68.105  1.00  0.00    -0.251 C  
BRANCH  27  28
HETATM   28  C   UNL     1     -10.946   5.992  69.496  1.00  0.00    -0.397 C  
BRANCH  28  29
HETATM   29  N   UNL     1     -10.162   6.643  70.560  1.00  0.00    -0.187 NA 
HETATM   30  C   UNL     1     -11.003   7.286  71.594  1.00  0.00    -0.226 C  
HETATM   31  C   UNL     1     -11.780   6.294  72.491  1.00  0.00    -0.204 C  
HETATM   32  N   UNL     1     -10.934   5.283  73.155  1.00  0.00    -0.282 NA 
HETATM   33  C   UNL     1     -10.032   4.657  72.165  1.00  0.00    -0.181 C  
HETATM   34  C   UNL     1     -10.177   5.874  74.259  1.00  0.00    -0.289 C  
HETATM   35  C   UNL     1      -9.288   5.650  71.233  1.00  0.00    -0.147 C  
ENDBRANCH  28  29
ENDBRANCH  27  28
ENDBRANCH  26  27
ENDBRANCH  25  26
ENDBRANCH  21  25
BRANCH  23  36
HETATM   36  O   UNL     1      -9.895  10.456  65.432  1.00  0.00    -0.243 OA 
HETATM   37  C   UNL     1     -10.534  11.328  64.505  1.00  0.00    -0.334 C  
ENDBRANCH  23  36
ENDBRANCH  11  13
ENDBRANCH   5  11
ENDBRANCH   2   3
TORSDOF 9
ENDMDL
MODEL        8
REMARK 921   NORMALIZED FREE ENERGY PREDICTED BY IDOCK:   -6.93 KCAL/MOL
REMARK 922        TOTAL FREE ENERGY PREDICTED BY IDOCK:  -11.92 KCAL/MOL
REMARK 923 INTER-LIGAND FREE ENERGY PREDICTED BY IDOCK:  -10.48 KCAL/MOL
REMARK 924 INTRA-LIGAND FREE ENERGY PREDICTED BY IDOCK:   -1.45 KCAL/MOL
REMARK 927      BINDING AFFINITY PREDICTED BY RF-SCORE:    0.00 PKD
ROOT
HETATM    1  C   UNL     1     -14.270   8.041  71.675  1.00  0.00    -0.452 C  
HETATM    2  O   UNL     1     -13.303   7.095  71.226  1.00  0.00    -0.368 OA 
ENDROOT
BRANCH   2   3
HETATM    3  C   UNL     1     -11.993   7.482  71.352  1.00  0.00    -0.309 A  
HETATM    4  C   UNL     1     -11.449   8.568  70.655  1.00  0.00    -0.249 A  
HETATM    5  C   UNL     1     -10.103   8.939  70.795  1.00  0.00    -0.226 A  
HETATM    6  C   UNL     1      -9.301   8.180  71.668  1.00  0.00    -0.174 A  
HETATM    7  C   UNL     1     -11.160   6.727  72.186  1.00  0.00    -0.250 A  
HETATM    8 CL   UNL     1      -7.640   8.592  71.918  1.00  0.00    -0.133 Cl 
HETATM    9  C   UNL     1      -9.821   7.080  72.355  1.00  0.00    -0.172 A  
HETATM   10 CL   UNL     1     -11.759   5.358  73.056  1.00  0.00    -0.288 Cl 
BRANCH   5  11
HETATM   11  N   UNL     1      -9.539   9.977  70.009  1.00  0.00    -0.378 NA 
HETATM   12  H   UNL     1      -9.087  10.728  70.530  1.00  0.00     0.000 HD 
BRANCH  11  13
HETATM   13  C   UNL     1      -9.519  10.112  68.596  1.00  0.00    -0.164 A  
HETATM   14  C   UNL     1      -8.059   8.105  68.307  1.00  0.00    -0.128 C  
HETATM   15  C   UNL     1      -8.860   9.164  67.787  1.00  0.00    -0.125 A  
HETATM   16  C   UNL     1      -8.980   9.277  66.415  1.00  0.00    -0.154 A  
HETATM   17  N   UNL     1      -9.708  10.226  65.795  1.00  0.00    -0.220 NA 
HETATM   18  N   UNL     1      -7.420   7.214  68.689  1.00  0.00    -0.100 NA 
HETATM   19  C   UNL     1     -10.342  11.129  66.552  1.00  0.00    -0.243 A  
HETATM   20  C   UNL     1     -11.110  12.073  65.894  1.00  0.00    -0.369 A  
HETATM   21  C   UNL     1     -11.849  13.042  66.579  1.00  0.00    -0.403 A  
HETATM   22  C   UNL     1     -10.274  11.143  67.963  1.00  0.00    -0.201 A  
HETATM   23  C   UNL     1     -11.773  13.092  67.971  1.00  0.00    -0.355 A  
HETATM   24  C   UNL     1     -10.978  12.161  68.650  1.00  0.00    -0.284 A  
BRANCH  21  25
HETATM   25  O   UNL     1     -12.570  13.996  65.916  1.00  0.00    -0.488 OA 
BRANCH  25  26
HETATM   26  C   UNL     1     -12.102  14.302  64.596  1.00  0.00    -0.463 C  
BRANCH  26  27
HETATM   27  C   UNL     1     -11.533  15.712  64.642  1.00  0.00    -0.306 C  
BRANCH  27  28
HETATM   28  C   UNL     1     -10.461  15.886  65.718  1.00  0.00    -0.370 C  
BRANCH  28  29
HETATM   29  N   UNL     1      -9.667  17.122  65.606  1.00  0.00    -0.544 NA 
HETATM   30  C   UNL     1     -10.389  18.323  66.080  1.00  0.00    -0.398 C  
HETATM   31  C   UNL     1     -10.616  18.367  67.610  1.00  0.00    -0.408 C  
HETATM   32  N   UNL     1      -9.385  18.226  68.413  1.00  0.00    -0.305 NA 
HETATM   33  C   UNL     1      -8.602  17.069  67.929  1.00  0.00    -0.207 C  
HETATM   34  C   UNL     1      -8.590  19.453  68.376  1.00  0.00    -0.360 C  
HETATM   35  C   UNL     1      -8.413  16.999  66.390  1.00  0.00    -0.283 C  
ENDBRANCH  28  29
ENDBRANCH  27  28
ENDBRANCH  26  27
ENDBRANCH  25  26
ENDBRANCH  21  25
BRANCH  23  36
HETATM   36  O   UNL     1     -12.383  14.011  68.784  1.00  0.00    -0.287 OA 
HETATM   37  C   UNL     1     -11.546  15.067  69.244  1.00  0.00    -0.315 C  
ENDBRANCH  23  36
ENDBRANCH  11  13
ENDBRANCH   5  11
ENDBRANCH   2   3
TORSDOF 9
ENDMDL
MODEL        9
REMARK 921   NORMALIZED FREE ENERGY PREDICTED BY IDOCK:   -6.86 KCAL/MOL
REMARK 922        TOTAL FREE ENERGY PREDICTED BY IDOCK:  -11.81 KCAL/MOL
REMARK 923 INTER-LIGAND FREE ENERGY PREDICTED BY IDOCK:  -10.08 KCAL/MOL
REMARK 924 INTRA-LIGAND FREE ENERGY PREDICTED BY IDOCK:   -1.74 KCAL/MOL
REMARK 927      BINDING AFFINITY PREDICTED BY RF-SCORE:    0.00 PKD
ROOT
HETATM    1  C   UNL     1     -12.402  11.955  63.913  1.00  0.00    -0.383 C  
HETATM    2  O   UNL     1     -13.073  12.513  65.039  1.00  0.00    -0.765 OA 
ENDROOT
BRANCH   2   3
HETATM    3  C   UNL     1     -12.271  13.158  65.948  1.00  0.00    -0.436 A  
HETATM    4  C   UNL     1     -11.861  12.570  67.151  1.00  0.00    -0.386 A  
HETATM    5  C   UNL     1     -11.048  13.253  68.068  1.00  0.00    -0.256 A  
HETATM    6  C   UNL     1     -10.648  14.562  67.742  1.00  0.00    -0.250 A  
HETATM    7  C   UNL     1     -11.886  14.474  65.670  1.00  0.00    -0.326 A  
HETATM    8 CL   UNL     1      -9.621  15.459  68.808  1.00  0.00    -0.199 Cl 
HETATM    9  C   UNL     1     -11.066  15.172  66.557  1.00  0.00    -0.305 A  
HETATM   10 CL   UNL     1     -12.379  15.269  64.216  1.00  0.00    -0.315 Cl 
BRANCH   5  11
HETATM   11  N   UNL     1     -10.721  12.686  69.327  1.00  0.00    -0.442 NA 
HETATM   12  H   UNL     1      -9.726  12.637  69.544  1.00  0.00     0.000 HD 
BRANCH  11  13
HETATM   13  C   UNL     1     -11.592  12.177  70.326  1.00  0.00    -0.017 A  
HETATM   14  C   UNL     1     -12.496  14.445  70.859  1.00  0.00    -0.354 C  
HETATM   15  C   UNL     1     -12.488  13.027  71.006  1.00  0.00    -0.385 A  
HETATM   16  C   UNL     1     -13.398  12.457  71.877  1.00  0.00    -0.349 A  
HETATM   17  N   UNL     1     -13.500  11.132  72.104  1.00  0.00    -0.272 NA 
HETATM   18  N   UNL     1     -12.553  15.599  70.749  1.00  0.00    -0.447 NA 
HETATM   19  C   UNL     1     -12.657  10.316  71.462  1.00  0.00    -0.440 A  
HETATM   20  C   UNL     1     -12.803   8.958  71.687  1.00  0.00    -0.401 A  
HETATM   21  C   UNL     1     -12.008   8.007  71.042  1.00  0.00    -0.245 A  
HETATM   22  C   UNL     1     -11.661  10.774  70.571  1.00  0.00    -0.449 A  
HETATM   23  C   UNL     1     -10.999   8.438  70.181  1.00  0.00    -0.215 A  
HETATM   24  C   UNL     1     -10.820   9.810  69.965  1.00  0.00    -0.319 A  
BRANCH  21  25
HETATM   25  O   UNL     1     -12.133   6.670  71.305  1.00  0.00    -0.348 OA 
BRANCH  25  26
HETATM   26  C   UNL     1     -11.589   6.245  72.561  1.00  0.00    -0.232 C  
BRANCH  26  27
HETATM   27  C   UNL     1     -10.452   5.282  72.250  1.00  0.00    -0.273 C  
BRANCH  27  28
HETATM   28  C   UNL     1      -9.072   5.924  72.399  1.00  0.00    -0.140 C  
BRANCH  28  29
HETATM   29  N   UNL     1      -8.965   6.911  73.488  1.00  0.00    -0.134 NA 
HETATM   30  C   UNL     1      -7.933   6.562  74.490  1.00  0.00    -0.116 C  
HETATM   31  C   UNL     1      -6.480   6.672  73.972  1.00  0.00    -0.072 C  
HETATM   32  N   UNL     1      -6.134   7.988  73.401  1.00  0.00    -0.070 NA 
HETATM   33  C   UNL     1      -7.175   8.403  72.436  1.00  0.00    -0.083 C  
HETATM   34  C   UNL     1      -5.961   8.990  74.452  1.00  0.00    -0.091 C  
HETATM   35  C   UNL     1      -8.636   8.249  72.937  1.00  0.00    -0.208 C  
ENDBRANCH  28  29
ENDBRANCH  27  28
ENDBRANCH  26  27
ENDBRANCH  25  26
ENDBRANCH  21  25
BRANCH  23  36
HETATM   36  O   UNL     1     -10.099   7.642  69.522  1.00  0.00    -0.183 OA 
HETATM   37  C   UNL     1      -9.854   7.996  68.164  1.00  0.00    -0.170 C  
ENDBRANCH  23  36
ENDBRANCH  11  13
ENDBRANCH   5  11
ENDBRANCH   2   3
TORSDOF 9
ENDMDL
MODEL       10
REMARK 921   NORMALIZED FREE ENERGY PREDICTED BY IDOCK:   -6.84 KCAL/MOL
REMARK 922        TOTAL FREE ENERGY PREDICTED BY IDOCK:  -11.79 KCAL/MOL
REMARK 923 INTER-LIGAND FREE ENERGY PREDICTED BY IDOCK:  -10.34 KCAL/MOL
REMARK 924 INTRA-LIGAND FREE ENERGY PREDICTED BY IDOCK:   -1.45 KCAL/MOL
REMARK 927      BINDING AFFINITY PREDICTED BY RF-SCORE:    0.00 PKD
ROOT
HETATM    1  C   UNL     1      -8.244   8.019  74.270  1.00  0.00    -0.253 C  
HETATM    2  O   UNL     1      -7.816   8.448  72.980  1.00  0.00    -0.269 OA 
ENDROOT
BRANCH   2   3
HETATM    3  C   UNL     1      -8.590   8.026  71.928  1.00  0.00    -0.137 A  
HETATM    4  C   UNL     1      -9.706   8.738  71.472  1.00  0.00    -0.361 A  
HETATM    5  C   UNL     1     -10.487   8.281  70.398  1.00  0.00    -0.215 A  
HETATM    6  C   UNL     1     -10.113   7.072  69.783  1.00  0.00    -0.189 A  
HETATM    7  C   UNL     1      -8.266   6.809  71.317  1.00  0.00    -0.119 A  
HETATM    8 CL   UNL     1     -11.007   6.458  68.435  1.00  0.00    -0.375 Cl 
HETATM    9  C   UNL     1      -9.016   6.338  70.239  1.00  0.00    -0.154 A  
HETATM   10 CL   UNL     1      -6.917   5.866  71.847  1.00  0.00    -0.078 Cl 
BRANCH   5  11
HETATM   11  N   UNL     1     -11.671   8.958  70.009  1.00  0.00    -0.444 NA 
HETATM   12  H   UNL     1     -12.333   8.410  69.461  1.00  0.00     0.000 HD 
BRANCH  11  13
HETATM   13  C   UNL     1     -12.060  10.297  70.280  1.00  0.00    -0.249 A  
HETATM   14  C   UNL     1     -13.436   9.622  72.254  1.00  0.00    -0.400 C  
HETATM   15  C   UNL     1     -12.854  10.607  71.403  1.00  0.00    -0.556 A  
HETATM   16  C   UNL     1     -13.095  11.939  71.686  1.00  0.00    -0.328 A  
HETATM   17  N   UNL     1     -12.603  12.967  70.968  1.00  0.00    -0.345 NA 
HETATM   18  N   UNL     1     -13.907   8.854  72.986  1.00  0.00    -0.267 NA 
HETATM   19  C   UNL     1     -11.846  12.684  69.901  1.00  0.00    -0.294 A  
HETATM   20  C   UNL     1     -11.324  13.757  69.199  1.00  0.00    -0.329 A  
HETATM   21  C   UNL     1     -10.487  13.586  68.093  1.00  0.00    -0.244 A  
HETATM   22  C   UNL     1     -11.550  11.366  69.487  1.00  0.00    -0.399 A  
HETATM   23  C   UNL     1     -10.206  12.294  67.649  1.00  0.00    -0.203 A  
HETATM   24  C   UNL     1     -10.749  11.200  68.332  1.00  0.00    -0.234 A  
BRANCH  21  25
HETATM   25  O   UNL     1     -10.012  14.654  67.381  1.00  0.00    -0.229 OA 
BRANCH  25  26
HETATM   26  C   UNL     1     -11.008  15.396  66.666  1.00  0.00    -0.275 C  
BRANCH  26  27
HETATM   27  C   UNL     1     -10.271  16.372  65.761  1.00  0.00    -0.370 C  
BRANCH  27  28
HETATM   28  C   UNL     1     -10.408  17.825  66.217  1.00  0.00    -0.358 C  
BRANCH  28  29
HETATM   29  N   UNL     1      -9.181  18.631  66.090  1.00  0.00    -0.486 NA 
HETATM   30  C   UNL     1      -9.319  19.995  66.647  1.00  0.00    -0.391 C  
HETATM   31  C   UNL     1      -9.436  20.044  68.189  1.00  0.00    -0.276 C  
HETATM   32  N   UNL     1      -8.337  19.367  68.905  1.00  0.00    -0.353 NA 
HETATM   33  C   UNL     1      -8.126  18.019  68.336  1.00  0.00    -0.298 C  
HETATM   34  C   UNL     1      -7.109  20.160  68.854  1.00  0.00    -0.152 C  
HETATM   35  C   UNL     1      -8.055  17.961  66.787  1.00  0.00    -0.238 C  
ENDBRANCH  28  29
ENDBRANCH  27  28
ENDBRANCH  26  27
ENDBRANCH  25  26
ENDBRANCH  21  25
BRANCH  23  36
HETATM   36  O   UNL     1      -9.458  11.959  66.550  1.00  0.00    -0.206 OA 
HETATM   37  C   UNL     1     -10.201  11.508  65.423  1.00  0.00    -0.264 C  
ENDBRANCH  23  36
ENDBRANCH  11  13
ENDBRANCH   5  11
ENDBRANCH   2   3
TORSDOF 9
ENDMDL
MODEL       11
REMARK 921   NORMALIZED FREE ENERGY PREDICTED BY IDOCK:   -6.84 KCAL/MOL
REMARK 922        TOTAL FREE ENERGY PREDICTED BY IDOCK:  -11.79 KCAL/MOL
REMARK 923 INTER-LIGAND FREE ENERGY PREDICTED BY IDOCK:  -10.86 KCAL/MOL
REMARK 924 INTRA-LIGAND FREE ENERGY PREDICTED BY IDOCK:   -0.92 KCAL/MOL
REMARK 927      BINDING AFFINITY PREDICTED BY RF-SCORE:    0.00 PKD
ROOT
HETATM    1  C   UNL     1      -9.122   9.852  63.702  1.00  0.00    -0.259 C  
HETATM    2  O   UNL     1      -8.738   8.781  64.561  1.00  0.00    -0.148 OA 
ENDROOT
BRANCH   2   3
HETATM    3  C   UNL     1      -8.979   8.976  65.897  1.00  0.00    -0.190 A  
HETATM    4  C   UNL     1     -10.215   9.411  66.391  1.00  0.00    -0.300 A  
HETATM    5  C   UNL     1     -10.435   9.611  67.763  1.00  0.00    -0.256 A  
HETATM    6  C   UNL     1      -9.366   9.360  68.642  1.00  0.00    -0.142 A  
HETATM    7  C   UNL     1      -7.926   8.769  66.795  1.00  0.00    -0.097 A  
HETATM    8 CL   UNL     1      -9.566   9.555  70.349  1.00  0.00    -0.310 Cl 
HETATM    9  C   UNL     1      -8.119   8.947  68.165  1.00  0.00    -0.106 A  
HETATM   10 CL   UNL     1      -6.366   8.258  66.250  1.00  0.00    -0.046 Cl 
BRANCH   5  11
HETATM   11  N   UNL     1     -11.659  10.146  68.242  1.00  0.00    -0.663 NA 
HETATM   12  H   UNL     1     -12.458   9.514  68.214  1.00  0.00     0.000 HD 
BRANCH  11  13
HETATM   13  C   UNL     1     -11.921  11.443  68.757  1.00  0.00    -0.287 A  
HETATM   14  C   UNL     1     -12.518  10.555  71.015  1.00  0.00    -0.400 C  
HETATM   15  C   UNL     1     -12.267  11.629  70.111  1.00  0.00    -0.367 A  
HETATM   16  C   UNL     1     -12.387  12.922  70.585  1.00  0.00    -0.302 A  
HETATM   17  N   UNL     1     -12.174  14.024  69.839  1.00  0.00    -0.334 NA 
HETATM   18  N   UNL     1     -12.705   9.711  71.790  1.00  0.00    -0.390 NA 
HETATM   19  C   UNL     1     -11.842  13.860  68.553  1.00  0.00    -0.366 A  
HETATM   20  C   UNL     1     -11.595  15.006  67.817  1.00  0.00    -0.336 A  
HETATM   21  C   UNL     1     -11.201  14.959  66.477  1.00  0.00    -0.335 A  
HETATM   22  C   UNL     1     -11.717  12.594  67.940  1.00  0.00    -0.412 A  
HETATM   23  C   UNL     1     -11.101  13.721  65.843  1.00  0.00    -0.286 A  
HETATM   24  C   UNL     1     -11.374  12.554  66.567  1.00  0.00    -0.387 A  
BRANCH  21  25
HETATM   25  O   UNL     1     -11.002  16.100  65.748  1.00  0.00    -0.230 OA 
BRANCH  25  26
HETATM   26  C   UNL     1      -9.786  16.801  66.040  1.00  0.00    -0.287 C  
BRANCH  26  27
HETATM   27  C   UNL     1     -10.165  18.247  66.326  1.00  0.00    -0.414 C  
BRANCH  27  28
HETATM   28  C   UNL     1      -8.972  19.200  66.245  1.00  0.00    -0.309 C  
BRANCH  28  29
HETATM   29  N   UNL     1      -8.763  20.031  67.444  1.00  0.00    -0.335 NA 
HETATM   30  C   UNL     1      -8.683  19.243  68.693  1.00  0.00    -0.365 C  
HETATM   31  C   UNL     1      -7.406  18.379  68.820  1.00  0.00    -0.287 C  
HETATM   32  N   UNL     1      -6.145  19.131  68.673  1.00  0.00    -0.218 NA 
HETATM   33  C   UNL     1      -6.208  19.982  67.465  1.00  0.00    -0.199 C  
HETATM   34  C   UNL     1      -5.867  19.930  69.866  1.00  0.00    -0.293 C  
HETATM   35  C   UNL     1      -7.509  20.813  67.312  1.00  0.00    -0.328 C  
ENDBRANCH  28  29
ENDBRANCH  27  28
ENDBRANCH  26  27
ENDBRANCH  25  26
ENDBRANCH  21  25
BRANCH  23  36
HETATM   36  O   UNL     1     -10.788  13.507  64.526  1.00  0.00    -0.378 OA 
HETATM   37  C   UNL     1     -11.825  12.925  63.742  1.00  0.00    -0.504 C  
ENDBRANCH  23  36
ENDBRANCH  11  13
ENDBRANCH   5  11
ENDBRANCH   2   3
TORSDOF 9
ENDMDL
MODEL       12
REMARK 921   NORMALIZED FREE ENERGY PREDICTED BY IDOCK:   -6.84 KCAL/MOL
REMARK 922        TOTAL FREE ENERGY PREDICTED BY IDOCK:  -11.78 KCAL/MOL
REMARK 923 INTER-LIGAND FREE ENERGY PREDICTED BY IDOCK:  -10.48 KCAL/MOL
REMARK 924 INTRA-LIGAND FREE ENERGY PREDICTED BY IDOCK:   -1.30 KCAL/MOL
REMARK 927      BINDING AFFINITY PREDICTED BY RF-SCORE:    0.00 PKD
ROOT
HETATM    1  C   UNL     1     -10.056  11.818  63.629  1.00  0.00    -0.418 C  
HETATM    2  O   UNL     1      -9.873  10.525  64.199  1.00  0.00    -0.306 OA 
ENDROOT
BRANCH   2   3
HETATM    3  C   UNL     1      -9.955  10.462  65.568  1.00  0.00    -0.282 A  
HETATM    4  C   UNL     1     -11.033  10.990  66.289  1.00  0.00    -0.184 A  
HETATM    5  C   UNL     1     -11.090  10.921  67.690  1.00  0.00    -0.313 A  
HETATM    6  C   UNL     1     -10.022  10.298  68.360  1.00  0.00    -0.157 A  
HETATM    7  C   UNL     1      -8.891   9.881  66.267  1.00  0.00    -0.143 A  
HETATM    8 CL   UNL     1     -10.033  10.147  70.084  1.00  0.00    -0.234 Cl 
HETATM    9  C   UNL     1      -8.928   9.786  67.658  1.00  0.00    -0.133 A  
HETATM   10 CL   UNL     1      -7.517   9.234  65.440  1.00  0.00    -0.096 Cl 
BRANCH   5  11
HETATM   11  N   UNL     1     -12.138  11.545  68.416  1.00  0.00    -0.560 NA 
HETATM   12  H   UNL     1     -13.022  11.039  68.438  1.00  0.00     0.000 HD 
BRANCH  11  13
HETATM   13  C   UNL     1     -12.121  12.781  69.115  1.00  0.00    -0.158 A  
HETATM   14  C   UNL     1     -12.835  11.712  71.258  1.00  0.00    -0.328 C  
HETATM   15  C   UNL     1     -12.392  12.834  70.498  1.00  0.00    -0.355 A  
HETATM   16  C   UNL     1     -12.237  14.043  71.149  1.00  0.00    -0.338 A  
HETATM   17  N   UNL     1     -11.822  15.177  70.552  1.00  0.00    -0.292 NA 
HETATM   18  N   UNL     1     -13.171  10.819  71.919  1.00  0.00    -0.466 NA 
HETATM   19  C   UNL     1     -11.558  15.138  69.240  1.00  0.00    -0.324 A  
HETATM   20  C   UNL     1     -11.101  16.307  68.656  1.00  0.00    -0.356 A  
HETATM   21  C   UNL     1     -10.755  16.377  67.304  1.00  0.00    -0.257 A  
HETATM   22  C   UNL     1     -11.706  13.974  68.454  1.00  0.00    -0.389 A  
HETATM   23  C   UNL     1     -10.921  15.248  66.502  1.00  0.00    -0.295 A  
HETATM   24  C   UNL     1     -11.409  14.066  67.073  1.00  0.00    -0.346 A  
BRANCH  21  25
HETATM   25  O   UNL     1     -10.345  17.549  66.729  1.00  0.00    -0.319 OA 
BRANCH  25  26
HETATM   26  C   UNL     1     -10.904  18.736  67.307  1.00  0.00    -0.340 C  
BRANCH  26  27
HETATM   27  C   UNL     1      -9.948  19.876  66.991  1.00  0.00    -0.559 C  
BRANCH  27  28
HETATM   28  C   UNL     1      -8.629  19.395  66.385  1.00  0.00    -0.354 C  
BRANCH  28  29
HETATM   29  N   UNL     1      -7.437  19.664  67.208  1.00  0.00    -0.240 NA 
HETATM   30  C   UNL     1      -7.615  19.295  68.630  1.00  0.00    -0.350 C  
HETATM   31  C   UNL     1      -7.701  17.772  68.887  1.00  0.00    -0.200 C  
HETATM   32  N   UNL     1      -6.561  17.000  68.354  1.00  0.00    -0.153 NA 
HETATM   33  C   UNL     1      -6.310  17.384  66.949  1.00  0.00    -0.182 C  
HETATM   34  C   UNL     1      -5.366  17.192  69.175  1.00  0.00    -0.150 C  
HETATM   35  C   UNL     1      -6.271  18.912  66.681  1.00  0.00    -0.181 C  
ENDBRANCH  28  29
ENDBRANCH  27  28
ENDBRANCH  26  27
ENDBRANCH  25  26
ENDBRANCH  21  25
BRANCH  23  36
HETATM   36  O   UNL     1     -10.687  15.168  65.154  1.00  0.00    -0.362 OA 
HETATM   37  C   UNL     1     -11.837  14.917  64.352  1.00  0.00    -0.360 C  
ENDBRANCH  23  36
ENDBRANCH  11  13
ENDBRANCH   5  11
ENDBRANCH   2   3
TORSDOF 9
ENDMDL
MODEL       13
REMARK 921   NORMALIZED FREE ENERGY PREDICTED BY IDOCK:   -6.83 KCAL/MOL
REMARK 922        TOTAL FREE ENERGY PREDICTED BY IDOCK:  -11.77 KCAL/MOL
REMARK 923 INTER-LIGAND FREE ENERGY PREDICTED BY IDOCK:  -10.95 KCAL/MOL
REMARK 924 INTRA-LIGAND FREE ENERGY PREDICTED BY IDOCK:   -0.82 KCAL/MOL
REMARK 927      BINDING AFFINITY PREDICTED BY RF-SCORE:    0.00 PKD
ROOT
HETATM    1  C   UNL     1     -11.434   6.265  70.094  1.00  0.00    -0.382 C  
HETATM    2  O   UNL     1     -12.133   6.967  71.118  1.00  0.00    -0.333 OA 
ENDROOT
BRANCH   2   3
HETATM    3  C   UNL     1     -12.160   8.333  70.988  1.00  0.00    -0.208 A  
HETATM    4  C   UNL     1     -11.234   9.042  70.213  1.00  0.00    -0.232 A  
HETATM    5  C   UNL     1     -11.278  10.440  70.102  1.00  0.00    -0.321 A  
HETATM    6  C   UNL     1     -12.292  11.122  70.799  1.00  0.00    -0.406 A  
HETATM    7  C   UNL     1     -13.134   9.044  71.698  1.00  0.00    -0.365 A  
HETATM    8 CL   UNL     1     -12.431  12.843  70.689  1.00  0.00    -0.374 Cl 
HETATM    9  C   UNL     1     -13.210  10.433  71.595  1.00  0.00    -0.502 A  
HETATM   10 CL   UNL     1     -14.292   8.234  72.695  1.00  0.00    -0.216 Cl 
BRANCH   5  11
HETATM   11  N   UNL     1     -10.276  11.154  69.395  1.00  0.00    -0.431 NA 
HETATM   12  H   UNL     1      -9.389  11.271  69.884  1.00  0.00     0.000 HD 
BRANCH  11  13
HETATM   13  C   UNL     1     -10.341  11.728  68.098  1.00  0.00    -0.200 A  
HETATM   14  C   UNL     1     -10.364   9.493  66.982  1.00  0.00    -0.250 C  
HETATM   15  C   UNL     1     -10.452  10.916  66.951  1.00  0.00    -0.299 A  
HETATM   16  C   UNL     1     -10.638  11.531  65.728  1.00  0.00    -0.263 A  
HETATM   17  N   UNL     1     -10.743  12.864  65.559  1.00  0.00    -0.275 NA 
HETATM   18  N   UNL     1     -10.324   8.333  66.965  1.00  0.00    -0.309 NA 
HETATM   19  C   UNL     1     -10.643  13.645  66.641  1.00  0.00    -0.277 A  
HETATM   20  C   UNL     1     -10.787  15.008  66.447  1.00  0.00    -0.326 A  
HETATM   21  C   UNL     1     -10.742  15.920  67.506  1.00  0.00    -0.318 A  
HETATM   22  C   UNL     1     -10.421  13.143  67.943  1.00  0.00    -0.245 A  
HETATM   23  C   UNL     1     -10.494  15.449  68.795  1.00  0.00    -0.231 A  
HETATM   24  C   UNL     1     -10.318  14.075  69.003  1.00  0.00    -0.136 A  
BRANCH  21  25
HETATM   25  O   UNL     1     -10.842  17.268  67.297  1.00  0.00    -0.258 OA 
BRANCH  25  26
HETATM   26  C   UNL     1     -10.247  17.738  66.080  1.00  0.00    -0.339 C  
BRANCH  26  27
HETATM   27  C   UNL     1     -10.163  19.254  66.184  1.00  0.00    -0.549 C  
BRANCH  27  28
HETATM   28  C   UNL     1      -8.724  19.772  66.162  1.00  0.00    -0.332 C  
BRANCH  28  29
HETATM   29  N   UNL     1      -8.270  20.387  67.421  1.00  0.00    -0.337 NA 
HETATM   30  C   UNL     1      -8.474  19.518  68.601  1.00  0.00    -0.328 C  
HETATM   31  C   UNL     1      -7.556  18.274  68.641  1.00  0.00    -0.296 C  
HETATM   32  N   UNL     1      -6.115  18.576  68.540  1.00  0.00    -0.193 NA 
HETATM   33  C   UNL     1      -5.876  19.494  67.406  1.00  0.00    -0.185 C  
HETATM   34  C   UNL     1      -5.606  19.139  69.791  1.00  0.00    -0.222 C  
HETATM   35  C   UNL     1      -6.826  20.719  67.338  1.00  0.00    -0.356 C  
ENDBRANCH  28  29
ENDBRANCH  27  28
ENDBRANCH  26  27
ENDBRANCH  25  26
ENDBRANCH  21  25
BRANCH  23  36
HETATM   36  O   UNL     1     -10.360  16.212  69.926  1.00  0.00    -0.268 OA 
HETATM   37  C   UNL     1     -11.429  16.107  70.860  1.00  0.00    -0.386 C  
ENDBRANCH  23  36
ENDBRANCH  11  13
ENDBRANCH   5  11
ENDBRANCH   2   3
TORSDOF 9
ENDMDL
MODEL       14
REMARK 921   NORMALIZED FREE ENERGY PREDICTED BY IDOCK:   -6.81 KCAL/MOL
REMARK 922        TOTAL FREE ENERGY PREDICTED BY IDOCK:  -11.74 KCAL/MOL
REMARK 923 INTER-LIGAND FREE ENERGY PREDICTED BY IDOCK:  -10.28 KCAL/MOL
REMARK 924 INTRA-LIGAND FREE ENERGY PREDICTED BY IDOCK:   -1.46 KCAL/MOL
REMARK 927      BINDING AFFINITY PREDICTED BY RF-SCORE:    0.00 PKD
ROOT
HETATM    1  C   UNL     1     -12.586  14.679  70.536  1.00  0.00    -0.350 C  
HETATM    2  O   UNL     1     -12.606  13.352  71.056  1.00  0.00    -0.355 OA 
ENDROOT
BRANCH   2   3
HETATM    3  C   UNL     1     -12.088  12.385  70.233  1.00  0.00    -0.297 A  
HETATM    4  C   UNL     1     -11.402  12.682  69.049  1.00  0.00    -0.345 A  
HETATM    5  C   UNL     1     -10.888  11.673  68.219  1.00  0.00    -0.219 A  
HETATM    6  C   UNL     1     -11.082  10.337  68.613  1.00  0.00    -0.239 A  
HETATM    7  C   UNL     1     -12.296  11.045  70.578  1.00  0.00    -0.373 A  
HETATM    8 CL   UNL     1     -10.453   9.038  67.659  1.00  0.00    -0.319 Cl 
HETATM    9  C   UNL     1     -11.784  10.022  69.780  1.00  0.00    -0.144 A  
HETATM   10 CL   UNL     1     -13.157  10.607  72.012  1.00  0.00    -0.578 Cl 
BRANCH   5  11
HETATM   11  N   UNL     1     -10.282  11.982  66.973  1.00  0.00    -0.203 NA 
HETATM   12  H   UNL     1      -9.949  11.184  66.435  1.00  0.00     0.000 HD 
BRANCH  11  13
HETATM   13  C   UNL     1     -10.078  13.254  66.375  1.00  0.00    -0.290 A  
HETATM   14  C   UNL     1     -12.230  13.135  65.110  1.00  0.00    -0.450 C  
HETATM   15  C   UNL     1     -11.056  13.824  65.535  1.00  0.00    -0.300 A  
HETATM   16  C   UNL     1     -10.859  15.116  65.083  1.00  0.00    -0.422 A  
HETATM   17  N   UNL     1      -9.797  15.878  65.411  1.00  0.00    -0.424 NA 
HETATM   18  N   UNL     1     -13.210  12.620  64.762  1.00  0.00    -0.780 NA 
HETATM   19  C   UNL     1      -8.864  15.348  66.211  1.00  0.00    -0.267 A  
HETATM   20  C   UNL     1      -7.801  16.162  66.561  1.00  0.00    -0.263 A  
HETATM   21  C   UNL     1      -6.787  15.734  67.422  1.00  0.00    -0.201 A  
HETATM   22  C   UNL     1      -8.932  14.031  66.715  1.00  0.00    -0.217 A  
HETATM   23  C   UNL     1      -6.818  14.426  67.907  1.00  0.00    -0.167 A  
HETATM   24  C   UNL     1      -7.873  13.582  67.540  1.00  0.00    -0.184 A  
BRANCH  21  25
HETATM   25  O   UNL     1      -5.719  16.532  67.726  1.00  0.00    -0.115 OA 
BRANCH  25  26
HETATM   26  C   UNL     1      -5.631  16.930  69.101  1.00  0.00    -0.150 C  
BRANCH  26  27
HETATM   27  C   UNL     1      -5.213  18.393  69.115  1.00  0.00    -0.189 C  
BRANCH  27  28
HETATM   28  C   UNL     1      -5.722  19.168  67.899  1.00  0.00    -0.191 C  
BRANCH  28  29
HETATM   29  N   UNL     1      -6.701  20.225  68.207  1.00  0.00    -0.298 NA 
HETATM   30  C   UNL     1      -7.324  20.812  67.000  1.00  0.00    -0.296 C  
HETATM   31  C   UNL     1      -8.284  19.859  66.251  1.00  0.00    -0.329 C  
HETATM   32  N   UNL     1      -9.359  19.294  67.091  1.00  0.00    -0.308 NA 
HETATM   33  C   UNL     1      -8.783  18.749  68.339  1.00  0.00    -0.337 C  
HETATM   34  C   UNL     1     -10.385  20.296  67.376  1.00  0.00    -0.283 C  
HETATM   35  C   UNL     1      -7.784  19.686  69.067  1.00  0.00    -0.256 C  
ENDBRANCH  28  29
ENDBRANCH  27  28
ENDBRANCH  26  27
ENDBRANCH  25  26
ENDBRANCH  21  25
BRANCH  23  36
HETATM   36  O   UNL     1      -5.875  13.835  68.707  1.00  0.00    -0.078 OA 
HETATM   37  C   UNL     1      -6.390  13.095  69.809  1.00  0.00    -0.065 C  
ENDBRANCH  23  36
ENDBRANCH  11  13
ENDBRANCH   5  11
ENDBRANCH   2   3
TORSDOF 9
ENDMDL
MODEL       15
REMARK 921   NORMALIZED FREE ENERGY PREDICTED BY IDOCK:   -6.81 KCAL/MOL
REMARK 922        TOTAL FREE ENERGY PREDICTED BY IDOCK:  -11.74 KCAL/MOL
REMARK 923 INTER-LIGAND FREE ENERGY PREDICTED BY IDOCK:  -10.04 KCAL/MOL
REMARK 924 INTRA-LIGAND FREE ENERGY PREDICTED BY IDOCK:   -1.70 KCAL/MOL
REMARK 927      BINDING AFFINITY PREDICTED BY RF-SCORE:    0.00 PKD
ROOT
HETATM    1  C   UNL     1      -6.461   9.609  69.569  1.00  0.00    -0.045 C  
HETATM    2  O   UNL     1      -6.809   8.764  70.663  1.00  0.00    -0.040 OA 
ENDROOT
BRANCH   2   3
HETATM    3  C   UNL     1      -8.106   8.316  70.677  1.00  0.00    -0.110 A  
HETATM    4  C   UNL     1      -9.146   8.977  70.011  1.00  0.00    -0.187 A  
HETATM    5  C   UNL     1     -10.466   8.502  70.047  1.00  0.00    -0.223 A  
HETATM    6  C   UNL     1     -10.722   7.329  70.779  1.00  0.00    -0.231 A  
HETATM    7  C   UNL     1      -8.400   7.171  71.426  1.00  0.00    -0.112 A  
HETATM    8 CL   UNL     1     -12.318   6.665  70.847  1.00  0.00    -0.358 Cl 
HETATM    9  C   UNL     1      -9.701   6.669  71.468  1.00  0.00    -0.172 A  
HETATM   10 CL   UNL     1      -7.169   6.322  72.294  1.00  0.00    -0.086 Cl 
BRANCH   5  11
HETATM   11  N   UNL     1     -11.527   9.233  69.452  1.00  0.00    -0.417 NA 
HETATM   12  H   UNL     1     -12.131   8.702  68.825  1.00  0.00     0.000 HD 
BRANCH  11  13
HETATM   13  C   UNL     1     -11.862  10.603  69.612  1.00  0.00    -0.286 A  
HETATM   14  C   UNL     1     -12.984  10.194  71.807  1.00  0.00    -0.462 C  
HETATM   15  C   UNL     1     -12.502  11.060  70.782  1.00  0.00    -0.491 A  
HETATM   16  C   UNL     1     -12.690  12.421  70.937  1.00  0.00    -0.185 A  
HETATM   17  N   UNL     1     -12.281  13.347  70.048  1.00  0.00    -0.321 NA 
HETATM   18  N   UNL     1     -13.367   9.526  72.676  1.00  0.00    -0.280 NA 
HETATM   19  C   UNL     1     -11.669  12.926  68.935  1.00  0.00    -0.327 A  
HETATM   20  C   UNL     1     -11.228  13.897  68.054  1.00  0.00    -0.295 A  
HETATM   21  C   UNL     1     -10.541  13.580  66.879  1.00  0.00    -0.270 A  
HETATM   22  C   UNL     1     -11.444  11.562  68.643  1.00  0.00    -0.354 A  
HETATM   23  C   UNL     1     -10.334  12.239  66.556  1.00  0.00    -0.227 A  
HETATM   24  C   UNL     1     -10.799  11.244  67.424  1.00  0.00    -0.311 A  
BRANCH  21  25
HETATM   25  O   UNL     1     -10.148  14.547  65.994  1.00  0.00    -0.289 OA 
BRANCH  25  26
HETATM   26  C   UNL     1     -11.157  14.967  65.067  1.00  0.00    -0.413 C  
BRANCH  26  27
HETATM   27  C   UNL     1     -10.965  16.460  64.847  1.00  0.00    -0.277 C  
BRANCH  27  28
HETATM   28  C   UNL     1     -10.530  17.197  66.114  1.00  0.00    -0.275 C  
BRANCH  28  29
HETATM   29  N   UNL     1      -9.325  18.031  65.961  1.00  0.00    -0.521 NA 
HETATM   30  C   UNL     1      -9.498  19.406  66.477  1.00  0.00    -0.364 C  
HETATM   31  C   UNL     1      -9.614  19.499  68.017  1.00  0.00    -0.359 C  
HETATM   32  N   UNL     1      -8.497  18.873  68.751  1.00  0.00    -0.335 NA 
HETATM   33  C   UNL     1      -8.250  17.514  68.222  1.00  0.00    -0.263 C  
HETATM   34  C   UNL     1      -7.290  19.696  68.674  1.00  0.00    -0.340 C  
HETATM   35  C   UNL     1      -8.180  17.413  66.675  1.00  0.00    -0.256 C  
ENDBRANCH  28  29
ENDBRANCH  27  28
ENDBRANCH  26  27
ENDBRANCH  25  26
ENDBRANCH  21  25
BRANCH  23  36
HETATM   36  O   UNL     1      -9.735  11.761  65.419  1.00  0.00    -0.231 OA 
HETATM   37  C   UNL     1     -10.614  11.150  64.480  1.00  0.00    -0.328 C  
ENDBRANCH  23  36
ENDBRANCH  11  13
ENDBRANCH   5  11
ENDBRANCH   2   3
TORSDOF 9
ENDMDL
MODEL       16
REMARK 921   NORMALIZED FREE ENERGY PREDICTED BY IDOCK:   -6.77 KCAL/MOL
REMARK 922        TOTAL FREE ENERGY PREDICTED BY IDOCK:  -11.67 KCAL/MOL
REMARK 923 INTER-LIGAND FREE ENERGY PREDICTED BY IDOCK:  -10.43 KCAL/MOL
REMARK 924 INTRA-LIGAND FREE ENERGY PREDICTED BY IDOCK:   -1.25 KCAL/MOL
REMARK 927      BINDING AFFINITY PREDICTED BY RF-SCORE:    0.00 PKD
ROOT
HETATM    1  C   UNL     1      -6.062  10.256  70.651  1.00  0.00    -0.103 C  
HETATM    2  O   UNL     1      -7.139   9.602  71.318  1.00  0.00    -0.329 OA 
ENDROOT
BRANCH   2   3
HETATM    3  C   UNL     1      -8.083   9.031  70.502  1.00  0.00    -0.154 A  
HETATM    4  C   UNL     1      -9.196   9.731  70.021  1.00  0.00    -0.266 A  
HETATM    5  C   UNL     1     -10.152   9.123  69.194  1.00  0.00    -0.194 A  
HETATM    6  C   UNL     1      -9.960   7.771  68.854  1.00  0.00    -0.182 A  
HETATM    7  C   UNL     1      -7.940   7.678  70.174  1.00  0.00    -0.109 A  
HETATM    8 CL   UNL     1     -11.079   6.958  67.815  1.00  0.00    -0.261 Cl 
HETATM    9  C   UNL     1      -8.867   7.051  69.343  1.00  0.00    -0.136 A  
HETATM   10 CL   UNL     1      -6.604   6.747  70.755  1.00  0.00    -0.051 Cl 
BRANCH   5  11
HETATM   11  N   UNL     1     -11.327   9.812  68.795  1.00  0.00    -0.482 NA 
HETATM   12  H   UNL     1     -11.937   9.308  68.153  1.00  0.00     0.000 HD 
BRANCH  11  13
HETATM   13  C   UNL     1     -11.767  11.110  69.168  1.00  0.00    -0.338 A  
HETATM   14  C   UNL     1     -12.500  10.338  71.429  1.00  0.00    -0.424 C  
HETATM   15  C   UNL     1     -12.265  11.360  70.463  1.00  0.00    -0.478 A  
HETATM   16  C   UNL     1     -12.559  12.665  70.811  1.00  0.00    -0.217 A  
HETATM   17  N   UNL     1     -12.381  13.724  69.996  1.00  0.00    -0.324 NA 
HETATM   18  N   UNL     1     -12.680   9.540  72.253  1.00  0.00    -0.345 NA 
HETATM   19  C   UNL     1     -11.905  13.498  68.765  1.00  0.00    -0.355 A  
HETATM   20  C   UNL     1     -11.699  14.605  67.960  1.00  0.00    -0.371 A  
HETATM   21  C   UNL     1     -11.168  14.498  66.671  1.00  0.00    -0.346 A  
HETATM   22  C   UNL     1     -11.594  12.210  68.278  1.00  0.00    -0.382 A  
HETATM   23  C   UNL     1     -10.882  13.233  66.158  1.00  0.00    -0.280 A  
HETATM   24  C   UNL     1     -11.112  12.103  66.952  1.00  0.00    -0.348 A  
BRANCH  21  25
HETATM   25  O   UNL     1     -11.009  15.594  65.868  1.00  0.00    -0.308 OA 
BRANCH  25  26
HETATM   26  C   UNL     1      -9.874  16.414  66.179  1.00  0.00    -0.338 C  
BRANCH  26  27
HETATM   27  C   UNL     1     -10.406  17.796  66.526  1.00  0.00    -0.345 C  
BRANCH  27  28
HETATM   28  C   UNL     1      -9.337  18.886  66.425  1.00  0.00    -0.328 C  
BRANCH  28  29
HETATM   29  N   UNL     1      -9.133  19.666  67.658  1.00  0.00    -0.320 NA 
HETATM   30  C   UNL     1      -8.648  18.849  68.792  1.00  0.00    -0.301 C  
HETATM   31  C   UNL     1      -7.197  18.336  68.633  1.00  0.00    -0.282 C  
HETATM   32  N   UNL     1      -6.202  19.395  68.376  1.00  0.00    -0.229 NA 
HETATM   33  C   UNL     1      -6.678  20.274  67.286  1.00  0.00    -0.233 C  
HETATM   34  C   UNL     1      -5.924  20.162  69.590  1.00  0.00    -0.344 C  
HETATM   35  C   UNL     1      -8.148  20.751  67.420  1.00  0.00    -0.173 C  
ENDBRANCH  28  29
ENDBRANCH  27  28
ENDBRANCH  26  27
ENDBRANCH  25  26
ENDBRANCH  21  25
BRANCH  23  36
HETATM   36  O   UNL     1     -10.418  12.954  64.900  1.00  0.00    -0.305 OA 
HETATM   37  C   UNL     1     -11.417  12.613  63.944  1.00  0.00    -0.442 C  
ENDBRANCH  23  36
ENDBRANCH  11  13
ENDBRANCH   5  11
ENDBRANCH   2   3
TORSDOF 9
ENDMDL
MODEL       17
REMARK 921   NORMALIZED FREE ENERGY PREDICTED BY IDOCK:   -6.76 KCAL/MOL
REMARK 922        TOTAL FREE ENERGY PREDICTED BY IDOCK:  -11.67 KCAL/MOL
REMARK 923 INTER-LIGAND FREE ENERGY PREDICTED BY IDOCK:  -10.35 KCAL/MOL
REMARK 924 INTRA-LIGAND FREE ENERGY PREDICTED BY IDOCK:   -1.32 KCAL/MOL
REMARK 927      BINDING AFFINITY PREDICTED BY RF-SCORE:    0.00 PKD
ROOT
HETATM    1  C   UNL     1      -7.560  17.112  66.331  1.00  0.00    -0.312 C  
HETATM    2  O   UNL     1      -8.937  17.428  66.137  1.00  0.00    -0.437 OA 
ENDROOT
BRANCH   2   3
HETATM    3  C   UNL     1      -9.813  16.816  66.997  1.00  0.00    -0.262 A  
HETATM    4  C   UNL     1     -10.522  15.656  66.663  1.00  0.00    -0.301 A  
HETATM    5  C   UNL     1     -11.419  15.053  67.559  1.00  0.00    -0.328 A  
HETATM    6  C   UNL     1     -11.590  15.654  68.820  1.00  0.00    -0.384 A  
HETATM    7  C   UNL     1     -10.032  17.408  68.246  1.00  0.00    -0.320 A  
HETATM    8 CL   UNL     1     -12.656  14.955  69.990  1.00  0.00    -0.301 Cl 
HETATM    9  C   UNL     1     -10.908  16.824  69.162  1.00  0.00    -0.287 A  
HETATM   10 CL   UNL     1      -9.210  18.856  68.713  1.00  0.00    -0.376 Cl 
BRANCH   5  11
HETATM   11  N   UNL     1     -12.205  13.936  67.174  1.00  0.00    -0.481 NA 
HETATM   12  H   UNL     1     -13.196  13.992  67.409  1.00  0.00     0.000 HD 
BRANCH  11  13
HETATM   13  C   UNL     1     -11.800  12.752  66.505  1.00  0.00    -0.405 A  
HETATM   14  C   UNL     1     -12.057  13.796  64.250  1.00  0.00    -0.440 C  
HETATM   15  C   UNL     1     -11.668  12.721  65.101  1.00  0.00    -0.396 A  
HETATM   16  C   UNL     1     -11.149  11.581  64.517  1.00  0.00    -0.273 A  
HETATM   17  N   UNL     1     -10.739  10.498  65.205  1.00  0.00    -0.065 NA 
HETATM   18  N   UNL     1     -12.337  14.657  63.523  1.00  0.00    -0.512 NA 
HETATM   19  C   UNL     1     -10.856  10.516  66.538  1.00  0.00    -0.058 A  
HETATM   20  C   UNL     1     -10.397   9.406  67.224  1.00  0.00    -0.325 A  
HETATM   21  C   UNL     1     -10.430   9.327  68.620  1.00  0.00    -0.209 A  
HETATM   22  C   UNL     1     -11.398  11.607  67.254  1.00  0.00    -0.372 A  
HETATM   23  C   UNL     1     -10.988  10.380  69.345  1.00  0.00    -0.251 A  
HETATM   24  C   UNL     1     -11.482  11.498  68.662  1.00  0.00    -0.354 A  
BRANCH  21  25
HETATM   25  O   UNL     1     -10.013   8.206  69.285  1.00  0.00    -0.179 OA 
BRANCH  25  26
HETATM   26  C   UNL     1     -10.635   6.985  68.864  1.00  0.00    -0.215 C  
BRANCH  26  27
HETATM   27  C   UNL     1     -11.592   6.570  69.972  1.00  0.00    -0.455 C  
BRANCH  27  28
HETATM   28  C   UNL     1     -10.959   6.641  71.362  1.00  0.00    -0.250 C  
BRANCH  28  29
HETATM   29  N   UNL     1     -10.986   5.377  72.118  1.00  0.00    -0.228 NA 
HETATM   30  C   UNL     1      -9.914   4.437  71.723  1.00  0.00    -0.186 C  
HETATM   31  C   UNL     1      -8.491   4.886  72.130  1.00  0.00    -0.124 C  
HETATM   32  N   UNL     1      -8.334   5.180  73.568  1.00  0.00    -0.110 NA 
HETATM   33  C   UNL     1      -9.425   6.070  74.019  1.00  0.00    -0.149 C  
HETATM   34  C   UNL     1      -8.299   3.948  74.356  1.00  0.00    -0.089 C  
HETATM   35  C   UNL     1     -10.849   5.646  73.571  1.00  0.00    -0.255 C  
ENDBRANCH  28  29
ENDBRANCH  27  28
ENDBRANCH  26  27
ENDBRANCH  25  26
ENDBRANCH  21  25
BRANCH  23  36
HETATM   36  O   UNL     1     -11.150  10.432  70.705  1.00  0.00    -0.313 OA 
HETATM   37  C   UNL     1     -12.288  11.161  71.154  1.00  0.00    -0.346 C  
ENDBRANCH  23  36
ENDBRANCH  11  13
ENDBRANCH   5  11
ENDBRANCH   2   3
TORSDOF 9
ENDMDL
MODEL       18
REMARK 921   NORMALIZED FREE ENERGY PREDICTED BY IDOCK:   -6.75 KCAL/MOL
REMARK 922        TOTAL FREE ENERGY PREDICTED BY IDOCK:  -11.65 KCAL/MOL
REMARK 923 INTER-LIGAND FREE ENERGY PREDICTED BY IDOCK:  -10.05 KCAL/MOL
REMARK 924 INTRA-LIGAND FREE ENERGY PREDICTED BY IDOCK:   -1.60 KCAL/MOL
REMARK 927      BINDING AFFINITY PREDICTED BY RF-SCORE:    0.00 PKD
ROOT
HETATM    1  C   UNL     1     -12.380  12.037  63.686  1.00  0.00    -0.539 C  
HETATM    2  O   UNL     1     -13.037  12.568  64.834  1.00  0.00    -0.833 OA 
ENDROOT
BRANCH   2   3
HETATM    3  C   UNL     1     -12.233  13.236  65.722  1.00  0.00    -0.456 A  
HETATM    4  C   UNL     1     -11.786  12.668  66.921  1.00  0.00    -0.425 A  
HETATM    5  C   UNL     1     -10.971  13.375  67.817  1.00  0.00    -0.262 A  
HETATM    6  C   UNL     1     -10.607  14.690  67.474  1.00  0.00    -0.257 A  
HETATM    7  C   UNL     1     -11.882  14.559  65.427  1.00  0.00    -0.344 A  
HETATM    8 CL   UNL     1      -9.579  15.618  68.512  1.00  0.00    -0.195 Cl 
HETATM    9  C   UNL     1     -11.061  15.282  66.293  1.00  0.00    -0.273 A  
HETATM   10 CL   UNL     1     -12.421  15.332  63.977  1.00  0.00    -0.112 Cl 
BRANCH   5  11
HETATM   11  N   UNL     1     -10.607  12.825  69.073  1.00  0.00    -0.431 NA 
HETATM   12  H   UNL     1      -9.613  12.861  69.299  1.00  0.00     0.000 HD 
BRANCH  11  13
HETATM   13  C   UNL     1     -11.439  12.231  70.059  1.00  0.00    -0.053 A  
HETATM   14  C   UNL     1     -12.458  14.424  70.688  1.00  0.00    -0.350 C  
HETATM   15  C   UNL     1     -12.373  13.003  70.779  1.00  0.00    -0.394 A  
HETATM   16  C   UNL     1     -13.242  12.351  71.633  1.00  0.00    -0.269 A  
HETATM   17  N   UNL     1     -13.270  11.015  71.809  1.00  0.00    -0.437 NA 
HETATM   18  N   UNL     1     -12.579  15.577  70.624  1.00  0.00    -0.442 NA 
HETATM   19  C   UNL     1     -12.390  10.272  71.128  1.00  0.00    -0.395 A  
HETATM   20  C   UNL     1     -12.461   8.900  71.300  1.00  0.00    -0.321 A  
HETATM   21  C   UNL     1     -11.622   8.019  70.612  1.00  0.00    -0.196 A  
HETATM   22  C   UNL     1     -11.430  10.818  70.248  1.00  0.00    -0.406 A  
HETATM   23  C   UNL     1     -10.646   8.539  69.760  1.00  0.00    -0.224 A  
HETATM   24  C   UNL     1     -10.544   9.925  69.598  1.00  0.00    -0.273 A  
BRANCH  21  25
HETATM   25  O   UNL     1     -11.672   6.669  70.823  1.00  0.00    -0.353 OA 
BRANCH  25  26
HETATM   26  C   UNL     1     -11.865   6.275  72.188  1.00  0.00    -0.315 C  
BRANCH  26  27
HETATM   27  C   UNL     1     -10.493   5.937  72.751  1.00  0.00    -0.239 C  
BRANCH  27  28
HETATM   28  C   UNL     1     -10.192   4.438  72.722  1.00  0.00    -0.176 C  
BRANCH  28  29
HETATM   29  N   UNL     1      -8.870   4.084  72.176  1.00  0.00    -0.105 NA 
HETATM   30  C   UNL     1      -8.677   2.626  72.015  1.00  0.00    -0.073 C  
HETATM   31  C   UNL     1      -9.535   1.990  70.897  1.00  0.00    -0.134 C  
HETATM   32  N   UNL     1      -9.374   2.621  69.572  1.00  0.00    -0.134 NA 
HETATM   33  C   UNL     1      -9.500   4.089  69.699  1.00  0.00    -0.192 C  
HETATM   34  C   UNL     1      -8.096   2.252  68.965  1.00  0.00    -0.051 C  
HETATM   35  C   UNL     1      -8.676   4.723  70.851  1.00  0.00    -0.111 C  
ENDBRANCH  28  29
ENDBRANCH  27  28
ENDBRANCH  26  27
ENDBRANCH  25  26
ENDBRANCH  21  25
BRANCH  23  36
HETATM   36  O   UNL     1      -9.711   7.819  69.063  1.00  0.00    -0.154 OA 
HETATM   37  C   UNL     1      -8.355   8.151  69.344  1.00  0.00    -0.123 C  
ENDBRANCH  23  36
ENDBRANCH  11  13
ENDBRANCH   5  11
ENDBRANCH   2   3
TORSDOF 9
ENDMDL
MODEL       19
REMARK 921   NORMALIZED FREE ENERGY PREDICTED BY IDOCK:   -6.70 KCAL/MOL
REMARK 922        TOTAL FREE ENERGY PREDICTED BY IDOCK:  -11.56 KCAL/MOL
REMARK 923 INTER-LIGAND FREE ENERGY PREDICTED BY IDOCK:   -9.39 KCAL/MOL
REMARK 924 INTRA-LIGAND FREE ENERGY PREDICTED BY IDOCK:   -2.18 KCAL/MOL
REMARK 927      BINDING AFFINITY PREDICTED BY RF-SCORE:    0.00 PKD
ROOT
HETATM    1  C   UNL     1     -10.925  16.052  70.039  1.00  0.00    -0.365 C  
HETATM    2  O   UNL     1     -12.299  15.746  70.260  1.00  0.00    -0.391 OA 
ENDROOT
BRANCH   2   3
HETATM    3  C   UNL     1     -12.562  14.463  70.669  1.00  0.00    -0.357 A  
HETATM    4  C   UNL     1     -12.191  13.336  69.926  1.00  0.00    -0.313 A  
HETATM    5  C   UNL     1     -12.478  12.033  70.362  1.00  0.00    -0.153 A  
HETATM    6  C   UNL     1     -13.160  11.887  71.584  1.00  0.00    -0.328 A  
HETATM    7  C   UNL     1     -13.271  14.284  71.863  1.00  0.00    -0.375 A  
HETATM    8 CL   UNL     1     -13.525  10.314  72.204  1.00  0.00    -0.440 Cl 
HETATM    9  C   UNL     1     -13.558  13.000  72.328  1.00  0.00    -0.643 A  
HETATM   10 CL   UNL     1     -13.784  15.632  72.816  1.00  0.00    -0.654 Cl 
BRANCH   5  11
HETATM   11  N   UNL     1     -12.185  10.904  69.554  1.00  0.00    -0.454 NA 
HETATM   12  H   UNL     1     -12.978  10.302  69.334  1.00  0.00     0.000 HD 
BRANCH  11  13
HETATM   13  C   UNL     1     -10.938  10.500  69.010  1.00  0.00    -0.243 A  
HETATM   14  C   UNL     1     -11.382  11.646  66.834  1.00  0.00    -0.295 C  
HETATM   15  C   UNL     1     -10.537  10.922  67.726  1.00  0.00    -0.255 A  
HETATM   16  C   UNL     1      -9.261  10.602  67.300  1.00  0.00    -0.143 A  
HETATM   17  N   UNL     1      -8.362   9.928  68.043  1.00  0.00    -0.113 NA 
HETATM   18  N   UNL     1     -12.028  12.258  66.088  1.00  0.00    -0.618 NA 
HETATM   19  C   UNL     1      -8.730   9.525  69.265  1.00  0.00    -0.151 A  
HETATM   20  C   UNL     1      -7.779   8.864  70.022  1.00  0.00    -0.078 A  
HETATM   21  C   UNL     1      -8.034   8.431  71.327  1.00  0.00    -0.121 A  
HETATM   22  C   UNL     1     -10.014   9.761  69.806  1.00  0.00    -0.265 A  
HETATM   23  C   UNL     1      -9.304   8.627  71.869  1.00  0.00    -0.287 A  
HETATM   24  C   UNL     1     -10.285   9.270  71.105  1.00  0.00    -0.387 A  
BRANCH  21  25
HETATM   25  O   UNL     1      -7.099   7.741  72.049  1.00  0.00    -0.062 OA 
BRANCH  25  26
HETATM   26  C   UNL     1      -6.630   6.534  71.435  1.00  0.00    -0.054 C  
BRANCH  26  27
HETATM   27  C   UNL     1      -7.684   5.466  71.690  1.00  0.00    -0.106 C  
BRANCH  27  28
HETATM   28  C   UNL     1      -7.917   4.561  70.479  1.00  0.00    -0.057 C  
BRANCH  28  29
HETATM   29  N   UNL     1      -9.292   4.579  69.950  1.00  0.00    -0.131 NA 
HETATM   30  C   UNL     1      -9.609   5.810  69.193  1.00  0.00    -0.135 C  
HETATM   31  C   UNL     1      -8.869   5.933  67.840  1.00  0.00    -0.105 C  
HETATM   32  N   UNL     1      -9.055   4.781  66.937  1.00  0.00    -0.114 NA 
HETATM   33  C   UNL     1      -8.806   3.523  67.674  1.00  0.00    -0.125 C  
HETATM   34  C   UNL     1     -10.391   4.788  66.342  1.00  0.00    -0.273 C  
HETATM   35  C   UNL     1      -9.510   3.418  69.053  1.00  0.00    -0.132 C  
ENDBRANCH  28  29
ENDBRANCH  27  28
ENDBRANCH  26  27
ENDBRANCH  25  26
ENDBRANCH  21  25
BRANCH  23  36
HETATM   36  O   UNL     1      -9.732   8.212  73.103  1.00  0.00    -0.277 OA 
HETATM   37  C   UNL     1     -10.893   7.388  73.098  1.00  0.00    -0.386 C  
ENDBRANCH  23  36
ENDBRANCH  11  13
ENDBRANCH   5  11
ENDBRANCH   2   3
TORSDOF 9
ENDMDL
MODEL       20
REMARK 921   NORMALIZED FREE ENERGY PREDICTED BY IDOCK:   -6.61 KCAL/MOL
REMARK 922        TOTAL FREE ENERGY PREDICTED BY IDOCK:  -11.44 KCAL/MOL
REMARK 923 INTER-LIGAND FREE ENERGY PREDICTED BY IDOCK:   -9.92 KCAL/MOL
REMARK 924 INTRA-LIGAND FREE ENERGY PREDICTED BY IDOCK:   -1.52 KCAL/MOL
REMARK 927      BINDING AFFINITY PREDICTED BY RF-SCORE:    0.00 PKD
ROOT
HETATM    1  C   UNL     1      -6.532  11.031  70.137  1.00  0.00    -0.128 C  
HETATM    2  O   UNL     1      -6.460  10.088  69.071  1.00  0.00    -0.044 OA 
ENDROOT
BRANCH   2   3
HETATM    3  C   UNL     1      -7.519   9.221  68.973  1.00  0.00    -0.073 A  
HETATM    4  C   UNL     1      -8.851   9.650  68.927  1.00  0.00    -0.136 A  
HETATM    5  C   UNL     1      -9.918   8.743  68.836  1.00  0.00    -0.192 A  
HETATM    6  C   UNL     1      -9.610   7.371  68.790  1.00  0.00    -0.147 A  
HETATM    7  C   UNL     1      -7.248   7.848  68.962  1.00  0.00    -0.075 A  
HETATM    8 CL   UNL     1     -10.867   6.191  68.647  1.00  0.00    -0.367 Cl 
HETATM    9  C   UNL     1      -8.288   6.924  68.857  1.00  0.00    -0.121 A  
HETATM   10 CL   UNL     1      -5.628   7.249  69.043  1.00  0.00    -0.018 Cl 
BRANCH   5  11
HETATM   11  N   UNL     1     -11.266   9.183  68.890  1.00  0.00    -0.431 NA 
HETATM   12  H   UNL     1     -11.857   8.889  68.113  1.00  0.00     0.000 HD 
BRANCH  11  13
HETATM   13  C   UNL     1     -11.903   9.977  69.880  1.00  0.00    -0.074 A  
HETATM   14  C   UNL     1     -12.342   8.003  71.348  1.00  0.00    -0.306 C  
HETATM   15  C   UNL     1     -12.354   9.405  71.087  1.00  0.00    -0.386 A  
HETATM   16  C   UNL     1     -12.851  10.246  72.064  1.00  0.00    -0.359 A  
HETATM   17  N   UNL     1     -12.915  11.587  71.948  1.00  0.00    -0.419 NA 
HETATM   18  N   UNL     1     -12.326   6.872  71.611  1.00  0.00    -0.357 NA 
HETATM   19  C   UNL     1     -12.486  12.142  70.808  1.00  0.00    -0.271 A  
HETATM   20  C   UNL     1     -12.530  13.522  70.726  1.00  0.00    -0.428 A  
HETATM   21  C   UNL     1     -12.073  14.216  69.602  1.00  0.00    -0.349 A  
HETATM   22  C   UNL     1     -11.985  11.391  69.721  1.00  0.00    -0.422 A  
HETATM   23  C   UNL     1     -11.601  13.494  68.505  1.00  0.00    -0.333 A  
HETATM   24  C   UNL     1     -11.577  12.095  68.563  1.00  0.00    -0.366 A  
BRANCH  21  25
HETATM   25  O   UNL     1     -12.161  15.578  69.515  1.00  0.00    -0.327 OA 
BRANCH  25  26
HETATM   26  C   UNL     1     -11.154  16.298  70.237  1.00  0.00    -0.332 C  
BRANCH  26  27
HETATM   27  C   UNL     1     -10.079  16.688  69.234  1.00  0.00    -0.257 C  
BRANCH  27  28
HETATM   28  C   UNL     1     -10.490  17.867  68.350  1.00  0.00    -0.330 C  
BRANCH  28  29
HETATM   29  N   UNL     1      -9.820  19.140  68.669  1.00  0.00    -0.400 NA 
HETATM   30  C   UNL     1      -8.359  19.000  68.852  1.00  0.00    -0.263 C  
HETATM   31  C   UNL     1      -7.582  18.681  67.552  1.00  0.00    -0.228 C  
HETATM   32  N   UNL     1      -7.815  19.638  66.453  1.00  0.00    -0.293 NA 
HETATM   33  C   UNL     1      -9.267  19.854  66.278  1.00  0.00    -0.373 C  
HETATM   34  C   UNL     1      -7.121  20.901  66.700  1.00  0.00    -0.168 C  
HETATM   35  C   UNL     1     -10.056  20.127  67.586  1.00  0.00    -0.402 C  
ENDBRANCH  28  29
ENDBRANCH  27  28
ENDBRANCH  26  27
ENDBRANCH  25  26
ENDBRANCH  21  25
BRANCH  23  36
HETATM   36  O   UNL     1     -11.176  14.017  67.312  1.00  0.00    -0.293 OA 
HETATM   37  C   UNL     1     -12.111  13.925  66.241  1.00  0.00    -0.451 C  
ENDBRANCH  23  36
ENDBRANCH  11  13
ENDBRANCH   5  11
ENDBRANCH   2   3
TORSDOF 9
ENDMDL
MODEL       21
REMARK 921   NORMALIZED FREE ENERGY PREDICTED BY IDOCK:   -6.61 KCAL/MOL
REMARK 922        TOTAL FREE ENERGY PREDICTED BY IDOCK:  -11.43 KCAL/MOL
REMARK 923 INTER-LIGAND FREE ENERGY PREDICTED BY IDOCK:   -9.66 KCAL/MOL
REMARK 924 INTRA-LIGAND FREE ENERGY PREDICTED BY IDOCK:   -1.77 KCAL/MOL
REMARK 927      BINDING AFFINITY PREDICTED BY RF-SCORE:    0.00 PKD
ROOT
HETATM    1  C   UNL     1     -10.590  11.174  64.815  1.00  0.00    -0.303 C  
HETATM    2  O   UNL     1     -11.837  11.540  65.401  1.00  0.00    -0.127 OA 
ENDROOT
BRANCH   2   3
HETATM    3  C   UNL     1     -11.757  12.286  66.549  1.00  0.00    -0.352 A  
HETATM    4  C   UNL     1     -11.477  11.726  67.802  1.00  0.00    -0.381 A  
HETATM    5  C   UNL     1     -11.408  12.509  68.964  1.00  0.00    -0.290 A  
HETATM    6  C   UNL     1     -11.630  13.892  68.837  1.00  0.00    -0.316 A  
HETATM    7  C   UNL     1     -12.008  13.660  66.462  1.00  0.00    -0.424 A  
HETATM    8 CL   UNL     1     -11.533  14.930  70.218  1.00  0.00    -0.299 Cl 
HETATM    9  C   UNL     1     -11.932  14.465  67.599  1.00  0.00    -0.378 A  
HETATM   10 CL   UNL     1     -12.385  14.412  64.952  1.00  0.00    -0.436 Cl 
BRANCH   5  11
HETATM   11  N   UNL     1     -11.222  11.918  70.241  1.00  0.00    -0.349 NA 
HETATM   12  H   UNL     1     -10.487  12.329  70.814  1.00  0.00     0.000 HD 
BRANCH  11  13
HETATM   13  C   UNL     1     -11.922  10.831  70.828  1.00  0.00    -0.362 A  
HETATM   14  C   UNL     1     -13.503  12.346  72.031  1.00  0.00    -0.360 C  
HETATM   15  C   UNL     1     -13.059  11.052  71.632  1.00  0.00    -0.543 A  
HETATM   16  C   UNL     1     -13.773   9.953  72.072  1.00  0.00    -0.211 A  
HETATM   17  N   UNL     1     -13.465   8.678  71.764  1.00  0.00    -0.365 NA 
HETATM   18  N   UNL     1     -13.913  13.383  72.358  1.00  0.00    -0.694 NA 
HETATM   19  C   UNL     1     -12.390   8.456  70.999  1.00  0.00    -0.129 A  
HETATM   20  C   UNL     1     -12.114   7.141  70.669  1.00  0.00    -0.281 A  
HETATM   21  C   UNL     1     -11.043   6.789  69.844  1.00  0.00    -0.323 A  
HETATM   22  C   UNL     1     -11.560   9.489  70.511  1.00  0.00    -0.316 A  
HETATM   23  C   UNL     1     -10.192   7.791  69.375  1.00  0.00    -0.208 A  
HETATM   24  C   UNL     1     -10.442   9.123  69.723  1.00  0.00    -0.234 A  
BRANCH  21  25
HETATM   25  O   UNL     1     -10.755   5.483  69.560  1.00  0.00    -0.310 OA 
BRANCH  25  26
HETATM   26  C   UNL     1     -10.096   4.765  70.612  1.00  0.00    -0.218 C  
BRANCH  26  27
HETATM   27  C   UNL     1      -9.295   3.650  69.956  1.00  0.00    -0.248 C  
BRANCH  27  28
HETATM   28  C   UNL     1      -8.189   4.173  69.040  1.00  0.00    -0.070 C  
BRANCH  28  29
HETATM   29  N   UNL     1      -8.080   3.480  67.744  1.00  0.00    -0.080 NA 
HETATM   30  C   UNL     1      -9.334   3.510  66.960  1.00  0.00    -0.194 C  
HETATM   31  C   UNL     1      -9.709   4.908  66.412  1.00  0.00    -0.189 C  
HETATM   32  N   UNL     1      -8.652   5.550  65.607  1.00  0.00    -0.144 NA 
HETATM   33  C   UNL     1      -7.364   5.486  66.331  1.00  0.00    -0.079 C  
HETATM   34  C   UNL     1      -8.545   4.929  64.287  1.00  0.00    -0.141 C  
HETATM   35  C   UNL     1      -7.009   4.096  66.922  1.00  0.00    -0.059 C  
ENDBRANCH  28  29
ENDBRANCH  27  28
ENDBRANCH  26  27
ENDBRANCH  25  26
ENDBRANCH  21  25
BRANCH  23  36
HETATM   36  O   UNL     1      -9.069   7.609  68.610  1.00  0.00    -0.136 OA 
HETATM   37  C   UNL     1      -7.837   7.904  69.261  1.00  0.00    -0.115 C  
ENDBRANCH  23  36
ENDBRANCH  11  13
ENDBRANCH   5  11
ENDBRANCH   2   3
TORSDOF 9
ENDMDL
MODEL       22
REMARK 921   NORMALIZED FREE ENERGY PREDICTED BY IDOCK:   -6.61 KCAL/MOL
REMARK 922        TOTAL FREE ENERGY PREDICTED BY IDOCK:  -11.43 KCAL/MOL
REMARK 923 INTER-LIGAND FREE ENERGY PREDICTED BY IDOCK:  -10.07 KCAL/MOL
REMARK 924 INTRA-LIGAND FREE ENERGY PREDICTED BY IDOCK:   -1.35 KCAL/MOL
REMARK 927      BINDING AFFINITY PREDICTED BY RF-SCORE:    0.00 PKD
ROOT
HETATM    1  C   UNL     1     -10.741   5.608  70.129  1.00  0.00    -0.305 C  
HETATM    2  O   UNL     1     -11.769   6.169  70.941  1.00  0.00    -0.282 OA 
ENDROOT
BRANCH   2   3
HETATM    3  C   UNL     1     -11.880   7.535  70.899  1.00  0.00    -0.267 A  
HETATM    4  C   UNL     1     -10.863   8.366  70.411  1.00  0.00    -0.246 A  
HETATM    5  C   UNL     1     -10.997   9.763  70.385  1.00  0.00    -0.312 A  
HETATM    6  C   UNL     1     -12.196  10.315  70.870  1.00  0.00    -0.365 A  
HETATM    7  C   UNL     1     -13.046   8.119  71.407  1.00  0.00    -0.225 A  
HETATM    8 CL   UNL     1     -12.449  12.027  70.846  1.00  0.00    -0.439 Cl 
HETATM    9  C   UNL     1     -13.212   9.504  71.382  1.00  0.00    -0.448 A  
HETATM   10 CL   UNL     1     -14.329   7.155  72.049  1.00  0.00    -0.441 Cl 
BRANCH   5  11
HETATM   11  N   UNL     1      -9.923  10.598  69.982  1.00  0.00    -0.362 NA 
HETATM   12  H   UNL     1      -9.441  11.090  70.733  1.00  0.00     0.000 HD 
BRANCH  11  13
HETATM   13  C   UNL     1      -9.429  10.841  68.673  1.00  0.00    -0.188 A  
HETATM   14  C   UNL     1      -7.852   8.906  68.781  1.00  0.00    -0.101 C  
HETATM   15  C   UNL     1      -8.483   9.977  68.084  1.00  0.00    -0.114 A  
HETATM   16  C   UNL     1      -8.134  10.191  66.763  1.00  0.00    -0.119 A  
HETATM   17  N   UNL     1      -8.657  11.163  65.990  1.00  0.00    -0.171 NA 
HETATM   18  N   UNL     1      -7.335   8.008  69.304  1.00  0.00    -0.080 NA 
HETATM   19  C   UNL     1      -9.559  11.987  66.538  1.00  0.00    -0.224 A  
HETATM   20  C   UNL     1     -10.106  12.955  65.714  1.00  0.00    -0.294 A  
HETATM   21  C   UNL     1     -11.086  13.846  66.162  1.00  0.00    -0.299 A  
HETATM   22  C   UNL     1      -9.977  11.894  67.883  1.00  0.00    -0.195 A  
HETATM   23  C   UNL     1     -11.492  13.792  67.495  1.00  0.00    -0.330 A  
HETATM   24  C   UNL     1     -10.927  12.836  68.347  1.00  0.00    -0.281 A  
BRANCH  21  25
HETATM   25  O   UNL     1     -11.588  14.827  65.351  1.00  0.00    -0.343 OA 
BRANCH  25  26
HETATM   26  C   UNL     1     -10.613  15.740  64.830  1.00  0.00    -0.284 C  
BRANCH  26  27
HETATM   27  C   UNL     1     -10.386  16.803  65.895  1.00  0.00    -0.341 C  
BRANCH  27  28
HETATM   28  C   UNL     1      -8.929  16.885  66.351  1.00  0.00    -0.283 C  
BRANCH  28  29
HETATM   29  N   UNL     1      -8.204  18.082  65.891  1.00  0.00    -0.526 NA 
HETATM   30  C   UNL     1      -8.820  19.348  66.345  1.00  0.00    -0.359 C  
HETATM   31  C   UNL     1      -8.695  19.607  67.865  1.00  0.00    -0.324 C  
HETATM   32  N   UNL     1      -7.312  19.562  68.379  1.00  0.00    -0.305 NA 
HETATM   33  C   UNL     1      -6.639  18.338  67.895  1.00  0.00    -0.203 C  
HETATM   34  C   UNL     1      -6.569  20.761  67.993  1.00  0.00    -0.294 C  
HETATM   35  C   UNL     1      -6.803  18.052  66.379  1.00  0.00    -0.235 C  
ENDBRANCH  28  29
ENDBRANCH  27  28
ENDBRANCH  26  27
ENDBRANCH  25  26
ENDBRANCH  21  25
BRANCH  23  36
HETATM   36  O   UNL     1     -12.392  14.628  68.103  1.00  0.00    -0.134 OA 
HETATM   37  C   UNL     1     -11.837  15.531  69.054  1.00  0.00    -0.354 C  
ENDBRANCH  23  36
ENDBRANCH  11  13
ENDBRANCH   5  11
ENDBRANCH   2   3
TORSDOF 9
ENDMDL
MODEL       23
REMARK 921   NORMALIZED FREE ENERGY PREDICTED BY IDOCK:   -6.60 KCAL/MOL
REMARK 922        TOTAL FREE ENERGY PREDICTED BY IDOCK:  -11.41 KCAL/MOL
REMARK 923 INTER-LIGAND FREE ENERGY PREDICTED BY IDOCK:   -9.67 KCAL/MOL
REMARK 924 INTRA-LIGAND FREE ENERGY PREDICTED BY IDOCK:   -1.74 KCAL/MOL
REMARK 927      BINDING AFFINITY PREDICTED BY RF-SCORE:    0.00 PKD
ROOT
HETATM    1  C   UNL     1      -8.814   9.863  63.630  1.00  0.00    -0.237 C  
HETATM    2  O   UNL     1      -8.650   8.705  64.445  1.00  0.00    -0.144 OA 
ENDROOT
BRANCH   2   3
HETATM    3  C   UNL     1      -8.839   8.896  65.791  1.00  0.00    -0.186 A  
HETATM    4  C   UNL     1     -10.067   9.286  66.338  1.00  0.00    -0.337 A  
HETATM    5  C   UNL     1     -10.234   9.482  67.718  1.00  0.00    -0.216 A  
HETATM    6  C   UNL     1      -9.117   9.274  68.549  1.00  0.00    -0.132 A  
HETATM    7  C   UNL     1      -7.740   8.732  66.641  1.00  0.00    -0.093 A  
HETATM    8 CL   UNL     1      -9.249   9.468  70.263  1.00  0.00    -0.284 Cl 
HETATM    9  C   UNL     1      -7.878   8.907  68.018  1.00  0.00    -0.102 A  
HETATM   10 CL   UNL     1      -6.188   8.278  66.028  1.00  0.00    -0.048 Cl 
BRANCH   5  11
HETATM   11  N   UNL     1     -11.454   9.973  68.250  1.00  0.00    -0.583 NA 
HETATM   12  H   UNL     1     -12.207   9.289  68.330  1.00  0.00     0.000 HD 
BRANCH  11  13
HETATM   13  C   UNL     1     -11.770  11.286  68.688  1.00  0.00    -0.324 A  
HETATM   14  C   UNL     1     -12.312  10.512  71.001  1.00  0.00    -0.399 C  
HETATM   15  C   UNL     1     -12.114  11.538  70.031  1.00  0.00    -0.408 A  
HETATM   16  C   UNL     1     -12.288  12.851  70.428  1.00  0.00    -0.258 A  
HETATM   17  N   UNL     1     -12.128  13.914  69.615  1.00  0.00    -0.340 NA 
HETATM   18  N   UNL     1     -12.457   9.709  71.827  1.00  0.00    -0.389 NA 
HETATM   19  C   UNL     1     -11.797  13.687  68.338  1.00  0.00    -0.372 A  
HETATM   20  C   UNL     1     -11.606  14.796  67.532  1.00  0.00    -0.379 A  
HETATM   21  C   UNL     1     -11.219  14.685  66.194  1.00  0.00    -0.341 A  
HETATM   22  C   UNL     1     -11.621  12.393  67.801  1.00  0.00    -0.413 A  
HETATM   23  C   UNL     1     -11.069  13.416  65.634  1.00  0.00    -0.285 A  
HETATM   24  C   UNL     1     -11.287  12.285  66.430  1.00  0.00    -0.405 A  
BRANCH  21  25
HETATM   25  O   UNL     1     -11.075  15.787  65.395  1.00  0.00    -0.303 OA 
BRANCH  25  26
HETATM   26  C   UNL     1     -10.231  16.815  65.929  1.00  0.00    -0.328 C  
BRANCH  26  27
HETATM   27  C   UNL     1      -8.801  16.304  65.847  1.00  0.00    -0.187 C  
BRANCH  27  28
HETATM   28  C   UNL     1      -8.082  16.333  67.197  1.00  0.00    -0.188 C  
BRANCH  28  29
HETATM   29  N   UNL     1      -8.380  15.191  68.080  1.00  0.00    -0.143 NA 
HETATM   30  C   UNL     1      -7.714  13.939  67.659  1.00  0.00    -0.184 C  
HETATM   31  C   UNL     1      -6.178  13.942  67.844  1.00  0.00    -0.158 C  
HETATM   32  N   UNL     1      -5.730  14.260  69.214  1.00  0.00    -0.085 NA 
HETATM   33  C   UNL     1      -6.421  15.475  69.696  1.00  0.00    -0.173 C  
HETATM   34  C   UNL     1      -5.956  13.131  70.116  1.00  0.00    -0.138 C  
HETATM   35  C   UNL     1      -7.956  15.494  69.469  1.00  0.00    -0.192 C  
ENDBRANCH  28  29
ENDBRANCH  27  28
ENDBRANCH  26  27
ENDBRANCH  25  26
ENDBRANCH  21  25
BRANCH  23  36
HETATM   36  O   UNL     1     -10.756  13.136  64.330  1.00  0.00    -0.386 OA 
HETATM   37  C   UNL     1     -11.867  12.847  63.487  1.00  0.00    -0.536 C  
ENDBRANCH  23  36
ENDBRANCH  11  13
ENDBRANCH   5  11
ENDBRANCH   2   3
TORSDOF 9
ENDMDL
MODEL       24
REMARK 921   NORMALIZED FREE ENERGY PREDICTED BY IDOCK:   -6.58 KCAL/MOL
REMARK 922        TOTAL FREE ENERGY PREDICTED BY IDOCK:  -11.39 KCAL/MOL
REMARK 923 INTER-LIGAND FREE ENERGY PREDICTED BY IDOCK:   -9.97 KCAL/MOL
REMARK 924 INTRA-LIGAND FREE ENERGY PREDICTED BY IDOCK:   -1.42 KCAL/MOL
REMARK 927      BINDING AFFINITY PREDICTED BY RF-SCORE:    0.00 PKD
ROOT
HETATM    1  C   UNL     1      -6.996   5.755  71.543  1.00  0.00    -0.069 C  
HETATM    2  O   UNL     1      -7.211   7.146  71.769  1.00  0.00    -0.074 OA 
ENDROOT
BRANCH   2   3
HETATM    3  C   UNL     1      -8.505   7.578  71.622  1.00  0.00    -0.111 A  
HETATM    4  C   UNL     1      -9.149   7.641  70.380  1.00  0.00    -0.152 A  
HETATM    5  C   UNL     1     -10.471   8.094  70.255  1.00  0.00    -0.219 A  
HETATM    6  C   UNL     1     -11.144   8.488  71.426  1.00  0.00    -0.265 A  
HETATM    7  C   UNL     1      -9.190   8.010  72.763  1.00  0.00    -0.252 A  
HETATM    8 CL   UNL     1     -12.785   9.030  71.358  1.00  0.00    -0.362 Cl 
HETATM    9  C   UNL     1     -10.509   8.452  72.671  1.00  0.00    -0.317 A  
HETATM   10 CL   UNL     1      -8.445   7.983  74.324  1.00  0.00    -0.298 Cl 
BRANCH   5  11
HETATM   11  N   UNL     1     -11.079   8.248  68.982  1.00  0.00    -0.413 NA 
HETATM   12  H   UNL     1     -12.003   7.829  68.881  1.00  0.00     0.000 HD 
BRANCH  11  13
HETATM   13  C   UNL     1     -10.575   8.907  67.829  1.00  0.00    -0.202 A  
HETATM   14  C   UNL     1      -9.526   6.817  66.950  1.00  0.00    -0.156 C  
HETATM   15  C   UNL     1      -9.889   8.190  66.828  1.00  0.00    -0.329 A  
HETATM   16  C   UNL     1      -9.533   8.859  65.672  1.00  0.00    -0.159 A  
HETATM   17  N   UNL     1      -9.818  10.153  65.428  1.00  0.00    -0.289 NA 
HETATM   18  N   UNL     1      -9.234   5.694  66.997  1.00  0.00    -0.115 NA 
HETATM   19  C   UNL     1     -10.472  10.843  66.370  1.00  0.00    -0.250 A  
HETATM   20  C   UNL     1     -10.783  12.160  66.082  1.00  0.00    -0.307 A  
HETATM   21  C   UNL     1     -11.499  12.967  66.971  1.00  0.00    -0.333 A  
HETATM   22  C   UNL     1     -10.865  10.285  67.607  1.00  0.00    -0.363 A  
HETATM   23  C   UNL     1     -11.871  12.446  68.210  1.00  0.00    -0.309 A  
HETATM   24  C   UNL     1     -11.539  11.124  68.526  1.00  0.00    -0.385 A  
BRANCH  21  25
HETATM   25  O   UNL     1     -11.763  14.281  66.693  1.00  0.00    -0.367 OA 
BRANCH  25  26
HETATM   26  C   UNL     1     -12.138  14.550  65.336  1.00  0.00    -0.317 C  
BRANCH  26  27
HETATM   27  C   UNL     1     -11.156  15.581  64.799  1.00  0.00    -0.421 C  
BRANCH  27  28
HETATM   28  C   UNL     1      -9.971  15.817  65.738  1.00  0.00    -0.358 C  
BRANCH  28  29
HETATM   29  N   UNL     1      -9.421  17.183  65.704  1.00  0.00    -0.489 NA 
HETATM   30  C   UNL     1     -10.274  18.174  66.397  1.00  0.00    -0.399 C  
HETATM   31  C   UNL     1     -10.319  18.010  67.935  1.00  0.00    -0.392 C  
HETATM   32  N   UNL     1      -8.995  18.014  68.586  1.00  0.00    -0.295 NA 
HETATM   33  C   UNL     1      -8.089  17.079  67.884  1.00  0.00    -0.195 C  
HETATM   34  C   UNL     1      -8.432  19.363  68.627  1.00  0.00    -0.359 C  
HETATM   35  C   UNL     1      -8.079  17.210  66.338  1.00  0.00    -0.302 C  
ENDBRANCH  28  29
ENDBRANCH  27  28
ENDBRANCH  26  27
ENDBRANCH  25  26
ENDBRANCH  21  25
BRANCH  23  36
HETATM   36  O   UNL     1     -12.519  13.121  69.212  1.00  0.00    -0.071 OA 
HETATM   37  C   UNL     1     -11.682  13.908  70.054  1.00  0.00    -0.268 C  
ENDBRANCH  23  36
ENDBRANCH  11  13
ENDBRANCH   5  11
ENDBRANCH   2   3
TORSDOF 9
ENDMDL
MODEL       25
REMARK 921   NORMALIZED FREE ENERGY PREDICTED BY IDOCK:   -6.57 KCAL/MOL
REMARK 922        TOTAL FREE ENERGY PREDICTED BY IDOCK:  -11.38 KCAL/MOL
REMARK 923 INTER-LIGAND FREE ENERGY PREDICTED BY IDOCK:  -10.57 KCAL/MOL
REMARK 924 INTRA-LIGAND FREE ENERGY PREDICTED BY IDOCK:   -0.81 KCAL/MOL
REMARK 927      BINDING AFFINITY PREDICTED BY RF-SCORE:    0.00 PKD
ROOT
HETATM    1  C   UNL     1      -9.850   4.279  69.380  1.00  0.00    -0.135 C  
HETATM    2  O   UNL     1     -10.060   5.294  70.359  1.00  0.00    -0.215 OA 
ENDROOT
BRANCH   2   3
HETATM    3  C   UNL     1      -9.755   6.572  69.963  1.00  0.00    -0.165 A  
HETATM    4  C   UNL     1     -10.711   7.458  69.452  1.00  0.00    -0.220 A  
HETATM    5  C   UNL     1     -10.373   8.758  69.047  1.00  0.00    -0.213 A  
HETATM    6  C   UNL     1      -9.029   9.154  69.169  1.00  0.00    -0.144 A  
HETATM    7  C   UNL     1      -8.420   6.985  70.038  1.00  0.00    -0.140 A  
HETATM    8 CL   UNL     1      -8.538  10.751  68.717  1.00  0.00    -0.150 Cl 
HETATM    9  C   UNL     1      -8.057   8.276  69.655  1.00  0.00    -0.116 A  
HETATM   10 CL   UNL     1      -7.184   5.933  70.634  1.00  0.00    -0.080 Cl 
BRANCH   5  11
HETATM   11  N   UNL     1     -11.330   9.613  68.439  1.00  0.00    -0.502 NA 
HETATM   12  H   UNL     1     -11.820   9.223  67.634  1.00  0.00     0.000 HD 
BRANCH  11  13
HETATM   13  C   UNL     1     -11.696  10.936  68.799  1.00  0.00    -0.286 A  
HETATM   14  C   UNL     1     -12.145  10.291  71.171  1.00  0.00    -0.395 C  
HETATM   15  C   UNL     1     -12.020  11.260  70.133  1.00  0.00    -0.452 A  
HETATM   16  C   UNL     1     -12.245  12.586  70.449  1.00  0.00    -0.286 A  
HETATM   17  N   UNL     1     -12.156  13.600  69.565  1.00  0.00    -0.326 NA 
HETATM   18  N   UNL     1     -12.232   9.538  72.051  1.00  0.00    -0.338 NA 
HETATM   19  C   UNL     1     -11.846  13.305  68.297  1.00  0.00    -0.354 A  
HETATM   20  C   UNL     1     -11.726  14.366  67.417  1.00  0.00    -0.424 A  
HETATM   21  C   UNL     1     -11.368  14.186  66.078  1.00  0.00    -0.330 A  
HETATM   22  C   UNL     1     -11.622  11.988  67.840  1.00  0.00    -0.405 A  
HETATM   23  C   UNL     1     -11.171  12.891  65.598  1.00  0.00    -0.295 A  
HETATM   24  C   UNL     1     -11.316  11.806  66.470  1.00  0.00    -0.370 A  
BRANCH  21  25
HETATM   25  O   UNL     1     -11.295  15.238  65.207  1.00  0.00    -0.338 OA 
BRANCH  25  26
HETATM   26  C   UNL     1     -10.127  16.059  65.344  1.00  0.00    -0.225 C  
BRANCH  26  27
HETATM   27  C   UNL     1     -10.601  17.440  65.771  1.00  0.00    -0.185 C  
BRANCH  27  28
HETATM   28  C   UNL     1     -10.191  17.792  67.202  1.00  0.00    -0.353 C  
BRANCH  28  29
HETATM   29  N   UNL     1      -9.933  19.224  67.435  1.00  0.00    -0.349 NA 
HETATM   30  C   UNL     1      -9.123  19.480  68.646  1.00  0.00    -0.343 C  
HETATM   31  C   UNL     1      -7.649  19.024  68.534  1.00  0.00    -0.329 C  
HETATM   32  N   UNL     1      -6.926  19.581  67.374  1.00  0.00    -0.210 NA 
HETATM   33  C   UNL     1      -7.732  19.399  66.148  1.00  0.00    -0.303 C  
HETATM   34  C   UNL     1      -6.598  20.990  67.585  1.00  0.00    -0.358 C  
HETATM   35  C   UNL     1      -9.222  19.812  66.273  1.00  0.00    -0.388 C  
ENDBRANCH  28  29
ENDBRANCH  27  28
ENDBRANCH  26  27
ENDBRANCH  25  26
ENDBRANCH  21  25
BRANCH  23  36
HETATM   36  O   UNL     1     -10.877  12.541  64.306  1.00  0.00    -0.315 OA 
HETATM   37  C   UNL     1     -12.001  12.223  63.491  1.00  0.00    -0.533 C  
ENDBRANCH  23  36
ENDBRANCH  11  13
ENDBRANCH   5  11
ENDBRANCH   2   3
TORSDOF 9
ENDMDL
MODEL       26
REMARK 921   NORMALIZED FREE ENERGY PREDICTED BY IDOCK:   -6.57 KCAL/MOL
REMARK 922        TOTAL FREE ENERGY PREDICTED BY IDOCK:  -11.36 KCAL/MOL
REMARK 923 INTER-LIGAND FREE ENERGY PREDICTED BY IDOCK:  -10.10 KCAL/MOL
REMARK 924 INTRA-LIGAND FREE ENERGY PREDICTED BY IDOCK:   -1.27 KCAL/MOL
REMARK 927      BINDING AFFINITY PREDICTED BY RF-SCORE:    0.00 PKD
ROOT
HETATM    1  C   UNL     1     -10.031  10.504  64.327  1.00  0.00    -0.331 C  
HETATM    2  O   UNL     1      -8.773  10.579  64.993  1.00  0.00    -0.174 OA 
ENDROOT
BRANCH   2   3
HETATM    3  C   UNL     1      -8.787  10.252  66.325  1.00  0.00    -0.146 A  
HETATM    4  C   UNL     1      -9.934   9.795  66.984  1.00  0.00    -0.259 A  
HETATM    5  C   UNL     1      -9.925   9.474  68.351  1.00  0.00    -0.164 A  
HETATM    6  C   UNL     1      -8.714   9.625  69.051  1.00  0.00    -0.142 A  
HETATM    7  C   UNL     1      -7.607  10.425  67.059  1.00  0.00    -0.101 A  
HETATM    8 CL   UNL     1      -8.614   9.222  70.731  1.00  0.00    -0.260 Cl 
HETATM    9  C   UNL     1      -7.565  10.101  68.415  1.00  0.00    -0.087 A  
HETATM   10 CL   UNL     1      -6.161  11.010  66.314  1.00  0.00    -0.134 Cl 
BRANCH   5  11
HETATM   11  N   UNL     1     -11.116   9.107  69.029  1.00  0.00    -0.443 NA 
HETATM   12  H   UNL     1     -11.486   8.184  68.804  1.00  0.00     0.000 HD 
BRANCH  11  13
HETATM   13  C   UNL     1     -11.863   9.852  69.980  1.00  0.00    -0.067 A  
HETATM   14  C   UNL     1     -12.324   7.831  71.375  1.00  0.00    -0.323 C  
HETATM   15  C   UNL     1     -12.379   9.236  71.138  1.00  0.00    -0.363 A  
HETATM   16  C   UNL     1     -12.988  10.034  72.088  1.00  0.00    -0.366 A  
HETATM   17  N   UNL     1     -13.104  11.373  71.990  1.00  0.00    -0.441 NA 
HETATM   18  N   UNL     1     -12.277   6.697  71.620  1.00  0.00    -0.355 NA 
HETATM   19  C   UNL     1     -12.614  11.969  70.896  1.00  0.00    -0.253 A  
HETATM   20  C   UNL     1     -12.715  13.348  70.834  1.00  0.00    -0.349 A  
HETATM   21  C   UNL     1     -12.204  14.085  69.762  1.00  0.00    -0.341 A  
HETATM   22  C   UNL     1     -11.997  11.265  69.839  1.00  0.00    -0.440 A  
HETATM   23  C   UNL     1     -11.617  13.407  68.693  1.00  0.00    -0.327 A  
HETATM   24  C   UNL     1     -11.533  12.010  68.729  1.00  0.00    -0.355 A  
BRANCH  21  25
HETATM   25  O   UNL     1     -12.348  15.443  69.691  1.00  0.00    -0.304 OA 
BRANCH  25  26
HETATM   26  C   UNL     1     -11.469  16.190  70.542  1.00  0.00    -0.343 C  
BRANCH  26  27
HETATM   27  C   UNL     1     -10.287  16.626  69.688  1.00  0.00    -0.193 C  
BRANCH  27  28
HETATM   28  C   UNL     1     -10.714  17.346  68.408  1.00  0.00    -0.301 C  
BRANCH  28  29
HETATM   29  N   UNL     1      -9.709  17.336  67.330  1.00  0.00    -0.253 NA 
HETATM   30  C   UNL     1      -9.985  18.326  66.266  1.00  0.00    -0.357 C  
HETATM   31  C   UNL     1      -9.799  19.798  66.703  1.00  0.00    -0.425 C  
HETATM   32  N   UNL     1      -8.473  20.101  67.276  1.00  0.00    -0.333 NA 
HETATM   33  C   UNL     1      -8.131  19.095  68.304  1.00  0.00    -0.332 C  
HETATM   34  C   UNL     1      -7.449  20.157  66.232  1.00  0.00    -0.274 C  
HETATM   35  C   UNL     1      -8.361  17.619  67.884  1.00  0.00    -0.235 C  
ENDBRANCH  28  29
ENDBRANCH  27  28
ENDBRANCH  26  27
ENDBRANCH  25  26
ENDBRANCH  21  25
BRANCH  23  36
HETATM   36  O   UNL     1     -11.126  13.972  67.545  1.00  0.00    -0.285 OA 
HETATM   37  C   UNL     1      -9.740  13.750  67.304  1.00  0.00    -0.242 C  
ENDBRANCH  23  36
ENDBRANCH  11  13
ENDBRANCH   5  11
ENDBRANCH   2   3
TORSDOF 9
ENDMDL
MODEL       27
REMARK 921   NORMALIZED FREE ENERGY PREDICTED BY IDOCK:   -6.54 KCAL/MOL
REMARK 922        TOTAL FREE ENERGY PREDICTED BY IDOCK:  -11.33 KCAL/MOL
REMARK 923 INTER-LIGAND FREE ENERGY PREDICTED BY IDOCK:  -10.32 KCAL/MOL
REMARK 924 INTRA-LIGAND FREE ENERGY PREDICTED BY IDOCK:   -1.01 KCAL/MOL
REMARK 927      BINDING AFFINITY PREDICTED BY RF-SCORE:    0.00 PKD
ROOT
HETATM    1  C   UNL     1      -9.568  10.106  64.889  1.00  0.00    -0.306 C  
HETATM    2  O   UNL     1      -8.707   9.353  65.739  1.00  0.00    -0.142 OA 
ENDROOT
BRANCH   2   3
HETATM    3  C   UNL     1      -9.073   9.306  67.061  1.00  0.00    -0.130 A  
HETATM    4  C   UNL     1     -10.361   9.629  67.506  1.00  0.00    -0.297 A  
HETATM    5  C   UNL     1     -10.708   9.580  68.865  1.00  0.00    -0.195 A  
HETATM    6  C   UNL     1      -9.715   9.193  69.782  1.00  0.00    -0.181 A  
HETATM    7  C   UNL     1      -8.098   8.959  68.003  1.00  0.00    -0.106 A  
HETATM    8 CL   UNL     1     -10.073   9.080  71.471  1.00  0.00    -0.399 Cl 
HETATM    9  C   UNL     1      -8.418   8.889  69.359  1.00  0.00    -0.124 A  
HETATM   10 CL   UNL     1      -6.481   8.575  67.526  1.00  0.00    -0.057 Cl 
BRANCH   5  11
HETATM   11  N   UNL     1     -11.986  10.004  69.313  1.00  0.00    -0.428 NA 
HETATM   12  H   UNL     1     -12.755   9.361  69.127  1.00  0.00     0.000 HD 
BRANCH  11  13
HETATM   13  C   UNL     1     -12.339  11.203  69.987  1.00  0.00    -0.279 A  
HETATM   14  C   UNL     1     -13.236   9.967  71.964  1.00  0.00    -0.456 C  
HETATM   15  C   UNL     1     -12.876  11.171  71.290  1.00  0.00    -0.515 A  
HETATM   16  C   UNL     1     -13.083  12.371  71.944  1.00  0.00    -0.366 A  
HETATM   17  N   UNL     1     -12.783  13.577  71.423  1.00  0.00    -0.350 NA 
HETATM   18  N   UNL     1     -13.518   9.010  72.559  1.00  0.00    -0.466 NA 
HETATM   19  C   UNL     1     -12.269  13.620  70.188  1.00  0.00    -0.342 A  
HETATM   20  C   UNL     1     -11.939  14.868  69.689  1.00  0.00    -0.360 A  
HETATM   21  C   UNL     1     -11.358  15.036  68.429  1.00  0.00    -0.309 A  
HETATM   22  C   UNL     1     -12.039  12.469  69.403  1.00  0.00    -0.237 A  
HETATM   23  C   UNL     1     -11.149  13.915  67.624  1.00  0.00    -0.277 A  
HETATM   24  C   UNL     1     -11.504  12.649  68.105  1.00  0.00    -0.359 A  
BRANCH  21  25
HETATM   25  O   UNL     1     -11.075  16.277  67.928  1.00  0.00    -0.332 OA 
BRANCH  25  26
HETATM   26  C   UNL     1     -10.444  17.173  68.852  1.00  0.00    -0.346 C  
BRANCH  26  27
HETATM   27  C   UNL     1      -8.955  16.859  68.830  1.00  0.00    -0.256 C  
BRANCH  27  28
HETATM   28  C   UNL     1      -8.101  18.061  68.424  1.00  0.00    -0.298 C  
BRANCH  28  29
HETATM   29  N   UNL     1      -8.323  18.540  67.048  1.00  0.00    -0.249 NA 
HETATM   30  C   UNL     1      -8.444  20.011  66.955  1.00  0.00    -0.328 C  
HETATM   31  C   UNL     1      -7.127  20.777  67.226  1.00  0.00    -0.362 C  
HETATM   32  N   UNL     1      -5.993  20.357  66.379  1.00  0.00    -0.176 NA 
HETATM   33  C   UNL     1      -5.875  18.883  66.396  1.00  0.00    -0.161 C  
HETATM   34  C   UNL     1      -6.142  20.858  65.013  1.00  0.00    -0.256 C  
HETATM   35  C   UNL     1      -7.204  18.114  66.171  1.00  0.00    -0.281 C  
ENDBRANCH  28  29
ENDBRANCH  27  28
ENDBRANCH  26  27
ENDBRANCH  25  26
ENDBRANCH  21  25
BRANCH  23  36
HETATM   36  O   UNL     1     -10.649  13.914  66.348  1.00  0.00    -0.276 OA 
HETATM   37  C   UNL     1     -11.611  13.703  65.319  1.00  0.00    -0.320 C  
ENDBRANCH  23  36
ENDBRANCH  11  13
ENDBRANCH   5  11
ENDBRANCH   2   3
TORSDOF 9
ENDMDL
MODEL       28
REMARK 921   NORMALIZED FREE ENERGY PREDICTED BY IDOCK:   -6.53 KCAL/MOL
REMARK 922        TOTAL FREE ENERGY PREDICTED BY IDOCK:  -11.31 KCAL/MOL
REMARK 923 INTER-LIGAND FREE ENERGY PREDICTED BY IDOCK:  -10.01 KCAL/MOL
REMARK 924 INTRA-LIGAND FREE ENERGY PREDICTED BY IDOCK:   -1.30 KCAL/MOL
REMARK 927      BINDING AFFINITY PREDICTED BY RF-SCORE:    0.00 PKD
ROOT
HETATM    1  C   UNL     1      -8.142  17.107  66.090  1.00  0.00    -0.248 C  
HETATM    2  O   UNL     1      -9.484  17.537  66.306  1.00  0.00    -0.345 OA 
ENDROOT
BRANCH   2   3
HETATM    3  C   UNL     1     -10.220  16.771  67.173  1.00  0.00    -0.295 A  
HETATM    4  C   UNL     1     -10.811  15.557  66.802  1.00  0.00    -0.291 A  
HETATM    5  C   UNL     1     -11.567  14.795  67.707  1.00  0.00    -0.357 A  
HETATM    6  C   UNL     1     -11.717  15.289  69.015  1.00  0.00    -0.347 A  
HETATM    7  C   UNL     1     -10.418  17.252  68.473  1.00  0.00    -0.375 A  
HETATM    8 CL   UNL     1     -12.609  14.394  70.197  1.00  0.00    -0.382 Cl 
HETATM    9  C   UNL     1     -11.153  16.509  69.397  1.00  0.00    -0.253 A  
HETATM   10 CL   UNL     1      -9.739  18.756  68.990  1.00  0.00    -0.367 Cl 
BRANCH   5  11
HETATM   11  N   UNL     1     -12.243  13.618  67.293  1.00  0.00    -0.371 NA 
HETATM   12  H   UNL     1     -13.217  13.544  67.584  1.00  0.00     0.000 HD 
BRANCH  11  13
HETATM   13  C   UNL     1     -11.747  12.530  66.528  1.00  0.00    -0.391 A  
HETATM   14  C   UNL     1     -12.073  13.745  64.369  1.00  0.00    -0.436 C  
HETATM   15  C   UNL     1     -11.607  12.632  65.129  1.00  0.00    -0.386 A  
HETATM   16  C   UNL     1     -11.002  11.590  64.453  1.00  0.00    -0.324 A  
HETATM   17  N   UNL     1     -10.514  10.484  65.049  1.00  0.00    -0.237 NA 
HETATM   18  N   UNL     1     -12.414  14.643  63.717  1.00  0.00    -0.742 NA 
HETATM   19  C   UNL     1     -10.638  10.377  66.377  1.00  0.00    -0.127 A  
HETATM   20  C   UNL     1     -10.099   9.248  66.969  1.00  0.00    -0.313 A  
HETATM   21  C   UNL     1     -10.131   9.045  68.352  1.00  0.00    -0.191 A  
HETATM   22  C   UNL     1     -11.263  11.357  67.179  1.00  0.00    -0.363 A  
HETATM   23  C   UNL     1     -10.770   9.986  69.160  1.00  0.00    -0.220 A  
HETATM   24  C   UNL     1     -11.344  11.120  68.572  1.00  0.00    -0.348 A  
BRANCH  21  25
HETATM   25  O   UNL     1      -9.634   7.906  68.922  1.00  0.00    -0.153 OA 
BRANCH  25  26
HETATM   26  C   UNL     1     -10.485   6.756  68.820  1.00  0.00    -0.208 C  
BRANCH  26  27
HETATM   27  C   UNL     1      -9.584   5.531  68.866  1.00  0.00    -0.178 C  
BRANCH  27  28
HETATM   28  C   UNL     1      -9.760   4.619  67.650  1.00  0.00    -0.161 C  
BRANCH  28  29
HETATM   29  N   UNL     1      -9.924   5.326  66.368  1.00  0.00    -0.184 NA 
HETATM   30  C   UNL     1      -8.663   5.905  65.856  1.00  0.00    -0.150 C  
HETATM   31  C   UNL     1      -7.628   4.859  65.381  1.00  0.00    -0.085 C  
HETATM   32  N   UNL     1      -8.139   3.913  64.369  1.00  0.00    -0.089 NA 
HETATM   33  C   UNL     1      -9.433   3.355  64.816  1.00  0.00    -0.155 C  
HETATM   34  C   UNL     1      -8.264   4.557  63.062  1.00  0.00    -0.092 C  
HETATM   35  C   UNL     1     -10.455   4.399  65.337  1.00  0.00    -0.193 C  
ENDBRANCH  28  29
ENDBRANCH  27  28
ENDBRANCH  26  27
ENDBRANCH  25  26
ENDBRANCH  21  25
BRANCH  23  36
HETATM   36  O   UNL     1     -10.941   9.907  70.517  1.00  0.00    -0.281 OA 
HETATM   37  C   UNL     1     -12.044  10.644  71.035  1.00  0.00    -0.368 C  
ENDBRANCH  23  36
ENDBRANCH  11  13
ENDBRANCH   5  11
ENDBRANCH   2   3
TORSDOF 9
ENDMDL
MODEL       29
REMARK 921   NORMALIZED FREE ENERGY PREDICTED BY IDOCK:   -6.50 KCAL/MOL
REMARK 922        TOTAL FREE ENERGY PREDICTED BY IDOCK:  -11.26 KCAL/MOL
REMARK 923 INTER-LIGAND FREE ENERGY PREDICTED BY IDOCK:   -9.74 KCAL/MOL
REMARK 924 INTRA-LIGAND FREE ENERGY PREDICTED BY IDOCK:   -1.52 KCAL/MOL
REMARK 927      BINDING AFFINITY PREDICTED BY RF-SCORE:    0.00 PKD
ROOT
HETATM    1  C   UNL     1      -9.511   4.642  65.207  1.00  0.00    -0.158 C  
HETATM    2  O   UNL     1     -10.466   4.630  66.265  1.00  0.00    -0.284 OA 
ENDROOT
BRANCH   2   3
HETATM    3  C   UNL     1     -10.028   5.128  67.466  1.00  0.00    -0.174 A  
HETATM    4  C   UNL     1     -10.015   6.497  67.762  1.00  0.00    -0.154 A  
HETATM    5  C   UNL     1      -9.554   6.983  68.995  1.00  0.00    -0.141 A  
HETATM    6  C   UNL     1      -9.099   6.046  69.941  1.00  0.00    -0.141 A  
HETATM    7  C   UNL     1      -9.535   4.225  68.415  1.00  0.00    -0.155 A  
HETATM    8 CL   UNL     1      -8.543   6.565  71.495  1.00  0.00    -0.129 Cl 
HETATM    9  C   UNL     1      -9.083   4.679  69.654  1.00  0.00    -0.163 A  
HETATM   10 CL   UNL     1      -9.497   2.525  68.105  1.00  0.00    -0.261 Cl 
BRANCH   5  11
HETATM   11  N   UNL     1      -9.453   8.376  69.246  1.00  0.00    -0.154 NA 
HETATM   12  H   UNL     1      -8.533   8.707  69.534  1.00  0.00     0.000 HD 
BRANCH  11  13
HETATM   13  C   UNL     1     -10.460   9.373  69.150  1.00  0.00    -0.217 A  
HETATM   14  C   UNL     1     -11.317   8.895  71.448  1.00  0.00    -0.309 C  
HETATM   15  C   UNL     1     -11.304   9.657  70.243  1.00  0.00    -0.311 A  
HETATM   16  C   UNL     1     -12.180  10.721  70.134  1.00  0.00    -0.346 A  
HETATM   17  N   UNL     1     -12.267  11.522  69.055  1.00  0.00    -0.387 NA 
HETATM   18  N   UNL     1     -11.341   8.318  72.455  1.00  0.00    -0.391 NA 
HETATM   19  C   UNL     1     -11.468  11.264  68.012  1.00  0.00    -0.298 A  
HETATM   20  C   UNL     1     -11.552  12.122  66.929  1.00  0.00    -0.408 A  
HETATM   21  C   UNL     1     -10.741  11.977  65.801  1.00  0.00    -0.279 A  
HETATM   22  C   UNL     1     -10.552  10.190  67.985  1.00  0.00    -0.273 A  
HETATM   23  C   UNL     1      -9.850  10.905  65.740  1.00  0.00    -0.237 A  
HETATM   24  C   UNL     1      -9.774  10.013  66.816  1.00  0.00    -0.239 A  
BRANCH  21  25
HETATM   25  O   UNL     1     -10.863  12.805  64.718  1.00  0.00    -0.284 OA 
BRANCH  25  26
HETATM   26  C   UNL     1     -11.965  13.720  64.777  1.00  0.00    -0.404 C  
BRANCH  26  27
HETATM   27  C   UNL     1     -11.391  15.119  64.605  1.00  0.00    -0.362 C  
BRANCH  27  28
HETATM   28  C   UNL     1     -10.708  15.639  65.869  1.00  0.00    -0.329 C  
BRANCH  28  29
HETATM   29  N   UNL     1      -9.812  16.790  65.658  1.00  0.00    -0.572 NA 
HETATM   30  C   UNL     1     -10.415  18.080  66.061  1.00  0.00    -0.313 C  
HETATM   31  C   UNL     1     -10.602  18.246  67.588  1.00  0.00    -0.405 C  
HETATM   32  N   UNL     1      -9.369  18.051  68.376  1.00  0.00    -0.293 NA 
HETATM   33  C   UNL     1      -8.701  16.800  67.960  1.00  0.00    -0.212 C  
HETATM   34  C   UNL     1      -8.472  19.198  68.241  1.00  0.00    -0.332 C  
HETATM   35  C   UNL     1      -8.556  16.610  66.426  1.00  0.00    -0.310 C  
ENDBRANCH  28  29
ENDBRANCH  27  28
ENDBRANCH  26  27
ENDBRANCH  25  26
ENDBRANCH  21  25
BRANCH  23  36
HETATM   36  O   UNL     1      -9.032  10.589  64.686  1.00  0.00    -0.188 OA 
HETATM   37  C   UNL     1      -7.868   9.842  65.024  1.00  0.00    -0.128 C  
ENDBRANCH  23  36
ENDBRANCH  11  13
ENDBRANCH   5  11
ENDBRANCH   2   3
TORSDOF 9
ENDMDL
MODEL       30
REMARK 921   NORMALIZED FREE ENERGY PREDICTED BY IDOCK:   -6.47 KCAL/MOL
REMARK 922        TOTAL FREE ENERGY PREDICTED BY IDOCK:  -11.21 KCAL/MOL
REMARK 923 INTER-LIGAND FREE ENERGY PREDICTED BY IDOCK:   -9.58 KCAL/MOL
REMARK 924 INTRA-LIGAND FREE ENERGY PREDICTED BY IDOCK:   -1.63 KCAL/MOL
REMARK 927      BINDING AFFINITY PREDICTED BY RF-SCORE:    0.00 PKD
ROOT
HETATM    1  C   UNL     1     -13.204  12.689  72.126  1.00  0.00    -0.421 C  
HETATM    2  O   UNL     1     -13.447  11.691  71.138  1.00  0.00     0.139 OA 
ENDROOT
BRANCH   2   3
HETATM    3  C   UNL     1     -12.374  10.898  70.819  1.00  0.00    -0.390 A  
HETATM    4  C   UNL     1     -11.394  11.280  69.895  1.00  0.00    -0.329 A  
HETATM    5  C   UNL     1     -10.309  10.447  69.579  1.00  0.00    -0.237 A  
HETATM    6  C   UNL     1     -10.230   9.200  70.226  1.00  0.00    -0.214 A  
HETATM    7  C   UNL     1     -12.285   9.636  71.418  1.00  0.00    -0.385 A  
HETATM    8 CL   UNL     1      -8.908   8.129  69.913  1.00  0.00    -0.139 Cl 
HETATM    9  C   UNL     1     -11.211   8.793  71.134  1.00  0.00    -0.339 A  
HETATM   10 CL   UNL     1     -13.475   9.090  72.548  1.00  0.00    -0.508 Cl 
BRANCH   5  11
HETATM   11  N   UNL     1      -9.378  10.802  68.570  1.00  0.00    -0.167 NA 
HETATM   12  H   UNL     1      -8.395  10.742  68.835  1.00  0.00     0.000 HD 
BRANCH  11  13
HETATM   13  C   UNL     1      -9.628  11.229  67.239  1.00  0.00    -0.173 A  
HETATM   14  C   UNL     1     -10.209   8.920  66.482  1.00  0.00    -0.249 C  
HETATM   15  C   UNL     1     -10.094  10.324  66.263  1.00  0.00    -0.300 A  
HETATM   16  C   UNL     1     -10.440  10.821  65.021  1.00  0.00    -0.237 A  
HETATM   17  N   UNL     1     -10.383  12.124  64.685  1.00  0.00    -0.286 NA 
HETATM   18  N   UNL     1     -10.342   7.775  66.627  1.00  0.00    -0.256 NA 
HETATM   19  C   UNL     1      -9.946  12.994  65.604  1.00  0.00    -0.230 A  
HETATM   20  C   UNL     1      -9.928  14.330  65.245  1.00  0.00    -0.313 A  
HETATM   21  C   UNL     1      -9.531  15.334  66.134  1.00  0.00    -0.326 A  
HETATM   22  C   UNL     1      -9.533  12.610  66.899  1.00  0.00    -0.229 A  
HETATM   23  C   UNL     1      -9.090  14.975  67.408  1.00  0.00    -0.186 A  
HETATM   24  C   UNL     1      -9.076  13.624  67.775  1.00  0.00    -0.199 A  
BRANCH  21  25
HETATM   25  O   UNL     1      -9.476  16.647  65.754  1.00  0.00    -0.495 OA 
BRANCH  25  26
HETATM   26  C   UNL     1     -10.743  17.317  65.707  1.00  0.00    -0.131 C  
BRANCH  26  27
HETATM   27  C   UNL     1     -10.529  18.712  66.277  1.00  0.00    -0.468 C  
BRANCH  27  28
HETATM   28  C   UNL     1      -9.052  19.092  66.378  1.00  0.00    -0.343 C  
BRANCH  28  29
HETATM   29  N   UNL     1      -8.739  20.081  67.424  1.00  0.00    -0.335 NA 
HETATM   30  C   UNL     1      -8.393  19.465  68.724  1.00  0.00    -0.344 C  
HETATM   31  C   UNL     1      -7.036  18.722  68.735  1.00  0.00    -0.308 C  
HETATM   32  N   UNL     1      -5.889  19.541  68.299  1.00  0.00    -0.213 NA 
HETATM   33  C   UNL     1      -6.218  20.225  67.029  1.00  0.00    -0.191 C  
HETATM   34  C   UNL     1      -5.506  20.503  69.332  1.00  0.00    -0.327 C  
HETATM   35  C   UNL     1      -7.599  20.932  67.001  1.00  0.00    -0.189 C  
ENDBRANCH  28  29
ENDBRANCH  27  28
ENDBRANCH  26  27
ENDBRANCH  25  26
ENDBRANCH  21  25
BRANCH  23  36
HETATM   36  O   UNL     1      -8.613  15.826  68.370  1.00  0.00    -0.163 OA 
HETATM   37  C   UNL     1      -8.567  15.289  69.688  1.00  0.00    -0.104 C  
ENDBRANCH  23  36
ENDBRANCH  11  13
ENDBRANCH   5  11
ENDBRANCH   2   3
TORSDOF 9
ENDMDL
MODEL       31
REMARK 921   NORMALIZED FREE ENERGY PREDICTED BY IDOCK:   -6.46 KCAL/MOL
REMARK 922        TOTAL FREE ENERGY PREDICTED BY IDOCK:  -11.21 KCAL/MOL
REMARK 923 INTER-LIGAND FREE ENERGY PREDICTED BY IDOCK:   -9.74 KCAL/MOL
REMARK 924 INTRA-LIGAND FREE ENERGY PREDICTED BY IDOCK:   -1.47 KCAL/MOL
REMARK 927      BINDING AFFINITY PREDICTED BY RF-SCORE:    0.00 PKD
ROOT
HETATM    1  C   UNL     1     -10.983   7.682  72.955  1.00  0.00    -0.400 C  
HETATM    2  O   UNL     1      -9.839   7.206  72.252  1.00  0.00    -0.153 OA 
ENDROOT
BRANCH   2   3
HETATM    3  C   UNL     1     -10.048   6.867  70.939  1.00  0.00    -0.194 A  
HETATM    4  C   UNL     1     -10.315   7.813  69.942  1.00  0.00    -0.223 A  
HETATM    5  C   UNL     1     -10.534   7.440  68.607  1.00  0.00    -0.189 A  
HETATM    6  C   UNL     1     -10.477   6.070  68.291  1.00  0.00    -0.235 A  
HETATM    7  C   UNL     1     -10.033   5.509  70.598  1.00  0.00    -0.207 A  
HETATM    8 CL   UNL     1     -10.706   5.532  66.663  1.00  0.00    -0.364 Cl 
HETATM    9  C   UNL     1     -10.234   5.110  69.277  1.00  0.00    -0.276 A  
HETATM   10 CL   UNL     1      -9.737   4.287  71.784  1.00  0.00    -0.225 Cl 
BRANCH   5  11
HETATM   11  N   UNL     1     -10.901   8.396  67.625  1.00  0.00    -0.503 NA 
HETATM   12  H   UNL     1     -11.710   8.155  67.055  1.00  0.00     0.000 HD 
BRANCH  11  13
HETATM   13  C   UNL     1     -10.293   9.645  67.330  1.00  0.00    -0.247 A  
HETATM   14  C   UNL     1      -8.890   8.666  65.510  1.00  0.00    -0.179 C  
HETATM   15  C   UNL     1      -9.379   9.772  66.264  1.00  0.00    -0.230 A  
HETATM   16  C   UNL     1      -8.917  11.035  65.944  1.00  0.00    -0.195 A  
HETATM   17  N   UNL     1      -9.301  12.163  66.574  1.00  0.00    -0.225 NA 
HETATM   18  N   UNL     1      -8.487   7.796  64.854  1.00  0.00    -0.066 NA 
HETATM   19  C   UNL     1     -10.171  12.055  67.584  1.00  0.00    -0.199 A  
HETATM   20  C   UNL     1     -10.576  13.231  68.193  1.00  0.00    -0.259 A  
HETATM   21  C   UNL     1     -11.511  13.248  69.231  1.00  0.00    -0.288 A  
HETATM   22  C   UNL     1     -10.695  10.821  68.030  1.00  0.00    -0.270 A  
HETATM   23  C   UNL     1     -12.018  12.039  69.707  1.00  0.00    -0.300 A  
HETATM   24  C   UNL     1     -11.597  10.840  69.120  1.00  0.00    -0.376 A  
BRANCH  21  25
HETATM   25  O   UNL     1     -11.871  14.412  69.853  1.00  0.00    -0.285 OA 
BRANCH  25  26
HETATM   26  C   UNL     1     -10.801  15.104  70.510  1.00  0.00    -0.196 C  
BRANCH  26  27
HETATM   27  C   UNL     1     -10.933  16.576  70.146  1.00  0.00    -0.215 C  
BRANCH  27  28
HETATM   28  C   UNL     1     -11.152  16.800  68.649  1.00  0.00    -0.247 C  
BRANCH  28  29
HETATM   29  N   UNL     1      -9.920  16.828  67.842  1.00  0.00    -0.260 NA 
HETATM   30  C   UNL     1     -10.127  17.366  66.480  1.00  0.00    -0.320 C  
HETATM   31  C   UNL     1     -10.436  18.881  66.433  1.00  0.00    -0.439 C  
HETATM   32  N   UNL     1      -9.434  19.728  67.110  1.00  0.00    -0.335 NA 
HETATM   33  C   UNL     1      -9.152  19.188  68.457  1.00  0.00    -0.371 C  
HETATM   34  C   UNL     1      -8.210  19.831  66.316  1.00  0.00    -0.350 C  
HETATM   35  C   UNL     1      -8.888  17.659  68.512  1.00  0.00    -0.285 C  
ENDBRANCH  28  29
ENDBRANCH  27  28
ENDBRANCH  26  27
ENDBRANCH  25  26
ENDBRANCH  21  25
BRANCH  23  36
HETATM   36  O   UNL     1     -12.890  11.879  70.752  1.00  0.00    -0.188 OA 
HETATM   37  C   UNL     1     -12.759  10.658  71.472  1.00  0.00    -0.444 C  
ENDBRANCH  23  36
ENDBRANCH  11  13
ENDBRANCH   5  11
ENDBRANCH   2   3
TORSDOF 9
ENDMDL
MODEL       32
REMARK 921   NORMALIZED FREE ENERGY PREDICTED BY IDOCK:   -6.44 KCAL/MOL
REMARK 922        TOTAL FREE ENERGY PREDICTED BY IDOCK:  -11.17 KCAL/MOL
REMARK 923 INTER-LIGAND FREE ENERGY PREDICTED BY IDOCK:   -9.46 KCAL/MOL
REMARK 924 INTRA-LIGAND FREE ENERGY PREDICTED BY IDOCK:   -1.71 KCAL/MOL
REMARK 927      BINDING AFFINITY PREDICTED BY RF-SCORE:    0.00 PKD
ROOT
HETATM    1  C   UNL     1      -9.550   3.860  67.718  1.00  0.00    -0.145 C  
HETATM    2  O   UNL     1     -10.092   4.586  66.619  1.00  0.00    -0.225 OA 
ENDROOT
BRANCH   2   3
HETATM    3  C   UNL     1      -9.376   5.688  66.225  1.00  0.00    -0.157 A  
HETATM    4  C   UNL     1      -9.396   6.899  66.928  1.00  0.00    -0.177 A  
HETATM    5  C   UNL     1      -8.661   8.016  66.501  1.00  0.00    -0.146 A  
HETATM    6  C   UNL     1      -7.892   7.885  65.330  1.00  0.00    -0.112 A  
HETATM    7  C   UNL     1      -8.629   5.603  65.045  1.00  0.00    -0.108 A  
HETATM    8 CL   UNL     1      -6.935   9.206  64.754  1.00  0.00    -0.084 Cl 
HETATM    9  C   UNL     1      -7.877   6.692  64.603  1.00  0.00    -0.116 A  
HETATM   10 CL   UNL     1      -8.581   4.147  64.114  1.00  0.00    -0.105 Cl 
BRANCH   5  11
HETATM   11  N   UNL     1      -8.767   9.265  67.165  1.00  0.00    -0.127 NA 
HETATM   12  H   UNL     1      -7.884   9.694  67.440  1.00  0.00     0.000 HD 
BRANCH  11  13
HETATM   13  C   UNL     1      -9.936  10.000  67.497  1.00  0.00    -0.190 A  
HETATM   14  C   UNL     1     -10.018   9.048  69.806  1.00  0.00    -0.196 C  
HETATM   15  C   UNL     1     -10.486   9.937  68.794  1.00  0.00    -0.234 A  
HETATM   16  C   UNL     1     -11.547  10.769  69.096  1.00  0.00    -0.305 A  
HETATM   17  N   UNL     1     -12.082  11.656  68.234  1.00  0.00    -0.539 NA 
HETATM   18  N   UNL     1      -9.652   8.360  70.667  1.00  0.00    -0.167 NA 
HETATM   19  C   UNL     1     -11.566  11.727  67.002  1.00  0.00    -0.244 A  
HETATM   20  C   UNL     1     -12.109  12.670  66.146  1.00  0.00    -0.399 A  
HETATM   21  C   UNL     1     -11.627  12.864  64.849  1.00  0.00    -0.327 A  
HETATM   22  C   UNL     1     -10.501  10.912  66.558  1.00  0.00    -0.308 A  
HETATM   23  C   UNL     1     -10.596  12.049  64.381  1.00  0.00    -0.318 A  
HETATM   24  C   UNL     1     -10.055  11.073  65.225  1.00  0.00    -0.332 A  
BRANCH  21  25
HETATM   25  O   UNL     1     -12.200  13.769  63.998  1.00  0.00    -0.562 OA 
BRANCH  25  26
HETATM   26  C   UNL     1     -12.408  15.075  64.553  1.00  0.00    -0.262 C  
BRANCH  26  27
HETATM   27  C   UNL     1     -11.091  15.826  64.426  1.00  0.00    -0.174 C  
BRANCH  27  28
HETATM   28  C   UNL     1     -10.555  16.316  65.772  1.00  0.00    -0.324 C  
BRANCH  28  29
HETATM   29  N   UNL     1      -9.657  17.481  65.691  1.00  0.00    -0.415 NA 
HETATM   30  C   UNL     1     -10.219  18.696  66.320  1.00  0.00    -0.427 C  
HETATM   31  C   UNL     1     -10.322  18.626  67.862  1.00  0.00    -0.398 C  
HETATM   32  N   UNL     1      -9.052  18.305  68.543  1.00  0.00    -0.313 NA 
HETATM   33  C   UNL     1      -8.425  17.129  67.903  1.00  0.00    -0.212 C  
HETATM   34  C   UNL     1      -8.148  19.455  68.537  1.00  0.00    -0.361 C  
HETATM   35  C   UNL     1      -8.364  17.178  66.353  1.00  0.00    -0.280 C  
ENDBRANCH  28  29
ENDBRANCH  27  28
ENDBRANCH  26  27
ENDBRANCH  25  26
ENDBRANCH  21  25
BRANCH  23  36
HETATM   36  O   UNL     1     -10.054  12.070  63.122  1.00  0.00    -0.414 OA 
HETATM   37  C   UNL     1      -9.573  10.817  62.647  1.00  0.00    -0.261 C  
ENDBRANCH  23  36
ENDBRANCH  11  13
ENDBRANCH   5  11
ENDBRANCH   2   3
TORSDOF 9
ENDMDL
MODEL       33
REMARK 921   NORMALIZED FREE ENERGY PREDICTED BY IDOCK:   -6.41 KCAL/MOL
REMARK 922        TOTAL FREE ENERGY PREDICTED BY IDOCK:  -11.12 KCAL/MOL
REMARK 923 INTER-LIGAND FREE ENERGY PREDICTED BY IDOCK:  -10.00 KCAL/MOL
REMARK 924 INTRA-LIGAND FREE ENERGY PREDICTED BY IDOCK:   -1.11 KCAL/MOL
REMARK 927      BINDING AFFINITY PREDICTED BY RF-SCORE:    0.00 PKD
ROOT
HETATM    1  C   UNL     1     -10.717  19.591  66.138  1.00  0.00    -0.428 C  
HETATM    2  O   UNL     1     -10.448  19.280  67.502  1.00  0.00    -0.403 OA 
ENDROOT
BRANCH   2   3
HETATM    3  C   UNL     1      -9.945  18.025  67.737  1.00  0.00    -0.326 A  
HETATM    4  C   UNL     1     -10.648  16.855  67.426  1.00  0.00    -0.294 A  
HETATM    5  C   UNL     1     -10.116  15.582  67.683  1.00  0.00    -0.243 A  
HETATM    6  C   UNL     1      -8.839  15.511  68.269  1.00  0.00    -0.179 A  
HETATM    7  C   UNL     1      -8.692  17.921  68.352  1.00  0.00    -0.293 A  
HETATM    8 CL   UNL     1      -8.102  13.979  68.590  1.00  0.00    -0.136 Cl 
HETATM    9  C   UNL     1      -8.132  16.669  68.606  1.00  0.00    -0.237 A  
HETATM   10 CL   UNL     1      -7.782  19.325  68.786  1.00  0.00    -0.391 Cl 
BRANCH   5  11
HETATM   11  N   UNL     1     -10.877  14.406  67.456  1.00  0.00    -0.278 NA 
HETATM   12  H   UNL     1     -11.322  14.338  66.541  1.00  0.00     0.000 HD 
BRANCH  11  13
HETATM   13  C   UNL     1     -11.102  13.310  68.330  1.00  0.00    -0.270 A  
HETATM   14  C   UNL     1     -12.149  14.763  70.072  1.00  0.00    -0.329 C  
HETATM   15  C   UNL     1     -11.777  13.488  69.555  1.00  0.00    -0.382 A  
HETATM   16  C   UNL     1     -12.079  12.367  70.306  1.00  0.00    -0.297 A  
HETATM   17  N   UNL     1     -11.789  11.105  69.932  1.00  0.00    -0.330 NA 
HETATM   18  N   UNL     1     -12.493  15.780  70.517  1.00  0.00    -0.393 NA 
HETATM   19  C   UNL     1     -11.151  10.924  68.769  1.00  0.00    -0.256 A  
HETATM   20  C   UNL     1     -10.894   9.618  68.391  1.00  0.00    -0.212 A  
HETATM   21  C   UNL     1     -10.271   9.302  67.181  1.00  0.00    -0.257 A  
HETATM   22  C   UNL     1     -10.759  11.987  67.925  1.00  0.00    -0.243 A  
HETATM   23  C   UNL     1      -9.848  10.337  66.346  1.00  0.00    -0.217 A  
HETATM   24  C   UNL     1     -10.077  11.664  66.728  1.00  0.00    -0.242 A  
BRANCH  21  25
HETATM   25  O   UNL     1      -9.983   8.009  66.837  1.00  0.00    -0.217 OA 
BRANCH  25  26
HETATM   26  C   UNL     1     -11.031   7.066  67.095  1.00  0.00    -0.323 C  
BRANCH  26  27
HETATM   27  C   UNL     1     -10.488   6.060  68.100  1.00  0.00    -0.292 C  
BRANCH  27  28
HETATM   28  C   UNL     1     -11.182   6.146  69.460  1.00  0.00    -0.411 C  
BRANCH  28  29
HETATM   29  N   UNL     1     -10.344   5.750  70.606  1.00  0.00    -0.229 NA 
HETATM   30  C   UNL     1      -9.144   6.598  70.771  1.00  0.00    -0.151 C  
HETATM   31  C   UNL     1      -9.444   8.045  71.230  1.00  0.00    -0.157 C  
HETATM   32  N   UNL     1     -10.243   8.137  72.467  1.00  0.00    -0.290 NA 
HETATM   33  C   UNL     1     -11.425   7.254  72.367  1.00  0.00    -0.287 C  
HETATM   34  C   UNL     1      -9.435   7.807  73.641  1.00  0.00    -0.250 C  
HETATM   35  C   UNL     1     -11.131   5.816  71.862  1.00  0.00    -0.248 C  
ENDBRANCH  28  29
ENDBRANCH  27  28
ENDBRANCH  26  27
ENDBRANCH  25  26
ENDBRANCH  21  25
BRANCH  23  36
HETATM   36  O   UNL     1      -9.173  10.199  65.161  1.00  0.00    -0.178 OA 
HETATM   37  C   UNL     1      -9.855  10.690  64.012  1.00  0.00    -0.338 C  
ENDBRANCH  23  36
ENDBRANCH  11  13
ENDBRANCH   5  11
ENDBRANCH   2   3
TORSDOF 9
ENDMDL
MODEL       34
REMARK 921   NORMALIZED FREE ENERGY PREDICTED BY IDOCK:   -6.32 KCAL/MOL
REMARK 922        TOTAL FREE ENERGY PREDICTED BY IDOCK:  -10.98 KCAL/MOL
REMARK 923 INTER-LIGAND FREE ENERGY PREDICTED BY IDOCK:   -9.01 KCAL/MOL
REMARK 924 INTRA-LIGAND FREE ENERGY PREDICTED BY IDOCK:   -1.97 KCAL/MOL
REMARK 927      BINDING AFFINITY PREDICTED BY RF-SCORE:    0.00 PKD
ROOT
HETATM    1  C   UNL     1     -13.143  10.094  70.609  1.00  0.00    -0.210 C  
HETATM    2  O   UNL     1     -12.166   9.884  71.625  1.00  0.00    -0.382 OA 
ENDROOT
BRANCH   2   3
HETATM    3  C   UNL     1     -10.907   9.568  71.181  1.00  0.00    -0.355 A  
HETATM    4  C   UNL     1     -10.310  10.193  70.079  1.00  0.00    -0.301 A  
HETATM    5  C   UNL     1      -9.023   9.846  69.639  1.00  0.00    -0.216 A  
HETATM    6  C   UNL     1      -8.338   8.840  70.345  1.00  0.00    -0.140 A  
HETATM    7  C   UNL     1     -10.213   8.547  71.839  1.00  0.00    -0.299 A  
HETATM    8 CL   UNL     1      -6.736   8.377  69.882  1.00  0.00    -0.042 Cl 
HETATM    9  C   UNL     1      -8.927   8.190  71.432  1.00  0.00    -0.188 A  
HETATM   10 CL   UNL     1     -10.901   7.715  73.190  1.00  0.00    -0.453 Cl 
BRANCH   5  11
HETATM   11  N   UNL     1      -8.469  10.415  68.463  1.00  0.00    -0.122 NA 
HETATM   12  H   UNL     1      -7.454  10.365  68.385  1.00  0.00     0.000 HD 
BRANCH  11  13
HETATM   13  C   UNL     1      -9.137  11.045  67.380  1.00  0.00    -0.141 A  
HETATM   14  C   UNL     1     -10.160   8.900  66.609  1.00  0.00    -0.287 C  
HETATM   15  C   UNL     1     -10.001  10.315  66.539  1.00  0.00    -0.280 A  
HETATM   16  C   UNL     1     -10.720  11.005  65.581  1.00  0.00    -0.148 A  
HETATM   17  N   UNL     1     -10.665  12.341  65.410  1.00  0.00    -0.275 NA 
HETATM   18  N   UNL     1     -10.338   7.753  66.650  1.00  0.00    -0.256 NA 
HETATM   19  C   UNL     1      -9.851  13.045  66.206  1.00  0.00    -0.278 A  
HETATM   20  C   UNL     1      -9.839  14.418  66.034  1.00  0.00    -0.342 A  
HETATM   21  C   UNL     1      -9.060  15.261  66.831  1.00  0.00    -0.240 A  
HETATM   22  C   UNL     1      -9.041  12.457  67.202  1.00  0.00    -0.199 A  
HETATM   23  C   UNL     1      -8.229  14.699  67.801  1.00  0.00    -0.162 A  
HETATM   24  C   UNL     1      -8.211  13.309  67.968  1.00  0.00    -0.162 A  
BRANCH  21  25
HETATM   25  O   UNL     1      -9.023  16.612  66.624  1.00  0.00    -0.221 OA 
BRANCH  25  26
HETATM   26  C   UNL     1     -10.261  17.296  66.857  1.00  0.00    -0.322 C  
BRANCH  26  27
HETATM   27  C   UNL     1     -10.450  17.371  68.365  1.00  0.00    -0.384 C  
BRANCH  27  28
HETATM   28  C   UNL     1     -11.436  16.328  68.893  1.00  0.00    -0.282 C  
BRANCH  28  29
HETATM   29  N   UNL     1     -11.043  15.695  70.164  1.00  0.00    -0.305 NA 
HETATM   30  C   UNL     1     -11.922  16.066  71.296  1.00  0.00    -0.424 C  
HETATM   31  C   UNL     1     -13.351  15.481  71.210  1.00  0.00    -0.511 C  
HETATM   32  N   UNL     1     -13.400  14.014  71.056  1.00  0.00    -0.237 NA 
HETATM   33  C   UNL     1     -12.486  13.594  69.972  1.00  0.00    -0.204 C  
HETATM   34  C   UNL     1     -13.071  13.341  72.313  1.00  0.00    -0.371 C  
HETATM   35  C   UNL     1     -11.066  14.217  70.030  1.00  0.00    -0.023 C  
ENDBRANCH  28  29
ENDBRANCH  27  28
ENDBRANCH  26  27
ENDBRANCH  25  26
ENDBRANCH  21  25
BRANCH  23  36
HETATM   36  O   UNL     1      -7.364  15.377  68.620  1.00  0.00    -0.118 OA 
HETATM   37  C   UNL     1      -6.550  14.559  69.454  1.00  0.00    -0.138 C  
ENDBRANCH  23  36
ENDBRANCH  11  13
ENDBRANCH   5  11
ENDBRANCH   2   3
TORSDOF 9
ENDMDL
MODEL       35
REMARK 921   NORMALIZED FREE ENERGY PREDICTED BY IDOCK:   -6.30 KCAL/MOL
REMARK 922        TOTAL FREE ENERGY PREDICTED BY IDOCK:  -10.96 KCAL/MOL
REMARK 923 INTER-LIGAND FREE ENERGY PREDICTED BY IDOCK:   -9.25 KCAL/MOL
REMARK 924 INTRA-LIGAND FREE ENERGY PREDICTED BY IDOCK:   -1.71 KCAL/MOL
REMARK 927      BINDING AFFINITY PREDICTED BY RF-SCORE:    0.00 PKD
ROOT
HETATM    1  C   UNL     1     -10.243   4.575  65.913  1.00  0.00    -0.263 C  
HETATM    2  O   UNL     1      -9.644   4.621  67.206  1.00  0.00    -0.153 OA 
ENDROOT
BRANCH   2   3
HETATM    3  C   UNL     1      -9.415   5.876  67.709  1.00  0.00    -0.113 A  
HETATM    4  C   UNL     1      -8.937   6.934  66.927  1.00  0.00    -0.128 A  
HETATM    5  C   UNL     1      -8.703   8.208  67.467  1.00  0.00    -0.129 A  
HETATM    6  C   UNL     1      -8.966   8.398  68.836  1.00  0.00    -0.146 A  
HETATM    7  C   UNL     1      -9.632   6.089  69.075  1.00  0.00    -0.131 A  
HETATM    8 CL   UNL     1      -8.730   9.947  69.570  1.00  0.00    -0.183 Cl 
HETATM    9  C   UNL     1      -9.422   7.348  69.637  1.00  0.00    -0.156 A  
HETATM   10 CL   UNL     1     -10.197   4.820  70.105  1.00  0.00    -0.306 Cl 
BRANCH   5  11
HETATM   11  N   UNL     1      -8.125   9.244  66.688  1.00  0.00    -0.107 NA 
HETATM   12  H   UNL     1      -7.293   9.680  67.082  1.00  0.00     0.000 HD 
BRANCH  11  13
HETATM   13  C   UNL     1      -8.550   9.755  65.433  1.00  0.00    -0.149 A  
HETATM   14  C   UNL     1      -6.803   8.472  64.188  1.00  0.00    -0.075 C  
HETATM   15  C   UNL     1      -7.948   9.321  64.234  1.00  0.00    -0.135 A  
HETATM   16  C   UNL     1      -8.485   9.756  63.037  1.00  0.00    -0.180 A  
HETATM   17  N   UNL     1      -9.566  10.555  62.938  1.00  0.00    -0.329 NA 
HETATM   18  N   UNL     1      -5.888   7.762  64.106  1.00  0.00    -0.051 NA 
HETATM   19  C   UNL     1     -10.147  10.970  64.070  1.00  0.00    -0.350 A  
HETATM   20  C   UNL     1     -11.275  11.763  63.942  1.00  0.00    -0.493 A  
HETATM   21  C   UNL     1     -11.991  12.223  65.051  1.00  0.00    -0.354 A  
HETATM   22  C   UNL     1      -9.678  10.623  65.356  1.00  0.00    -0.306 A  
HETATM   23  C   UNL     1     -11.528  11.917  66.331  1.00  0.00    -0.304 A  
HETATM   24  C   UNL     1     -10.372  11.140  66.476  1.00  0.00    -0.290 A  
BRANCH  21  25
HETATM   25  O   UNL     1     -13.078  13.041  64.914  1.00  0.00    -0.745 OA 
BRANCH  25  26
HETATM   26  C   UNL     1     -12.906  14.370  65.423  1.00  0.00    -0.221 C  
BRANCH  26  27
HETATM   27  C   UNL     1     -11.962  15.091  64.472  1.00  0.00    -0.379 C  
BRANCH  27  28
HETATM   28  C   UNL     1     -10.948  15.975  65.200  1.00  0.00    -0.348 C  
BRANCH  28  29
HETATM   29  N   UNL     1     -10.477  15.442  66.490  1.00  0.00    -0.288 NA 
HETATM   30  C   UNL     1      -9.025  15.155  66.507  1.00  0.00    -0.291 C  
HETATM   31  C   UNL     1      -8.127  16.414  66.468  1.00  0.00    -0.310 C  
HETATM   32  N   UNL     1      -8.411  17.398  67.531  1.00  0.00    -0.212 NA 
HETATM   33  C   UNL     1      -9.864  17.667  67.588  1.00  0.00    -0.294 C  
HETATM   34  C   UNL     1      -7.910  16.934  68.825  1.00  0.00    -0.250 C  
HETATM   35  C   UNL     1     -10.768  16.405  67.580  1.00  0.00    -0.298 C  
ENDBRANCH  28  29
ENDBRANCH  27  28
ENDBRANCH  26  27
ENDBRANCH  25  26
ENDBRANCH  21  25
BRANCH  23  36
HETATM   36  O   UNL     1     -12.076  12.339  67.514  1.00  0.00    -0.514 OA 
HETATM   37  C   UNL     1     -11.139  12.664  68.536  1.00  0.00    -0.266 C  
ENDBRANCH  23  36
ENDBRANCH  11  13
ENDBRANCH   5  11
ENDBRANCH   2   3
TORSDOF 9
ENDMDL
MODEL       36
REMARK 921   NORMALIZED FREE ENERGY PREDICTED BY IDOCK:   -6.29 KCAL/MOL
REMARK 922        TOTAL FREE ENERGY PREDICTED BY IDOCK:  -10.95 KCAL/MOL
REMARK 923 INTER-LIGAND FREE ENERGY PREDICTED BY IDOCK:  -10.07 KCAL/MOL
REMARK 924 INTRA-LIGAND FREE ENERGY PREDICTED BY IDOCK:   -0.88 KCAL/MOL
REMARK 927      BINDING AFFINITY PREDICTED BY RF-SCORE:    0.00 PKD
ROOT
HETATM    1  C   UNL     1     -13.769   7.500  71.551  1.00  0.00    -0.372 C  
HETATM    2  O   UNL     1     -12.727   6.563  71.806  1.00  0.00    -0.320 OA 
ENDROOT
BRANCH   2   3
HETATM    3  C   UNL     1     -11.543   6.800  71.154  1.00  0.00    -0.329 A  
HETATM    4  C   UNL     1     -11.410   6.711  69.762  1.00  0.00    -0.412 A  
HETATM    5  C   UNL     1     -10.186   6.951  69.119  1.00  0.00    -0.187 A  
HETATM    6  C   UNL     1      -9.080   7.287  69.920  1.00  0.00    -0.141 A  
HETATM    7  C   UNL     1     -10.414   7.102  71.924  1.00  0.00    -0.197 A  
HETATM    8 CL   UNL     1      -7.543   7.626  69.199  1.00  0.00    -0.098 Cl 
HETATM    9  C   UNL     1      -9.188   7.358  71.311  1.00  0.00    -0.153 A  
HETATM   10 CL   UNL     1     -10.501   7.200  73.648  1.00  0.00    -0.417 Cl 
BRANCH   5  11
HETATM   11  N   UNL     1     -10.040   6.762  67.720  1.00  0.00    -0.144 NA 
HETATM   12  H   UNL     1     -10.418   5.889  67.351  1.00  0.00     0.000 HD 
BRANCH  11  13
HETATM   13  C   UNL     1      -9.441   7.623  66.764  1.00  0.00    -0.191 A  
HETATM   14  C   UNL     1      -8.021   5.791  65.830  1.00  0.00    -0.108 C  
HETATM   15  C   UNL     1      -8.522   7.126  65.817  1.00  0.00    -0.151 A  
HETATM   16  C   UNL     1      -8.067   7.983  64.833  1.00  0.00    -0.147 A  
HETATM   17  N   UNL     1      -8.462   9.265  64.705  1.00  0.00    -0.168 NA 
HETATM   18  N   UNL     1      -7.609   4.706  65.789  1.00  0.00    -0.082 NA 
HETATM   19  C   UNL     1      -9.337   9.747  65.596  1.00  0.00    -0.227 A  
HETATM   20  C   UNL     1      -9.752  11.056  65.423  1.00  0.00    -0.279 A  
HETATM   21  C   UNL     1     -10.693  11.656  66.266  1.00  0.00    -0.272 A  
HETATM   22  C   UNL     1      -9.853   8.984  66.666  1.00  0.00    -0.316 A  
HETATM   23  C   UNL     1     -11.194  10.930  67.347  1.00  0.00    -0.273 A  
HETATM   24  C   UNL     1     -10.761   9.615  67.551  1.00  0.00    -0.321 A  
BRANCH  21  25
HETATM   25  O   UNL     1     -11.064  12.963  66.111  1.00  0.00    -0.277 OA 
BRANCH  25  26
HETATM   26  C   UNL     1     -10.583  13.592  64.916  1.00  0.00    -0.408 C  
BRANCH  26  27
HETATM   27  C   UNL     1     -10.697  15.095  65.127  1.00  0.00    -0.442 C  
BRANCH  27  28
HETATM   28  C   UNL     1      -9.610  15.648  66.050  1.00  0.00    -0.351 C  
BRANCH  28  29
HETATM   29  N   UNL     1      -9.280  17.068  65.832  1.00  0.00    -0.530 NA 
HETATM   30  C   UNL     1     -10.162  17.992  66.578  1.00  0.00    -0.382 C  
HETATM   31  C   UNL     1      -9.958  17.969  68.111  1.00  0.00    -0.353 C  
HETATM   32  N   UNL     1      -8.569  18.214  68.545  1.00  0.00    -0.301 NA 
HETATM   33  C   UNL     1      -7.646  17.351  67.777  1.00  0.00    -0.194 C  
HETATM   34  C   UNL     1      -8.214  19.626  68.399  1.00  0.00    -0.315 C  
HETATM   35  C   UNL     1      -7.880  17.337  66.243  1.00  0.00    -0.309 C  
ENDBRANCH  28  29
ENDBRANCH  27  28
ENDBRANCH  26  27
ENDBRANCH  25  26
ENDBRANCH  21  25
BRANCH  23  36
HETATM   36  O   UNL     1     -12.070  11.389  68.295  1.00  0.00    -0.606 OA 
HETATM   37  C   UNL     1     -11.519  11.564  69.597  1.00  0.00    -0.301 C  
ENDBRANCH  23  36
ENDBRANCH  11  13
ENDBRANCH   5  11
ENDBRANCH   2   3
TORSDOF 9
ENDMDL
MODEL       37
REMARK 921   NORMALIZED FREE ENERGY PREDICTED BY IDOCK:   -6.28 KCAL/MOL
REMARK 922        TOTAL FREE ENERGY PREDICTED BY IDOCK:  -10.93 KCAL/MOL
REMARK 923 INTER-LIGAND FREE ENERGY PREDICTED BY IDOCK:   -9.91 KCAL/MOL
REMARK 924 INTRA-LIGAND FREE ENERGY PREDICTED BY IDOCK:   -1.02 KCAL/MOL
REMARK 927      BINDING AFFINITY PREDICTED BY RF-SCORE:    0.00 PKD
ROOT
HETATM    1  C   UNL     1      -8.070   8.628  66.129  1.00  0.00    -0.108 C  
HETATM    2  O   UNL     1      -8.487   7.492  66.883  1.00  0.00    -0.118 OA 
ENDROOT
BRANCH   2   3
HETATM    3  C   UNL     1      -8.936   7.754  68.152  1.00  0.00    -0.127 A  
HETATM    4  C   UNL     1     -10.221   8.243  68.419  1.00  0.00    -0.242 A  
HETATM    5  C   UNL     1     -10.654   8.512  69.726  1.00  0.00    -0.224 A  
HETATM    6  C   UNL     1      -9.751   8.273  70.778  1.00  0.00    -0.172 A  
HETATM    7  C   UNL     1      -8.050   7.561  69.218  1.00  0.00    -0.126 A  
HETATM    8 CL   UNL     1     -10.221   8.551  72.420  1.00  0.00    -0.387 Cl 
HETATM    9  C   UNL     1      -8.458   7.807  70.530  1.00  0.00    -0.127 A  
HETATM   10 CL   UNL     1      -6.441   6.985  68.959  1.00  0.00    -0.035 Cl 
BRANCH   5  11
HETATM   11  N   UNL     1     -11.921   9.100  69.975  1.00  0.00    -0.352 NA 
HETATM   12  H   UNL     1     -12.718   8.465  69.934  1.00  0.00     0.000 HD 
BRANCH  11  13
HETATM   13  C   UNL     1     -12.230  10.453  70.275  1.00  0.00    -0.269 A  
HETATM   14  C   UNL     1     -13.458   9.833  72.361  1.00  0.00    -0.272 C  
HETATM   15  C   UNL     1     -12.911  10.795  71.462  1.00  0.00    -0.567 A  
HETATM   16  C   UNL     1     -13.072  12.134  71.762  1.00  0.00    -0.352 A  
HETATM   17  N   UNL     1     -12.601  13.142  71.001  1.00  0.00    -0.353 NA 
HETATM   18  N   UNL     1     -13.896   9.084  73.133  1.00  0.00    -0.200 NA 
HETATM   19  C   UNL     1     -11.950  12.830  69.874  1.00  0.00    -0.298 A  
HETATM   20  C   UNL     1     -11.447  13.881  69.128  1.00  0.00    -0.345 A  
HETATM   21  C   UNL     1     -10.716  13.677  67.954  1.00  0.00    -0.247 A  
HETATM   22  C   UNL     1     -11.746  11.501  69.439  1.00  0.00    -0.413 A  
HETATM   23  C   UNL     1     -10.527  12.375  67.490  1.00  0.00    -0.215 A  
HETATM   24  C   UNL     1     -11.055  11.303  68.220  1.00  0.00    -0.297 A  
BRANCH  21  25
HETATM   25  O   UNL     1     -10.260  14.725  67.202  1.00  0.00    -0.243 OA 
BRANCH  25  26
HETATM   26  C   UNL     1     -11.147  15.155  66.161  1.00  0.00    -0.311 C  
BRANCH  26  27
HETATM   27  C   UNL     1     -10.442  16.274  65.409  1.00  0.00    -0.365 C  
BRANCH  27  28
HETATM   28  C   UNL     1     -10.414  17.589  66.190  1.00  0.00    -0.288 C  
BRANCH  28  29
HETATM   29  N   UNL     1      -9.246  18.444  65.917  1.00  0.00    -0.452 NA 
HETATM   30  C   UNL     1      -9.361  19.795  66.511  1.00  0.00    -0.394 C  
HETATM   31  C   UNL     1      -9.275  19.821  68.055  1.00  0.00    -0.341 C  
HETATM   32  N   UNL     1      -8.066  19.181  68.609  1.00  0.00    -0.362 NA 
HETATM   33  C   UNL     1      -7.880  17.849  67.994  1.00  0.00    -0.251 C  
HETATM   34  C   UNL     1      -6.886  20.022  68.410  1.00  0.00    -0.302 C  
HETATM   35  C   UNL     1      -8.013  17.812  66.448  1.00  0.00    -0.271 C  
ENDBRANCH  28  29
ENDBRANCH  27  28
ENDBRANCH  26  27
ENDBRANCH  25  26
ENDBRANCH  21  25
BRANCH  23  36
HETATM   36  O   UNL     1      -9.890  12.011  66.333  1.00  0.00    -0.210 OA 
HETATM   37  C   UNL     1     -10.739  11.519  65.301  1.00  0.00    -0.279 C  
ENDBRANCH  23  36
ENDBRANCH  11  13
ENDBRANCH   5  11
ENDBRANCH   2   3
TORSDOF 9
ENDMDL
MODEL       38
REMARK 921   NORMALIZED FREE ENERGY PREDICTED BY IDOCK:   -6.28 KCAL/MOL
REMARK 922        TOTAL FREE ENERGY PREDICTED BY IDOCK:  -10.92 KCAL/MOL
REMARK 923 INTER-LIGAND FREE ENERGY PREDICTED BY IDOCK:   -9.25 KCAL/MOL
REMARK 924 INTRA-LIGAND FREE ENERGY PREDICTED BY IDOCK:   -1.68 KCAL/MOL
REMARK 927      BINDING AFFINITY PREDICTED BY RF-SCORE:    0.00 PKD
ROOT
HETATM    1  C   UNL     1     -12.852  13.902  65.221  1.00  0.00    -0.398 C  
HETATM    2  O   UNL     1     -12.648  12.508  65.438  1.00  0.00    -0.656 OA 
ENDROOT
BRANCH   2   3
HETATM    3  C   UNL     1     -11.589  12.183  66.247  1.00  0.00    -0.360 A  
HETATM    4  C   UNL     1     -11.727  11.931  67.617  1.00  0.00    -0.346 A  
HETATM    5  C   UNL     1     -10.626  11.608  68.425  1.00  0.00    -0.211 A  
HETATM    6  C   UNL     1      -9.361  11.543  67.814  1.00  0.00    -0.168 A  
HETATM    7  C   UNL     1     -10.311  12.145  65.676  1.00  0.00    -0.257 A  
HETATM    8 CL   UNL     1      -7.958  11.122  68.736  1.00  0.00    -0.143 Cl 
HETATM    9  C   UNL     1      -9.200  11.813  66.452  1.00  0.00    -0.223 A  
HETATM   10 CL   UNL     1     -10.065  12.472  63.997  1.00  0.00    -0.360 Cl 
BRANCH   5  11
HETATM   11  N   UNL     1     -10.763  11.452  69.829  1.00  0.00    -0.447 NA 
HETATM   12  H   UNL     1     -10.279  12.146  70.399  1.00  0.00     0.000 HD 
BRANCH  11  13
HETATM   13  C   UNL     1     -11.482  10.462  70.548  1.00  0.00    -0.345 A  
HETATM   14  C   UNL     1     -12.985  12.154  71.607  1.00  0.00    -0.321 C  
HETATM   15  C   UNL     1     -12.592  10.809  71.345  1.00  0.00    -0.516 A  
HETATM   16  C   UNL     1     -13.330   9.791  71.920  1.00  0.00    -0.436 A  
HETATM   17  N   UNL     1     -13.070   8.479  71.750  1.00  0.00    -0.343 NA 
HETATM   18  N   UNL     1     -13.354  13.234  71.824  1.00  0.00    -0.404 NA 
HETATM   19  C   UNL     1     -12.021   8.138  70.992  1.00  0.00    -0.240 A  
HETATM   20  C   UNL     1     -11.795   6.785  70.806  1.00  0.00    -0.446 A  
HETATM   21  C   UNL     1     -10.755   6.308  70.003  1.00  0.00    -0.285 A  
HETATM   22  C   UNL     1     -11.170   9.081  70.375  1.00  0.00    -0.275 A  
HETATM   23  C   UNL     1      -9.885   7.222  69.408  1.00  0.00    -0.163 A  
HETATM   24  C   UNL     1     -10.084   8.593  69.610  1.00  0.00    -0.201 A  
BRANCH  21  25
HETATM   25  O   UNL     1     -10.515   4.969  69.860  1.00  0.00    -0.280 OA 
BRANCH  25  26
HETATM   26  C   UNL     1      -9.802   4.363  70.946  1.00  0.00    -0.196 C  
BRANCH  26  27
HETATM   27  C   UNL     1      -9.086   3.144  70.382  1.00  0.00    -0.192 C  
BRANCH  27  28
HETATM   28  C   UNL     1      -8.005   3.508  69.364  1.00  0.00    -0.050 C  
BRANCH  28  29
HETATM   29  N   UNL     1      -7.960   2.640  68.174  1.00  0.00    -0.058 NA 
HETATM   30  C   UNL     1      -9.217   2.652  67.395  1.00  0.00    -0.160 C  
HETATM   31  C   UNL     1      -9.500   3.985  66.662  1.00  0.00    -0.197 C  
HETATM   32  N   UNL     1      -8.409   4.435  65.776  1.00  0.00    -0.113 NA 
HETATM   33  C   UNL     1      -7.121   4.379  66.500  1.00  0.00    -0.071 C  
HETATM   34  C   UNL     1      -8.361   3.635  64.552  1.00  0.00    -0.093 C  
HETATM   35  C   UNL     1      -6.857   3.061  67.275  1.00  0.00    -0.045 C  
ENDBRANCH  28  29
ENDBRANCH  27  28
ENDBRANCH  26  27
ENDBRANCH  25  26
ENDBRANCH  21  25
BRANCH  23  36
HETATM   36  O   UNL     1      -8.787   6.918  68.646  1.00  0.00    -0.125 OA 
HETATM   37  C   UNL     1      -8.654   7.671  67.444  1.00  0.00    -0.125 C  
ENDBRANCH  23  36
ENDBRANCH  11  13
ENDBRANCH   5  11
ENDBRANCH   2   3
TORSDOF 9
ENDMDL
MODEL       39
REMARK 921   NORMALIZED FREE ENERGY PREDICTED BY IDOCK:   -6.26 KCAL/MOL
REMARK 922        TOTAL FREE ENERGY PREDICTED BY IDOCK:  -10.89 KCAL/MOL
REMARK 923 INTER-LIGAND FREE ENERGY PREDICTED BY IDOCK:  -10.17 KCAL/MOL
REMARK 924 INTRA-LIGAND FREE ENERGY PREDICTED BY IDOCK:   -0.72 KCAL/MOL
REMARK 927      BINDING AFFINITY PREDICTED BY RF-SCORE:    0.00 PKD
ROOT
HETATM    1  C   UNL     1      -6.833  17.364  67.260  1.00  0.00    -0.168 C  
HETATM    2  O   UNL     1      -8.016  16.860  67.877  1.00  0.00    -0.177 OA 
ENDROOT
BRANCH   2   3
HETATM    3  C   UNL     1      -8.983  16.402  67.019  1.00  0.00    -0.212 A  
HETATM    4  C   UNL     1      -8.954  15.121  66.453  1.00  0.00    -0.314 A  
HETATM    5  C   UNL     1      -9.951  14.678  65.572  1.00  0.00    -0.352 A  
HETATM    6  C   UNL     1     -10.998  15.567  65.266  1.00  0.00    -0.380 A  
HETATM    7  C   UNL     1     -10.019  17.274  66.666  1.00  0.00    -0.294 A  
HETATM    8 CL   UNL     1     -12.281  15.085  64.210  1.00  0.00    -0.433 Cl 
HETATM    9  C   UNL     1     -11.032  16.857  65.802  1.00  0.00     0.068 A  
HETATM   10 CL   UNL     1     -10.102  18.879  67.305  1.00  0.00    -0.381 Cl 
BRANCH   5  11
HETATM   11  N   UNL     1      -9.859  13.416  64.929  1.00  0.00    -0.586 NA 
HETATM   12  H   UNL     1      -9.550  13.438  63.957  1.00  0.00     0.000 HD 
BRANCH  11  13
HETATM   13  C   UNL     1     -10.137  12.127  65.455  1.00  0.00    -0.255 A  
HETATM   14  C   UNL     1      -9.088  10.974  63.502  1.00  0.00    -0.167 C  
HETATM   15  C   UNL     1      -9.699  10.964  64.790  1.00  0.00    -0.323 A  
HETATM   16  C   UNL     1      -9.888   9.744  65.412  1.00  0.00    -0.295 A  
HETATM   17  N   UNL     1     -10.448   9.594  66.629  1.00  0.00    -0.197 NA 
HETATM   18  N   UNL     1      -8.563  10.941  62.467  1.00  0.00    -0.265 NA 
HETATM   19  C   UNL     1     -10.864  10.691  67.271  1.00  0.00    -0.287 A  
HETATM   20  C   UNL     1     -11.405  10.514  68.532  1.00  0.00    -0.320 A  
HETATM   21  C   UNL     1     -11.837  11.589  69.315  1.00  0.00    -0.348 A  
HETATM   22  C   UNL     1     -10.757  11.993  66.732  1.00  0.00    -0.280 A  
HETATM   23  C   UNL     1     -11.768  12.880  68.790  1.00  0.00    -0.323 A  
HETATM   24  C   UNL     1     -11.249  13.072  67.504  1.00  0.00    -0.320 A  
BRANCH  21  25
HETATM   25  O   UNL     1     -12.409  11.398  70.543  1.00  0.00    -0.342 OA 
BRANCH  25  26
HETATM   26  C   UNL     1     -13.267  10.254  70.640  1.00  0.00    -0.141 C  
BRANCH  26  27
HETATM   27  C   UNL     1     -13.269   9.822  72.099  1.00  0.00    -0.530 C  
BRANCH  27  28
HETATM   28  C   UNL     1     -12.449   8.556  72.346  1.00  0.00    -0.353 C  
BRANCH  28  29
HETATM   29  N   UNL     1     -11.420   8.279  71.328  1.00  0.00    -0.267 NA 
HETATM   30  C   UNL     1     -10.111   8.894  71.641  1.00  0.00    -0.341 C  
HETATM   31  C   UNL     1      -9.380   8.258  72.847  1.00  0.00    -0.254 C  
HETATM   32  N   UNL     1      -9.185   6.798  72.740  1.00  0.00    -0.135 NA 
HETATM   33  C   UNL     1     -10.461   6.150  72.367  1.00  0.00    -0.199 C  
HETATM   34  C   UNL     1      -8.130   6.477  71.780  1.00  0.00    -0.104 C  
HETATM   35  C   UNL     1     -11.218   6.816  71.188  1.00  0.00    -0.283 C  
ENDBRANCH  28  29
ENDBRANCH  27  28
ENDBRANCH  26  27
ENDBRANCH  25  26
ENDBRANCH  21  25
BRANCH  23  36
HETATM   36  O   UNL     1     -12.203  14.027  69.400  1.00  0.00    -0.336 OA 
HETATM   37  C   UNL     1     -11.177  14.936  69.788  1.00  0.00    -0.280 C  
ENDBRANCH  23  36
ENDBRANCH  11  13
ENDBRANCH   5  11
ENDBRANCH   2   3
TORSDOF 9
ENDMDL
MODEL       40
REMARK 921   NORMALIZED FREE ENERGY PREDICTED BY IDOCK:   -6.25 KCAL/MOL
REMARK 922        TOTAL FREE ENERGY PREDICTED BY IDOCK:  -10.87 KCAL/MOL
REMARK 923 INTER-LIGAND FREE ENERGY PREDICTED BY IDOCK:   -9.16 KCAL/MOL
REMARK 924 INTRA-LIGAND FREE ENERGY PREDICTED BY IDOCK:   -1.71 KCAL/MOL
REMARK 927      BINDING AFFINITY PREDICTED BY RF-SCORE:    0.00 PKD
ROOT
HETATM    1  C   UNL     1     -10.244   4.607  66.191  1.00  0.00    -0.277 C  
HETATM    2  O   UNL     1     -10.963   5.400  67.132  1.00  0.00    -0.115 OA 
ENDROOT
BRANCH   2   3
HETATM    3  C   UNL     1     -10.331   6.544  67.548  1.00  0.00    -0.201 A  
HETATM    4  C   UNL     1      -9.704   7.431  66.664  1.00  0.00    -0.262 A  
HETATM    5  C   UNL     1      -9.057   8.592  67.116  1.00  0.00    -0.140 A  
HETATM    6  C   UNL     1      -9.055   8.846  68.499  1.00  0.00    -0.137 A  
HETATM    7  C   UNL     1     -10.280   6.807  68.922  1.00  0.00    -0.175 A  
HETATM    8 CL   UNL     1      -8.304  10.270  69.131  1.00  0.00    -0.143 Cl 
HETATM    9  C   UNL     1      -9.656   7.960  69.398  1.00  0.00    -0.160 A  
HETATM   10 CL   UNL     1     -11.010   5.741  70.070  1.00  0.00    -0.407 Cl 
BRANCH   5  11
HETATM   11  N   UNL     1      -8.340   9.430  66.223  1.00  0.00    -0.114 NA 
HETATM   12  H   UNL     1      -7.352   9.558  66.435  1.00  0.00     0.000 HD 
BRANCH  11  13
HETATM   13  C   UNL     1      -8.814  10.115  65.072  1.00  0.00    -0.181 A  
HETATM   14  C   UNL     1      -8.055   8.298  63.534  1.00  0.00    -0.130 C  
HETATM   15  C   UNL     1      -8.731   9.526  63.794  1.00  0.00    -0.237 A  
HETATM   16  C   UNL     1      -9.321  10.183  62.731  1.00  0.00    -0.295 A  
HETATM   17  N   UNL     1      -9.993  11.346  62.839  1.00  0.00    -0.292 NA 
HETATM   18  N   UNL     1      -7.538   7.289  63.283  1.00  0.00    -0.107 NA 
HETATM   19  C   UNL     1     -10.081  11.913  64.048  1.00  0.00    -0.334 A  
HETATM   20  C   UNL     1     -10.805  13.089  64.139  1.00  0.00    -0.433 A  
HETATM   21  C   UNL     1     -11.000  13.750  65.355  1.00  0.00    -0.309 A  
HETATM   22  C   UNL     1      -9.496  11.359  65.209  1.00  0.00    -0.233 A  
HETATM   23  C   UNL     1     -10.407  13.237  66.508  1.00  0.00    -0.285 A  
HETATM   24  C   UNL     1      -9.648  12.063  66.427  1.00  0.00    -0.239 A  
BRANCH  21  25
HETATM   25  O   UNL     1     -11.681  14.935  65.426  1.00  0.00    -0.326 OA 
BRANCH  25  26
HETATM   26  C   UNL     1     -11.001  16.059  64.853  1.00  0.00    -0.384 C  
BRANCH  26  27
HETATM   27  C   UNL     1     -10.515  16.921  66.009  1.00  0.00    -0.297 C  
BRANCH  27  28
HETATM   28  C   UNL     1      -9.004  16.826  66.226  1.00  0.00    -0.290 C  
BRANCH  28  29
HETATM   29  N   UNL     1      -8.261  18.067  65.948  1.00  0.00    -0.526 NA 
HETATM   30  C   UNL     1      -8.806  19.245  66.657  1.00  0.00    -0.334 C  
HETATM   31  C   UNL     1      -8.594  19.221  68.189  1.00  0.00    -0.327 C  
HETATM   32  N   UNL     1      -7.189  19.047  68.606  1.00  0.00    -0.304 NA 
HETATM   33  C   UNL     1      -6.587  17.913  67.873  1.00  0.00    -0.188 C  
HETATM   34  C   UNL     1      -6.423  20.275  68.400  1.00  0.00    -0.309 C  
HETATM   35  C   UNL     1      -6.839  17.911  66.342  1.00  0.00    -0.242 C  
ENDBRANCH  28  29
ENDBRANCH  27  28
ENDBRANCH  26  27
ENDBRANCH  25  26
ENDBRANCH  21  25
BRANCH  23  36
HETATM   36  O   UNL     1     -10.450  13.795  67.760  1.00  0.00    -0.235 OA 
HETATM   37  C   UNL     1      -9.189  13.943  68.404  1.00  0.00    -0.194 C  
ENDBRANCH  23  36
ENDBRANCH  11  13
ENDBRANCH   5  11
ENDBRANCH   2   3
TORSDOF 9
ENDMDL
MODEL       41
REMARK 921   NORMALIZED FREE ENERGY PREDICTED BY IDOCK:   -6.24 KCAL/MOL
REMARK 922        TOTAL FREE ENERGY PREDICTED BY IDOCK:  -10.87 KCAL/MOL
REMARK 923 INTER-LIGAND FREE ENERGY PREDICTED BY IDOCK:  -10.16 KCAL/MOL
REMARK 924 INTRA-LIGAND FREE ENERGY PREDICTED BY IDOCK:   -0.71 KCAL/MOL
REMARK 927      BINDING AFFINITY PREDICTED BY RF-SCORE:    0.00 PKD
ROOT
HETATM    1  C   UNL     1      -9.598   3.656  70.279  1.00  0.00    -0.176 C  
HETATM    2  O   UNL     1      -9.758   3.891  68.882  1.00  0.00    -0.154 OA 
ENDROOT
BRANCH   2   3
HETATM    3  C   UNL     1      -9.941   5.201  68.518  1.00  0.00    -0.154 A  
HETATM    4  C   UNL     1      -9.860   6.262  69.429  1.00  0.00    -0.180 A  
HETATM    5  C   UNL     1     -10.058   7.594  69.033  1.00  0.00    -0.198 A  
HETATM    6  C   UNL     1     -10.345   7.839  67.678  1.00  0.00    -0.239 A  
HETATM    7  C   UNL     1     -10.264   5.476  67.185  1.00  0.00    -0.218 A  
HETATM    8 CL   UNL     1     -10.574   9.456  67.106  1.00  0.00    -0.320 Cl 
HETATM    9  C   UNL     1     -10.453   6.791  66.760  1.00  0.00    -0.298 A  
HETATM   10 CL   UNL     1     -10.407   4.212  66.013  1.00  0.00    -0.108 Cl 
BRANCH   5  11
HETATM   11  N   UNL     1     -10.071   8.649  69.981  1.00  0.00    -0.185 NA 
HETATM   12  H   UNL     1      -9.156   8.987  70.278  1.00  0.00     0.000 HD 
BRANCH  11  13
HETATM   13  C   UNL     1     -11.186   9.299  70.573  1.00  0.00    -0.265 A  
HETATM   14  C   UNL     1     -11.725   7.326  72.008  1.00  0.00    -0.292 C  
HETATM   15  C   UNL     1     -11.930   8.675  71.595  1.00  0.00    -0.388 A  
HETATM   16  C   UNL     1     -12.924   9.404  72.221  1.00  0.00    -0.400 A  
HETATM   17  N   UNL     1     -13.218  10.686  71.931  1.00  0.00    -0.462 NA 
HETATM   18  N   UNL     1     -11.573   6.240  72.391  1.00  0.00    -0.296 NA 
HETATM   19  C   UNL     1     -12.517  11.291  70.964  1.00  0.00    -0.400 A  
HETATM   20  C   UNL     1     -12.814  12.618  70.708  1.00  0.00    -0.102 A  
HETATM   21  C   UNL     1     -12.122  13.365  69.751  1.00  0.00    -0.310 A  
HETATM   22  C   UNL     1     -11.496  10.648  70.229  1.00  0.00    -0.422 A  
HETATM   23  C   UNL     1     -11.131  12.741  68.992  1.00  0.00    -0.233 A  
HETATM   24  C   UNL     1     -10.838  11.392  69.221  1.00  0.00    -0.242 A  
BRANCH  21  25
HETATM   25  O   UNL     1     -12.454  14.663  69.477  1.00  0.00    -0.239 OA 
BRANCH  25  26
HETATM   26  C   UNL     1     -12.117  15.605  70.504  1.00  0.00    -0.395 C  
BRANCH  26  27
HETATM   27  C   UNL     1     -10.805  16.257  70.096  1.00  0.00    -0.299 C  
BRANCH  27  28
HETATM   28  C   UNL     1     -10.887  16.960  68.741  1.00  0.00    -0.289 C  
BRANCH  28  29
HETATM   29  N   UNL     1     -10.192  18.258  68.675  1.00  0.00    -0.380 NA 
HETATM   30  C   UNL     1      -8.728  18.128  68.506  1.00  0.00    -0.296 C  
HETATM   31  C   UNL     1      -8.292  17.593  67.122  1.00  0.00    -0.218 C  
HETATM   32  N   UNL     1      -8.816  18.365  65.978  1.00  0.00    -0.498 NA 
HETATM   33  C   UNL     1     -10.272  18.571  66.139  1.00  0.00    -0.398 C  
HETATM   34  C   UNL     1      -8.115  19.641  65.839  1.00  0.00    -0.233 C  
HETATM   35  C   UNL     1     -10.716  19.062  67.543  1.00  0.00    -0.446 C  
ENDBRANCH  28  29
ENDBRANCH  27  28
ENDBRANCH  26  27
ENDBRANCH  25  26
ENDBRANCH  21  25
BRANCH  23  36
HETATM   36  O   UNL     1     -10.406  13.312  67.979  1.00  0.00    -0.229 OA 
HETATM   37  C   UNL     1      -9.000  13.095  68.041  1.00  0.00    -0.195 C  
ENDBRANCH  23  36
ENDBRANCH  11  13
ENDBRANCH   5  11
ENDBRANCH   2   3
TORSDOF 9
ENDMDL
MODEL       42
REMARK 921   NORMALIZED FREE ENERGY PREDICTED BY IDOCK:   -6.24 KCAL/MOL
REMARK 922        TOTAL FREE ENERGY PREDICTED BY IDOCK:  -10.87 KCAL/MOL
REMARK 923 INTER-LIGAND FREE ENERGY PREDICTED BY IDOCK:   -9.74 KCAL/MOL
REMARK 924 INTRA-LIGAND FREE ENERGY PREDICTED BY IDOCK:   -1.13 KCAL/MOL
REMARK 927      BINDING AFFINITY PREDICTED BY RF-SCORE:    0.00 PKD
ROOT
HETATM    1  C   UNL     1      -7.726  19.632  68.825  1.00  0.00    -0.302 C  
HETATM    2  O   UNL     1      -9.121  19.389  68.667  1.00  0.00    -0.361 OA 
ENDROOT
BRANCH   2   3
HETATM    3  C   UNL     1      -9.450  18.263  67.956  1.00  0.00    -0.290 A  
HETATM    4  C   UNL     1      -9.250  16.967  68.448  1.00  0.00    -0.259 A  
HETATM    5  C   UNL     1      -9.587  15.830  67.697  1.00  0.00    -0.220 A  
HETATM    6  C   UNL     1     -10.140  16.029  66.419  1.00  0.00    -0.300 A  
HETATM    7  C   UNL     1      -9.969  18.425  66.666  1.00  0.00    -0.368 A  
HETATM    8 CL   UNL     1     -10.609  14.678  65.444  1.00  0.00    -0.359 Cl 
HETATM    9  C   UNL     1     -10.326  17.314  65.903  1.00  0.00    -0.287 A  
HETATM   10 CL   UNL     1     -10.216  19.996  65.986  1.00  0.00    -0.588 Cl 
BRANCH   5  11
HETATM   11  N   UNL     1      -9.288  14.524  68.165  1.00  0.00    -0.191 NA 
HETATM   12  H   UNL     1      -8.299  14.320  68.301  1.00  0.00     0.000 HD 
BRANCH  11  13
HETATM   13  C   UNL     1     -10.181  13.462  68.468  1.00  0.00    -0.223 A  
HETATM   14  C   UNL     1     -11.529  14.883  70.020  1.00  0.00    -0.278 C  
HETATM   15  C   UNL     1     -11.294  13.670  69.309  1.00  0.00    -0.323 A  
HETATM   16  C   UNL     1     -12.197  12.636  69.467  1.00  0.00    -0.090 A  
HETATM   17  N   UNL     1     -12.096  11.442  68.850  1.00  0.00    -0.469 NA 
HETATM   18  N   UNL     1     -11.772  15.862  70.596  1.00  0.00    -0.370 NA 
HETATM   19  C   UNL     1     -11.045  11.234  68.047  1.00  0.00    -0.266 A  
HETATM   20  C   UNL     1     -10.981  10.013  67.400  1.00  0.00    -0.258 A  
HETATM   21  C   UNL     1      -9.954   9.697  66.506  1.00  0.00    -0.246 A  
HETATM   22  C   UNL     1     -10.037  12.198  67.825  1.00  0.00    -0.203 A  
HETATM   23  C   UNL     1      -8.932  10.622  66.295  1.00  0.00    -0.165 A  
HETATM   24  C   UNL     1      -8.968  11.851  66.964  1.00  0.00    -0.190 A  
BRANCH  21  25
HETATM   25  O   UNL     1      -9.878   8.471  65.905  1.00  0.00    -0.156 OA 
BRANCH  25  26
HETATM   26  C   UNL     1      -9.550   7.385  66.782  1.00  0.00    -0.192 C  
BRANCH  26  27
HETATM   27  C   UNL     1     -10.831   6.596  67.012  1.00  0.00    -0.467 C  
BRANCH  27  28
HETATM   28  C   UNL     1     -10.980   6.114  68.455  1.00  0.00    -0.320 C  
BRANCH  28  29
HETATM   29  N   UNL     1     -10.343   6.977  69.464  1.00  0.00    -0.205 NA 
HETATM   30  C   UNL     1     -11.313   7.778  70.244  1.00  0.00    -0.163 C  
HETATM   31  C   UNL     1     -12.190   6.949  71.211  1.00  0.00    -0.380 C  
HETATM   32  N   UNL     1     -11.428   6.108  72.155  1.00  0.00    -0.299 NA 
HETATM   33  C   UNL     1     -10.403   5.335  71.422  1.00  0.00    -0.221 C  
HETATM   34  C   UNL     1     -10.822   6.919  73.211  1.00  0.00    -0.290 C  
HETATM   35  C   UNL     1      -9.554   6.156  70.416  1.00  0.00    -0.164 C  
ENDBRANCH  28  29
ENDBRANCH  27  28
ENDBRANCH  26  27
ENDBRANCH  25  26
ENDBRANCH  21  25
BRANCH  23  36
HETATM   36  O   UNL     1      -7.828  10.444  65.502  1.00  0.00    -0.148 OA 
HETATM   37  C   UNL     1      -6.575  10.545  66.173  1.00  0.00    -0.123 C  
ENDBRANCH  23  36
ENDBRANCH  11  13
ENDBRANCH   5  11
ENDBRANCH   2   3
TORSDOF 9
ENDMDL
MODEL       43
REMARK 921   NORMALIZED FREE ENERGY PREDICTED BY IDOCK:   -6.23 KCAL/MOL
REMARK 922        TOTAL FREE ENERGY PREDICTED BY IDOCK:  -10.86 KCAL/MOL
REMARK 923 INTER-LIGAND FREE ENERGY PREDICTED BY IDOCK:   -9.34 KCAL/MOL
REMARK 924 INTRA-LIGAND FREE ENERGY PREDICTED BY IDOCK:   -1.52 KCAL/MOL
REMARK 927      BINDING AFFINITY PREDICTED BY RF-SCORE:    0.00 PKD
ROOT
HETATM    1  C   UNL     1      -7.205   4.801  71.562  1.00  0.00    -0.068 C  
HETATM    2  O   UNL     1      -8.439   4.115  71.764  1.00  0.00    -0.099 OA 
ENDROOT
BRANCH   2   3
HETATM    3  C   UNL     1      -9.571   4.871  71.596  1.00  0.00    -0.159 A  
HETATM    4  C   UNL     1      -9.949   5.411  70.360  1.00  0.00    -0.291 A  
HETATM    5  C   UNL     1     -11.108   6.188  70.215  1.00  0.00    -0.366 A  
HETATM    6  C   UNL     1     -11.895   6.412  71.360  1.00  0.00    -0.281 A  
HETATM    7  C   UNL     1     -10.356   5.143  72.722  1.00  0.00    -0.197 A  
HETATM    8 CL   UNL     1     -13.355   7.335  71.257  1.00  0.00    -0.398 Cl 
HETATM    9  C   UNL     1     -11.522   5.900  72.605  1.00  0.00    -0.319 A  
HETATM   10 CL   UNL     1      -9.935   4.530  74.283  1.00  0.00    -0.189 Cl 
BRANCH   5  11
HETATM   11  N   UNL     1     -11.427   6.812  68.981  1.00  0.00    -0.582 NA 
HETATM   12  H   UNL     1     -12.383   6.676  68.652  1.00  0.00     0.000 HD 
BRANCH  11  13
HETATM   13  C   UNL     1     -10.596   7.600  68.142  1.00  0.00    -0.130 A  
HETATM   14  C   UNL     1      -9.918   5.629  66.764  1.00  0.00    -0.178 C  
HETATM   15  C   UNL     1      -9.931   7.028  67.038  1.00  0.00    -0.273 A  
HETATM   16  C   UNL     1      -9.238   7.867  66.185  1.00  0.00    -0.152 A  
HETATM   17  N   UNL     1      -9.173   9.205  66.327  1.00  0.00    -0.178 NA 
HETATM   18  N   UNL     1      -9.903   4.501  66.490  1.00  0.00    -0.209 NA 
HETATM   19  C   UNL     1      -9.804   9.759  67.369  1.00  0.00    -0.174 A  
HETATM   20  C   UNL     1      -9.751  11.138  67.474  1.00  0.00    -0.193 A  
HETATM   21  C   UNL     1     -10.404  11.833  68.497  1.00  0.00    -0.217 A  
HETATM   22  C   UNL     1     -10.520   9.011  68.330  1.00  0.00    -0.247 A  
HETATM   23  C   UNL     1     -11.093  11.112  69.473  1.00  0.00    -0.252 A  
HETATM   24  C   UNL     1     -11.131   9.715  69.395  1.00  0.00    -0.170 A  
BRANCH  21  25
HETATM   25  O   UNL     1     -10.309  13.192  68.615  1.00  0.00    -0.243 OA 
BRANCH  25  26
HETATM   26  C   UNL     1     -11.267  13.935  67.850  1.00  0.00    -0.278 C  
BRANCH  26  27
HETATM   27  C   UNL     1     -11.809  15.030  68.758  1.00  0.00    -0.331 C  
BRANCH  27  28
HETATM   28  C   UNL     1     -10.825  16.186  68.946  1.00  0.00    -0.305 C  
BRANCH  28  29
HETATM   29  N   UNL     1     -10.327  16.782  67.694  1.00  0.00    -0.300 NA 
HETATM   30  C   UNL     1     -10.783  18.175  67.489  1.00  0.00    -0.345 C  
HETATM   31  C   UNL     1     -10.158  19.199  68.465  1.00  0.00    -0.422 C  
HETATM   32  N   UNL     1      -8.682  19.201  68.484  1.00  0.00    -0.356 NA 
HETATM   33  C   UNL     1      -8.183  17.816  68.625  1.00  0.00    -0.271 C  
HETATM   34  C   UNL     1      -8.142  19.836  67.282  1.00  0.00    -0.292 C  
HETATM   35  C   UNL     1      -8.843  16.778  67.679  1.00  0.00    -0.205 C  
ENDBRANCH  28  29
ENDBRANCH  27  28
ENDBRANCH  26  27
ENDBRANCH  25  26
ENDBRANCH  21  25
BRANCH  23  36
HETATM   36  O   UNL     1     -11.731  11.634  70.568  1.00  0.00    -0.292 OA 
HETATM   37  C   UNL     1     -12.837  10.875  71.046  1.00  0.00    -0.376 C  
ENDBRANCH  23  36
ENDBRANCH  11  13
ENDBRANCH   5  11
ENDBRANCH   2   3
TORSDOF 9
ENDMDL
MODEL       44
REMARK 921   NORMALIZED FREE ENERGY PREDICTED BY IDOCK:   -6.23 KCAL/MOL
REMARK 922        TOTAL FREE ENERGY PREDICTED BY IDOCK:  -10.85 KCAL/MOL
REMARK 923 INTER-LIGAND FREE ENERGY PREDICTED BY IDOCK:   -9.37 KCAL/MOL
REMARK 924 INTRA-LIGAND FREE ENERGY PREDICTED BY IDOCK:   -1.48 KCAL/MOL
REMARK 927      BINDING AFFINITY PREDICTED BY RF-SCORE:    0.00 PKD
ROOT
HETATM    1  C   UNL     1      -9.727   7.821  73.194  1.00  0.00    -0.285 C  
HETATM    2  O   UNL     1     -10.471   8.509  72.192  1.00  0.00    -0.297 OA 
ENDROOT
BRANCH   2   3
HETATM    3  C   UNL     1     -10.401   7.975  70.930  1.00  0.00    -0.200 A  
HETATM    4  C   UNL     1      -9.364   8.272  70.036  1.00  0.00    -0.162 A  
HETATM    5  C   UNL     1      -9.318   7.719  68.747  1.00  0.00    -0.146 A  
HETATM    6  C   UNL     1     -10.356   6.847  68.370  1.00  0.00    -0.190 A  
HETATM    7  C   UNL     1     -11.436   7.132  70.512  1.00  0.00    -0.295 A  
HETATM    8 CL   UNL     1     -10.355   6.102  66.808  1.00  0.00    -0.280 Cl 
HETATM    9  C   UNL     1     -11.409   6.557  69.241  1.00  0.00    -0.359 A  
HETATM   10 CL   UNL     1     -12.760   6.745  71.555  1.00  0.00    -0.382 Cl 
BRANCH   5  11
HETATM   11  N   UNL     1      -8.319   8.104  67.817  1.00  0.00    -0.127 NA 
HETATM   12  H   UNL     1      -7.356   7.955  68.117  1.00  0.00     0.000 HD 
BRANCH  11  13
HETATM   13  C   UNL     1      -8.477   8.667  66.523  1.00  0.00    -0.113 A  
HETATM   14  C   UNL     1      -6.775   7.137  65.520  1.00  0.00    -0.052 C  
HETATM   15  C   UNL     1      -7.778   8.145  65.415  1.00  0.00    -0.101 A  
HETATM   16  C   UNL     1      -8.066   8.650  64.161  1.00  0.00    -0.162 A  
HETATM   17  N   UNL     1      -8.993   9.599  63.923  1.00  0.00    -0.233 NA 
HETATM   18  N   UNL     1      -5.971   6.300  65.558  1.00  0.00    -0.025 NA 
HETATM   19  C   UNL     1      -9.665  10.099  64.966  1.00  0.00    -0.318 A  
HETATM   20  C   UNL     1     -10.635  11.048  64.692  1.00  0.00    -0.369 A  
HETATM   21  C   UNL     1     -11.429  11.613  65.694  1.00  0.00    -0.105 A  
HETATM   22  C   UNL     1      -9.443   9.691  66.300  1.00  0.00    -0.255 A  
HETATM   23  C   UNL     1     -11.206  11.246  67.021  1.00  0.00    -0.255 A  
HETATM   24  C   UNL     1     -10.210  10.308  67.317  1.00  0.00    -0.267 A  
BRANCH  21  25
HETATM   25  O   UNL     1     -12.354  12.581  65.416  1.00  0.00    -0.579 OA 
BRANCH  25  26
HETATM   26  C   UNL     1     -12.219  13.196  64.128  1.00  0.00    -0.398 C  
BRANCH  26  27
HETATM   27  C   UNL     1     -12.133  14.698  64.360  1.00  0.00    -0.481 C  
BRANCH  27  28
HETATM   28  C   UNL     1     -10.794  15.130  64.960  1.00  0.00    -0.440 C  
BRANCH  28  29
HETATM   29  N   UNL     1     -10.900  15.956  66.175  1.00  0.00    -0.260 NA 
HETATM   30  C   UNL     1     -10.907  15.159  67.422  1.00  0.00    -0.302 C  
HETATM   31  C   UNL     1      -9.556  14.483  67.754  1.00  0.00    -0.215 C  
HETATM   32  N   UNL     1      -8.409  15.409  67.810  1.00  0.00    -0.143 NA 
HETATM   33  C   UNL     1      -8.400  16.268  66.607  1.00  0.00    -0.280 C  
HETATM   34  C   UNL     1      -8.442  16.213  69.032  1.00  0.00    -0.251 C  
HETATM   35  C   UNL     1      -9.766  16.910  66.246  1.00  0.00    -0.280 C  
ENDBRANCH  28  29
ENDBRANCH  27  28
ENDBRANCH  26  27
ENDBRANCH  25  26
ENDBRANCH  21  25
BRANCH  23  36
HETATM   36  O   UNL     1     -11.853  11.748  68.121  1.00  0.00    -0.451 OA 
HETATM   37  C   UNL     1     -11.966  10.852  69.221  1.00  0.00    -0.310 C  
ENDBRANCH  23  36
ENDBRANCH  11  13
ENDBRANCH   5  11
ENDBRANCH   2   3
TORSDOF 9
ENDMDL
MODEL       45
REMARK 921   NORMALIZED FREE ENERGY PREDICTED BY IDOCK:   -6.22 KCAL/MOL
REMARK 922        TOTAL FREE ENERGY PREDICTED BY IDOCK:  -10.83 KCAL/MOL
REMARK 923 INTER-LIGAND FREE ENERGY PREDICTED BY IDOCK:   -9.74 KCAL/MOL
REMARK 924 INTRA-LIGAND FREE ENERGY PREDICTED BY IDOCK:   -1.09 KCAL/MOL
REMARK 927      BINDING AFFINITY PREDICTED BY RF-SCORE:    0.00 PKD
ROOT
HETATM    1  C   UNL     1     -10.819   6.017  69.134  1.00  0.00    -0.352 C  
HETATM    2  O   UNL     1     -10.599   6.837  70.279  1.00  0.00    -0.201 OA 
ENDROOT
BRANCH   2   3
HETATM    3  C   UNL     1     -10.818   8.179  70.098  1.00  0.00    -0.241 A  
HETATM    4  C   UNL     1     -10.289   8.898  69.019  1.00  0.00    -0.226 A  
HETATM    5  C   UNL     1     -10.521  10.273  68.861  1.00  0.00    -0.211 A  
HETATM    6  C   UNL     1     -11.311  10.920  69.828  1.00  0.00    -0.301 A  
HETATM    7  C   UNL     1     -11.571   8.860  71.062  1.00  0.00    -0.293 A  
HETATM    8 CL   UNL     1     -11.668  12.607  69.687  1.00  0.00    -0.379 Cl 
HETATM    9  C   UNL     1     -11.829  10.224  70.923  1.00  0.00    -0.473 A  
HETATM   10 CL   UNL     1     -12.232   8.040  72.433  1.00  0.00    -0.356 Cl 
BRANCH   5  11
HETATM   11  N   UNL     1      -9.898  11.009  67.820  1.00  0.00    -0.171 NA 
HETATM   12  H   UNL     1     -10.100  10.691  66.873  1.00  0.00     0.000 HD 
BRANCH  11  13
HETATM   13  C   UNL     1      -9.032  12.130  67.919  1.00  0.00    -0.184 A  
HETATM   14  C   UNL     1      -7.311  10.836  69.186  1.00  0.00    -0.115 C  
HETATM   15  C   UNL     1      -7.762  12.013  68.519  1.00  0.00    -0.127 A  
HETATM   16  C   UNL     1      -6.913  13.102  68.474  1.00  0.00    -0.103 A  
HETATM   17  N   UNL     1      -7.212  14.271  67.873  1.00  0.00    -0.139 NA 
HETATM   18  N   UNL     1      -6.895   9.890  69.716  1.00  0.00    -0.070 NA 
HETATM   19  C   UNL     1      -8.414  14.393  67.297  1.00  0.00    -0.212 A  
HETATM   20  C   UNL     1      -8.685  15.589  66.657  1.00  0.00    -0.326 A  
HETATM   21  C   UNL     1      -9.890  15.819  65.985  1.00  0.00    -0.337 A  
HETATM   22  C   UNL     1      -9.384  13.365  67.300  1.00  0.00    -0.233 A  
HETATM   23  C   UNL     1     -10.873  14.829  66.001  1.00  0.00    -0.318 A  
HETATM   24  C   UNL     1     -10.624  13.624  66.668  1.00  0.00    -0.277 A  
BRANCH  21  25
HETATM   25  O   UNL     1     -10.163  17.021  65.393  1.00  0.00    -0.605 OA 
BRANCH  25  26
HETATM   26  C   UNL     1     -10.767  17.996  66.253  1.00  0.00    -0.122 C  
BRANCH  26  27
HETATM   27  C   UNL     1     -10.213  19.353  65.845  1.00  0.00    -0.471 C  
BRANCH  27  28
HETATM   28  C   UNL     1      -8.714  19.488  66.116  1.00  0.00    -0.311 C  
BRANCH  28  29
HETATM   29  N   UNL     1      -8.371  20.254  67.326  1.00  0.00    -0.340 NA 
HETATM   30  C   UNL     1      -8.434  19.448  68.565  1.00  0.00    -0.362 C  
HETATM   31  C   UNL     1      -7.326  18.375  68.683  1.00  0.00    -0.295 C  
HETATM   32  N   UNL     1      -5.953  18.901  68.551  1.00  0.00    -0.211 NA 
HETATM   33  C   UNL     1      -5.862  19.765  67.354  1.00  0.00    -0.180 C  
HETATM   34  C   UNL     1      -5.548  19.624  69.756  1.00  0.00    -0.240 C  
HETATM   35  C   UNL     1      -7.000  20.810  67.209  1.00  0.00    -0.358 C  
ENDBRANCH  28  29
ENDBRANCH  27  28
ENDBRANCH  26  27
ENDBRANCH  25  26
ENDBRANCH  21  25
BRANCH  23  36
HETATM   36  O   UNL     1     -12.123  14.919  65.447  1.00  0.00    -0.223 OA 
HETATM   37  C   UNL     1     -12.267  14.308  64.169  1.00  0.00    -0.378 C  
ENDBRANCH  23  36
ENDBRANCH  11  13
ENDBRANCH   5  11
ENDBRANCH   2   3
TORSDOF 9
ENDMDL
MODEL       46
REMARK 921   NORMALIZED FREE ENERGY PREDICTED BY IDOCK:   -6.20 KCAL/MOL
REMARK 922        TOTAL FREE ENERGY PREDICTED BY IDOCK:  -10.81 KCAL/MOL
REMARK 923 INTER-LIGAND FREE ENERGY PREDICTED BY IDOCK:  -10.48 KCAL/MOL
REMARK 924 INTRA-LIGAND FREE ENERGY PREDICTED BY IDOCK:   -0.32 KCAL/MOL
REMARK 927      BINDING AFFINITY PREDICTED BY RF-SCORE:    0.00 PKD
ROOT
HETATM    1  C   UNL     1     -14.272   8.764  72.381  1.00  0.00    -0.385 C  
HETATM    2  O   UNL     1     -12.915   8.729  72.814  1.00  0.00    -0.345 OA 
ENDROOT
BRANCH   2   3
HETATM    3  C   UNL     1     -11.980   9.040  71.859  1.00  0.00    -0.375 A  
HETATM    4  C   UNL     1     -12.304   9.686  70.660  1.00  0.00    -0.201 A  
HETATM    5  C   UNL     1     -11.330   9.987  69.695  1.00  0.00    -0.202 A  
HETATM    6  C   UNL     1     -10.000   9.618  69.968  1.00  0.00    -0.247 A  
HETATM    7  C   UNL     1     -10.654   8.655  72.085  1.00  0.00    -0.341 A  
HETATM    8 CL   UNL     1      -8.738   9.980  68.842  1.00  0.00    -0.138 Cl 
HETATM    9  C   UNL     1      -9.662   8.953  71.149  1.00  0.00    -0.344 A  
HETATM   10 CL   UNL     1     -10.189   7.831  73.532  1.00  0.00    -0.337 Cl 
BRANCH   5  11
HETATM   11  N   UNL     1     -11.684  10.551  68.442  1.00  0.00    -0.717 NA 
HETATM   12  H   UNL     1     -12.569  10.232  68.049  1.00  0.00     0.000 HD 
BRANCH  11  13
HETATM   13  C   UNL     1     -10.973  11.500  67.661  1.00  0.00    -0.242 A  
HETATM   14  C   UNL     1     -10.062   9.741  66.139  1.00  0.00    -0.245 C  
HETATM   15  C   UNL     1     -10.253  11.102  66.516  1.00  0.00    -0.275 A  
HETATM   16  C   UNL     1      -9.687  12.084  65.725  1.00  0.00    -0.235 A  
HETATM   17  N   UNL     1      -9.795  13.405  65.965  1.00  0.00    -0.284 NA 
HETATM   18  N   UNL     1      -9.904   8.647  65.782  1.00  0.00    -0.027 NA 
HETATM   19  C   UNL     1     -10.479  13.795  67.047  1.00  0.00    -0.274 A  
HETATM   20  C   UNL     1     -10.605  15.158  67.253  1.00  0.00    -0.286 A  
HETATM   21  C   UNL     1     -11.330  15.685  68.326  1.00  0.00    -0.356 A  
HETATM   22  C   UNL     1     -11.079  12.892  67.952  1.00  0.00    -0.283 A  
HETATM   23  C   UNL     1     -11.906  14.811  69.248  1.00  0.00    -0.318 A  
HETATM   24  C   UNL     1     -11.763  13.430  69.068  1.00  0.00    -0.368 A  
BRANCH  21  25
HETATM   25  O   UNL     1     -11.411  17.033  68.544  1.00  0.00    -0.162 OA 
BRANCH  25  26
HETATM   26  C   UNL     1     -10.233  17.628  69.105  1.00  0.00    -0.238 C  
BRANCH  26  27
HETATM   27  C   UNL     1     -10.137  19.038  68.542  1.00  0.00    -0.467 C  
BRANCH  27  28
HETATM   28  C   UNL     1      -8.709  19.587  68.557  1.00  0.00    -0.345 C  
BRANCH  28  29
HETATM   29  N   UNL     1      -8.268  20.195  67.290  1.00  0.00    -0.325 NA 
HETATM   30  C   UNL     1      -6.835  20.563  67.288  1.00  0.00    -0.290 C  
HETATM   31  C   UNL     1      -5.867  19.357  67.283  1.00  0.00    -0.178 C  
HETATM   32  N   UNL     1      -6.093  18.399  66.183  1.00  0.00    -0.171 NA 
HETATM   33  C   UNL     1      -7.528  18.051  66.111  1.00  0.00    -0.270 C  
HETATM   34  C   UNL     1      -5.617  18.939  64.910  1.00  0.00    -0.243 C  
HETATM   35  C   UNL     1      -8.502  19.257  66.163  1.00  0.00    -0.269 C  
ENDBRANCH  28  29
ENDBRANCH  27  28
ENDBRANCH  26  27
ENDBRANCH  25  26
ENDBRANCH  21  25
BRANCH  23  36
HETATM   36  O   UNL     1     -12.593  15.164  70.381  1.00  0.00    -0.354 OA 
HETATM   37  C   UNL     1     -12.970  14.081  71.225  1.00  0.00    -0.347 C  
ENDBRANCH  23  36
ENDBRANCH  11  13
ENDBRANCH   5  11
ENDBRANCH   2   3
TORSDOF 9
ENDMDL
MODEL       47
REMARK 921   NORMALIZED FREE ENERGY PREDICTED BY IDOCK:   -6.20 KCAL/MOL
REMARK 922        TOTAL FREE ENERGY PREDICTED BY IDOCK:  -10.81 KCAL/MOL
REMARK 923 INTER-LIGAND FREE ENERGY PREDICTED BY IDOCK:   -9.34 KCAL/MOL
REMARK 924 INTRA-LIGAND FREE ENERGY PREDICTED BY IDOCK:   -1.46 KCAL/MOL
REMARK 927      BINDING AFFINITY PREDICTED BY RF-SCORE:    0.00 PKD
ROOT
HETATM    1  C   UNL     1      -7.689  16.654  66.116  1.00  0.00    -0.113 C  
HETATM    2  O   UNL     1      -9.089  16.817  65.905  1.00  0.00    -0.492 OA 
ENDROOT
BRANCH   2   3
HETATM    3  C   UNL     1      -9.902  16.059  66.709  1.00  0.00    -0.250 A  
HETATM    4  C   UNL     1     -10.328  14.771  66.362  1.00  0.00    -0.297 A  
HETATM    5  C   UNL     1     -11.167  14.018  67.198  1.00  0.00    -0.313 A  
HETATM    6  C   UNL     1     -11.574  14.599  68.413  1.00  0.00    -0.323 A  
HETATM    7  C   UNL     1     -10.354  16.622  67.908  1.00  0.00    -0.310 A  
HETATM    8 CL   UNL     1     -12.584  13.723  69.511  1.00  0.00    -0.111 Cl 
HETATM    9  C   UNL     1     -11.177  15.891  68.765  1.00  0.00    -0.359 A  
HETATM   10 CL   UNL     1      -9.889  18.217  68.386  1.00  0.00    -0.353 Cl 
BRANCH   5  11
HETATM   11  N   UNL     1     -11.671  12.756  66.791  1.00  0.00    -0.376 NA 
HETATM   12  H   UNL     1     -12.576  12.495  67.183  1.00  0.00     0.000 HD 
BRANCH  11  13
HETATM   13  C   UNL     1     -11.088  11.806  65.911  1.00  0.00    -0.302 A  
HETATM   14  C   UNL     1     -12.029  12.929  63.887  1.00  0.00    -0.480 C  
HETATM   15  C   UNL     1     -11.212  11.942  64.514  1.00  0.00    -0.380 A  
HETATM   16  C   UNL     1     -10.518  11.061  63.706  1.00  0.00    -0.341 A  
HETATM   17  N   UNL     1      -9.709  10.087  64.168  1.00  0.00    -0.229 NA 
HETATM   18  N   UNL     1     -12.661  13.732  63.336  1.00  0.00    -0.789 NA 
HETATM   19  C   UNL     1      -9.581   9.951  65.493  1.00  0.00    -0.277 A  
HETATM   20  C   UNL     1      -8.720   8.965  65.942  1.00  0.00    -0.197 A  
HETATM   21  C   UNL     1      -8.473   8.755  67.302  1.00  0.00    -0.111 A  
HETATM   22  C   UNL     1     -10.259  10.766  66.426  1.00  0.00    -0.294 A  
HETATM   23  C   UNL     1      -9.155   9.529  68.242  1.00  0.00    -0.127 A  
HETATM   24  C   UNL     1     -10.051  10.511  67.802  1.00  0.00    -0.205 A  
BRANCH  21  25
HETATM   25  O   UNL     1      -7.653   7.750  67.736  1.00  0.00    -0.107 OA 
BRANCH  25  26
HETATM   26  C   UNL     1      -7.915   6.463  67.162  1.00  0.00    -0.112 C  
BRANCH  26  27
HETATM   27  C   UNL     1      -7.814   5.445  68.288  1.00  0.00    -0.088 C  
BRANCH  27  28
HETATM   28  C   UNL     1      -8.307   5.991  69.628  1.00  0.00    -0.119 C  
BRANCH  28  29
HETATM   29  N   UNL     1      -9.430   5.246  70.224  1.00  0.00    -0.160 NA 
HETATM   30  C   UNL     1      -9.671   5.589  71.643  1.00  0.00    -0.161 C  
HETATM   31  C   UNL     1     -10.231   7.013  71.867  1.00  0.00    -0.187 C  
HETATM   32  N   UNL     1     -11.463   7.309  71.110  1.00  0.00    -0.273 NA 
HETATM   33  C   UNL     1     -11.286   6.922  69.694  1.00  0.00    -0.242 C  
HETATM   34  C   UNL     1     -12.618   6.633  71.700  1.00  0.00    -0.264 C  
HETATM   35  C   UNL     1     -10.679   5.512  69.468  1.00  0.00    -0.262 C  
ENDBRANCH  28  29
ENDBRANCH  27  28
ENDBRANCH  26  27
ENDBRANCH  25  26
ENDBRANCH  21  25
BRANCH  23  36
HETATM   36  O   UNL     1      -9.073   9.409  69.604  1.00  0.00    -0.156 OA 
HETATM   37  C   UNL     1      -7.814   9.757  70.171  1.00  0.00    -0.183 C  
ENDBRANCH  23  36
ENDBRANCH  11  13
ENDBRANCH   5  11
ENDBRANCH   2   3
TORSDOF 9
ENDMDL
MODEL       48
REMARK 921   NORMALIZED FREE ENERGY PREDICTED BY IDOCK:   -6.15 KCAL/MOL
REMARK 922        TOTAL FREE ENERGY PREDICTED BY IDOCK:  -10.74 KCAL/MOL
REMARK 923 INTER-LIGAND FREE ENERGY PREDICTED BY IDOCK:   -9.20 KCAL/MOL
REMARK 924 INTRA-LIGAND FREE ENERGY PREDICTED BY IDOCK:   -1.53 KCAL/MOL
REMARK 927      BINDING AFFINITY PREDICTED BY RF-SCORE:    0.00 PKD
ROOT
HETATM    1  C   UNL     1      -9.469   3.041  68.140  1.00  0.00    -0.159 C  
HETATM    2  O   UNL     1      -9.973   4.297  67.693  1.00  0.00    -0.132 OA 
ENDROOT
BRANCH   2   3
HETATM    3  C   UNL     1      -9.256   5.399  68.087  1.00  0.00    -0.111 A  
HETATM    4  C   UNL     1      -9.541   6.113  69.257  1.00  0.00    -0.153 A  
HETATM    5  C   UNL     1      -8.798   7.241  69.636  1.00  0.00    -0.141 A  
HETATM    6  C   UNL     1      -7.743   7.643  68.797  1.00  0.00    -0.118 A  
HETATM    7  C   UNL     1      -8.222   5.845  67.257  1.00  0.00    -0.105 A  
HETATM    8 CL   UNL     1      -6.761   9.007  69.210  1.00  0.00    -0.049 Cl 
HETATM    9  C   UNL     1      -7.457   6.956  67.614  1.00  0.00    -0.098 A  
HETATM   10 CL   UNL     1      -7.833   5.026  65.784  1.00  0.00    -0.091 Cl 
BRANCH   5  11
HETATM   11  N   UNL     1      -9.159   8.015  70.770  1.00  0.00    -0.143 NA 
HETATM   12  H   UNL     1      -8.421   8.158  71.459  1.00  0.00     0.000 HD 
BRANCH  11  13
HETATM   13  C   UNL     1     -10.409   8.616  71.075  1.00  0.00    -0.217 A  
HETATM   14  C   UNL     1     -10.961   6.877  72.782  1.00  0.00    -0.280 C  
HETATM   15  C   UNL     1     -11.233   8.095  72.094  1.00  0.00    -0.393 A  
HETATM   16  C   UNL     1     -12.376   8.794  72.432  1.00  0.00    -0.344 A  
HETATM   17  N   UNL     1     -12.747   9.959  71.864  1.00  0.00    -0.408 NA 
HETATM   18  N   UNL     1     -10.764   5.904  73.385  1.00  0.00    -0.262 NA 
HETATM   19  C   UNL     1     -11.971  10.464  70.898  1.00  0.00    -0.377 A  
HETATM   20  C   UNL     1     -12.355  11.677  70.354  1.00  0.00    -0.373 A  
HETATM   21  C   UNL     1     -11.603  12.323  69.368  1.00  0.00    -0.314 A  
HETATM   22  C   UNL     1     -10.794   9.833  70.440  1.00  0.00    -0.370 A  
HETATM   23  C   UNL     1     -10.453  11.702  68.879  1.00  0.00    -0.175 A  
HETATM   24  C   UNL     1     -10.067  10.462  69.401  1.00  0.00    -0.251 A  
BRANCH  21  25
HETATM   25  O   UNL     1     -12.015  13.500  68.808  1.00  0.00    -0.338 OA 
BRANCH  25  26
HETATM   26  C   UNL     1     -11.909  14.647  69.661  1.00  0.00    -0.320 C  
BRANCH  26  27
HETATM   27  C   UNL     1     -10.659  15.404  69.236  1.00  0.00    -0.252 C  
BRANCH  27  28
HETATM   28  C   UNL     1     -10.973  16.659  68.422  1.00  0.00    -0.345 C  
BRANCH  28  29
HETATM   29  N   UNL     1     -10.067  17.795  68.664  1.00  0.00    -0.369 NA 
HETATM   30  C   UNL     1      -8.677  17.537  68.226  1.00  0.00    -0.270 C  
HETATM   31  C   UNL     1      -8.498  17.458  66.691  1.00  0.00    -0.261 C  
HETATM   32  N   UNL     1      -8.996  18.639  65.959  1.00  0.00    -0.481 NA 
HETATM   33  C   UNL     1     -10.364  18.969  66.413  1.00  0.00    -0.448 C  
HETATM   34  C   UNL     1      -8.095  19.779  66.125  1.00  0.00    -0.342 C  
HETATM   35  C   UNL     1     -10.556  19.002  67.952  1.00  0.00    -0.358 C  
ENDBRANCH  28  29
ENDBRANCH  27  28
ENDBRANCH  26  27
ENDBRANCH  25  26
ENDBRANCH  21  25
BRANCH  23  36
HETATM   36  O   UNL     1      -9.642  12.170  67.878  1.00  0.00    -0.185 OA 
HETATM   37  C   UNL     1      -8.274  12.340  68.232  1.00  0.00    -0.167 C  
ENDBRANCH  23  36
ENDBRANCH  11  13
ENDBRANCH   5  11
ENDBRANCH   2   3
TORSDOF 9
ENDMDL
MODEL       49
REMARK 921   NORMALIZED FREE ENERGY PREDICTED BY IDOCK:   -6.15 KCAL/MOL
REMARK 922        TOTAL FREE ENERGY PREDICTED BY IDOCK:  -10.73 KCAL/MOL
REMARK 923 INTER-LIGAND FREE ENERGY PREDICTED BY IDOCK:  -10.04 KCAL/MOL
REMARK 924 INTRA-LIGAND FREE ENERGY PREDICTED BY IDOCK:   -0.69 KCAL/MOL
REMARK 927      BINDING AFFINITY PREDICTED BY RF-SCORE:    0.00 PKD
ROOT
HETATM    1  C   UNL     1     -10.277  20.299  66.347  1.00  0.00    -0.338 C  
HETATM    2  O   UNL     1     -10.341  19.870  67.705  1.00  0.00    -0.414 OA 
ENDROOT
BRANCH   2   3
HETATM    3  C   UNL     1     -10.005  18.559  67.928  1.00  0.00    -0.346 A  
HETATM    4  C   UNL     1     -10.847  17.491  67.596  1.00  0.00    -0.229 A  
HETATM    5  C   UNL     1     -10.484  16.158  67.842  1.00  0.00    -0.290 A  
HETATM    6  C   UNL     1      -9.233  15.918  68.441  1.00  0.00    -0.197 A  
HETATM    7  C   UNL     1      -8.783  18.289  68.555  1.00  0.00    -0.308 A  
HETATM    8 CL   UNL     1      -8.701  14.301  68.750  1.00  0.00    -0.141 Cl 
HETATM    9  C   UNL     1      -8.390  16.973  68.800  1.00  0.00    -0.237 A  
HETATM   10 CL   UNL     1      -7.707  19.561  69.017  1.00  0.00    -0.384 Cl 
BRANCH   5  11
HETATM   11  N   UNL     1     -11.386  15.091  67.593  1.00  0.00    -0.327 NA 
HETATM   12  H   UNL     1     -12.231  15.085  68.163  1.00  0.00     0.000 HD 
BRANCH  11  13
HETATM   13  C   UNL     1     -11.271  14.030  66.656  1.00  0.00    -0.323 A  
HETATM   14  C   UNL     1     -11.258  15.595  64.708  1.00  0.00    -0.382 C  
HETATM   15  C   UNL     1     -11.141  14.293  65.277  1.00  0.00    -0.335 A  
HETATM   16  C   UNL     1     -10.906  13.229  64.427  1.00  0.00    -0.403 A  
HETATM   17  N   UNL     1     -10.771  11.951  64.833  1.00  0.00    -0.289 NA 
HETATM   18  N   UNL     1     -11.320  16.641  64.207  1.00  0.00    -1.093 NA 
HETATM   19  C   UNL     1     -10.888  11.690  66.141  1.00  0.00    -0.294 A  
HETATM   20  C   UNL     1     -10.712  10.376  66.537  1.00  0.00    -0.162 A  
HETATM   21  C   UNL     1     -10.771   9.988  67.879  1.00  0.00    -0.272 A  
HETATM   22  C   UNL     1     -11.158  12.683  67.108  1.00  0.00    -0.321 A  
HETATM   23  C   UNL     1     -11.066  10.947  68.848  1.00  0.00    -0.252 A  
HETATM   24  C   UNL     1     -11.275  12.276  68.459  1.00  0.00    -0.316 A  
BRANCH  21  25
HETATM   25  O   UNL     1     -10.637   8.680  68.254  1.00  0.00    -0.202 OA 
BRANCH  25  26
HETATM   26  C   UNL     1     -10.774   7.728  67.191  1.00  0.00    -0.267 C  
BRANCH  26  27
HETATM   27  C   UNL     1     -10.862   6.352  67.836  1.00  0.00    -0.404 C  
BRANCH  27  28
HETATM   28  C   UNL     1      -9.699   5.438  67.446  1.00  0.00    -0.140 C  
BRANCH  28  29
HETATM   29  N   UNL     1     -10.099   4.147  66.859  1.00  0.00    -0.089 NA 
HETATM   30  C   UNL     1      -9.734   4.018  65.431  1.00  0.00    -0.196 C  
HETATM   31  C   UNL     1      -8.214   3.899  65.170  1.00  0.00    -0.101 C  
HETATM   32  N   UNL     1      -7.553   2.806  65.910  1.00  0.00    -0.072 NA 
HETATM   33  C   UNL     1      -7.941   2.862  67.336  1.00  0.00    -0.076 C  
HETATM   34  C   UNL     1      -7.877   1.504  65.326  1.00  0.00    -0.071 C  
HETATM   35  C   UNL     1      -9.461   3.029  67.599  1.00  0.00    -0.138 C  
ENDBRANCH  28  29
ENDBRANCH  27  28
ENDBRANCH  26  27
ENDBRANCH  25  26
ENDBRANCH  21  25
BRANCH  23  36
HETATM   36  O   UNL     1     -11.219  10.722  70.191  1.00  0.00    -0.284 OA 
HETATM   37  C   UNL     1     -12.552  10.454  70.614  1.00  0.00    -0.348 C  
ENDBRANCH  23  36
ENDBRANCH  11  13
ENDBRANCH   5  11
ENDBRANCH   2   3
TORSDOF 9
ENDMDL
MODEL       50
REMARK 921   NORMALIZED FREE ENERGY PREDICTED BY IDOCK:   -6.14 KCAL/MOL
REMARK 922        TOTAL FREE ENERGY PREDICTED BY IDOCK:  -10.72 KCAL/MOL
REMARK 923 INTER-LIGAND FREE ENERGY PREDICTED BY IDOCK:   -9.43 KCAL/MOL
REMARK 924 INTRA-LIGAND FREE ENERGY PREDICTED BY IDOCK:   -1.28 KCAL/MOL
REMARK 927      BINDING AFFINITY PREDICTED BY RF-SCORE:    0.00 PKD
ROOT
HETATM    1  C   UNL     1     -13.641   7.746  71.691  1.00  0.00    -0.357 C  
HETATM    2  O   UNL     1     -12.867   6.551  71.764  1.00  0.00    -0.293 OA 
ENDROOT
BRANCH   2   3
HETATM    3  C   UNL     1     -11.653   6.591  71.126  1.00  0.00    -0.335 A  
HETATM    4  C   UNL     1     -11.527   6.668  69.734  1.00  0.00    -0.388 A  
HETATM    5  C   UNL     1     -10.273   6.700  69.105  1.00  0.00    -0.179 A  
HETATM    6  C   UNL     1      -9.128   6.652  69.921  1.00  0.00    -0.143 A  
HETATM    7  C   UNL     1     -10.495   6.510  71.908  1.00  0.00    -0.206 A  
HETATM    8 CL   UNL     1      -7.546   6.716  69.223  1.00  0.00    -0.098 Cl 
HETATM    9  C   UNL     1      -9.234   6.553  71.311  1.00  0.00    -0.155 A  
HETATM   10 CL   UNL     1     -10.578   6.386  73.631  1.00  0.00    -0.292 Cl 
BRANCH   5  11
HETATM   11  N   UNL     1     -10.157   6.677  67.691  1.00  0.00    -0.143 NA 
HETATM   12  H   UNL     1     -10.562   5.864  67.228  1.00  0.00     0.000 HD 
BRANCH  11  13
HETATM   13  C   UNL     1      -9.555   7.635  66.832  1.00  0.00    -0.193 A  
HETATM   14  C   UNL     1      -8.177   5.902  65.673  1.00  0.00    -0.134 C  
HETATM   15  C   UNL     1      -8.656   7.237  65.821  1.00  0.00    -0.143 A  
HETATM   16  C   UNL     1      -8.200   8.196  64.937  1.00  0.00    -0.147 A  
HETATM   17  N   UNL     1      -8.576   9.490  64.963  1.00  0.00    -0.155 NA 
HETATM   18  N   UNL     1      -7.783   4.824  65.501  1.00  0.00    -0.085 NA 
HETATM   19  C   UNL     1      -9.432   9.878  65.915  1.00  0.00    -0.215 A  
HETATM   20  C   UNL     1      -9.828  11.204  65.901  1.00  0.00    -0.275 A  
HETATM   21  C   UNL     1     -10.749  11.716  66.820  1.00  0.00    -0.260 A  
HETATM   22  C   UNL     1      -9.947   9.004  66.898  1.00  0.00    -0.313 A  
HETATM   23  C   UNL     1     -11.248  10.877  67.817  1.00  0.00    -0.317 A  
HETATM   24  C   UNL     1     -10.834   9.541  67.861  1.00  0.00    -0.240 A  
BRANCH  21  25
HETATM   25  O   UNL     1     -11.101  13.038  66.822  1.00  0.00    -0.274 OA 
BRANCH  25  26
HETATM   26  C   UNL     1     -10.242  13.892  67.590  1.00  0.00    -0.242 C  
BRANCH  26  27
HETATM   27  C   UNL     1     -10.939  15.240  67.698  1.00  0.00    -0.311 C  
BRANCH  27  28
HETATM   28  C   UNL     1     -11.977  15.284  68.819  1.00  0.00    -0.251 C  
BRANCH  28  29
HETATM   29  N   UNL     1     -11.618  14.517  70.024  1.00  0.00    -0.275 NA 
HETATM   30  C   UNL     1     -10.818  15.296  70.995  1.00  0.00    -0.134 C  
HETATM   31  C   UNL     1     -11.600  16.428  71.701  1.00  0.00    -0.265 C  
HETATM   32  N   UNL     1     -12.834  15.984  72.378  1.00  0.00    -0.435 NA 
HETATM   33  C   UNL     1     -13.636  15.149  71.459  1.00  0.00    -0.477 C  
HETATM   34  C   UNL     1     -12.527  15.264  73.614  1.00  0.00    -0.589 C  
HETATM   35  C   UNL     1     -12.843  14.043  70.714  1.00  0.00    -0.285 C  
ENDBRANCH  28  29
ENDBRANCH  27  28
ENDBRANCH  26  27
ENDBRANCH  25  26
ENDBRANCH  21  25
BRANCH  23  36
HETATM   36  O   UNL     1     -12.105  11.236  68.824  1.00  0.00    -0.508 OA 
HETATM   37  C   UNL     1     -11.875  10.595  70.075  1.00  0.00    -0.322 C  
ENDBRANCH  23  36
ENDBRANCH  11  13
ENDBRANCH   5  11
ENDBRANCH   2   3
TORSDOF 9
ENDMDL
MODEL       51
REMARK 921   NORMALIZED FREE ENERGY PREDICTED BY IDOCK:   -6.14 KCAL/MOL
REMARK 922        TOTAL FREE ENERGY PREDICTED BY IDOCK:  -10.71 KCAL/MOL
REMARK 923 INTER-LIGAND FREE ENERGY PREDICTED BY IDOCK:   -9.69 KCAL/MOL
REMARK 924 INTRA-LIGAND FREE ENERGY PREDICTED BY IDOCK:   -1.02 KCAL/MOL
REMARK 927      BINDING AFFINITY PREDICTED BY RF-SCORE:    0.00 PKD
ROOT
HETATM    1  C   UNL     1     -10.999   6.558  69.455  1.00  0.00    -0.337 C  
HETATM    2  O   UNL     1     -10.207   7.667  69.871  1.00  0.00    -0.205 OA 
ENDROOT
BRANCH   2   3
HETATM    3  C   UNL     1     -10.657   8.900  69.472  1.00  0.00    -0.228 A  
HETATM    4  C   UNL     1     -10.481   9.390  68.172  1.00  0.00    -0.267 A  
HETATM    5  C   UNL     1     -10.944  10.659  67.790  1.00  0.00    -0.306 A  
HETATM    6  C   UNL     1     -11.600  11.437  68.761  1.00  0.00    -0.313 A  
HETATM    7  C   UNL     1     -11.282   9.714  70.423  1.00  0.00    -0.283 A  
HETATM    8 CL   UNL     1     -12.226  13.000  68.360  1.00  0.00    -0.160 Cl 
HETATM    9  C   UNL     1     -11.765  10.974  70.069  1.00  0.00    -0.437 A  
HETATM   10 CL   UNL     1     -11.509   9.183  72.053  1.00  0.00    -0.414 Cl 
BRANCH   5  11
HETATM   11  N   UNL     1     -10.673  11.184  66.500  1.00  0.00    -0.267 NA 
HETATM   12  H   UNL     1     -10.679  10.507  65.738  1.00  0.00     0.000 HD 
BRANCH  11  13
HETATM   13  C   UNL     1     -10.395  12.525  66.126  1.00  0.00    -0.253 A  
HETATM   14  C   UNL     1     -12.360  12.628  64.586  1.00  0.00    -0.476 C  
HETATM   15  C   UNL     1     -11.254  13.228  65.258  1.00  0.00    -0.315 A  
HETATM   16  C   UNL     1     -11.003  14.568  65.030  1.00  0.00    -0.398 A  
HETATM   17  N   UNL     1      -9.996  15.257  65.603  1.00  0.00    -0.351 NA 
HETATM   18  N   UNL     1     -13.284  12.185  64.040  1.00  0.00    -0.705 NA 
HETATM   19  C   UNL     1      -9.176  14.601  66.432  1.00  0.00    -0.249 A  
HETATM   20  C   UNL     1      -8.171  15.338  67.034  1.00  0.00    -0.267 A  
HETATM   21  C   UNL     1      -7.278  14.772  67.948  1.00  0.00    -0.156 A  
HETATM   22  C   UNL     1      -9.306  13.225  66.724  1.00  0.00    -0.254 A  
HETATM   23  C   UNL     1      -7.370  13.408  68.229  1.00  0.00    -0.113 A  
HETATM   24  C   UNL     1      -8.364  12.644  67.606  1.00  0.00    -0.174 A  
BRANCH  21  25
HETATM   25  O   UNL     1      -6.262  15.500  68.504  1.00  0.00    -0.093 OA 
BRANCH  25  26
HETATM   26  C   UNL     1      -5.260  15.944  67.581  1.00  0.00    -0.106 C  
BRANCH  26  27
HETATM   27  C   UNL     1      -5.157  17.455  67.729  1.00  0.00    -0.122 C  
BRANCH  27  28
HETATM   28  C   UNL     1      -6.079  18.209  66.769  1.00  0.00    -0.157 C  
BRANCH  28  29
HETATM   29  N   UNL     1      -6.675  19.438  67.324  1.00  0.00    -0.197 NA 
HETATM   30  C   UNL     1      -7.733  20.012  66.463  1.00  0.00    -0.298 C  
HETATM   31  C   UNL     1      -9.028  19.170  66.399  1.00  0.00    -0.342 C  
HETATM   32  N   UNL     1      -9.624  18.868  67.715  1.00  0.00    -0.305 NA 
HETATM   33  C   UNL     1      -8.583  18.346  68.627  1.00  0.00    -0.292 C  
HETATM   34  C   UNL     1     -10.278  20.047  68.280  1.00  0.00    -0.392 C  
HETATM   35  C   UNL     1      -7.265  19.164  68.657  1.00  0.00    -0.321 C  
ENDBRANCH  28  29
ENDBRANCH  27  28
ENDBRANCH  26  27
ENDBRANCH  25  26
ENDBRANCH  21  25
BRANCH  23  36
HETATM   36  O   UNL     1      -6.539  12.691  69.050  1.00  0.00    -0.090 OA 
HETATM   37  C   UNL     1      -5.532  11.935  68.386  1.00  0.00    -0.049 C  
ENDBRANCH  23  36
ENDBRANCH  11  13
ENDBRANCH   5  11
ENDBRANCH   2   3
TORSDOF 9
ENDMDL
MODEL       52
REMARK 921   NORMALIZED FREE ENERGY PREDICTED BY IDOCK:   -6.13 KCAL/MOL
REMARK 922        TOTAL FREE ENERGY PREDICTED BY IDOCK:  -10.70 KCAL/MOL
REMARK 923 INTER-LIGAND FREE ENERGY PREDICTED BY IDOCK:   -9.66 KCAL/MOL
REMARK 924 INTRA-LIGAND FREE ENERGY PREDICTED BY IDOCK:   -1.04 KCAL/MOL
REMARK 927      BINDING AFFINITY PREDICTED BY RF-SCORE:    0.00 PKD
ROOT
HETATM    1  C   UNL     1      -9.185   8.025  73.075  1.00  0.00    -0.270 C  
HETATM    2  O   UNL     1     -10.270   8.442  72.250  1.00  0.00    -0.278 OA 
ENDROOT
BRANCH   2   3
HETATM    3  C   UNL     1     -10.267   7.945  70.972  1.00  0.00    -0.197 A  
HETATM    4  C   UNL     1      -9.400   8.410  69.975  1.00  0.00    -0.159 A  
HETATM    5  C   UNL     1      -9.423   7.890  68.672  1.00  0.00    -0.149 A  
HETATM    6  C   UNL     1     -10.353   6.874  68.388  1.00  0.00    -0.190 A  
HETATM    7  C   UNL     1     -11.205   6.957  70.647  1.00  0.00    -0.301 A  
HETATM    8 CL   UNL     1     -10.423   6.161  66.813  1.00  0.00    -0.305 Cl 
HETATM    9  C   UNL     1     -11.241   6.412  69.363  1.00  0.00    -0.459 A  
HETATM   10 CL   UNL     1     -12.323   6.356  71.821  1.00  0.00    -0.340 Cl 
BRANCH   5  11
HETATM   11  N   UNL     1      -8.609   8.438  67.647  1.00  0.00    -0.129 NA 
HETATM   12  H   UNL     1      -7.611   8.249  67.728  1.00  0.00     0.000 HD 
BRANCH  11  13
HETATM   13  C   UNL     1      -8.997   9.212  66.522  1.00  0.00    -0.148 A  
HETATM   14  C   UNL     1      -7.880   7.657  64.917  1.00  0.00    -0.128 C  
HETATM   15  C   UNL     1      -8.698   8.787  65.211  1.00  0.00    -0.216 A  
HETATM   16  C   UNL     1      -9.209   9.515  64.154  1.00  0.00    -0.084 A  
HETATM   17  N   UNL     1      -9.998  10.599  64.292  1.00  0.00    -0.332 NA 
HETATM   18  N   UNL     1      -7.241   6.730  64.634  1.00  0.00    -0.070 NA 
HETATM   19  C   UNL     1     -10.292  11.010  65.531  1.00  0.00    -0.260 A  
HETATM   20  C   UNL     1     -11.131  12.105  65.647  1.00  0.00    -0.360 A  
HETATM   21  C   UNL     1     -11.540  12.600  66.888  1.00  0.00    -0.373 A  
HETATM   22  C   UNL     1      -9.808  10.373  66.695  1.00  0.00    -0.251 A  
HETATM   23  C   UNL     1     -11.050  12.005  68.051  1.00  0.00    -0.241 A  
HETATM   24  C   UNL     1     -10.179  10.914  67.949  1.00  0.00    -0.205 A  
BRANCH  21  25
HETATM   25  O   UNL     1     -12.335  13.709  66.991  1.00  0.00    -0.355 OA 
BRANCH  25  26
HETATM   26  C   UNL     1     -11.740  14.927  66.524  1.00  0.00    -0.199 C  
BRANCH  26  27
HETATM   27  C   UNL     1     -10.725  15.357  67.573  1.00  0.00    -0.295 C  
BRANCH  27  28
HETATM   28  C   UNL     1     -10.901  16.813  68.006  1.00  0.00    -0.341 C  
BRANCH  28  29
HETATM   29  N   UNL     1     -10.340  17.807  67.074  1.00  0.00    -0.343 NA 
HETATM   30  C   UNL     1     -10.516  19.202  67.534  1.00  0.00    -0.455 C  
HETATM   31  C   UNL     1      -9.663  19.578  68.769  1.00  0.00    -0.438 C  
HETATM   32  N   UNL     1      -8.217  19.328  68.609  1.00  0.00    -0.368 NA 
HETATM   33  C   UNL     1      -8.000  17.960  68.091  1.00  0.00    -0.265 C  
HETATM   34  C   UNL     1      -7.604  20.327  67.734  1.00  0.00    -0.275 C  
HETATM   35  C   UNL     1      -8.889  17.566  66.882  1.00  0.00    -0.251 C  
ENDBRANCH  28  29
ENDBRANCH  27  28
ENDBRANCH  26  27
ENDBRANCH  25  26
ENDBRANCH  21  25
BRANCH  23  36
HETATM   36  O   UNL     1     -11.305  12.406  69.337  1.00  0.00    -0.256 OA 
HETATM   37  C   UNL     1     -11.931  11.431  70.164  1.00  0.00    -0.377 C  
ENDBRANCH  23  36
ENDBRANCH  11  13
ENDBRANCH   5  11
ENDBRANCH   2   3
TORSDOF 9
ENDMDL
MODEL       53
REMARK 921   NORMALIZED FREE ENERGY PREDICTED BY IDOCK:   -6.13 KCAL/MOL
REMARK 922        TOTAL FREE ENERGY PREDICTED BY IDOCK:  -10.70 KCAL/MOL
REMARK 923 INTER-LIGAND FREE ENERGY PREDICTED BY IDOCK:   -9.24 KCAL/MOL
REMARK 924 INTRA-LIGAND FREE ENERGY PREDICTED BY IDOCK:   -1.46 KCAL/MOL
REMARK 927      BINDING AFFINITY PREDICTED BY RF-SCORE:    0.00 PKD
ROOT
HETATM    1  C   UNL     1      -7.058  16.806  69.135  1.00  0.00    -0.222 C  
HETATM    2  O   UNL     1      -8.241  17.532  68.814  1.00  0.00    -0.273 OA 
ENDROOT
BRANCH   2   3
HETATM    3  C   UNL     1      -9.131  16.885  67.994  1.00  0.00    -0.234 A  
HETATM    4  C   UNL     1     -10.201  16.126  68.483  1.00  0.00    -0.241 A  
HETATM    5  C   UNL     1     -11.094  15.466  67.624  1.00  0.00    -0.316 A  
HETATM    6  C   UNL     1     -10.882  15.589  66.238  1.00  0.00    -0.283 A  
HETATM    7  C   UNL     1      -8.927  16.958  66.612  1.00  0.00    -0.252 A  
HETATM    8 CL   UNL     1     -11.956  14.830  65.114  1.00  0.00    -0.319 Cl 
HETATM    9  C   UNL     1      -9.806  16.324  65.734  1.00  0.00    -0.332 A  
HETATM   10 CL   UNL     1      -7.610  17.855  65.942  1.00  0.00    -0.238 Cl 
BRANCH   5  11
HETATM   11  N   UNL     1     -12.114  14.620  68.130  1.00  0.00    -0.572 NA 
HETATM   12  H   UNL     1     -13.059  14.829  67.811  1.00  0.00     0.000 HD 
BRANCH  11  13
HETATM   13  C   UNL     1     -11.997  13.521  69.022  1.00  0.00    -0.335 A  
HETATM   14  C   UNL     1     -13.006  14.799  70.917  1.00  0.00    -0.364 C  
HETATM   15  C   UNL     1     -12.493  13.601  70.339  1.00  0.00    -0.364 A  
HETATM   16  C   UNL     1     -12.465  12.460  71.120  1.00  0.00    -0.222 A  
HETATM   17  N   UNL     1     -12.012  11.264  70.696  1.00  0.00    -0.356 NA 
HETATM   18  N   UNL     1     -13.455  15.746  71.417  1.00  0.00    -0.498 NA 
HETATM   19  C   UNL     1     -11.541  11.175  69.446  1.00  0.00    -0.318 A  
HETATM   20  C   UNL     1     -11.113   9.929  69.024  1.00  0.00    -0.184 A  
HETATM   21  C   UNL     1     -10.639   9.705  67.728  1.00  0.00    -0.264 A  
HETATM   22  C   UNL     1     -11.486  12.273  68.559  1.00  0.00    -0.349 A  
HETATM   23  C   UNL     1     -10.548  10.780  66.844  1.00  0.00    -0.258 A  
HETATM   24  C   UNL     1     -10.952  12.052  67.267  1.00  0.00    -0.313 A  
BRANCH  21  25
HETATM   25  O   UNL     1     -10.178   8.478  67.335  1.00  0.00    -0.218 OA 
BRANCH  25  26
HETATM   26  C   UNL     1      -8.986   8.038  67.999  1.00  0.00    -0.130 C  
BRANCH  26  27
HETATM   27  C   UNL     1      -8.038   7.531  66.922  1.00  0.00    -0.116 C  
BRANCH  27  28
HETATM   28  C   UNL     1      -8.723   6.606  65.916  1.00  0.00    -0.137 C  
BRANCH  28  29
HETATM   29  N   UNL     1      -8.481   5.169  66.135  1.00  0.00    -0.114 NA 
HETATM   30  C   UNL     1      -9.721   4.399  66.375  1.00  0.00    -0.215 C  
HETATM   31  C   UNL     1     -10.637   4.264  65.136  1.00  0.00    -0.144 C  
HETATM   32  N   UNL     1      -9.972   3.698  63.946  1.00  0.00    -0.171 NA 
HETATM   33  C   UNL     1      -8.694   4.402  63.706  1.00  0.00    -0.129 C  
HETATM   34  C   UNL     1      -9.761   2.258  64.095  1.00  0.00    -0.127 C  
HETATM   35  C   UNL     1      -7.795   4.580  64.958  1.00  0.00    -0.090 C  
ENDBRANCH  28  29
ENDBRANCH  27  28
ENDBRANCH  26  27
ENDBRANCH  25  26
ENDBRANCH  21  25
BRANCH  23  36
HETATM   36  O   UNL     1     -10.052  10.741  65.567  1.00  0.00    -0.248 OA 
HETATM   37  C   UNL     1     -10.858  11.381  64.582  1.00  0.00    -0.292 C  
ENDBRANCH  23  36
ENDBRANCH  11  13
ENDBRANCH   5  11
ENDBRANCH   2   3
TORSDOF 9
ENDMDL
MODEL       54
REMARK 921   NORMALIZED FREE ENERGY PREDICTED BY IDOCK:   -6.09 KCAL/MOL
REMARK 922        TOTAL FREE ENERGY PREDICTED BY IDOCK:  -10.64 KCAL/MOL
REMARK 923 INTER-LIGAND FREE ENERGY PREDICTED BY IDOCK:  -10.06 KCAL/MOL
REMARK 924 INTRA-LIGAND FREE ENERGY PREDICTED BY IDOCK:   -0.59 KCAL/MOL
REMARK 927      BINDING AFFINITY PREDICTED BY RF-SCORE:    0.00 PKD
ROOT
HETATM    1  C   UNL     1      -9.838   4.138  69.875  1.00  0.00    -0.162 C  
HETATM    2  O   UNL     1     -10.070   5.146  70.856  1.00  0.00    -0.205 OA 
ENDROOT
BRANCH   2   3
HETATM    3  C   UNL     1      -9.782   6.430  70.468  1.00  0.00    -0.168 A  
HETATM    4  C   UNL     1     -10.738   7.290  69.914  1.00  0.00    -0.257 A  
HETATM    5  C   UNL     1     -10.416   8.597  69.517  1.00  0.00    -0.220 A  
HETATM    6  C   UNL     1      -9.089   9.027  69.693  1.00  0.00    -0.154 A  
HETATM    7  C   UNL     1      -8.462   6.877  70.596  1.00  0.00    -0.136 A  
HETATM    8 CL   UNL     1      -8.620  10.634  69.255  1.00  0.00    -0.135 Cl 
HETATM    9  C   UNL     1      -8.116   8.175  70.223  1.00  0.00    -0.109 A  
HETATM   10 CL   UNL     1      -7.226   5.858  71.247  1.00  0.00    -0.076 Cl 
BRANCH   5  11
HETATM   11  N   UNL     1     -11.368   9.424  68.866  1.00  0.00    -0.433 NA 
HETATM   12  H   UNL     1     -11.804   9.026  68.036  1.00  0.00     0.000 HD 
BRANCH  11  13
HETATM   13  C   UNL     1     -11.796  10.732  69.216  1.00  0.00    -0.288 A  
HETATM   14  C   UNL     1     -12.354  10.052  71.555  1.00  0.00    -0.419 C  
HETATM   15  C   UNL     1     -12.202  11.034  70.532  1.00  0.00    -0.472 A  
HETATM   16  C   UNL     1     -12.487  12.349  70.845  1.00  0.00    -0.274 A  
HETATM   17  N   UNL     1     -12.381  13.374  69.975  1.00  0.00    -0.269 NA 
HETATM   18  N   UNL     1     -12.465   9.288  72.423  1.00  0.00    -0.292 NA 
HETATM   19  C   UNL     1     -11.992  13.100  68.724  1.00  0.00    -0.280 A  
HETATM   20  C   UNL     1     -11.859  14.172  67.859  1.00  0.00    -0.405 A  
HETATM   21  C   UNL     1     -11.421  14.016  66.541  1.00  0.00    -0.357 A  
HETATM   22  C   UNL     1     -11.702  11.794  68.270  1.00  0.00    -0.377 A  
HETATM   23  C   UNL     1     -11.158  12.732  66.063  1.00  0.00    -0.285 A  
HETATM   24  C   UNL     1     -11.315  11.635  66.918  1.00  0.00    -0.364 A  
BRANCH  21  25
HETATM   25  O   UNL     1     -11.334  15.077  65.683  1.00  0.00    -0.345 OA 
BRANCH  25  26
HETATM   26  C   UNL     1     -10.046  15.267  65.082  1.00  0.00    -0.288 C  
BRANCH  26  27
HETATM   27  C   UNL     1      -9.022  15.232  66.206  1.00  0.00    -0.314 C  
BRANCH  27  28
HETATM   28  C   UNL     1      -8.192  16.514  66.294  1.00  0.00    -0.325 C  
BRANCH  28  29
HETATM   29  N   UNL     1      -8.084  17.088  67.646  1.00  0.00    -0.179 NA 
HETATM   30  C   UNL     1      -7.693  18.515  67.644  1.00  0.00    -0.231 C  
HETATM   31  C   UNL     1      -8.781  19.473  67.104  1.00  0.00    -0.301 C  
HETATM   32  N   UNL     1     -10.085  19.358  67.784  1.00  0.00    -0.375 NA 
HETATM   33  C   UNL     1     -10.485  17.937  67.862  1.00  0.00    -0.396 C  
HETATM   34  C   UNL     1     -10.041  19.967  69.113  1.00  0.00    -0.172 C  
HETATM   35  C   UNL     1      -9.380  16.968  68.359  1.00  0.00    -0.266 C  
ENDBRANCH  28  29
ENDBRANCH  27  28
ENDBRANCH  26  27
ENDBRANCH  25  26
ENDBRANCH  21  25
BRANCH  23  36
HETATM   36  O   UNL     1     -10.782  12.403  64.786  1.00  0.00    -0.276 OA 
HETATM   37  C   UNL     1     -11.843  12.007  63.923  1.00  0.00    -0.448 C  
ENDBRANCH  23  36
ENDBRANCH  11  13
ENDBRANCH   5  11
ENDBRANCH   2   3
TORSDOF 9
ENDMDL
MODEL       55
REMARK 921   NORMALIZED FREE ENERGY PREDICTED BY IDOCK:   -6.05 KCAL/MOL
REMARK 922        TOTAL FREE ENERGY PREDICTED BY IDOCK:  -10.58 KCAL/MOL
REMARK 923 INTER-LIGAND FREE ENERGY PREDICTED BY IDOCK:   -9.62 KCAL/MOL
REMARK 924 INTRA-LIGAND FREE ENERGY PREDICTED BY IDOCK:   -0.96 KCAL/MOL
REMARK 927      BINDING AFFINITY PREDICTED BY RF-SCORE:    0.00 PKD
ROOT
HETATM    1  C   UNL     1      -8.294   5.216  72.847  1.00  0.00    -0.109 C  
HETATM    2  O   UNL     1      -7.816   4.850  71.555  1.00  0.00    -0.098 OA 
ENDROOT
BRANCH   2   3
HETATM    3  C   UNL     1      -8.543   5.330  70.496  1.00  0.00    -0.120 A  
HETATM    4  C   UNL     1      -8.492   6.666  70.081  1.00  0.00    -0.136 A  
HETATM    5  C   UNL     1      -9.252   7.135  68.999  1.00  0.00    -0.135 A  
HETATM    6  C   UNL     1     -10.078   6.214  68.330  1.00  0.00    -0.158 A  
HETATM    7  C   UNL     1      -9.402   4.447  69.832  1.00  0.00    -0.155 A  
HETATM    8 CL   UNL     1     -11.024   6.707  66.967  1.00  0.00    -0.480 Cl 
HETATM    9  C   UNL     1     -10.159   4.881  68.743  1.00  0.00    -0.169 A  
HETATM   10 CL   UNL     1      -9.534   2.790  70.308  1.00  0.00    -0.209 Cl 
BRANCH   5  11
HETATM   11  N   UNL     1      -9.268   8.511  68.651  1.00  0.00    -0.142 NA 
HETATM   12  H   UNL     1      -8.376   8.899  68.347  1.00  0.00     0.000 HD 
BRANCH  11  13
HETATM   13  C   UNL     1     -10.358   9.420  68.669  1.00  0.00    -0.203 A  
HETATM   14  C   UNL     1     -10.923   8.878  71.042  1.00  0.00    -0.276 C  
HETATM   15  C   UNL     1     -11.101   9.636  69.848  1.00  0.00    -0.268 A  
HETATM   16  C   UNL     1     -12.069  10.623  69.841  1.00  0.00    -0.299 A  
HETATM   17  N   UNL     1     -12.336  11.413  68.782  1.00  0.00    -0.419 NA 
HETATM   18  N   UNL     1     -10.792   8.303  72.042  1.00  0.00    -0.278 NA 
HETATM   19  C   UNL     1     -11.634  11.220  67.659  1.00  0.00    -0.210 A  
HETATM   20  C   UNL     1     -11.903  12.065  66.597  1.00  0.00    -0.239 A  
HETATM   21  C   UNL     1     -11.207  11.986  65.387  1.00  0.00    -0.322 A  
HETATM   22  C   UNL     1     -10.641  10.224  67.527  1.00  0.00    -0.320 A  
HETATM   23  C   UNL     1     -10.243  10.992  65.224  1.00  0.00    -0.284 A  
HETATM   24  C   UNL     1      -9.979  10.111  66.280  1.00  0.00    -0.304 A  
BRANCH  21  25
HETATM   25  O   UNL     1     -11.512  12.799  64.330  1.00  0.00    -0.331 OA 
BRANCH  25  26
HETATM   26  C   UNL     1     -12.001  14.099  64.686  1.00  0.00    -0.445 C  
BRANCH  26  27
HETATM   27  C   UNL     1     -10.804  15.039  64.686  1.00  0.00    -0.290 C  
BRANCH  27  28
HETATM   28  C   UNL     1     -10.777  15.965  65.903  1.00  0.00    -0.296 C  
BRANCH  28  29
HETATM   29  N   UNL     1      -9.881  17.127  65.774  1.00  0.00    -0.558 NA 
HETATM   30  C   UNL     1     -10.409  18.345  66.428  1.00  0.00    -0.405 C  
HETATM   31  C   UNL     1     -10.434  18.279  67.973  1.00  0.00    -0.367 C  
HETATM   32  N   UNL     1      -9.132  17.957  68.590  1.00  0.00    -0.282 NA 
HETATM   33  C   UNL     1      -8.540  16.778  67.922  1.00  0.00    -0.202 C  
HETATM   34  C   UNL     1      -8.227  19.104  68.536  1.00  0.00    -0.364 C  
HETATM   35  C   UNL     1      -8.557  16.823  66.371  1.00  0.00    -0.303 C  
ENDBRANCH  28  29
ENDBRANCH  27  28
ENDBRANCH  26  27
ENDBRANCH  25  26
ENDBRANCH  21  25
BRANCH  23  36
HETATM   36  O   UNL     1      -9.519  10.742  64.088  1.00  0.00    -0.225 OA 
HETATM   37  C   UNL     1      -8.762   9.535  64.102  1.00  0.00    -0.215 C  
ENDBRANCH  23  36
ENDBRANCH  11  13
ENDBRANCH   5  11
ENDBRANCH   2   3
TORSDOF 9
ENDMDL
MODEL       56
REMARK 921   NORMALIZED FREE ENERGY PREDICTED BY IDOCK:   -6.02 KCAL/MOL
REMARK 922        TOTAL FREE ENERGY PREDICTED BY IDOCK:  -10.54 KCAL/MOL
REMARK 923 INTER-LIGAND FREE ENERGY PREDICTED BY IDOCK:   -8.67 KCAL/MOL
REMARK 924 INTRA-LIGAND FREE ENERGY PREDICTED BY IDOCK:   -1.87 KCAL/MOL
REMARK 927      BINDING AFFINITY PREDICTED BY RF-SCORE:    0.00 PKD
ROOT
HETATM    1  C   UNL     1      -7.660   8.347  72.152  1.00  0.00    -0.113 C  
HETATM    2  O   UNL     1      -8.416   7.468  71.324  1.00  0.00    -0.114 OA 
ENDROOT
BRANCH   2   3
HETATM    3  C   UNL     1      -8.866   8.006  70.144  1.00  0.00    -0.143 A  
HETATM    4  C   UNL     1     -10.025   8.787  70.058  1.00  0.00    -0.196 A  
HETATM    5  C   UNL     1     -10.471   9.319  68.839  1.00  0.00    -0.215 A  
HETATM    6  C   UNL     1      -9.711   9.044  67.687  1.00  0.00    -0.156 A  
HETATM    7  C   UNL     1      -8.153   7.721  68.975  1.00  0.00    -0.125 A  
HETATM    8 CL   UNL     1     -10.177   9.688  66.151  1.00  0.00    -0.315 Cl 
HETATM    9  C   UNL     1      -8.564   8.248  67.750  1.00  0.00    -0.131 A  
HETATM   10 CL   UNL     1      -6.729   6.741  69.005  1.00  0.00    -0.057 Cl 
BRANCH   5  11
HETATM   11  N   UNL     1     -11.698  10.025  68.747  1.00  0.00    -0.509 NA 
HETATM   12  H   UNL     1     -12.458   9.530  68.282  1.00  0.00     0.000 HD 
BRANCH  11  13
HETATM   13  C   UNL     1     -12.012  11.328  69.216  1.00  0.00    -0.342 A  
HETATM   14  C   UNL     1     -12.722  10.478  71.456  1.00  0.00    -0.452 C  
HETATM   15  C   UNL     1     -12.438  11.536  70.544  1.00  0.00    -0.367 A  
HETATM   16  C   UNL     1     -12.607  12.837  70.981  1.00  0.00    -0.271 A  
HETATM   17  N   UNL     1     -12.370  13.926  70.224  1.00  0.00    -0.343 NA 
HETATM   18  N   UNL     1     -12.939   9.647  72.238  1.00  0.00    -0.386 NA 
HETATM   19  C   UNL     1     -11.962  13.741  68.963  1.00  0.00    -0.360 A  
HETATM   20  C   UNL     1     -11.693  14.875  68.217  1.00  0.00    -0.342 A  
HETATM   21  C   UNL     1     -11.222  14.806  66.902  1.00  0.00    -0.347 A  
HETATM   22  C   UNL     1     -11.780  12.464  68.386  1.00  0.00    -0.386 A  
HETATM   23  C   UNL     1     -11.064  13.556  66.303  1.00  0.00    -0.300 A  
HETATM   24  C   UNL     1     -11.359  12.401  67.037  1.00  0.00    -0.388 A  
BRANCH  21  25
HETATM   25  O   UNL     1     -11.001  15.934  66.160  1.00  0.00    -0.254 OA 
BRANCH  25  26
HETATM   26  C   UNL     1      -9.638  16.142  65.766  1.00  0.00    -0.257 C  
BRANCH  26  27
HETATM   27  C   UNL     1      -8.820  16.264  67.043  1.00  0.00    -0.228 C  
BRANCH  27  28
HETATM   28  C   UNL     1      -7.568  15.386  67.032  1.00  0.00    -0.160 C  
BRANCH  28  29
HETATM   29  N   UNL     1      -7.205  14.811  68.339  1.00  0.00    -0.108 NA 
HETATM   30  C   UNL     1      -8.170  13.797  68.818  1.00  0.00    -0.002 C  
HETATM   31  C   UNL     1      -8.163  12.479  68.008  1.00  0.00    -0.166 C  
HETATM   32  N   UNL     1      -6.839  11.836  67.903  1.00  0.00    -0.072 NA 
HETATM   33  C   UNL     1      -5.831  12.833  67.484  1.00  0.00    -0.132 C  
HETATM   34  C   UNL     1      -6.461  11.201  69.165  1.00  0.00    -0.074 C  
HETATM   35  C   UNL     1      -5.867  14.173  68.264  1.00  0.00    -0.116 C  
ENDBRANCH  28  29
ENDBRANCH  27  28
ENDBRANCH  26  27
ENDBRANCH  25  26
ENDBRANCH  21  25
BRANCH  23  36
HETATM   36  O   UNL     1     -10.673  13.320  65.011  1.00  0.00    -0.303 OA 
HETATM   37  C   UNL     1     -11.733  13.158  64.075  1.00  0.00    -0.439 C  
ENDBRANCH  23  36
ENDBRANCH  11  13
ENDBRANCH   5  11
ENDBRANCH   2   3
TORSDOF 9
ENDMDL
MODEL       57
REMARK 921   NORMALIZED FREE ENERGY PREDICTED BY IDOCK:   -6.01 KCAL/MOL
REMARK 922        TOTAL FREE ENERGY PREDICTED BY IDOCK:  -10.52 KCAL/MOL
REMARK 923 INTER-LIGAND FREE ENERGY PREDICTED BY IDOCK:   -9.45 KCAL/MOL
REMARK 924 INTRA-LIGAND FREE ENERGY PREDICTED BY IDOCK:   -1.07 KCAL/MOL
REMARK 927      BINDING AFFINITY PREDICTED BY RF-SCORE:    0.00 PKD
ROOT
HETATM    1  C   UNL     1     -10.281   5.650  69.897  1.00  0.00    -0.250 C  
HETATM    2  O   UNL     1      -9.323   5.499  68.853  1.00  0.00    -0.119 OA 
ENDROOT
BRANCH   2   3
HETATM    3  C   UNL     1      -8.940   6.658  68.228  1.00  0.00    -0.122 A  
HETATM    4  C   UNL     1      -9.805   7.409  67.422  1.00  0.00    -0.219 A  
HETATM    5  C   UNL     1      -9.388   8.588  66.786  1.00  0.00    -0.182 A  
HETATM    6  C   UNL     1      -8.058   9.003  66.982  1.00  0.00    -0.106 A  
HETATM    7  C   UNL     1      -7.614   7.079  68.373  1.00  0.00    -0.111 A  
HETATM    8 CL   UNL     1      -7.476  10.462  66.255  1.00  0.00    -0.121 Cl 
HETATM    9  C   UNL     1      -7.174   8.255  67.764  1.00  0.00    -0.088 A  
HETATM   10 CL   UNL     1      -6.485   6.186  69.331  1.00  0.00    -0.041 Cl 
BRANCH   5  11
HETATM   11  N   UNL     1     -10.243   9.286  65.894  1.00  0.00    -0.310 NA 
HETATM   12  H   UNL     1     -10.832   8.703  65.301  1.00  0.00     0.000 HD 
BRANCH  11  13
HETATM   13  C   UNL     1     -10.389  10.687  65.715  1.00  0.00    -0.219 A  
HETATM   14  C   UNL     1      -9.752  10.564  63.302  1.00  0.00    -0.312 C  
HETATM   15  C   UNL     1     -10.216  11.277  64.446  1.00  0.00    -0.377 A  
HETATM   16  C   UNL     1     -10.494  12.624  64.307  1.00  0.00    -0.392 A  
HETATM   17  N   UNL     1     -10.942  13.411  65.305  1.00  0.00    -0.288 NA 
HETATM   18  N   UNL     1      -9.403  10.016  62.340  1.00  0.00    -0.288 NA 
HETATM   19  C   UNL     1     -11.113  12.861  66.513  1.00  0.00    -0.286 A  
HETATM   20  C   UNL     1     -11.606  13.682  67.512  1.00  0.00    -0.384 A  
HETATM   21  C   UNL     1     -11.863  13.211  68.803  1.00  0.00    -0.324 A  
HETATM   22  C   UNL     1     -10.836  11.505  66.794  1.00  0.00    -0.330 A  
HETATM   23  C   UNL     1     -11.569  11.883  69.111  1.00  0.00    -0.312 A  
HETATM   24  C   UNL     1     -11.044  11.048  68.117  1.00  0.00    -0.329 A  
BRANCH  21  25
HETATM   25  O   UNL     1     -12.310  14.042  69.794  1.00  0.00    -0.336 OA 
BRANCH  25  26
HETATM   26  C   UNL     1     -11.929  15.416  69.650  1.00  0.00    -0.343 C  
BRANCH  26  27
HETATM   27  C   UNL     1     -10.518  15.547  70.204  1.00  0.00    -0.317 C  
BRANCH  27  28
HETATM   28  C   UNL     1      -9.552  16.207  69.219  1.00  0.00    -0.235 C  
BRANCH  28  29
HETATM   29  N   UNL     1     -10.179  17.153  68.279  1.00  0.00    -0.313 NA 
HETATM   30  C   UNL     1      -9.984  18.569  68.659  1.00  0.00    -0.383 C  
HETATM   31  C   UNL     1      -8.528  19.073  68.513  1.00  0.00    -0.352 C  
HETATM   32  N   UNL     1      -7.948  18.876  67.170  1.00  0.00    -0.239 NA 
HETATM   33  C   UNL     1      -8.177  17.484  66.725  1.00  0.00    -0.244 C  
HETATM   34  C   UNL     1      -8.502  19.833  66.212  1.00  0.00    -0.361 C  
HETATM   35  C   UNL     1      -9.626  16.962  66.915  1.00  0.00    -0.254 C  
ENDBRANCH  28  29
ENDBRANCH  27  28
ENDBRANCH  26  27
ENDBRANCH  25  26
ENDBRANCH  21  25
BRANCH  23  36
HETATM   36  O   UNL     1     -11.705  11.285  70.336  1.00  0.00    -0.328 OA 
HETATM   37  C   UNL     1     -13.006  10.782  70.626  1.00  0.00    -0.232 C  
ENDBRANCH  23  36
ENDBRANCH  11  13
ENDBRANCH   5  11
ENDBRANCH   2   3
TORSDOF 9
ENDMDL
MODEL       58
REMARK 921   NORMALIZED FREE ENERGY PREDICTED BY IDOCK:   -6.01 KCAL/MOL
REMARK 922        TOTAL FREE ENERGY PREDICTED BY IDOCK:  -10.51 KCAL/MOL
REMARK 923 INTER-LIGAND FREE ENERGY PREDICTED BY IDOCK:   -9.60 KCAL/MOL
REMARK 924 INTRA-LIGAND FREE ENERGY PREDICTED BY IDOCK:   -0.91 KCAL/MOL
REMARK 927      BINDING AFFINITY PREDICTED BY RF-SCORE:    0.00 PKD
ROOT
HETATM    1  C   UNL     1      -7.491  17.234  66.125  1.00  0.00    -0.286 C  
HETATM    2  O   UNL     1      -8.866  17.605  66.067  1.00  0.00    -0.502 OA 
ENDROOT
BRANCH   2   3
HETATM    3  C   UNL     1      -9.700  16.927  66.920  1.00  0.00    -0.259 A  
HETATM    4  C   UNL     1     -10.351  15.740  66.563  1.00  0.00    -0.298 A  
HETATM    5  C   UNL     1     -11.206  15.069  67.451  1.00  0.00    -0.335 A  
HETATM    6  C   UNL     1     -11.394  15.628  68.728  1.00  0.00    -0.349 A  
HETATM    7  C   UNL     1      -9.936  17.476  68.185  1.00  0.00    -0.321 A  
HETATM    8 CL   UNL     1     -12.410  14.846  69.890  1.00  0.00    -0.343 Cl 
HETATM    9  C   UNL     1     -10.770  16.824  69.094  1.00  0.00    -0.329 A  
HETATM   10 CL   UNL     1      -9.186  18.953  68.681  1.00  0.00    -0.393 Cl 
BRANCH   5  11
HETATM   11  N   UNL     1     -11.937  13.923  67.045  1.00  0.00    -0.414 NA 
HETATM   12  H   UNL     1     -12.807  13.753  67.549  1.00  0.00     0.000 HD 
BRANCH  11  13
HETATM   13  C   UNL     1     -11.621  12.980  66.032  1.00  0.00    -0.365 A  
HETATM   14  C   UNL     1     -12.231  14.566  64.200  1.00  0.00    -0.342 C  
HETATM   15  C   UNL     1     -11.703  13.327  64.668  1.00  0.00    -0.403 A  
HETATM   16  C   UNL     1     -11.263  12.411  63.731  1.00  0.00    -0.453 A  
HETATM   17  N   UNL     1     -10.739  11.208  64.037  1.00  0.00    -0.375 NA 
HETATM   18  N   UNL     1     -12.630  15.572  63.779  1.00  0.00    -0.460 NA 
HETATM   19  C   UNL     1     -10.653  10.868  65.329  1.00  0.00    -0.189 A  
HETATM   20  C   UNL     1     -10.081   9.642  65.619  1.00  0.00    -0.231 A  
HETATM   21  C   UNL     1      -9.901   9.197  66.932  1.00  0.00    -0.217 A  
HETATM   22  C   UNL     1     -11.095  11.701  66.381  1.00  0.00    -0.347 A  
HETATM   23  C   UNL     1     -10.357   9.990  67.985  1.00  0.00    -0.198 A  
HETATM   24  C   UNL     1     -10.964  11.220  67.705  1.00  0.00    -0.305 A  
BRANCH  21  25
HETATM   25  O   UNL     1      -9.373   7.965  67.206  1.00  0.00    -0.140 OA 
BRANCH  25  26
HETATM   26  C   UNL     1     -10.065   6.862  66.605  1.00  0.00    -0.141 C  
BRANCH  26  27
HETATM   27  C   UNL     1     -10.676   6.051  67.737  1.00  0.00    -0.369 C  
BRANCH  27  28
HETATM   28  C   UNL     1      -9.659   5.678  68.817  1.00  0.00    -0.131 C  
BRANCH  28  29
HETATM   29  N   UNL     1      -9.662   4.257  69.205  1.00  0.00    -0.179 NA 
HETATM   30  C   UNL     1      -9.525   3.338  68.054  1.00  0.00    -0.160 C  
HETATM   31  C   UNL     1      -8.132   3.362  67.383  1.00  0.00    -0.082 C  
HETATM   32  N   UNL     1      -7.007   3.109  68.305  1.00  0.00    -0.049 NA 
HETATM   33  C   UNL     1      -7.140   3.967  69.502  1.00  0.00    -0.046 C  
HETATM   34  C   UNL     1      -6.937   1.696  68.674  1.00  0.00    -0.036 C  
HETATM   35  C   UNL     1      -8.551   3.981  70.149  1.00  0.00    -0.065 C  
ENDBRANCH  28  29
ENDBRANCH  27  28
ENDBRANCH  26  27
ENDBRANCH  25  26
ENDBRANCH  21  25
BRANCH  23  36
HETATM   36  O   UNL     1     -10.313   9.673  69.318  1.00  0.00    -0.190 OA 
HETATM   37  C   UNL     1     -11.113  10.492  70.164  1.00  0.00    -0.298 C  
ENDBRANCH  23  36
ENDBRANCH  11  13
ENDBRANCH   5  11
ENDBRANCH   2   3
TORSDOF 9
ENDMDL
MODEL       59
REMARK 921   NORMALIZED FREE ENERGY PREDICTED BY IDOCK:   -6.00 KCAL/MOL
REMARK 922        TOTAL FREE ENERGY PREDICTED BY IDOCK:  -10.50 KCAL/MOL
REMARK 923 INTER-LIGAND FREE ENERGY PREDICTED BY IDOCK:   -8.73 KCAL/MOL
REMARK 924 INTRA-LIGAND FREE ENERGY PREDICTED BY IDOCK:   -1.76 KCAL/MOL
REMARK 927      BINDING AFFINITY PREDICTED BY RF-SCORE:    0.00 PKD
ROOT
HETATM    1  C   UNL     1     -10.624  15.576  69.688  1.00  0.00    -0.282 C  
HETATM    2  O   UNL     1     -11.825  15.411  70.438  1.00  0.00    -0.281 OA 
ENDROOT
BRANCH   2   3
HETATM    3  C   UNL     1     -12.200  14.113  70.679  1.00  0.00    -0.362 A  
HETATM    4  C   UNL     1     -12.016  13.083  69.749  1.00  0.00    -0.377 A  
HETATM    5  C   UNL     1     -12.416  11.765  70.015  1.00  0.00    -0.065 A  
HETATM    6  C   UNL     1     -13.016  11.501  71.260  1.00  0.00    -0.297 A  
HETATM    7  C   UNL     1     -12.832  13.824  71.894  1.00  0.00    -0.309 A  
HETATM    8 CL   UNL     1     -13.510   9.895  71.676  1.00  0.00    -0.440 Cl 
HETATM    9  C   UNL     1     -13.228  12.520  72.192  1.00  0.00    -0.508 A  
HETATM   10 CL   UNL     1     -13.116  15.054  73.076  1.00  0.00    -0.558 Cl 
BRANCH   5  11
HETATM   11  N   UNL     1     -12.315  10.750  69.028  1.00  0.00    -0.768 NA 
HETATM   12  H   UNL     1     -13.199  10.353  68.712  1.00  0.00     0.000 HD 
BRANCH  11  13
HETATM   13  C   UNL     1     -11.149  10.214  68.420  1.00  0.00    -0.218 A  
HETATM   14  C   UNL     1     -11.234  11.855  66.538  1.00  0.00    -0.327 C  
HETATM   15  C   UNL     1     -10.603  10.800  67.260  1.00  0.00    -0.304 A  
HETATM   16  C   UNL     1      -9.399  10.314  66.786  1.00  0.00    -0.160 A  
HETATM   17  N   UNL     1      -8.697   9.326  67.375  1.00  0.00    -0.118 NA 
HETATM   18  N   UNL     1     -11.701  12.731  65.935  1.00  0.00    -0.391 NA 
HETATM   19  C   UNL     1      -9.204   8.764  68.479  1.00  0.00    -0.141 A  
HETATM   20  C   UNL     1      -8.449   7.775  69.083  1.00  0.00    -0.138 A  
HETATM   21  C   UNL     1      -8.856   7.144  70.263  1.00  0.00    -0.148 A  
HETATM   22  C   UNL     1     -10.439   9.148  69.046  1.00  0.00    -0.238 A  
HETATM   23  C   UNL     1     -10.086   7.486  70.824  1.00  0.00    -0.192 A  
HETATM   24  C   UNL     1     -10.874   8.466  70.208  1.00  0.00    -0.244 A  
BRANCH  21  25
HETATM   25  O   UNL     1      -8.122   6.137  70.828  1.00  0.00    -0.119 OA 
BRANCH  25  26
HETATM   26  C   UNL     1      -7.035   5.657  70.026  1.00  0.00    -0.065 C  
BRANCH  26  27
HETATM   27  C   UNL     1      -7.383   4.234  69.613  1.00  0.00    -0.050 C  
BRANCH  27  28
HETATM   28  C   UNL     1      -7.687   4.107  68.120  1.00  0.00    -0.071 C  
BRANCH  28  29
HETATM   29  N   UNL     1      -9.080   3.747  67.802  1.00  0.00    -0.142 NA 
HETATM   30  C   UNL     1      -9.869   4.880  67.271  1.00  0.00    -0.184 C  
HETATM   31  C   UNL     1      -9.450   5.339  65.854  1.00  0.00    -0.142 C  
HETATM   32  N   UNL     1      -9.453   4.265  64.841  1.00  0.00    -0.163 NA 
HETATM   33  C   UNL     1      -8.725   3.087  65.359  1.00  0.00    -0.122 C  
HETATM   34  C   UNL     1     -10.818   3.912  64.452  1.00  0.00    -0.127 C  
HETATM   35  C   UNL     1      -9.111   2.655  66.798  1.00  0.00    -0.129 C  
ENDBRANCH  28  29
ENDBRANCH  27  28
ENDBRANCH  26  27
ENDBRANCH  25  26
ENDBRANCH  21  25
BRANCH  23  36
HETATM   36  O   UNL     1     -10.655   6.923  71.937  1.00  0.00    -0.210 OA 
HETATM   37  C   UNL     1     -12.017   6.532  71.792  1.00  0.00    -0.344 C  
ENDBRANCH  23  36
ENDBRANCH  11  13
ENDBRANCH   5  11
ENDBRANCH   2   3
TORSDOF 9
ENDMDL
MODEL       60
REMARK 921   NORMALIZED FREE ENERGY PREDICTED BY IDOCK:   -5.99 KCAL/MOL
REMARK 922        TOTAL FREE ENERGY PREDICTED BY IDOCK:  -10.49 KCAL/MOL
REMARK 923 INTER-LIGAND FREE ENERGY PREDICTED BY IDOCK:   -8.94 KCAL/MOL
REMARK 924 INTRA-LIGAND FREE ENERGY PREDICTED BY IDOCK:   -1.55 KCAL/MOL
REMARK 927      BINDING AFFINITY PREDICTED BY RF-SCORE:    0.00 PKD
ROOT
HETATM    1  C   UNL     1     -11.694  16.143  71.182  1.00  0.00    -0.407 C  
HETATM    2  O   UNL     1     -12.650  15.268  70.586  1.00  0.00    -0.363 OA 
ENDROOT
BRANCH   2   3
HETATM    3  C   UNL     1     -12.136  14.139  70.002  1.00  0.00    -0.346 A  
HETATM    4  C   UNL     1     -11.346  14.172  68.846  1.00  0.00    -0.308 A  
HETATM    5  C   UNL     1     -10.838  13.002  68.262  1.00  0.00    -0.246 A  
HETATM    6  C   UNL     1     -11.148  11.775  68.877  1.00  0.00    -0.243 A  
HETATM    7  C   UNL     1     -12.455  12.899  70.568  1.00  0.00    -0.217 A  
HETATM    8 CL   UNL     1     -10.536  10.290  68.234  1.00  0.00    -0.215 Cl 
HETATM    9  C   UNL     1     -11.953  11.720  70.017  1.00  0.00    -0.421 A  
HETATM   10 CL   UNL     1     -13.447  12.783  71.979  1.00  0.00    -0.587 Cl 
BRANCH   5  11
HETATM   11  N   UNL     1     -10.123  13.040  67.037  1.00  0.00    -0.240 NA 
HETATM   12  H   UNL     1      -9.349  13.703  66.999  1.00  0.00     0.000 HD 
BRANCH  11  13
HETATM   13  C   UNL     1     -10.339  12.281  65.857  1.00  0.00    -0.252 A  
HETATM   14  C   UNL     1     -12.488  13.452  65.355  1.00  0.00    -0.494 C  
HETATM   15  C   UNL     1     -11.446  12.538  65.022  1.00  0.00    -0.368 A  
HETATM   16  C   UNL     1     -11.536  11.855  63.824  1.00  0.00    -0.454 A  
HETATM   17  N   UNL     1     -10.619  10.968  63.388  1.00  0.00    -0.283 NA 
HETATM   18  N   UNL     1     -13.343  14.206  65.575  1.00  0.00    -0.569 NA 
HETATM   19  C   UNL     1      -9.562  10.718  64.170  1.00  0.00    -0.284 A  
HETATM   20  C   UNL     1      -8.618   9.830  63.686  1.00  0.00    -0.207 A  
HETATM   21  C   UNL     1      -7.454   9.521  64.394  1.00  0.00    -0.118 A  
HETATM   22  C   UNL     1      -9.369  11.327  65.430  1.00  0.00    -0.232 A  
HETATM   23  C   UNL     1      -7.257  10.087  65.654  1.00  0.00    -0.120 A  
HETATM   24  C   UNL     1      -8.217  10.966  66.169  1.00  0.00    -0.168 A  
BRANCH  21  25
HETATM   25  O   UNL     1      -6.549   8.609  63.924  1.00  0.00    -0.076 OA 
BRANCH  25  26
HETATM   26  C   UNL     1      -7.091   7.316  63.626  1.00  0.00    -0.066 C  
BRANCH  26  27
HETATM   27  C   UNL     1      -6.681   6.388  64.760  1.00  0.00    -0.039 C  
BRANCH  27  28
HETATM   28  C   UNL     1      -7.869   5.909  65.595  1.00  0.00    -0.101 C  
BRANCH  28  29
HETATM   29  N   UNL     1      -8.259   6.814  66.690  1.00  0.00    -0.113 NA 
HETATM   30  C   UNL     1      -9.670   7.253  66.609  1.00  0.00    -0.183 C  
HETATM   31  C   UNL     1     -10.702   6.136  66.892  1.00  0.00    -0.340 C  
HETATM   32  N   UNL     1     -10.512   5.444  68.182  1.00  0.00    -0.156 NA 
HETATM   33  C   UNL     1      -9.096   5.042  68.330  1.00  0.00    -0.114 C  
HETATM   34  C   UNL     1     -10.940   6.286  69.299  1.00  0.00    -0.369 C  
HETATM   35  C   UNL     1      -8.059   6.148  68.001  1.00  0.00    -0.114 C  
ENDBRANCH  28  29
ENDBRANCH  27  28
ENDBRANCH  26  27
ENDBRANCH  25  26
ENDBRANCH  21  25
BRANCH  23  36
HETATM   36  O   UNL     1      -6.205   9.843  66.498  1.00  0.00    -0.065 OA 
HETATM   37  C   UNL     1      -6.537   9.783  67.881  1.00  0.00    -0.061 C  
ENDBRANCH  23  36
ENDBRANCH  11  13
ENDBRANCH   5  11
ENDBRANCH   2   3
TORSDOF 9
ENDMDL
MODEL       61
REMARK 921   NORMALIZED FREE ENERGY PREDICTED BY IDOCK:   -5.99 KCAL/MOL
REMARK 922        TOTAL FREE ENERGY PREDICTED BY IDOCK:  -10.48 KCAL/MOL
REMARK 923 INTER-LIGAND FREE ENERGY PREDICTED BY IDOCK:  -10.08 KCAL/MOL
REMARK 924 INTRA-LIGAND FREE ENERGY PREDICTED BY IDOCK:   -0.41 KCAL/MOL
REMARK 927      BINDING AFFINITY PREDICTED BY RF-SCORE:    0.00 PKD
ROOT
HETATM    1  C   UNL     1     -13.278  15.439  70.931  1.00  0.00    -0.455 C  
HETATM    2  O   UNL     1     -11.949  15.776  70.540  1.00  0.00    -0.344 OA 
ENDROOT
BRANCH   2   3
HETATM    3  C   UNL     1     -11.629  15.508  69.234  1.00  0.00    -0.357 A  
HETATM    4  C   UNL     1     -12.057  14.353  68.568  1.00  0.00    -0.278 A  
HETATM    5  C   UNL     1     -11.710  14.096  67.232  1.00  0.00    -0.392 A  
HETATM    6  C   UNL     1     -10.908  15.044  66.570  1.00  0.00    -0.320 A  
HETATM    7  C   UNL     1     -10.803  16.413  68.557  1.00  0.00    -0.339 A  
HETATM    8 CL   UNL     1     -10.461  14.815  64.914  1.00  0.00    -0.434 Cl 
HETATM    9  C   UNL     1     -10.453  16.191  67.225  1.00  0.00    -0.309 A  
HETATM   10 CL   UNL     1     -10.217  17.845  69.328  1.00  0.00    -0.217 Cl 
BRANCH   5  11
HETATM   11  N   UNL     1     -12.066  12.877  66.600  1.00  0.00    -0.458 NA 
HETATM   12  H   UNL     1     -12.921  12.902  66.045  1.00  0.00     0.000 HD 
BRANCH  11  13
HETATM   13  C   UNL     1     -11.393  11.627  66.634  1.00  0.00    -0.270 A  
HETATM   14  C   UNL     1     -10.825  11.733  64.203  1.00  0.00    -0.360 C  
HETATM   15  C   UNL     1     -10.742  11.123  65.490  1.00  0.00    -0.251 A  
HETATM   16  C   UNL     1      -9.998   9.966  65.616  1.00  0.00    -0.283 A  
HETATM   17  N   UNL     1      -9.835   9.293  66.772  1.00  0.00    -0.206 NA 
HETATM   18  N   UNL     1     -10.844  12.211  63.145  1.00  0.00    -0.297 NA 
HETATM   19  C   UNL     1     -10.445   9.764  67.866  1.00  0.00    -0.239 A  
HETATM   20  C   UNL     1     -10.235   9.076  69.048  1.00  0.00    -0.216 A  
HETATM   21  C   UNL     1     -10.786   9.495  70.262  1.00  0.00    -0.269 A  
HETATM   22  C   UNL     1     -11.258  10.919  67.864  1.00  0.00    -0.387 A  
HETATM   23  C   UNL     1     -11.616  10.616  70.278  1.00  0.00    -0.336 A  
HETATM   24  C   UNL     1     -11.861  11.306  69.085  1.00  0.00    -0.423 A  
BRANCH  21  25
HETATM   25  O   UNL     1     -10.606   8.782  71.416  1.00  0.00    -0.232 OA 
BRANCH  25  26
HETATM   26  C   UNL     1      -9.254   8.725  71.888  1.00  0.00    -0.250 C  
BRANCH  26  27
HETATM   27  C   UNL     1      -9.290   8.074  73.263  1.00  0.00    -0.344 C  
BRANCH  27  28
HETATM   28  C   UNL     1      -8.611   6.704  73.290  1.00  0.00    -0.119 C  
BRANCH  28  29
HETATM   29  N   UNL     1      -9.215   5.734  74.220  1.00  0.00    -0.123 NA 
HETATM   30  C   UNL     1     -10.645   5.475  73.945  1.00  0.00    -0.270 C  
HETATM   31  C   UNL     1     -10.910   4.694  72.636  1.00  0.00    -0.148 C  
HETATM   32  N   UNL     1     -10.186   3.412  72.534  1.00  0.00    -0.160 NA 
HETATM   33  C   UNL     1      -8.759   3.616  72.863  1.00  0.00    -0.093 C  
HETATM   34  C   UNL     1     -10.787   2.398  73.401  1.00  0.00    -0.183 C  
HETATM   35  C   UNL     1      -8.492   4.440  74.151  1.00  0.00    -0.094 C  
ENDBRANCH  28  29
ENDBRANCH  27  28
ENDBRANCH  26  27
ENDBRANCH  25  26
ENDBRANCH  21  25
BRANCH  23  36
HETATM   36  O   UNL     1     -12.280  11.119  71.367  1.00  0.00    -0.264 OA 
HETATM   37  C   UNL     1     -13.404  10.359  71.798  1.00  0.00    -0.354 C  
ENDBRANCH  23  36
ENDBRANCH  11  13
ENDBRANCH   5  11
ENDBRANCH   2   3
TORSDOF 9
ENDMDL
MODEL       62
REMARK 921   NORMALIZED FREE ENERGY PREDICTED BY IDOCK:   -5.98 KCAL/MOL
REMARK 922        TOTAL FREE ENERGY PREDICTED BY IDOCK:  -10.48 KCAL/MOL
REMARK 923 INTER-LIGAND FREE ENERGY PREDICTED BY IDOCK:   -9.35 KCAL/MOL
REMARK 924 INTRA-LIGAND FREE ENERGY PREDICTED BY IDOCK:   -1.13 KCAL/MOL
REMARK 927      BINDING AFFINITY PREDICTED BY RF-SCORE:    0.00 PKD
ROOT
HETATM    1  C   UNL     1     -12.353  12.758  63.390  1.00  0.00    -0.437 C  
HETATM    2  O   UNL     1     -11.758  11.587  63.945  1.00  0.00    -0.327 OA 
ENDROOT
BRANCH   2   3
HETATM    3  C   UNL     1     -10.780  11.807  64.881  1.00  0.00    -0.295 A  
HETATM    4  C   UNL     1     -10.878  12.796  65.867  1.00  0.00    -0.295 A  
HETATM    5  C   UNL     1      -9.860  13.006  66.810  1.00  0.00    -0.243 A  
HETATM    6  C   UNL     1      -8.720  12.184  66.737  1.00  0.00    -0.183 A  
HETATM    7  C   UNL     1      -9.617  11.030  64.814  1.00  0.00    -0.248 A  
HETATM    8 CL   UNL     1      -7.433  12.362  67.880  1.00  0.00    -0.108 Cl 
HETATM    9  C   UNL     1      -8.594  11.208  65.746  1.00  0.00    -0.113 A  
HETATM   10 CL   UNL     1      -9.418   9.810  63.606  1.00  0.00    -0.175 Cl 
BRANCH   5  11
HETATM   11  N   UNL     1      -9.926  14.075  67.740  1.00  0.00    -0.232 NA 
HETATM   12  H   UNL     1      -9.221  14.802  67.628  1.00  0.00     0.000 HD 
BRANCH  11  13
HETATM   13  C   UNL     1     -10.843  14.269  68.808  1.00  0.00    -0.253 A  
HETATM   14  C   UNL     1     -10.992  16.727  68.388  1.00  0.00    -0.325 C  
HETATM   15  C   UNL     1     -11.399  15.539  69.063  1.00  0.00    -0.331 A  
HETATM   16  C   UNL     1     -12.379  15.642  70.032  1.00  0.00    -0.276 A  
HETATM   17  N   UNL     1     -12.856  14.599  70.739  1.00  0.00    -0.350 NA 
HETATM   18  N   UNL     1     -10.709  17.714  67.845  1.00  0.00    -0.384 NA 
HETATM   19  C   UNL     1     -12.339  13.388  70.503  1.00  0.00    -0.329 A  
HETATM   20  C   UNL     1     -12.869  12.328  71.218  1.00  0.00    -0.337 A  
HETATM   21  C   UNL     1     -12.437  11.012  71.028  1.00  0.00    -0.409 A  
HETATM   22  C   UNL     1     -11.312  13.153  69.562  1.00  0.00    -0.227 A  
HETATM   23  C   UNL     1     -11.404  10.762  70.125  1.00  0.00    -0.309 A  
HETATM   24  C   UNL     1     -10.838  11.828  69.416  1.00  0.00    -0.120 A  
BRANCH  21  25
HETATM   25  O   UNL     1     -12.939   9.979  71.771  1.00  0.00    -0.392 OA 
BRANCH  25  26
HETATM   26  C   UNL     1     -13.997   9.241  71.146  1.00  0.00     0.013 C  
BRANCH  26  27
HETATM   27  C   UNL     1     -13.782   7.775  71.492  1.00  0.00    -0.416 C  
BRANCH  27  28
HETATM   28  C   UNL     1     -12.358   7.299  71.198  1.00  0.00    -0.345 C  
BRANCH  28  29
HETATM   29  N   UNL     1     -11.733   6.518  72.280  1.00  0.00    -0.295 NA 
HETATM   30  C   UNL     1     -10.807   5.476  71.787  1.00  0.00    -0.211 C  
HETATM   31  C   UNL     1      -9.506   6.026  71.157  1.00  0.00    -0.164 C  
HETATM   32  N   UNL     1      -8.743   6.937  72.032  1.00  0.00    -0.125 NA 
HETATM   33  C   UNL     1      -9.648   7.962  72.596  1.00  0.00    -0.227 C  
HETATM   34  C   UNL     1      -8.058   6.198  73.091  1.00  0.00    -0.111 C  
HETATM   35  C   UNL     1     -10.975   7.416  73.187  1.00  0.00    -0.359 C  
ENDBRANCH  28  29
ENDBRANCH  27  28
ENDBRANCH  26  27
ENDBRANCH  25  26
ENDBRANCH  21  25
BRANCH  23  36
HETATM   36  O   UNL     1     -10.827   9.545  69.870  1.00  0.00    -0.227 OA 
HETATM   37  C   UNL     1      -9.446   9.587  69.524  1.00  0.00    -0.185 C  
ENDBRANCH  23  36
ENDBRANCH  11  13
ENDBRANCH   5  11
ENDBRANCH   2   3
TORSDOF 9
ENDMDL
MODEL       63
REMARK 921   NORMALIZED FREE ENERGY PREDICTED BY IDOCK:   -5.97 KCAL/MOL
REMARK 922        TOTAL FREE ENERGY PREDICTED BY IDOCK:  -10.46 KCAL/MOL
REMARK 923 INTER-LIGAND FREE ENERGY PREDICTED BY IDOCK:   -8.96 KCAL/MOL
REMARK 924 INTRA-LIGAND FREE ENERGY PREDICTED BY IDOCK:   -1.49 KCAL/MOL
REMARK 927      BINDING AFFINITY PREDICTED BY RF-SCORE:    0.00 PKD
ROOT
HETATM    1  C   UNL     1      -9.381   3.297  69.459  1.00  0.00    -0.165 C  
HETATM    2  O   UNL     1      -9.770   4.268  68.491  1.00  0.00    -0.149 OA 
ENDROOT
BRANCH   2   3
HETATM    3  C   UNL     1      -9.034   5.426  68.484  1.00  0.00    -0.107 A  
HETATM    4  C   UNL     1      -9.300   6.501  69.339  1.00  0.00    -0.143 A  
HETATM    5  C   UNL     1      -8.538   7.679  69.307  1.00  0.00    -0.136 A  
HETATM    6  C   UNL     1      -7.483   7.752  68.379  1.00  0.00    -0.104 A  
HETATM    7  C   UNL     1      -8.000   5.544  67.548  1.00  0.00    -0.101 A  
HETATM    8 CL   UNL     1      -6.479   9.159  68.299  1.00  0.00    -0.055 Cl 
HETATM    9  C   UNL     1      -7.217   6.698  67.502  1.00  0.00    -0.090 A  
HETATM   10 CL   UNL     1      -7.634   4.265  66.443  1.00  0.00    -0.088 Cl 
BRANCH   5  11
HETATM   11  N   UNL     1      -8.879   8.799  70.109  1.00  0.00    -0.145 NA 
HETATM   12  H   UNL     1      -8.142   9.140  70.726  1.00  0.00     0.000 HD 
BRANCH  11  13
HETATM   13  C   UNL     1     -10.107   9.509  70.169  1.00  0.00    -0.249 A  
HETATM   14  C   UNL     1     -10.775   8.408  72.310  1.00  0.00    -0.347 C  
HETATM   15  C   UNL     1     -10.976   9.361  71.269  1.00  0.00    -0.440 A  
HETATM   16  C   UNL     1     -12.094  10.171  71.333  1.00  0.00    -0.382 A  
HETATM   17  N   UNL     1     -12.400  11.114  70.420  1.00  0.00    -0.339 NA 
HETATM   18  N   UNL     1     -10.635   7.664  73.191  1.00  0.00    -0.372 NA 
HETATM   19  C   UNL     1     -11.580  11.266  69.374  1.00  0.00    -0.321 A  
HETATM   20  C   UNL     1     -11.896  12.263  68.467  1.00  0.00    -0.359 A  
HETATM   21  C   UNL     1     -11.094  12.542  67.358  1.00  0.00    -0.272 A  
HETATM   22  C   UNL     1     -10.422  10.481  69.175  1.00  0.00    -0.250 A  
HETATM   23  C   UNL     1      -9.962  11.760  67.126  1.00  0.00    -0.203 A  
HETATM   24  C   UNL     1      -9.644  10.730  68.019  1.00  0.00    -0.172 A  
BRANCH  21  25
HETATM   25  O   UNL     1     -11.440  13.501  66.446  1.00  0.00    -0.311 OA 
BRANCH  25  26
HETATM   26  C   UNL     1     -11.550  14.829  66.975  1.00  0.00    -0.339 C  
BRANCH  26  27
HETATM   27  C   UNL     1     -10.410  15.642  66.378  1.00  0.00    -0.303 C  
BRANCH  27  28
HETATM   28  C   UNL     1     -10.481  17.124  66.747  1.00  0.00    -0.263 C  
BRANCH  28  29
HETATM   29  N   UNL     1      -9.434  17.963  66.138  1.00  0.00    -0.502 NA 
HETATM   30  C   UNL     1      -9.609  19.406  66.414  1.00  0.00    -0.377 C  
HETATM   31  C   UNL     1      -9.360  19.807  67.887  1.00  0.00    -0.344 C  
HETATM   32  N   UNL     1      -8.044  19.398  68.415  1.00  0.00    -0.333 NA 
HETATM   33  C   UNL     1      -7.803  17.972  68.106  1.00  0.00    -0.272 C  
HETATM   34  C   UNL     1      -6.976  20.242  67.880  1.00  0.00    -0.290 C  
HETATM   35  C   UNL     1      -8.097  17.558  66.640  1.00  0.00    -0.255 C  
ENDBRANCH  28  29
ENDBRANCH  27  28
ENDBRANCH  26  27
ENDBRANCH  25  26
ENDBRANCH  21  25
BRANCH  23  36
HETATM   36  O   UNL     1      -9.109  11.864  66.058  1.00  0.00    -0.199 OA 
HETATM   37  C   UNL     1      -8.868  10.651  65.352  1.00  0.00    -0.189 C  
ENDBRANCH  23  36
ENDBRANCH  11  13
ENDBRANCH   5  11
ENDBRANCH   2   3
TORSDOF 9
ENDMDL
MODEL       64
REMARK 921   NORMALIZED FREE ENERGY PREDICTED BY IDOCK:   -5.97 KCAL/MOL
REMARK 922        TOTAL FREE ENERGY PREDICTED BY IDOCK:  -10.46 KCAL/MOL
REMARK 923 INTER-LIGAND FREE ENERGY PREDICTED BY IDOCK:   -9.31 KCAL/MOL
REMARK 924 INTRA-LIGAND FREE ENERGY PREDICTED BY IDOCK:   -1.15 KCAL/MOL
REMARK 927      BINDING AFFINITY PREDICTED BY RF-SCORE:    0.00 PKD
ROOT
HETATM    1  C   UNL     1     -13.598   7.679  71.693  1.00  0.00    -0.364 C  
HETATM    2  O   UNL     1     -12.837   6.491  71.892  1.00  0.00    -0.301 OA 
ENDROOT
BRANCH   2   3
HETATM    3  C   UNL     1     -11.632   6.442  71.238  1.00  0.00    -0.311 A  
HETATM    4  C   UNL     1     -11.524   6.372  69.844  1.00  0.00    -0.483 A  
HETATM    5  C   UNL     1     -10.279   6.315  69.199  1.00  0.00    -0.187 A  
HETATM    6  C   UNL     1      -9.124   6.331  70.002  1.00  0.00    -0.148 A  
HETATM    7  C   UNL     1     -10.464   6.421  72.010  1.00  0.00    -0.208 A  
HETATM    8 CL   UNL     1      -7.552   6.293  69.281  1.00  0.00    -0.097 Cl 
HETATM    9  C   UNL     1      -9.212   6.378  71.396  1.00  0.00    -0.150 A  
HETATM   10 CL   UNL     1     -10.524   6.478  73.737  1.00  0.00    -0.328 Cl 
BRANCH   5  11
HETATM   11  N   UNL     1     -10.185   6.144  67.794  1.00  0.00    -0.153 NA 
HETATM   12  H   UNL     1     -10.665   5.327  67.416  1.00  0.00     0.000 HD 
BRANCH  11  13
HETATM   13  C   UNL     1      -9.512   6.955  66.842  1.00  0.00    -0.158 A  
HETATM   14  C   UNL     1      -8.195   5.027  65.954  1.00  0.00    -0.114 C  
HETATM   15  C   UNL     1      -8.609   6.391  65.919  1.00  0.00    -0.151 A  
HETATM   16  C   UNL     1      -8.081   7.207  64.936  1.00  0.00    -0.107 A  
HETATM   17  N   UNL     1      -8.391   8.510  64.789  1.00  0.00    -0.165 NA 
HETATM   18  N   UNL     1      -7.852   3.918  65.931  1.00  0.00    -0.089 NA 
HETATM   19  C   UNL     1      -9.250   9.056  65.657  1.00  0.00    -0.225 A  
HETATM   20  C   UNL     1      -9.578  10.387  65.464  1.00  0.00    -0.290 A  
HETATM   21  C   UNL     1     -10.494  11.054  66.282  1.00  0.00    -0.254 A  
HETATM   22  C   UNL     1      -9.836   8.339  66.724  1.00  0.00    -0.333 A  
HETATM   23  C   UNL     1     -11.062  10.373  67.359  1.00  0.00    -0.226 A  
HETATM   24  C   UNL     1     -10.718   9.035  67.584  1.00  0.00    -0.232 A  
BRANCH  21  25
HETATM   25  O   UNL     1     -10.778  12.381  66.108  1.00  0.00    -0.250 OA 
BRANCH  25  26
HETATM   26  C   UNL     1     -10.569  12.876  64.779  1.00  0.00    -0.342 C  
BRANCH  26  27
HETATM   27  C   UNL     1     -10.643  14.394  64.852  1.00  0.00    -0.456 C  
BRANCH  27  28
HETATM   28  C   UNL     1     -10.173  14.946  66.199  1.00  0.00    -0.300 C  
BRANCH  28  29
HETATM   29  N   UNL     1     -11.227  15.588  67.005  1.00  0.00    -0.239 NA 
HETATM   30  C   UNL     1     -11.883  14.659  67.952  1.00  0.00    -0.320 C  
HETATM   31  C   UNL     1     -10.982  14.202  69.123  1.00  0.00    -0.251 C  
HETATM   32  N   UNL     1     -10.389  15.307  69.902  1.00  0.00    -0.265 NA 
HETATM   33  C   UNL     1      -9.774  16.291  68.987  1.00  0.00    -0.252 C  
HETATM   34  C   UNL     1     -11.389  15.939  70.762  1.00  0.00    -0.395 C  
HETATM   35  C   UNL     1     -10.660  16.715  67.785  1.00  0.00    -0.342 C  
ENDBRANCH  28  29
ENDBRANCH  27  28
ENDBRANCH  26  27
ENDBRANCH  25  26
ENDBRANCH  21  25
BRANCH  23  36
HETATM   36  O   UNL     1     -11.925  10.897  68.286  1.00  0.00    -0.561 OA 
HETATM   37  C   UNL     1     -11.712  10.468  69.627  1.00  0.00    -0.256 C  
ENDBRANCH  23  36
ENDBRANCH  11  13
ENDBRANCH   5  11
ENDBRANCH   2   3
TORSDOF 9
ENDMDL
MODEL       65
REMARK 921   NORMALIZED FREE ENERGY PREDICTED BY IDOCK:   -5.97 KCAL/MOL
REMARK 922        TOTAL FREE ENERGY PREDICTED BY IDOCK:  -10.45 KCAL/MOL
REMARK 923 INTER-LIGAND FREE ENERGY PREDICTED BY IDOCK:   -8.77 KCAL/MOL
REMARK 924 INTRA-LIGAND FREE ENERGY PREDICTED BY IDOCK:   -1.68 KCAL/MOL
REMARK 927      BINDING AFFINITY PREDICTED BY RF-SCORE:    0.00 PKD
ROOT
HETATM    1  C   UNL     1     -11.886  15.534  71.244  1.00  0.00    -0.399 C  
HETATM    2  O   UNL     1     -10.838  15.239  70.324  1.00  0.00    -0.280 OA 
ENDROOT
BRANCH   2   3
HETATM    3  C   UNL     1     -11.226  14.632  69.157  1.00  0.00    -0.270 A  
HETATM    4  C   UNL     1     -11.424  13.250  69.048  1.00  0.00    -0.350 A  
HETATM    5  C   UNL     1     -11.814  12.651  67.840  1.00  0.00    -0.332 A  
HETATM    6  C   UNL     1     -12.004  13.487  66.725  1.00  0.00    -0.404 A  
HETATM    7  C   UNL     1     -11.389  15.431  68.020  1.00  0.00    -0.341 A  
HETATM    8 CL   UNL     1     -12.513  12.829  65.208  1.00  0.00    -0.548 Cl 
HETATM    9  C   UNL     1     -11.789  14.865  66.809  1.00  0.00    -0.187 A  
HETATM   10 CL   UNL     1     -11.135  17.141  68.077  1.00  0.00    -0.229 Cl 
BRANCH   5  11
HETATM   11  N   UNL     1     -11.915  11.241  67.716  1.00  0.00    -0.635 NA 
HETATM   12  H   UNL     1     -12.795  10.894  67.336  1.00  0.00     0.000 HD 
BRANCH  11  13
HETATM   13  C   UNL     1     -10.957  10.248  68.050  1.00  0.00    -0.289 A  
HETATM   14  C   UNL     1      -9.854  10.394  65.813  1.00  0.00    -0.239 C  
HETATM   15  C   UNL     1      -9.930   9.901  67.148  1.00  0.00    -0.252 A  
HETATM   16  C   UNL     1      -8.953   9.021  67.575  1.00  0.00    -0.122 A  
HETATM   17  N   UNL     1      -8.905   8.486  68.811  1.00  0.00    -0.139 NA 
HETATM   18  N   UNL     1      -9.740  10.791  64.728  1.00  0.00    -0.256 NA 
HETATM   19  C   UNL     1      -9.872   8.811  69.677  1.00  0.00    -0.183 A  
HETATM   20  C   UNL     1      -9.782   8.275  70.950  1.00  0.00    -0.204 A  
HETATM   21  C   UNL     1     -10.711   8.574  71.951  1.00  0.00    -0.324 A  
HETATM   22  C   UNL     1     -10.943   9.674  69.355  1.00  0.00    -0.215 A  
HETATM   23  C   UNL     1     -11.793   9.400  71.646  1.00  0.00    -0.394 A  
HETATM   24  C   UNL     1     -11.912   9.927  70.355  1.00  0.00    -0.271 A  
BRANCH  21  25
HETATM   25  O   UNL     1     -10.635   8.005  73.192  1.00  0.00    -0.334 OA 
BRANCH  25  26
HETATM   26  C   UNL     1      -9.305   7.788  73.680  1.00  0.00    -0.275 C  
BRANCH  26  27
HETATM   27  C   UNL     1      -9.242   6.351  74.178  1.00  0.00    -0.181 C  
BRANCH  27  28
HETATM   28  C   UNL     1      -7.834   5.760  74.109  1.00  0.00    -0.102 C  
BRANCH  28  29
HETATM   29  N   UNL     1      -7.738   4.474  73.396  1.00  0.00    -0.089 NA 
HETATM   30  C   UNL     1      -8.216   4.546  71.998  1.00  0.00    -0.101 C  
HETATM   31  C   UNL     1      -7.306   5.370  71.056  1.00  0.00    -0.083 C  
HETATM   32  N   UNL     1      -5.896   4.932  71.034  1.00  0.00    -0.016 NA 
HETATM   33  C   UNL     1      -5.397   4.788  72.419  1.00  0.00    -0.004 C  
HETATM   34  C   UNL     1      -5.744   3.685  70.286  1.00  0.00    -0.017 C  
HETATM   35  C   UNL     1      -6.331   4.003  73.377  1.00  0.00    -0.032 C  
ENDBRANCH  28  29
ENDBRANCH  27  28
ENDBRANCH  26  27
ENDBRANCH  25  26
ENDBRANCH  21  25
BRANCH  23  36
HETATM   36  O   UNL     1     -12.817   9.740  72.491  1.00  0.00    -0.263 OA 
HETATM   37  C   UNL     1     -14.053   9.077  72.245  1.00  0.00    -0.413 C  
ENDBRANCH  23  36
ENDBRANCH  11  13
ENDBRANCH   5  11
ENDBRANCH   2   3
TORSDOF 9
ENDMDL
MODEL       66
REMARK 921   NORMALIZED FREE ENERGY PREDICTED BY IDOCK:   -5.97 KCAL/MOL
REMARK 922        TOTAL FREE ENERGY PREDICTED BY IDOCK:  -10.45 KCAL/MOL
REMARK 923 INTER-LIGAND FREE ENERGY PREDICTED BY IDOCK:   -8.88 KCAL/MOL
REMARK 924 INTRA-LIGAND FREE ENERGY PREDICTED BY IDOCK:   -1.57 KCAL/MOL
REMARK 927      BINDING AFFINITY PREDICTED BY RF-SCORE:    0.00 PKD
ROOT
HETATM    1  C   UNL     1      -5.517   8.311  63.875  1.00  0.00    -0.056 C  
HETATM    2  O   UNL     1      -5.460   7.629  65.125  1.00  0.00    -0.032 OA 
ENDROOT
BRANCH   2   3
HETATM    3  C   UNL     1      -6.626   7.028  65.527  1.00  0.00    -0.051 A  
HETATM    4  C   UNL     1      -7.820   7.735  65.714  1.00  0.00    -0.104 A  
HETATM    5  C   UNL     1      -8.999   7.098  66.133  1.00  0.00    -0.140 A  
HETATM    6  C   UNL     1      -8.948   5.711  66.364  1.00  0.00    -0.134 A  
HETATM    7  C   UNL     1      -6.601   5.656  65.799  1.00  0.00    -0.041 A  
HETATM    8 CL   UNL     1     -10.366   4.849  66.855  1.00  0.00    -0.255 Cl 
HETATM    9  C   UNL     1      -7.760   4.994  66.204  1.00  0.00    -0.091 A  
HETATM   10 CL   UNL     1      -5.154   4.728  65.615  1.00  0.00    -0.008 Cl 
BRANCH   5  11
HETATM   11  N   UNL     1     -10.176   7.839  66.415  1.00  0.00    -0.487 NA 
HETATM   12  H   UNL     1     -11.031   7.488  65.986  1.00  0.00     0.000 HD 
BRANCH  11  13
HETATM   13  C   UNL     1     -10.324   9.004  67.213  1.00  0.00    -0.273 A  
HETATM   14  C   UNL     1     -10.428   7.681  69.331  1.00  0.00    -0.220 C  
HETATM   15  C   UNL     1     -10.375   8.916  68.619  1.00  0.00    -0.228 A  
HETATM   16  C   UNL     1     -10.393  10.090  69.349  1.00  0.00    -0.227 A  
HETATM   17  N   UNL     1     -10.342  11.321  68.803  1.00  0.00    -0.201 NA 
HETATM   18  N   UNL     1     -10.447   6.699  69.949  1.00  0.00    -0.199 NA 
HETATM   19  C   UNL     1     -10.290  11.416  67.469  1.00  0.00    -0.195 A  
HETATM   20  C   UNL     1     -10.205  12.690  66.934  1.00  0.00    -0.242 A  
HETATM   21  C   UNL     1     -10.105  12.914  65.557  1.00  0.00    -0.257 A  
HETATM   22  C   UNL     1     -10.298  10.295  66.610  1.00  0.00    -0.283 A  
HETATM   23  C   UNL     1     -10.140  11.823  64.689  1.00  0.00    -0.272 A  
HETATM   24  C   UNL     1     -10.254  10.530  65.215  1.00  0.00    -0.352 A  
BRANCH  21  25
HETATM   25  O   UNL     1     -10.064  14.178  65.038  1.00  0.00    -0.383 OA 
BRANCH  25  26
HETATM   26  C   UNL     1     -11.340  14.818  64.901  1.00  0.00    -0.410 C  
BRANCH  26  27
HETATM   27  C   UNL     1     -11.079  16.314  64.800  1.00  0.00    -0.293 C  
BRANCH  27  28
HETATM   28  C   UNL     1     -10.467  16.897  66.074  1.00  0.00    -0.290 C  
BRANCH  28  29
HETATM   29  N   UNL     1      -9.386  17.872  65.849  1.00  0.00    -0.514 NA 
HETATM   30  C   UNL     1      -9.674  19.205  66.423  1.00  0.00    -0.364 C  
HETATM   31  C   UNL     1      -9.667  19.247  67.969  1.00  0.00    -0.350 C  
HETATM   32  N   UNL     1      -8.425  18.744  68.586  1.00  0.00    -0.342 NA 
HETATM   33  C   UNL     1      -8.067  17.437  67.994  1.00  0.00    -0.227 C  
HETATM   34  C   UNL     1      -7.334  19.707  68.436  1.00  0.00    -0.319 C  
HETATM   35  C   UNL     1      -8.119  17.380  66.444  1.00  0.00    -0.280 C  
ENDBRANCH  28  29
ENDBRANCH  27  28
ENDBRANCH  26  27
ENDBRANCH  25  26
ENDBRANCH  21  25
BRANCH  23  36
HETATM   36  O   UNL     1     -10.113  11.874  63.320  1.00  0.00    -0.428 OA 
HETATM   37  C   UNL     1      -9.229  10.950  62.694  1.00  0.00    -0.330 C  
ENDBRANCH  23  36
ENDBRANCH  11  13
ENDBRANCH   5  11
ENDBRANCH   2   3
TORSDOF 9
ENDMDL
MODEL       67
REMARK 921   NORMALIZED FREE ENERGY PREDICTED BY IDOCK:   -5.96 KCAL/MOL
REMARK 922        TOTAL FREE ENERGY PREDICTED BY IDOCK:  -10.44 KCAL/MOL
REMARK 923 INTER-LIGAND FREE ENERGY PREDICTED BY IDOCK:   -9.15 KCAL/MOL
REMARK 924 INTRA-LIGAND FREE ENERGY PREDICTED BY IDOCK:   -1.29 KCAL/MOL
REMARK 927      BINDING AFFINITY PREDICTED BY RF-SCORE:    0.00 PKD
ROOT
HETATM    1  C   UNL     1     -12.124  15.714  64.039  1.00  0.00     0.125 C  
HETATM    2  O   UNL     1     -11.401  16.895  64.374  1.00  0.00    -1.133 OA 
ENDROOT
BRANCH   2   3
HETATM    3  C   UNL     1     -10.621  16.814  65.500  1.00  0.00    -0.230 A  
HETATM    4  C   UNL     1     -10.234  15.596  66.071  1.00  0.00    -0.354 A  
HETATM    5  C   UNL     1      -9.442  15.539  67.228  1.00  0.00    -0.213 A  
HETATM    6  C   UNL     1      -9.041  16.756  67.808  1.00  0.00    -0.221 A  
HETATM    7  C   UNL     1     -10.235  18.007  66.122  1.00  0.00    -0.363 A  
HETATM    8 CL   UNL     1      -8.039  16.770  69.219  1.00  0.00    -0.101 Cl 
HETATM    9  C   UNL     1      -9.437  17.981  67.266  1.00  0.00    -0.260 A  
HETATM   10 CL   UNL     1     -10.701  19.546  65.487  1.00  0.00    -0.459 Cl 
BRANCH   5  11
HETATM   11  N   UNL     1      -9.138  14.301  67.852  1.00  0.00    -0.183 NA 
HETATM   12  H   UNL     1      -8.152  14.137  68.050  1.00  0.00     0.000 HD 
BRANCH  11  13
HETATM   13  C   UNL     1     -10.023  13.261  68.240  1.00  0.00    -0.236 A  
HETATM   14  C   UNL     1     -11.394  14.795  69.657  1.00  0.00    -0.283 C  
HETATM   15  C   UNL     1     -11.143  13.528  69.054  1.00  0.00    -0.293 A  
HETATM   16  C   UNL     1     -12.037  12.502  69.295  1.00  0.00    -0.161 A  
HETATM   17  N   UNL     1     -11.920  11.260  68.783  1.00  0.00    -0.506 NA 
HETATM   18  N   UNL     1     -11.650  15.816  70.146  1.00  0.00    -0.332 NA 
HETATM   19  C   UNL     1     -10.863  10.996  68.006  1.00  0.00    -0.229 A  
HETATM   20  C   UNL     1     -10.783   9.725  67.466  1.00  0.00    -0.327 A  
HETATM   21  C   UNL     1      -9.747   9.344  66.608  1.00  0.00    -0.219 A  
HETATM   22  C   UNL     1      -9.862  11.947  67.709  1.00  0.00    -0.187 A  
HETATM   23  C   UNL     1      -8.732  10.258  66.325  1.00  0.00    -0.146 A  
HETATM   24  C   UNL     1      -8.785  11.539  66.887  1.00  0.00    -0.181 A  
BRANCH  21  25
HETATM   25  O   UNL     1      -9.655   8.072  66.114  1.00  0.00    -0.179 OA 
BRANCH  25  26
HETATM   26  C   UNL     1     -10.209   7.053  66.958  1.00  0.00    -0.260 C  
BRANCH  26  27
HETATM   27  C   UNL     1      -9.122   6.652  67.944  1.00  0.00    -0.114 C  
BRANCH  27  28
HETATM   28  C   UNL     1      -9.547   6.832  69.402  1.00  0.00    -0.146 C  
BRANCH  28  29
HETATM   29  N   UNL     1     -10.597   5.906  69.857  1.00  0.00    -0.270 NA 
HETATM   30  C   UNL     1     -10.060   4.664  70.455  1.00  0.00    -0.192 C  
HETATM   31  C   UNL     1      -9.361   4.864  71.820  1.00  0.00    -0.143 C  
HETATM   32  N   UNL     1     -10.192   5.538  72.837  1.00  0.00    -0.179 NA 
HETATM   33  C   UNL     1     -10.799   6.756  72.259  1.00  0.00    -0.231 C  
HETATM   34  C   UNL     1     -11.217   4.636  73.361  1.00  0.00    -0.338 C  
HETATM   35  C   UNL     1     -11.460   6.567  70.868  1.00  0.00    -0.351 C  
ENDBRANCH  28  29
ENDBRANCH  27  28
ENDBRANCH  26  27
ENDBRANCH  25  26
ENDBRANCH  21  25
BRANCH  23  36
HETATM   36  O   UNL     1      -7.621  10.024  65.557  1.00  0.00    -0.123 OA 
HETATM   37  C   UNL     1      -6.427  10.658  66.005  1.00  0.00    -0.129 C  
ENDBRANCH  23  36
ENDBRANCH  11  13
ENDBRANCH   5  11
ENDBRANCH   2   3
TORSDOF 9
ENDMDL
MODEL       68
REMARK 921   NORMALIZED FREE ENERGY PREDICTED BY IDOCK:   -5.95 KCAL/MOL
REMARK 922        TOTAL FREE ENERGY PREDICTED BY IDOCK:  -10.43 KCAL/MOL
REMARK 923 INTER-LIGAND FREE ENERGY PREDICTED BY IDOCK:   -8.82 KCAL/MOL
REMARK 924 INTRA-LIGAND FREE ENERGY PREDICTED BY IDOCK:   -1.61 KCAL/MOL
REMARK 927      BINDING AFFINITY PREDICTED BY RF-SCORE:    0.00 PKD
ROOT
HETATM    1  C   UNL     1     -10.810  16.038  69.896  1.00  0.00    -0.351 C  
HETATM    2  O   UNL     1     -12.140  15.736  70.310  1.00  0.00    -0.368 OA 
ENDROOT
BRANCH   2   3
HETATM    3  C   UNL     1     -12.381  14.420  70.616  1.00  0.00    -0.351 A  
HETATM    4  C   UNL     1     -12.239  13.385  69.685  1.00  0.00    -0.279 A  
HETATM    5  C   UNL     1     -12.499  12.047  70.019  1.00  0.00     0.003 A  
HETATM    6  C   UNL     1     -12.912  11.769  71.336  1.00  0.00    -0.306 A  
HETATM    7  C   UNL     1     -12.827  14.114  71.907  1.00  0.00    -0.341 A  
HETATM    8 CL   UNL     1     -13.224  10.142  71.834  1.00  0.00    -0.552 Cl 
HETATM    9  C   UNL     1     -13.080  12.792  72.272  1.00  0.00    -0.400 A  
HETATM   10 CL   UNL     1     -13.050  15.347  73.099  1.00  0.00    -0.588 Cl 
BRANCH   5  11
HETATM   11  N   UNL     1     -12.448  11.020  69.042  1.00  0.00    -0.639 NA 
HETATM   12  H   UNL     1     -13.335  10.561  68.838  1.00  0.00     0.000 HD 
BRANCH  11  13
HETATM   13  C   UNL     1     -11.329  10.544  68.309  1.00  0.00    -0.264 A  
HETATM   14  C   UNL     1     -11.622  12.264  66.520  1.00  0.00    -0.377 C  
HETATM   15  C   UNL     1     -10.903  11.196  67.134  1.00  0.00    -0.326 A  
HETATM   16  C   UNL     1      -9.735  10.767  66.533  1.00  0.00    -0.196 A  
HETATM   17  N   UNL     1      -8.960   9.773  67.010  1.00  0.00    -0.137 NA 
HETATM   18  N   UNL     1     -12.162  13.152  66.003  1.00  0.00    -0.429 NA 
HETATM   19  C   UNL     1      -9.352   9.149  68.127  1.00  0.00    -0.138 A  
HETATM   20  C   UNL     1      -8.522   8.155  68.616  1.00  0.00    -0.127 A  
HETATM   21  C   UNL     1      -8.806   7.462  69.796  1.00  0.00    -0.141 A  
HETATM   22  C   UNL     1     -10.540   9.472  68.819  1.00  0.00    -0.240 A  
HETATM   23  C   UNL     1      -9.989   7.744  70.479  1.00  0.00    -0.187 A  
HETATM   24  C   UNL     1     -10.852   8.727  69.982  1.00  0.00    -0.231 A  
BRANCH  21  25
HETATM   25  O   UNL     1      -8.000   6.452  70.246  1.00  0.00    -0.108 OA 
BRANCH  25  26
HETATM   26  C   UNL     1      -6.712   6.870  70.717  1.00  0.00    -0.054 C  
BRANCH  26  27
HETATM   27  C   UNL     1      -6.335   5.941  71.862  1.00  0.00    -0.045 C  
BRANCH  27  28
HETATM   28  C   UNL     1      -7.438   5.818  72.914  1.00  0.00    -0.092 C  
BRANCH  28  29
HETATM   29  N   UNL     1      -7.665   4.451  73.414  1.00  0.00    -0.085 NA 
HETATM   30  C   UNL     1      -8.612   4.394  74.549  1.00  0.00    -0.095 C  
HETATM   31  C   UNL     1     -10.077   4.719  74.172  1.00  0.00    -0.204 C  
HETATM   32  N   UNL     1     -10.623   3.889  73.080  1.00  0.00    -0.174 NA 
HETATM   33  C   UNL     1      -9.675   3.869  71.946  1.00  0.00    -0.169 C  
HETATM   34  C   UNL     1     -10.917   2.534  73.546  1.00  0.00    -0.203 C  
HETATM   35  C   UNL     1      -8.197   3.591  72.328  1.00  0.00    -0.079 C  
ENDBRANCH  28  29
ENDBRANCH  27  28
ENDBRANCH  26  27
ENDBRANCH  25  26
ENDBRANCH  21  25
BRANCH  23  36
HETATM   36  O   UNL     1     -10.442   7.116  71.610  1.00  0.00    -0.200 OA 
HETATM   37  C   UNL     1     -10.510   7.934  72.774  1.00  0.00    -0.346 C  
ENDBRANCH  23  36
ENDBRANCH  11  13
ENDBRANCH   5  11
ENDBRANCH   2   3
TORSDOF 9
ENDMDL
MODEL       69
REMARK 921   NORMALIZED FREE ENERGY PREDICTED BY IDOCK:   -5.95 KCAL/MOL
REMARK 922        TOTAL FREE ENERGY PREDICTED BY IDOCK:  -10.42 KCAL/MOL
REMARK 923 INTER-LIGAND FREE ENERGY PREDICTED BY IDOCK:   -9.62 KCAL/MOL
REMARK 924 INTRA-LIGAND FREE ENERGY PREDICTED BY IDOCK:   -0.81 KCAL/MOL
REMARK 927      BINDING AFFINITY PREDICTED BY RF-SCORE:    0.00 PKD
ROOT
HETATM    1  C   UNL     1      -6.846   5.215  73.627  1.00  0.00    -0.079 C  
HETATM    2  O   UNL     1      -7.186   4.345  72.551  1.00  0.00    -0.066 OA 
ENDROOT
BRANCH   2   3
HETATM    3  C   UNL     1      -8.072   4.853  71.635  1.00  0.00    -0.112 A  
HETATM    4  C   UNL     1      -8.148   6.217  71.325  1.00  0.00    -0.118 A  
HETATM    5  C   UNL     1      -9.069   6.713  70.390  1.00  0.00    -0.152 A  
HETATM    6  C   UNL     1      -9.927   5.792  69.762  1.00  0.00    -0.190 A  
HETATM    7  C   UNL     1      -8.964   3.968  71.018  1.00  0.00    -0.107 A  
HETATM    8 CL   UNL     1     -11.070   6.322  68.576  1.00  0.00    -0.422 Cl 
HETATM    9  C   UNL     1      -9.881   4.431  70.074  1.00  0.00    -0.294 A  
HETATM   10 CL   UNL     1      -8.943   2.276  71.374  1.00  0.00    -0.125 Cl 
BRANCH   5  11
HETATM   11  N   UNL     1      -9.205   8.106  70.158  1.00  0.00    -0.154 NA 
HETATM   12  H   UNL     1      -8.358   8.587  69.855  1.00  0.00     0.000 HD 
BRANCH  11  13
HETATM   13  C   UNL     1     -10.359   8.922  70.291  1.00  0.00    -0.206 A  
HETATM   14  C   UNL     1     -10.816   8.103  72.607  1.00  0.00    -0.359 C  
HETATM   15  C   UNL     1     -11.084   8.960  71.499  1.00  0.00    -0.397 A  
HETATM   16  C   UNL     1     -12.122   9.865  71.612  1.00  0.00    -0.373 A  
HETATM   17  N   UNL     1     -12.477  10.734  70.645  1.00  0.00    -0.344 NA 
HETATM   18  N   UNL     1     -10.615   7.442  73.540  1.00  0.00    -0.375 NA 
HETATM   19  C   UNL     1     -11.794  10.709  69.494  1.00  0.00    -0.273 A  
HETATM   20  C   UNL     1     -12.156  11.633  68.530  1.00  0.00    -0.148 A  
HETATM   21  C   UNL     1     -11.489  11.730  67.305  1.00  0.00    -0.303 A  
HETATM   22  C   UNL     1     -10.733   9.813  69.242  1.00  0.00    -0.246 A  
HETATM   23  C   UNL     1     -10.457  10.835  67.022  1.00  0.00    -0.247 A  
HETATM   24  C   UNL     1     -10.099   9.876  67.978  1.00  0.00    -0.202 A  
BRANCH  21  25
HETATM   25  O   UNL     1     -11.883  12.619  66.342  1.00  0.00    -0.393 OA 
BRANCH  25  26
HETATM   26  C   UNL     1     -12.006  13.977  66.785  1.00  0.00    -0.444 C  
BRANCH  26  27
HETATM   27  C   UNL     1     -11.118  14.821  65.882  1.00  0.00    -0.340 C  
BRANCH  27  28
HETATM   28  C   UNL     1     -10.137  15.696  66.664  1.00  0.00    -0.273 C  
BRANCH  28  29
HETATM   29  N   UNL     1      -9.581  16.829  65.905  1.00  0.00    -0.509 NA 
HETATM   30  C   UNL     1     -10.427  18.041  65.962  1.00  0.00    -0.313 C  
HETATM   31  C   UNL     1     -10.468  18.726  67.348  1.00  0.00    -0.431 C  
HETATM   32  N   UNL     1      -9.142  19.070  67.896  1.00  0.00    -0.292 NA 
HETATM   33  C   UNL     1      -8.243  17.899  67.802  1.00  0.00    -0.233 C  
HETATM   34  C   UNL     1      -8.572  20.228  67.209  1.00  0.00    -0.347 C  
HETATM   35  C   UNL     1      -8.237  17.183  66.426  1.00  0.00    -0.292 C  
ENDBRANCH  28  29
ENDBRANCH  27  28
ENDBRANCH  26  27
ENDBRANCH  25  26
ENDBRANCH  21  25
BRANCH  23  36
HETATM   36  O   UNL     1      -9.748  10.757  65.852  1.00  0.00    -0.204 OA 
HETATM   37  C   UNL     1      -9.445   9.438  65.411  1.00  0.00    -0.253 C  
ENDBRANCH  23  36
ENDBRANCH  11  13
ENDBRANCH   5  11
ENDBRANCH   2   3
TORSDOF 9
ENDMDL
MODEL       70
REMARK 921   NORMALIZED FREE ENERGY PREDICTED BY IDOCK:   -5.85 KCAL/MOL
REMARK 922        TOTAL FREE ENERGY PREDICTED BY IDOCK:  -10.28 KCAL/MOL
REMARK 923 INTER-LIGAND FREE ENERGY PREDICTED BY IDOCK:   -9.76 KCAL/MOL
REMARK 924 INTRA-LIGAND FREE ENERGY PREDICTED BY IDOCK:   -0.52 KCAL/MOL
REMARK 927      BINDING AFFINITY PREDICTED BY RF-SCORE:    0.00 PKD
ROOT
HETATM    1  C   UNL     1      -9.614   4.266  66.936  1.00  0.00    -0.203 C  
HETATM    2  O   UNL     1      -9.702   4.580  68.324  1.00  0.00    -0.153 OA 
ENDROOT
BRANCH   2   3
HETATM    3  C   UNL     1      -9.526   5.902  68.645  1.00  0.00    -0.122 A  
HETATM    4  C   UNL     1     -10.554   6.849  68.558  1.00  0.00    -0.247 A  
HETATM    5  C   UNL     1     -10.347   8.198  68.885  1.00  0.00    -0.211 A  
HETATM    6  C   UNL     1      -9.061   8.580  69.309  1.00  0.00    -0.153 A  
HETATM    7  C   UNL     1      -8.249   6.322  69.036  1.00  0.00    -0.114 A  
HETATM    8 CL   UNL     1      -8.733  10.219  69.758  1.00  0.00    -0.137 Cl 
HETATM    9  C   UNL     1      -8.017   7.654  69.380  1.00  0.00    -0.125 A  
HETATM   10 CL   UNL     1      -6.928   5.211  69.139  1.00  0.00    -0.054 Cl 
BRANCH   5  11
HETATM   11  N   UNL     1     -11.367   9.166  68.699  1.00  0.00    -0.270 NA 
HETATM   12  H   UNL     1     -11.805   9.174  67.778  1.00  0.00     0.000 HD 
BRANCH  11  13
HETATM   13  C   UNL     1     -11.863  10.125  69.621  1.00  0.00    -0.045 A  
HETATM   14  C   UNL     1     -12.230   8.404  71.394  1.00  0.00    -0.302 C  
HETATM   15  C   UNL     1     -12.209   9.754  70.936  1.00  0.00    -0.390 A  
HETATM   16  C   UNL     1     -12.564  10.749  71.826  1.00  0.00    -0.277 A  
HETATM   17  N   UNL     1     -12.582  12.063  71.525  1.00  0.00    -0.236 NA 
HETATM   18  N   UNL     1     -12.235   7.321  71.815  1.00  0.00    -0.319 NA 
HETATM   19  C   UNL     1     -12.252  12.428  70.280  1.00  0.00    -0.267 A  
HETATM   20  C   UNL     1     -12.246  13.784  70.005  1.00  0.00    -0.407 A  
HETATM   21  C   UNL     1     -11.879  14.288  68.753  1.00  0.00    -0.341 A  
HETATM   22  C   UNL     1     -11.900  11.506  69.269  1.00  0.00    -0.414 A  
HETATM   23  C   UNL     1     -11.557  13.394  67.731  1.00  0.00    -0.340 A  
HETATM   24  C   UNL     1     -11.586  12.018  67.988  1.00  0.00    -0.407 A  
BRANCH  21  25
HETATM   25  O   UNL     1     -11.918  15.627  68.480  1.00  0.00    -0.313 OA 
BRANCH  25  26
HETATM   26  C   UNL     1     -10.692  16.180  67.981  1.00  0.00    -0.321 C  
BRANCH  26  27
HETATM   27  C   UNL     1     -10.278  17.282  68.944  1.00  0.00    -0.349 C  
BRANCH  27  28
HETATM   28  C   UNL     1      -9.886  18.577  68.231  1.00  0.00    -0.363 C  
BRANCH  28  29
HETATM   29  N   UNL     1      -8.460  18.931  68.333  1.00  0.00    -0.338 NA 
HETATM   30  C   UNL     1      -7.558  17.871  67.831  1.00  0.00    -0.221 C  
HETATM   31  C   UNL     1      -7.608  17.667  66.298  1.00  0.00    -0.298 C  
HETATM   32  N   UNL     1      -7.356  18.890  65.512  1.00  0.00    -0.491 NA 
HETATM   33  C   UNL     1      -8.195  19.995  66.024  1.00  0.00    -0.237 C  
HETATM   34  C   UNL     1      -5.938  19.250  65.538  1.00  0.00    -0.200 C  
HETATM   35  C   UNL     1      -8.184  20.171  67.565  1.00  0.00    -0.329 C  
ENDBRANCH  28  29
ENDBRANCH  27  28
ENDBRANCH  26  27
ENDBRANCH  25  26
ENDBRANCH  21  25
BRANCH  23  36
HETATM   36  O   UNL     1     -11.237  13.721  66.439  1.00  0.00    -0.308 OA 
HETATM   37  C   UNL     1     -12.238  13.422  65.471  1.00  0.00    -0.455 C  
ENDBRANCH  23  36
ENDBRANCH  11  13
ENDBRANCH   5  11
ENDBRANCH   2   3
TORSDOF 9
ENDMDL
MODEL       71
REMARK 921   NORMALIZED FREE ENERGY PREDICTED BY IDOCK:   -5.83 KCAL/MOL
REMARK 922        TOTAL FREE ENERGY PREDICTED BY IDOCK:  -10.23 KCAL/MOL
REMARK 923 INTER-LIGAND FREE ENERGY PREDICTED BY IDOCK:   -9.11 KCAL/MOL
REMARK 924 INTRA-LIGAND FREE ENERGY PREDICTED BY IDOCK:   -1.12 KCAL/MOL
REMARK 927      BINDING AFFINITY PREDICTED BY RF-SCORE:    0.00 PKD
ROOT
HETATM    1  C   UNL     1     -13.848  13.754  72.086  1.00  0.00    -0.554 C  
HETATM    2  O   UNL     1     -12.498  13.574  71.665  1.00  0.00    -0.260 OA 
ENDROOT
BRANCH   2   3
HETATM    3  C   UNL     1     -12.237  13.897  70.358  1.00  0.00    -0.368 A  
HETATM    4  C   UNL     1     -12.404  12.992  69.303  1.00  0.00     0.017 A  
HETATM    5  C   UNL     1     -12.122  13.344  67.974  1.00  0.00    -0.248 A  
HETATM    6  C   UNL     1     -11.659  14.649  67.725  1.00  0.00    -0.359 A  
HETATM    7  C   UNL     1     -11.741  15.176  70.081  1.00  0.00    -0.307 A  
HETATM    8 CL   UNL     1     -11.317  15.168  66.110  1.00  0.00    -0.278 Cl 
HETATM    9  C   UNL     1     -11.465  15.558  68.768  1.00  0.00    -0.363 A  
HETATM   10 CL   UNL     1     -11.484  16.334  71.339  1.00  0.00    -0.441 Cl 
BRANCH   5  11
HETATM   11  N   UNL     1     -12.201  12.389  66.927  1.00  0.00    -0.454 NA 
HETATM   12  H   UNL     1     -13.135  12.221  66.553  1.00  0.00     0.000 HD 
BRANCH  11  13
HETATM   13  C   UNL     1     -11.156  11.637  66.328  1.00  0.00    -0.290 A  
HETATM   14  C   UNL     1     -11.632  12.562  64.056  1.00  0.00    -0.413 C  
HETATM   15  C   UNL     1     -10.851  11.784  64.959  1.00  0.00    -0.350 A  
HETATM   16  C   UNL     1      -9.744  11.122  64.461  1.00  0.00    -0.265 A  
HETATM   17  N   UNL     1      -8.920  10.359  65.205  1.00  0.00    -0.180 NA 
HETATM   18  N   UNL     1     -12.226  13.206  63.293  1.00  0.00    -0.684 NA 
HETATM   19  C   UNL     1      -9.198  10.215  66.506  1.00  0.00    -0.153 A  
HETATM   20  C   UNL     1      -8.318   9.454  67.256  1.00  0.00    -0.125 A  
HETATM   21  C   UNL     1      -8.481   9.267  68.631  1.00  0.00    -0.123 A  
HETATM   22  C   UNL     1     -10.315  10.813  67.131  1.00  0.00    -0.269 A  
HETATM   23  C   UNL     1      -9.594   9.823  69.264  1.00  0.00    -0.197 A  
HETATM   24  C   UNL     1     -10.507  10.572  68.513  1.00  0.00    -0.210 A  
BRANCH  21  25
HETATM   25  O   UNL     1      -7.630   8.477  69.354  1.00  0.00    -0.086 OA 
BRANCH  25  26
HETATM   26  C   UNL     1      -7.581   7.104  68.944  1.00  0.00    -0.100 C  
BRANCH  26  27
HETATM   27  C   UNL     1      -7.479   6.265  70.209  1.00  0.00    -0.094 C  
BRANCH  27  28
HETATM   28  C   UNL     1      -8.518   6.651  71.262  1.00  0.00    -0.125 C  
BRANCH  28  29
HETATM   29  N   UNL     1      -9.813   5.959  71.135  1.00  0.00    -0.177 NA 
HETATM   30  C   UNL     1      -9.679   4.492  71.003  1.00  0.00    -0.189 C  
HETATM   31  C   UNL     1      -9.192   3.778  72.286  1.00  0.00    -0.117 C  
HETATM   32  N   UNL     1     -10.008   4.056  73.484  1.00  0.00    -0.121 NA 
HETATM   33  C   UNL     1     -10.218   5.513  73.619  1.00  0.00    -0.218 C  
HETATM   34  C   UNL     1     -11.284   3.342  73.428  1.00  0.00    -0.144 C  
HETATM   35  C   UNL     1     -10.661   6.238  72.321  1.00  0.00    -0.229 C  
ENDBRANCH  28  29
ENDBRANCH  27  28
ENDBRANCH  26  27
ENDBRANCH  25  26
ENDBRANCH  21  25
BRANCH  23  36
HETATM   36  O   UNL     1      -9.930   9.683  70.585  1.00  0.00    -0.273 OA 
HETATM   37  C   UNL     1     -11.324   9.749  70.867  1.00  0.00    -0.365 C  
ENDBRANCH  23  36
ENDBRANCH  11  13
ENDBRANCH   5  11
ENDBRANCH   2   3
TORSDOF 9
ENDMDL
MODEL       72
REMARK 921   NORMALIZED FREE ENERGY PREDICTED BY IDOCK:   -5.79 KCAL/MOL
REMARK 922        TOTAL FREE ENERGY PREDICTED BY IDOCK:  -10.17 KCAL/MOL
REMARK 923 INTER-LIGAND FREE ENERGY PREDICTED BY IDOCK:   -8.81 KCAL/MOL
REMARK 924 INTRA-LIGAND FREE ENERGY PREDICTED BY IDOCK:   -1.36 KCAL/MOL
REMARK 927      BINDING AFFINITY PREDICTED BY RF-SCORE:    0.00 PKD
ROOT
HETATM    1  C   UNL     1     -12.776  14.438  64.598  1.00  0.00    -0.087 C  
HETATM    2  O   UNL     1     -12.792  13.050  64.922  1.00  0.00    -0.706 OA 
ENDROOT
BRANCH   2   3
HETATM    3  C   UNL     1     -11.715  12.596  65.640  1.00  0.00    -0.412 A  
HETATM    4  C   UNL     1     -11.671  12.617  67.040  1.00  0.00    -0.438 A  
HETATM    5  C   UNL     1     -10.554  12.154  67.752  1.00  0.00    -0.204 A  
HETATM    6  C   UNL     1      -9.463  11.660  67.012  1.00  0.00    -0.182 A  
HETATM    7  C   UNL     1     -10.600  12.132  64.934  1.00  0.00    -0.293 A  
HETATM    8 CL   UNL     1      -8.061  11.044  67.818  1.00  0.00    -0.114 Cl 
HETATM    9  C   UNL     1      -9.481  11.653  65.615  1.00  0.00    -0.228 A  
HETATM   10 CL   UNL     1     -10.576  12.104  63.205  1.00  0.00    -0.431 Cl 
BRANCH   5  11
HETATM   11  N   UNL     1     -10.480  12.271  69.164  1.00  0.00    -0.429 NA 
HETATM   12  H   UNL     1      -9.796  12.940  69.516  1.00  0.00     0.000 HD 
BRANCH  11  13
HETATM   13  C   UNL     1     -11.231  11.584  70.154  1.00  0.00     0.080 A  
HETATM   14  C   UNL     1     -12.693  13.563  70.588  1.00  0.00    -0.205 C  
HETATM   15  C   UNL     1     -12.335  12.196  70.781  1.00  0.00    -0.391 A  
HETATM   16  C   UNL     1     -13.104  11.437  71.642  1.00  0.00    -0.393 A  
HETATM   17  N   UNL     1     -12.879  10.135  71.909  1.00  0.00    -0.429 NA 
HETATM   18  N   UNL     1     -13.033  14.663  70.440  1.00  0.00    -0.277 NA 
HETATM   19  C   UNL     1     -11.835   9.542  71.317  1.00  0.00    -0.373 A  
HETATM   20  C   UNL     1     -11.645   8.197  71.581  1.00  0.00    -0.325 A  
HETATM   21  C   UNL     1     -10.614   7.461  70.990  1.00  0.00    -0.224 A  
HETATM   22  C   UNL     1     -10.955  10.214  70.441  1.00  0.00    -0.386 A  
HETATM   23  C   UNL     1      -9.716   8.112  70.144  1.00  0.00    -0.175 A  
HETATM   24  C   UNL     1      -9.879   9.479  69.890  1.00  0.00    -0.254 A  
BRANCH  21  25
HETATM   25  O   UNL     1     -10.410   6.142  71.291  1.00  0.00    -0.205 OA 
BRANCH  25  26
HETATM   26  C   UNL     1     -10.767   5.221  70.252  1.00  0.00    -0.151 C  
BRANCH  26  27
HETATM   27  C   UNL     1      -9.526   4.395  69.944  1.00  0.00    -0.253 C  
BRANCH  27  28
HETATM   28  C   UNL     1      -9.568   3.756  68.556  1.00  0.00    -0.105 C  
BRANCH  28  29
HETATM   29  N   UNL     1      -8.704   4.401  67.552  1.00  0.00    -0.104 NA 
HETATM   30  C   UNL     1      -8.120   3.447  66.585  1.00  0.00    -0.091 C  
HETATM   31  C   UNL     1      -9.143   2.827  65.604  1.00  0.00    -0.133 C  
HETATM   32  N   UNL     1      -9.936   3.816  64.847  1.00  0.00    -0.186 NA 
HETATM   33  C   UNL     1     -10.490   4.827  65.773  1.00  0.00    -0.238 C  
HETATM   34  C   UNL     1      -9.132   4.444  63.799  1.00  0.00    -0.136 C  
HETATM   35  C   UNL     1      -9.475   5.415  66.789  1.00  0.00    -0.139 C  
ENDBRANCH  28  29
ENDBRANCH  27  28
ENDBRANCH  26  27
ENDBRANCH  25  26
ENDBRANCH  21  25
BRANCH  23  36
HETATM   36  O   UNL     1      -8.622   7.552  69.537  1.00  0.00    -0.132 OA 
HETATM   37  C   UNL     1      -7.361   7.977  70.044  1.00  0.00    -0.062 C  
ENDBRANCH  23  36
ENDBRANCH  11  13
ENDBRANCH   5  11
ENDBRANCH   2   3
TORSDOF 9
ENDMDL
MODEL       73
REMARK 921   NORMALIZED FREE ENERGY PREDICTED BY IDOCK:   -5.78 KCAL/MOL
REMARK 922        TOTAL FREE ENERGY PREDICTED BY IDOCK:  -10.16 KCAL/MOL
REMARK 923 INTER-LIGAND FREE ENERGY PREDICTED BY IDOCK:   -8.20 KCAL/MOL
REMARK 924 INTRA-LIGAND FREE ENERGY PREDICTED BY IDOCK:   -1.96 KCAL/MOL
REMARK 927      BINDING AFFINITY PREDICTED BY RF-SCORE:    0.00 PKD
ROOT
HETATM    1  C   UNL     1     -12.741  13.953  65.249  1.00  0.00    -0.449 C  
HETATM    2  O   UNL     1     -12.501  14.041  66.651  1.00  0.00    -0.420 OA 
ENDROOT
BRANCH   2   3
HETATM    3  C   UNL     1     -11.191  13.906  67.038  1.00  0.00    -0.313 A  
HETATM    4  C   UNL     1     -10.312  12.995  66.440  1.00  0.00    -0.287 A  
HETATM    5  C   UNL     1      -8.978  12.869  66.860  1.00  0.00    -0.210 A  
HETATM    6  C   UNL     1      -8.542  13.694  67.912  1.00  0.00    -0.181 A  
HETATM    7  C   UNL     1     -10.735  14.686  68.106  1.00  0.00    -0.242 A  
HETATM    8 CL   UNL     1      -6.905  13.620  68.467  1.00  0.00    -0.089 Cl 
HETATM    9  C   UNL     1      -9.411  14.593  68.536  1.00  0.00    -0.216 A  
HETATM   10 CL   UNL     1     -11.775  15.812  68.908  1.00  0.00    -0.407 Cl 
BRANCH   5  11
HETATM   11  N   UNL     1      -8.125  11.875  66.314  1.00  0.00    -0.381 NA 
HETATM   12  H   UNL     1      -7.248  12.214  65.921  1.00  0.00     0.000 HD 
BRANCH  11  13
HETATM   13  C   UNL     1      -8.328  10.472  66.242  1.00  0.00    -0.152 A  
HETATM   14  C   UNL     1      -9.048  10.580  63.852  1.00  0.00    -0.233 C  
HETATM   15  C   UNL     1      -8.706   9.856  65.031  1.00  0.00    -0.196 A  
HETATM   16  C   UNL     1      -8.765   8.476  64.989  1.00  0.00    -0.088 A  
HETATM   17  N   UNL     1      -8.464   7.673  66.029  1.00  0.00    -0.137 NA 
HETATM   18  N   UNL     1      -9.309  11.130  62.863  1.00  0.00    -0.346 NA 
HETATM   19  C   UNL     1      -8.100   8.246  67.182  1.00  0.00    -0.108 A  
HETATM   20  C   UNL     1      -7.763   7.401  68.225  1.00  0.00    -0.120 A  
HETATM   21  C   UNL     1      -7.330   7.882  69.463  1.00  0.00    -0.087 A  
HETATM   22  C   UNL     1      -8.030   9.645  67.365  1.00  0.00    -0.106 A  
HETATM   23  C   UNL     1      -7.282   9.260  69.675  1.00  0.00    -0.063 A  
HETATM   24  C   UNL     1      -7.646  10.128  68.639  1.00  0.00    -0.086 A  
BRANCH  21  25
HETATM   25  O   UNL     1      -7.040   7.038  70.500  1.00  0.00    -0.061 OA 
BRANCH  25  26
HETATM   26  C   UNL     1      -8.055   6.946  71.509  1.00  0.00    -0.109 C  
BRANCH  26  27
HETATM   27  C   UNL     1      -9.178   6.096  70.934  1.00  0.00    -0.163 C  
BRANCH  27  28
HETATM   28  C   UNL     1     -10.531   6.377  71.590  1.00  0.00    -0.217 C  
BRANCH  28  29
HETATM   29  N   UNL     1     -11.543   6.962  70.692  1.00  0.00    -0.335 NA 
HETATM   30  C   UNL     1     -12.779   7.370  71.395  1.00  0.00    -0.369 C  
HETATM   31  C   UNL     1     -12.607   8.591  72.329  1.00  0.00    -0.381 C  
HETATM   32  N   UNL     1     -12.039   9.785  71.673  1.00  0.00    -0.398 NA 
HETATM   33  C   UNL     1     -10.832   9.408  70.907  1.00  0.00    -0.322 C  
HETATM   34  C   UNL     1     -13.028  10.433  70.813  1.00  0.00    -0.341 C  
HETATM   35  C   UNL     1     -10.989   8.155  70.005  1.00  0.00    -0.199 C  
ENDBRANCH  28  29
ENDBRANCH  27  28
ENDBRANCH  26  27
ENDBRANCH  25  26
ENDBRANCH  21  25
BRANCH  23  36
HETATM   36  O   UNL     1      -6.940   9.890  70.844  1.00  0.00    -0.310 OA 
HETATM   37  C   UNL     1      -5.666  10.527  70.841  1.00  0.00    -0.077 C  
ENDBRANCH  23  36
ENDBRANCH  11  13
ENDBRANCH   5  11
ENDBRANCH   2   3
TORSDOF 9
ENDMDL
MODEL       74
REMARK 921   NORMALIZED FREE ENERGY PREDICTED BY IDOCK:   -5.77 KCAL/MOL
REMARK 922        TOTAL FREE ENERGY PREDICTED BY IDOCK:  -10.14 KCAL/MOL
REMARK 923 INTER-LIGAND FREE ENERGY PREDICTED BY IDOCK:   -8.81 KCAL/MOL
REMARK 924 INTRA-LIGAND FREE ENERGY PREDICTED BY IDOCK:   -1.33 KCAL/MOL
REMARK 927      BINDING AFFINITY PREDICTED BY RF-SCORE:    0.00 PKD
ROOT
HETATM    1  C   UNL     1     -13.095  10.534  71.756  1.00  0.00    -0.464 C  
HETATM    2  O   UNL     1     -12.464   9.298  72.080  1.00  0.00    -0.370 OA 
ENDROOT
BRANCH   2   3
HETATM    3  C   UNL     1     -11.737   8.720  71.070  1.00  0.00    -0.282 A  
HETATM    4  C   UNL     1     -10.967   9.463  70.167  1.00  0.00    -0.282 A  
HETATM    5  C   UNL     1     -10.238   8.849  69.136  1.00  0.00    -0.206 A  
HETATM    6  C   UNL     1     -10.302   7.447  69.033  1.00  0.00    -0.210 A  
HETATM    7  C   UNL     1     -11.808   7.331  70.918  1.00  0.00    -0.316 A  
HETATM    8 CL   UNL     1      -9.409   6.614  67.808  1.00  0.00    -0.120 Cl 
HETATM    9  C   UNL     1     -11.083   6.692  69.912  1.00  0.00    -0.403 A  
HETATM   10 CL   UNL     1     -12.760   6.356  71.982  1.00  0.00    -0.223 Cl 
BRANCH   5  11
HETATM   11  N   UNL     1      -9.542   9.617  68.168  1.00  0.00    -0.143 NA 
HETATM   12  H   UNL     1      -9.631   9.298  67.204  1.00  0.00     0.000 HD 
BRANCH  11  13
HETATM   13  C   UNL     1      -8.738  10.772  68.359  1.00  0.00    -0.142 A  
HETATM   14  C   UNL     1      -6.767   9.421  69.090  1.00  0.00    -0.050 C  
HETATM   15  C   UNL     1      -7.384  10.657  68.737  1.00  0.00    -0.100 A  
HETATM   16  C   UNL     1      -6.618  11.806  68.785  1.00  0.00    -0.074 A  
HETATM   17  N   UNL     1      -7.075  13.034  68.472  1.00  0.00    -0.099 NA 
HETATM   18  N   UNL     1      -6.219   8.434  69.360  1.00  0.00    -0.037 NA 
HETATM   19  C   UNL     1      -8.358  13.155  68.109  1.00  0.00    -0.161 A  
HETATM   20  C   UNL     1      -8.795  14.421  67.760  1.00  0.00    -0.186 A  
HETATM   21  C   UNL     1     -10.101  14.664  67.326  1.00  0.00    -0.236 A  
HETATM   22  C   UNL     1      -9.253  12.064  68.049  1.00  0.00    -0.192 A  
HETATM   23  C   UNL     1     -11.010  13.607  67.288  1.00  0.00    -0.287 A  
HETATM   24  C   UNL     1     -10.590  12.326  67.664  1.00  0.00    -0.238 A  
BRANCH  21  25
HETATM   25  O   UNL     1     -10.533  15.927  67.025  1.00  0.00    -0.297 OA 
BRANCH  25  26
HETATM   26  C   UNL     1     -11.009  16.687  68.144  1.00  0.00    -0.327 C  
BRANCH  26  27
HETATM   27  C   UNL     1     -10.102  17.902  68.274  1.00  0.00    -0.376 C  
BRANCH  27  28
HETATM   28  C   UNL     1      -9.701  18.491  66.921  1.00  0.00    -0.322 C  
BRANCH  28  29
HETATM   29  N   UNL     1      -8.277  18.334  66.577  1.00  0.00    -0.263 NA 
HETATM   30  C   UNL     1      -7.686  19.548  65.972  1.00  0.00    -0.312 C  
HETATM   31  C   UNL     1      -7.529  20.736  66.950  1.00  0.00    -0.218 C  
HETATM   32  N   UNL     1      -6.768  20.420  68.175  1.00  0.00    -0.295 NA 
HETATM   33  C   UNL     1      -7.288  19.175  68.779  1.00  0.00    -0.337 C  
HETATM   34  C   UNL     1      -5.337  20.310  67.891  1.00  0.00    -0.199 C  
HETATM   35  C   UNL     1      -7.491  17.997  67.790  1.00  0.00    -0.211 C  
ENDBRANCH  28  29
ENDBRANCH  27  28
ENDBRANCH  26  27
ENDBRANCH  25  26
ENDBRANCH  21  25
BRANCH  23  36
HETATM   36  O   UNL     1     -12.335  13.688  66.946  1.00  0.00    -0.365 OA 
HETATM   37  C   UNL     1     -12.622  13.465  65.569  1.00  0.00    -0.465 C  
ENDBRANCH  23  36
ENDBRANCH  11  13
ENDBRANCH   5  11
ENDBRANCH   2   3
TORSDOF 9
ENDMDL
MODEL       75
REMARK 921   NORMALIZED FREE ENERGY PREDICTED BY IDOCK:   -5.73 KCAL/MOL
REMARK 922        TOTAL FREE ENERGY PREDICTED BY IDOCK:  -10.08 KCAL/MOL
REMARK 923 INTER-LIGAND FREE ENERGY PREDICTED BY IDOCK:   -8.77 KCAL/MOL
REMARK 924 INTRA-LIGAND FREE ENERGY PREDICTED BY IDOCK:   -1.32 KCAL/MOL
REMARK 927      BINDING AFFINITY PREDICTED BY RF-SCORE:    0.00 PKD
ROOT
HETATM    1  C   UNL     1      -9.609   4.513  68.120  1.00  0.00    -0.146 C  
HETATM    2  O   UNL     1      -9.764   3.697  69.278  1.00  0.00    -0.160 OA 
ENDROOT
BRANCH   2   3
HETATM    3  C   UNL     1      -9.630   4.342  70.481  1.00  0.00    -0.199 A  
HETATM    4  C   UNL     1      -9.330   5.706  70.583  1.00  0.00    -0.191 A  
HETATM    5  C   UNL     1      -9.191   6.342  71.826  1.00  0.00    -0.143 A  
HETATM    6  C   UNL     1      -9.364   5.563  72.985  1.00  0.00    -0.136 A  
HETATM    7  C   UNL     1      -9.761   3.587  71.652  1.00  0.00    -0.163 A  
HETATM    8 CL   UNL     1      -9.237   6.279  74.554  1.00  0.00    -0.175 Cl 
HETATM    9  C   UNL     1      -9.641   4.196  72.902  1.00  0.00    -0.166 A  
HETATM   10 CL   UNL     1     -10.105   1.894  71.598  1.00  0.00    -0.200 Cl 
BRANCH   5  11
HETATM   11  N   UNL     1      -8.790   7.700  71.918  1.00  0.00    -0.114 NA 
HETATM   12  H   UNL     1      -8.748   8.085  72.861  1.00  0.00     0.000 HD 
BRANCH  11  13
HETATM   13  C   UNL     1      -8.437   8.596  70.874  1.00  0.00    -0.166 A  
HETATM   14  C   UNL     1      -6.082   7.765  70.798  1.00  0.00    -0.034 C  
HETATM   15  C   UNL     1      -7.150   8.567  70.299  1.00  0.00    -0.043 A  
HETATM   16  C   UNL     1      -6.904   9.373  69.204  1.00  0.00    -0.050 A  
HETATM   17  N   UNL     1      -7.824  10.174  68.632  1.00  0.00    -0.093 NA 
HETATM   18  N   UNL     1      -5.193   7.109  71.155  1.00  0.00    -0.027 NA 
HETATM   19  C   UNL     1      -9.050  10.207  69.167  1.00  0.00    -0.183 A  
HETATM   20  C   UNL     1      -9.987  11.011  68.541  1.00  0.00    -0.198 A  
HETATM   21  C   UNL     1     -11.310  11.096  68.984  1.00  0.00    -0.276 A  
HETATM   22  C   UNL     1      -9.421   9.455  70.304  1.00  0.00    -0.294 A  
HETATM   23  C   UNL     1     -11.690  10.385  70.122  1.00  0.00    -0.312 A  
HETATM   24  C   UNL     1     -10.746   9.589  70.782  1.00  0.00    -0.391 A  
BRANCH  21  25
HETATM   25  O   UNL     1     -12.216  11.927  68.383  1.00  0.00    -0.425 OA 
BRANCH  25  26
HETATM   26  C   UNL     1     -11.643  12.973  67.587  1.00  0.00    -0.355 C  
BRANCH  26  27
HETATM   27  C   UNL     1     -12.087  14.292  68.201  1.00  0.00    -0.275 C  
BRANCH  27  28
HETATM   28  C   UNL     1     -12.390  14.180  69.695  1.00  0.00    -0.256 C  
BRANCH  28  29
HETATM   29  N   UNL     1     -12.700  15.458  70.360  1.00  0.00    -0.398 NA 
HETATM   30  C   UNL     1     -13.878  15.381  71.252  1.00  0.00    -0.434 C  
HETATM   31  C   UNL     1     -13.656  14.536  72.529  1.00  0.00    -0.487 C  
HETATM   32  N   UNL     1     -12.496  14.954  73.340  1.00  0.00    -0.446 NA 
HETATM   33  C   UNL     1     -11.307  15.103  72.473  1.00  0.00    -0.125 C  
HETATM   34  C   UNL     1     -12.779  16.192  74.065  1.00  0.00    -0.514 C  
HETATM   35  C   UNL     1     -11.541  15.910  71.169  1.00  0.00    -0.432 C  
ENDBRANCH  28  29
ENDBRANCH  27  28
ENDBRANCH  26  27
ENDBRANCH  25  26
ENDBRANCH  21  25
BRANCH  23  36
HETATM   36  O   UNL     1     -12.925  10.407  70.718  1.00  0.00    -0.375 OA 
HETATM   37  C   UNL     1     -13.201   9.310  71.583  1.00  0.00    -0.388 C  
ENDBRANCH  23  36
ENDBRANCH  11  13
ENDBRANCH   5  11
ENDBRANCH   2   3
TORSDOF 9
ENDMDL
MODEL       76
REMARK 921   NORMALIZED FREE ENERGY PREDICTED BY IDOCK:   -5.72 KCAL/MOL
REMARK 922        TOTAL FREE ENERGY PREDICTED BY IDOCK:  -10.08 KCAL/MOL
REMARK 923 INTER-LIGAND FREE ENERGY PREDICTED BY IDOCK:   -8.35 KCAL/MOL
REMARK 924 INTRA-LIGAND FREE ENERGY PREDICTED BY IDOCK:   -1.72 KCAL/MOL
REMARK 927      BINDING AFFINITY PREDICTED BY RF-SCORE:    0.00 PKD
ROOT
HETATM    1  C   UNL     1     -10.945   6.440  67.094  1.00  0.00    -0.399 C  
HETATM    2  O   UNL     1     -10.919   7.218  68.288  1.00  0.00    -0.106 OA 
ENDROOT
BRANCH   2   3
HETATM    3  C   UNL     1      -9.975   8.213  68.327  1.00  0.00    -0.186 A  
HETATM    4  C   UNL     1      -9.783   9.120  67.277  1.00  0.00    -0.225 A  
HETATM    5  C   UNL     1      -8.805  10.125  67.337  1.00  0.00    -0.131 A  
HETATM    6  C   UNL     1      -8.012  10.199  68.497  1.00  0.00    -0.104 A  
HETATM    7  C   UNL     1      -9.146   8.292  69.451  1.00  0.00    -0.154 A  
HETATM    8 CL   UNL     1      -6.805  11.428  68.659  1.00  0.00    -0.072 Cl 
HETATM    9  C   UNL     1      -8.174   9.289  69.544  1.00  0.00    -0.121 A  
HETATM   10 CL   UNL     1      -9.311   7.188  70.771  1.00  0.00    -0.161 Cl 
BRANCH   5  11
HETATM   11  N   UNL     1      -8.553  10.974  66.229  1.00  0.00    -0.164 NA 
HETATM   12  H   UNL     1      -7.624  10.894  65.815  1.00  0.00     0.000 HD 
BRANCH  11  13
HETATM   13  C   UNL     1      -9.418  11.919  65.618  1.00  0.00    -0.166 A  
HETATM   14  C   UNL     1      -9.642  10.547  63.541  1.00  0.00    -0.326 C  
HETATM   15  C   UNL     1      -9.988  11.667  64.353  1.00  0.00    -0.298 A  
HETATM   16  C   UNL     1     -10.920  12.563  63.864  1.00  0.00    -0.424 A  
HETATM   17  N   UNL     1     -11.338  13.658  64.530  1.00  0.00    -0.364 NA 
HETATM   18  N   UNL     1      -9.409   9.636  62.861  1.00  0.00    -0.141 NA 
HETATM   19  C   UNL     1     -10.806  13.906  65.733  1.00  0.00    -0.289 A  
HETATM   20  C   UNL     1     -11.276  15.017  66.410  1.00  0.00    -0.310 A  
HETATM   21  C   UNL     1     -10.826  15.354  67.690  1.00  0.00    -0.304 A  
HETATM   22  C   UNL     1      -9.824  13.086  66.330  1.00  0.00    -0.278 A  
HETATM   23  C   UNL     1      -9.834  14.575  68.286  1.00  0.00    -0.229 A  
HETATM   24  C   UNL     1      -9.329  13.464  67.601  1.00  0.00    -0.217 A  
BRANCH  21  25
HETATM   25  O   UNL     1     -11.267  16.479  68.332  1.00  0.00    -0.359 OA 
BRANCH  25  26
HETATM   26  C   UNL     1     -10.781  17.715  67.792  1.00  0.00    -0.332 C  
BRANCH  26  27
HETATM   27  C   UNL     1     -10.037  18.428  68.912  1.00  0.00    -0.352 C  
BRANCH  27  28
HETATM   28  C   UNL     1      -8.610  18.818  68.523  1.00  0.00    -0.344 C  
BRANCH  28  29
HETATM   29  N   UNL     1      -8.346  18.826  67.074  1.00  0.00    -0.266 NA 
HETATM   30  C   UNL     1      -8.190  20.188  66.517  1.00  0.00    -0.271 C  
HETATM   31  C   UNL     1      -6.898  20.914  66.963  1.00  0.00    -0.333 C  
HETATM   32  N   UNL     1      -5.655  20.165  66.694  1.00  0.00    -0.170 NA 
HETATM   33  C   UNL     1      -5.793  18.776  67.181  1.00  0.00    -0.152 C  
HETATM   34  C   UNL     1      -5.322  20.194  65.270  1.00  0.00    -0.162 C  
HETATM   35  C   UNL     1      -7.109  18.063  66.774  1.00  0.00    -0.205 C  
ENDBRANCH  28  29
ENDBRANCH  27  28
ENDBRANCH  26  27
ENDBRANCH  25  26
ENDBRANCH  21  25
BRANCH  23  36
HETATM   36  O   UNL     1      -9.245  14.804  69.502  1.00  0.00    -0.032 OA 
HETATM   37  C   UNL     1      -7.883  15.217  69.450  1.00  0.00    -0.208 C  
ENDBRANCH  23  36
ENDBRANCH  11  13
ENDBRANCH   5  11
ENDBRANCH   2   3
TORSDOF 9
ENDMDL
MODEL       77
REMARK 921   NORMALIZED FREE ENERGY PREDICTED BY IDOCK:   -5.66 KCAL/MOL
REMARK 922        TOTAL FREE ENERGY PREDICTED BY IDOCK:   -9.98 KCAL/MOL
REMARK 923 INTER-LIGAND FREE ENERGY PREDICTED BY IDOCK:   -9.13 KCAL/MOL
REMARK 924 INTRA-LIGAND FREE ENERGY PREDICTED BY IDOCK:   -0.85 KCAL/MOL
REMARK 927      BINDING AFFINITY PREDICTED BY RF-SCORE:    0.00 PKD
ROOT
HETATM    1  C   UNL     1     -11.113  16.047  64.722  1.00  0.00    -0.365 C  
HETATM    2  O   UNL     1     -10.341  16.142  65.917  1.00  0.00    -0.330 OA 
ENDROOT
BRANCH   2   3
HETATM    3  C   UNL     1     -10.828  15.447  66.994  1.00  0.00    -0.320 A  
HETATM    4  C   UNL     1     -11.202  14.099  66.924  1.00  0.00    -0.326 A  
HETATM    5  C   UNL     1     -11.705  13.411  68.040  1.00  0.00    -0.356 A  
HETATM    6  C   UNL     1     -11.825  14.122  69.248  1.00  0.00    -0.338 A  
HETATM    7  C   UNL     1     -10.994  16.134  68.202  1.00  0.00    -0.341 A  
HETATM    8 CL   UNL     1     -12.410  13.337  70.675  1.00  0.00    -0.434 Cl 
HETATM    9  C   UNL     1     -11.479  15.473  69.331  1.00  0.00    -0.345 A  
HETATM   10 CL   UNL     1     -10.578  17.806  68.352  1.00  0.00    -0.337 Cl 
BRANCH   5  11
HETATM   11  N   UNL     1     -12.172  12.076  67.932  1.00  0.00    -0.370 NA 
HETATM   12  H   UNL     1     -13.183  11.968  67.858  1.00  0.00     0.000 HD 
BRANCH  11  13
HETATM   13  C   UNL     1     -11.423  10.870  67.914  1.00  0.00    -0.266 A  
HETATM   14  C   UNL     1     -10.585  11.288  65.597  1.00  0.00    -0.244 C  
HETATM   15  C   UNL     1     -10.610  10.539  66.810  1.00  0.00    -0.284 A  
HETATM   16  C   UNL     1      -9.807   9.418  66.901  1.00  0.00    -0.201 A  
HETATM   17  N   UNL     1      -9.733   8.626  67.989  1.00  0.00    -0.153 NA 
HETATM   18  N   UNL     1     -10.514  11.884  64.603  1.00  0.00    -0.280 NA 
HETATM   19  C   UNL     1     -10.498   8.933  69.044  1.00  0.00    -0.214 A  
HETATM   20  C   UNL     1     -10.379   8.125  70.161  1.00  0.00    -0.215 A  
HETATM   21  C   UNL     1     -11.096   8.369  71.336  1.00  0.00    -0.255 A  
HETATM   22  C   UNL     1     -11.383  10.033  69.067  1.00  0.00    -0.136 A  
HETATM   23  C   UNL     1     -11.998   9.432  71.371  1.00  0.00    -0.371 A  
HETATM   24  C   UNL     1     -12.149  10.242  70.239  1.00  0.00    -0.330 A  
BRANCH  21  25
HETATM   25  O   UNL     1     -11.002   7.538  72.419  1.00  0.00    -0.246 OA 
BRANCH  25  26
HETATM   26  C   UNL     1     -11.733   6.311  72.306  1.00  0.00    -0.298 C  
BRANCH  26  27
HETATM   27  C   UNL     1     -11.088   5.318  73.262  1.00  0.00    -0.376 C  
BRANCH  27  28
HETATM   28  C   UNL     1     -10.130   4.354  72.560  1.00  0.00    -0.177 C  
BRANCH  28  29
HETATM   29  N   UNL     1      -8.802   4.238  73.186  1.00  0.00    -0.099 NA 
HETATM   30  C   UNL     1      -7.838   3.468  72.369  1.00  0.00    -0.067 C  
HETATM   31  C   UNL     1      -7.389   4.183  71.073  1.00  0.00    -0.044 C  
HETATM   32  N   UNL     1      -6.833   5.534  71.284  1.00  0.00    -0.055 NA 
HETATM   33  C   UNL     1      -7.740   6.318  72.149  1.00  0.00    -0.096 C  
HETATM   34  C   UNL     1      -5.488   5.466  71.854  1.00  0.00    -0.016 C  
HETATM   35  C   UNL     1      -8.229   5.585  73.426  1.00  0.00    -0.114 C  
ENDBRANCH  28  29
ENDBRANCH  27  28
ENDBRANCH  26  27
ENDBRANCH  25  26
ENDBRANCH  21  25
BRANCH  23  36
HETATM   36  O   UNL     1     -12.816   9.768  72.418  1.00  0.00    -0.328 OA 
HETATM   37  C   UNL     1     -14.068   9.091  72.452  1.00  0.00    -0.404 C  
ENDBRANCH  23  36
ENDBRANCH  11  13
ENDBRANCH   5  11
ENDBRANCH   2   3
TORSDOF 9
ENDMDL
MODEL       78
REMARK 921   NORMALIZED FREE ENERGY PREDICTED BY IDOCK:   -5.66 KCAL/MOL
REMARK 922        TOTAL FREE ENERGY PREDICTED BY IDOCK:   -9.97 KCAL/MOL
REMARK 923 INTER-LIGAND FREE ENERGY PREDICTED BY IDOCK:   -9.22 KCAL/MOL
REMARK 924 INTRA-LIGAND FREE ENERGY PREDICTED BY IDOCK:   -0.76 KCAL/MOL
REMARK 927      BINDING AFFINITY PREDICTED BY RF-SCORE:    0.00 PKD
ROOT
HETATM    1  C   UNL     1      -7.253  10.245  65.830  1.00  0.00    -0.131 C  
HETATM    2  O   UNL     1      -8.573  10.289  65.294  1.00  0.00    -0.152 OA 
ENDROOT
BRANCH   2   3
HETATM    3  C   UNL     1      -9.185  11.516  65.325  1.00  0.00    -0.080 A  
HETATM    4  C   UNL     1      -9.071  12.396  66.408  1.00  0.00    -0.149 A  
HETATM    5  C   UNL     1      -9.713  13.644  66.419  1.00  0.00    -0.292 A  
HETATM    6  C   UNL     1     -10.486  13.993  65.296  1.00  0.00    -0.382 A  
HETATM    7  C   UNL     1      -9.990  11.879  64.239  1.00  0.00    -0.246 A  
HETATM    8 CL   UNL     1     -11.285  15.526  65.221  1.00  0.00    -0.311 Cl 
HETATM    9  C   UNL     1     -10.629  13.119  64.216  1.00  0.00    -0.432 A  
HETATM   10 CL   UNL     1     -10.196  10.829  62.881  1.00  0.00    -0.161 Cl 
BRANCH   5  11
HETATM   11  N   UNL     1      -9.671  14.484  67.562  1.00  0.00    -0.209 NA 
HETATM   12  H   UNL     1      -8.891  15.140  67.599  1.00  0.00     0.000 HD 
BRANCH  11  13
HETATM   13  C   UNL     1     -10.568  14.535  68.661  1.00  0.00    -0.255 A  
HETATM   14  C   UNL     1     -10.477  17.030  68.770  1.00  0.00    -0.347 C  
HETATM   15  C   UNL     1     -11.000  15.771  69.186  1.00  0.00    -0.265 A  
HETATM   16  C   UNL     1     -11.969  15.761  70.171  1.00  0.00    -0.347 A  
HETATM   17  N   UNL     1     -12.548  14.643  70.652  1.00  0.00    -0.339 NA 
HETATM   18  N   UNL     1     -10.098  18.077  68.441  1.00  0.00    -0.367 NA 
HETATM   19  C   UNL     1     -12.149  13.465  70.158  1.00  0.00    -0.344 A  
HETATM   20  C   UNL     1     -12.783  12.334  70.643  1.00  0.00    -0.139 A  
HETATM   21  C   UNL     1     -12.480  11.052  70.174  1.00  0.00    -0.269 A  
HETATM   22  C   UNL     1     -11.147  13.336  69.172  1.00  0.00    -0.259 A  
HETATM   23  C   UNL     1     -11.472  10.900  69.222  1.00  0.00    -0.302 A  
HETATM   24  C   UNL     1     -10.803  12.032  68.743  1.00  0.00    -0.267 A  
BRANCH  21  25
HETATM   25  O   UNL     1     -13.082   9.938  70.692  1.00  0.00    -0.242 OA 
BRANCH  25  26
HETATM   26  C   UNL     1     -13.377  10.004  72.093  1.00  0.00    -0.368 C  
BRANCH  26  27
HETATM   27  C   UNL     1     -13.241   8.592  72.643  1.00  0.00    -0.271 C  
BRANCH  27  28
HETATM   28  C   UNL     1     -12.411   7.680  71.739  1.00  0.00    -0.329 C  
BRANCH  28  29
HETATM   29  N   UNL     1     -10.981   7.603  72.085  1.00  0.00    -0.242 NA 
HETATM   30  C   UNL     1     -10.727   6.896  73.360  1.00  0.00    -0.324 C  
HETATM   31  C   UNL     1     -11.006   5.375  73.310  1.00  0.00    -0.307 C  
HETATM   32  N   UNL     1     -10.287   4.658  72.239  1.00  0.00    -0.192 NA 
HETATM   33  C   UNL     1     -10.465   5.370  70.955  1.00  0.00    -0.237 C  
HETATM   34  C   UNL     1      -8.869   4.508  72.566  1.00  0.00    -0.117 C  
HETATM   35  C   UNL     1     -10.232   6.903  71.013  1.00  0.00    -0.197 C  
ENDBRANCH  28  29
ENDBRANCH  27  28
ENDBRANCH  26  27
ENDBRANCH  25  26
ENDBRANCH  21  25
BRANCH  23  36
HETATM   36  O   UNL     1     -11.015   9.715  68.707  1.00  0.00    -0.200 OA 
HETATM   37  C   UNL     1      -9.598   9.575  68.666  1.00  0.00    -0.146 C  
ENDBRANCH  23  36
ENDBRANCH  11  13
ENDBRANCH   5  11
ENDBRANCH   2   3
TORSDOF 9
ENDMDL
MODEL       79
REMARK 921   NORMALIZED FREE ENERGY PREDICTED BY IDOCK:   -5.63 KCAL/MOL
REMARK 922        TOTAL FREE ENERGY PREDICTED BY IDOCK:   -9.94 KCAL/MOL
REMARK 923 INTER-LIGAND FREE ENERGY PREDICTED BY IDOCK:   -8.68 KCAL/MOL
REMARK 924 INTRA-LIGAND FREE ENERGY PREDICTED BY IDOCK:   -1.26 KCAL/MOL
REMARK 927      BINDING AFFINITY PREDICTED BY RF-SCORE:    0.00 PKD
ROOT
HETATM    1  C   UNL     1     -11.907  15.471  69.510  1.00  0.00    -0.372 C  
HETATM    2  O   UNL     1     -12.279  14.879  68.268  1.00  0.00    -0.170 OA 
ENDROOT
BRANCH   2   3
HETATM    3  C   UNL     1     -11.869  13.583  68.082  1.00  0.00    -0.365 A  
HETATM    4  C   UNL     1     -11.311  12.808  69.107  1.00  0.00    -0.337 A  
HETATM    5  C   UNL     1     -10.891  11.486  68.890  1.00  0.00    -0.218 A  
HETATM    6  C   UNL     1     -11.047  10.952  67.597  1.00  0.00    -0.313 A  
HETATM    7  C   UNL     1     -11.977  13.034  66.800  1.00  0.00    -0.369 A  
HETATM    8 CL   UNL     1     -10.581   9.321  67.257  1.00  0.00    -0.330 Cl 
HETATM    9  C   UNL     1     -11.580  11.719  66.558  1.00  0.00    -0.256 A  
HETATM   10 CL   UNL     1     -12.631  13.944  65.483  1.00  0.00    -0.546 Cl 
BRANCH   5  11
HETATM   11  N   UNL     1     -10.238  10.745  69.908  1.00  0.00    -0.422 NA 
HETATM   12  H   UNL     1      -9.291  11.047  70.136  1.00  0.00     0.000 HD 
BRANCH  11  13
HETATM   13  C   UNL     1     -10.724   9.638  70.653  1.00  0.00    -0.322 A  
HETATM   14  C   UNL     1     -12.643  10.949  71.571  1.00  0.00    -0.375 C  
HETATM   15  C   UNL     1     -11.920   9.733  71.393  1.00  0.00    -0.493 A  
HETATM   16  C   UNL     1     -12.410   8.589  71.995  1.00  0.00    -0.365 A  
HETATM   17  N   UNL     1     -11.828   7.377  71.903  1.00  0.00    -0.287 NA 
HETATM   18  N   UNL     1     -13.276  11.911  71.719  1.00  0.00    -0.414 NA 
HETATM   19  C   UNL     1     -10.694   7.274  71.200  1.00  0.00    -0.228 A  
HETATM   20  C   UNL     1     -10.134   6.013  71.093  1.00  0.00    -0.241 A  
HETATM   21  C   UNL     1      -8.974   5.775  70.351  1.00  0.00    -0.146 A  
HETATM   22  C   UNL     1     -10.074   8.372  70.563  1.00  0.00    -0.211 A  
HETATM   23  C   UNL     1      -8.328   6.850  69.739  1.00  0.00    -0.132 A  
HETATM   24  C   UNL     1      -8.868   8.135  69.862  1.00  0.00    -0.139 A  
BRANCH  21  25
HETATM   25  O   UNL     1      -8.406   4.532  70.287  1.00  0.00    -0.072 OA 
BRANCH  25  26
HETATM   26  C   UNL     1      -9.314   3.466  69.981  1.00  0.00    -0.171 C  
BRANCH  26  27
HETATM   27  C   UNL     1      -8.730   2.711  68.796  1.00  0.00    -0.131 C  
BRANCH  27  28
HETATM   28  C   UNL     1      -9.464   3.003  67.486  1.00  0.00    -0.123 C  
BRANCH  28  29
HETATM   29  N   UNL     1      -9.235   4.350  66.937  1.00  0.00    -0.130 NA 
HETATM   30  C   UNL     1      -7.862   4.546  66.423  1.00  0.00    -0.099 C  
HETATM   31  C   UNL     1      -7.543   3.746  65.138  1.00  0.00    -0.081 C  
HETATM   32  N   UNL     1      -8.484   3.981  64.025  1.00  0.00    -0.093 NA 
HETATM   33  C   UNL     1      -9.875   3.855  64.512  1.00  0.00    -0.191 C  
HETATM   34  C   UNL     1      -8.257   5.288  63.411  1.00  0.00    -0.117 C  
HETATM   35  C   UNL     1     -10.184   4.619  65.827  1.00  0.00    -0.258 C  
ENDBRANCH  28  29
ENDBRANCH  27  28
ENDBRANCH  26  27
ENDBRANCH  25  26
ENDBRANCH  21  25
BRANCH  23  36
HETATM   36  O   UNL     1      -7.156   6.795  69.031  1.00  0.00    -0.082 OA 
HETATM   37  C   UNL     1      -7.012   7.785  68.017  1.00  0.00    -0.080 C  
ENDBRANCH  23  36
ENDBRANCH  11  13
ENDBRANCH   5  11
ENDBRANCH   2   3
TORSDOF 9
ENDMDL
MODEL       80
REMARK 921   NORMALIZED FREE ENERGY PREDICTED BY IDOCK:   -5.61 KCAL/MOL
REMARK 922        TOTAL FREE ENERGY PREDICTED BY IDOCK:   -9.90 KCAL/MOL
REMARK 923 INTER-LIGAND FREE ENERGY PREDICTED BY IDOCK:   -8.67 KCAL/MOL
REMARK 924 INTRA-LIGAND FREE ENERGY PREDICTED BY IDOCK:   -1.23 KCAL/MOL
REMARK 927      BINDING AFFINITY PREDICTED BY RF-SCORE:    0.00 PKD
ROOT
HETATM    1  C   UNL     1      -8.788   9.370  62.905  1.00  0.00    -0.205 C  
HETATM    2  O   UNL     1      -8.044  10.182  63.810  1.00  0.00    -0.154 OA 
ENDROOT
BRANCH   2   3
HETATM    3  C   UNL     1      -8.053   9.772  65.119  1.00  0.00    -0.132 A  
HETATM    4  C   UNL     1      -9.159   9.153  65.715  1.00  0.00    -0.265 A  
HETATM    5  C   UNL     1      -9.146   8.750  67.059  1.00  0.00    -0.133 A  
HETATM    6  C   UNL     1      -7.977   8.988  67.804  1.00  0.00    -0.101 A  
HETATM    7  C   UNL     1      -6.918  10.027  65.897  1.00  0.00    -0.113 A  
HETATM    8 CL   UNL     1      -7.872   8.494  69.459  1.00  0.00    -0.095 Cl 
HETATM    9  C   UNL     1      -6.872   9.625  67.233  1.00  0.00    -0.083 A  
HETATM   10 CL   UNL     1      -5.528  10.812  65.233  1.00  0.00    -0.143 Cl 
BRANCH   5  11
HETATM   11  N   UNL     1     -10.305   8.214  67.678  1.00  0.00    -0.236 NA 
HETATM   12  H   UNL     1     -10.735   7.423  67.200  1.00  0.00     0.000 HD 
BRANCH  11  13
HETATM   13  C   UNL     1     -10.947   8.630  68.874  1.00  0.00     0.120 A  
HETATM   14  C   UNL     1     -10.747   6.364  69.909  1.00  0.00    -0.274 C  
HETATM   15  C   UNL     1     -11.091   7.747  69.964  1.00  0.00    -0.182 A  
HETATM   16  C   UNL     1     -11.610   8.243  71.145  1.00  0.00    -0.279 A  
HETATM   17  N   UNL     1     -11.970   9.528  71.332  1.00  0.00    -0.358 NA 
HETATM   18  N   UNL     1     -10.456   5.240  69.914  1.00  0.00    -0.307 NA 
HETATM   19  C   UNL     1     -11.835  10.376  70.306  1.00  0.00    -0.312 A  
HETATM   20  C   UNL     1     -12.180  11.697  70.534  1.00  0.00    -0.451 A  
HETATM   21  C   UNL     1     -12.044  12.682  69.551  1.00  0.00    -0.192 A  
HETATM   22  C   UNL     1     -11.347   9.989  69.039  1.00  0.00    -0.136 A  
HETATM   23  C   UNL     1     -11.592  12.316  68.283  1.00  0.00    -0.331 A  
HETATM   24  C   UNL     1     -11.266  10.978  68.030  1.00  0.00    -0.372 A  
BRANCH  21  25
HETATM   25  O   UNL     1     -12.429  13.976  69.774  1.00  0.00    -0.325 OA 
BRANCH  25  26
HETATM   26  C   UNL     1     -11.934  14.554  70.989  1.00  0.00    -0.332 C  
BRANCH  26  27
HETATM   27  C   UNL     1     -11.380  15.926  70.634  1.00  0.00    -0.421 C  
BRANCH  27  28
HETATM   28  C   UNL     1     -11.225  16.133  69.127  1.00  0.00    -0.336 C  
BRANCH  28  29
HETATM   29  N   UNL     1     -10.328  17.238  68.745  1.00  0.00    -0.346 NA 
HETATM   30  C   UNL     1      -8.900  16.942  68.991  1.00  0.00    -0.159 C  
HETATM   31  C   UNL     1      -8.303  15.863  68.056  1.00  0.00    -0.160 C  
HETATM   32  N   UNL     1      -8.469  16.145  66.617  1.00  0.00    -0.250 NA 
HETATM   33  C   UNL     1      -9.876  16.506  66.338  1.00  0.00    -0.293 C  
HETATM   34  C   UNL     1      -7.556  17.200  66.178  1.00  0.00    -0.269 C  
HETATM   35  C   UNL     1     -10.491  17.553  67.304  1.00  0.00    -0.327 C  
ENDBRANCH  28  29
ENDBRANCH  27  28
ENDBRANCH  26  27
ENDBRANCH  25  26
ENDBRANCH  21  25
BRANCH  23  36
HETATM   36  O   UNL     1     -11.461  13.143  67.198  1.00  0.00    -0.300 OA 
HETATM   37  C   UNL     1     -11.973  12.627  65.974  1.00  0.00    -0.417 C  
ENDBRANCH  23  36
ENDBRANCH  11  13
ENDBRANCH   5  11
ENDBRANCH   2   3
TORSDOF 9
ENDMDL
MODEL       81
REMARK 921   NORMALIZED FREE ENERGY PREDICTED BY IDOCK:   -5.61 KCAL/MOL
REMARK 922        TOTAL FREE ENERGY PREDICTED BY IDOCK:   -9.90 KCAL/MOL
REMARK 923 INTER-LIGAND FREE ENERGY PREDICTED BY IDOCK:   -8.84 KCAL/MOL
REMARK 924 INTRA-LIGAND FREE ENERGY PREDICTED BY IDOCK:   -1.06 KCAL/MOL
REMARK 927      BINDING AFFINITY PREDICTED BY RF-SCORE:    0.00 PKD
ROOT
HETATM    1  C   UNL     1      -7.489  17.237  66.125  1.00  0.00    -0.286 C  
HETATM    2  O   UNL     1      -8.863  17.614  66.090  1.00  0.00    -0.449 OA 
ENDROOT
BRANCH   2   3
HETATM    3  C   UNL     1      -9.686  16.943  66.959  1.00  0.00    -0.253 A  
HETATM    4  C   UNL     1     -10.354  15.762  66.614  1.00  0.00    -0.292 A  
HETATM    5  C   UNL     1     -11.196  15.097  67.519  1.00  0.00    -0.330 A  
HETATM    6  C   UNL     1     -11.355  15.657  68.800  1.00  0.00    -0.349 A  
HETATM    7  C   UNL     1      -9.893  17.493  68.229  1.00  0.00    -0.319 A  
HETATM    8 CL   UNL     1     -12.354  14.882  69.981  1.00  0.00    -0.367 Cl 
HETATM    9  C   UNL     1     -10.714  16.848  69.153  1.00  0.00    -0.298 A  
HETATM   10 CL   UNL     1      -9.121  18.964  68.710  1.00  0.00    -0.373 Cl 
BRANCH   5  11
HETATM   11  N   UNL     1     -11.944  13.957  67.127  1.00  0.00    -0.414 NA 
HETATM   12  H   UNL     1     -12.800  13.788  67.655  1.00  0.00     0.000 HD 
BRANCH  11  13
HETATM   13  C   UNL     1     -11.663  13.019  66.098  1.00  0.00    -0.394 A  
HETATM   14  C   UNL     1     -12.345  14.612  64.298  1.00  0.00    -0.349 C  
HETATM   15  C   UNL     1     -11.796  13.373  64.740  1.00  0.00    -0.415 A  
HETATM   16  C   UNL     1     -11.388  12.462  63.783  1.00  0.00    -0.464 A  
HETATM   17  N   UNL     1     -10.849  11.260  64.065  1.00  0.00    -0.370 NA 
HETATM   18  N   UNL     1     -12.761  15.619  63.896  1.00  0.00    -0.511 NA 
HETATM   19  C   UNL     1     -10.715  10.914  65.351  1.00  0.00    -0.119 A  
HETATM   20  C   UNL     1     -10.129   9.689  65.614  1.00  0.00    -0.231 A  
HETATM   21  C   UNL     1      -9.900   9.238  66.918  1.00  0.00    -0.214 A  
HETATM   22  C   UNL     1     -11.121  11.741  66.422  1.00  0.00    -0.360 A  
HETATM   23  C   UNL     1     -10.320  10.025  67.990  1.00  0.00    -0.198 A  
HETATM   24  C   UNL     1     -10.940  11.255  67.739  1.00  0.00    -0.305 A  
BRANCH  21  25
HETATM   25  O   UNL     1      -9.358   8.007  67.166  1.00  0.00    -0.138 OA 
BRANCH  25  26
HETATM   26  C   UNL     1      -7.938   7.923  66.991  1.00  0.00    -0.112 C  
BRANCH  26  27
HETATM   27  C   UNL     1      -7.507   6.556  67.503  1.00  0.00    -0.096 C  
BRANCH  27  28
HETATM   28  C   UNL     1      -8.010   6.266  68.917  1.00  0.00    -0.109 C  
BRANCH  28  29
HETATM   29  N   UNL     1      -6.982   5.770  69.849  1.00  0.00    -0.063 NA 
HETATM   30  C   UNL     1      -5.785   6.637  69.912  1.00  0.00    -0.018 C  
HETATM   31  C   UNL     1      -6.026   8.007  70.588  1.00  0.00    -0.033 C  
HETATM   32  N   UNL     1      -6.601   7.924  71.944  1.00  0.00    -0.047 NA 
HETATM   33  C   UNL     1      -7.768   7.016  71.937  1.00  0.00    -0.093 C  
HETATM   34  C   UNL     1      -5.599   7.488  72.915  1.00  0.00    -0.040 C  
HETATM   35  C   UNL     1      -7.542   5.659  71.218  1.00  0.00    -0.100 C  
ENDBRANCH  28  29
ENDBRANCH  27  28
ENDBRANCH  26  27
ENDBRANCH  25  26
ENDBRANCH  21  25
BRANCH  23  36
HETATM   36  O   UNL     1     -10.225   9.702  69.319  1.00  0.00    -0.185 OA 
HETATM   37  C   UNL     1      -8.999  10.063  69.946  1.00  0.00    -0.146 C  
ENDBRANCH  23  36
ENDBRANCH  11  13
ENDBRANCH   5  11
ENDBRANCH   2   3
TORSDOF 9
ENDMDL
MODEL       82
REMARK 921   NORMALIZED FREE ENERGY PREDICTED BY IDOCK:   -5.61 KCAL/MOL
REMARK 922        TOTAL FREE ENERGY PREDICTED BY IDOCK:   -9.90 KCAL/MOL
REMARK 923 INTER-LIGAND FREE ENERGY PREDICTED BY IDOCK:   -8.87 KCAL/MOL
REMARK 924 INTRA-LIGAND FREE ENERGY PREDICTED BY IDOCK:   -1.03 KCAL/MOL
REMARK 927      BINDING AFFINITY PREDICTED BY RF-SCORE:    0.00 PKD
ROOT
HETATM    1  C   UNL     1     -11.767  16.059  64.109  1.00  0.00     0.043 C  
HETATM    2  O   UNL     1     -10.681  16.402  64.966  1.00  0.00    -0.638 OA 
ENDROOT
BRANCH   2   3
HETATM    3  C   UNL     1     -10.231  15.396  65.784  1.00  0.00    -0.354 A  
HETATM    4  C   UNL     1     -10.975  14.240  66.048  1.00  0.00    -0.312 A  
HETATM    5  C   UNL     1     -10.495  13.228  66.894  1.00  0.00    -0.261 A  
HETATM    6  C   UNL     1      -9.229  13.409  67.479  1.00  0.00    -0.219 A  
HETATM    7  C   UNL     1      -8.990  15.561  66.409  1.00  0.00    -0.324 A  
HETATM    8 CL   UNL     1      -8.555  12.194  68.511  1.00  0.00    -0.124 Cl 
HETATM    9  C   UNL     1      -8.482  14.566  67.245  1.00  0.00    -0.234 A  
HETATM   10 CL   UNL     1      -8.031  16.976  66.149  1.00  0.00    -0.341 Cl 
BRANCH   5  11
HETATM   11  N   UNL     1     -11.299  12.109  67.232  1.00  0.00    -0.311 NA 
HETATM   12  H   UNL     1     -12.280  12.312  67.423  1.00  0.00     0.000 HD 
BRANCH  11  13
HETATM   13  C   UNL     1     -10.922  10.744  67.341  1.00  0.00    -0.300 A  
HETATM   14  C   UNL     1     -10.098  10.662  64.984  1.00  0.00    -0.321 C  
HETATM   15  C   UNL     1     -10.283  10.082  66.273  1.00  0.00    -0.285 A  
HETATM   16  C   UNL     1      -9.827   8.794  66.480  1.00  0.00    -0.279 A  
HETATM   17  N   UNL     1      -9.934   8.132  67.649  1.00  0.00    -0.172 NA 
HETATM   18  N   UNL     1      -9.904  11.106  63.928  1.00  0.00    -0.278 NA 
HETATM   19  C   UNL     1     -10.535   8.752  68.672  1.00  0.00    -0.183 A  
HETATM   20  C   UNL     1     -10.603   8.065  69.871  1.00  0.00    -0.242 A  
HETATM   21  C   UNL     1     -11.171   8.624  71.019  1.00  0.00    -0.271 A  
HETATM   22  C   UNL     1     -11.072  10.055  68.581  1.00  0.00    -0.223 A  
HETATM   23  C   UNL     1     -11.734   9.899  70.944  1.00  0.00    -0.364 A  
HETATM   24  C   UNL     1     -11.698  10.595  69.730  1.00  0.00    -0.385 A  
BRANCH  21  25
HETATM   25  O   UNL     1     -11.271   7.920  72.187  1.00  0.00    -0.266 OA 
BRANCH  25  26
HETATM   26  C   UNL     1     -11.914   6.643  72.071  1.00  0.00    -0.319 C  
BRANCH  26  27
HETATM   27  C   UNL     1     -11.087   5.654  72.879  1.00  0.00    -0.337 C  
BRANCH  27  28
HETATM   28  C   UNL     1      -9.591   5.740  72.571  1.00  0.00    -0.154 C  
BRANCH  28  29
HETATM   29  N   UNL     1      -8.721   5.823  73.757  1.00  0.00    -0.121 NA 
HETATM   30  C   UNL     1      -7.318   5.446  73.478  1.00  0.00    -0.091 C  
HETATM   31  C   UNL     1      -6.551   6.456  72.592  1.00  0.00    -0.064 C  
HETATM   32  N   UNL     1      -6.559   7.841  73.102  1.00  0.00    -0.069 NA 
HETATM   33  C   UNL     1      -7.939   8.238  73.451  1.00  0.00    -0.154 C  
HETATM   34  C   UNL     1      -5.662   7.985  74.248  1.00  0.00    -0.079 C  
HETATM   35  C   UNL     1      -8.726   7.204  74.301  1.00  0.00    -0.207 C  
ENDBRANCH  28  29
ENDBRANCH  27  28
ENDBRANCH  26  27
ENDBRANCH  25  26
ENDBRANCH  21  25
BRANCH  23  36
HETATM   36  O   UNL     1     -12.379  10.561  71.955  1.00  0.00    -0.269 OA 
HETATM   37  C   UNL     1     -12.957  11.811  71.591  1.00  0.00    -0.362 C  
ENDBRANCH  23  36
ENDBRANCH  11  13
ENDBRANCH   5  11
ENDBRANCH   2   3
TORSDOF 9
ENDMDL
MODEL       83
REMARK 921   NORMALIZED FREE ENERGY PREDICTED BY IDOCK:   -5.61 KCAL/MOL
REMARK 922        TOTAL FREE ENERGY PREDICTED BY IDOCK:   -9.90 KCAL/MOL
REMARK 923 INTER-LIGAND FREE ENERGY PREDICTED BY IDOCK:   -8.32 KCAL/MOL
REMARK 924 INTRA-LIGAND FREE ENERGY PREDICTED BY IDOCK:   -1.58 KCAL/MOL
REMARK 927      BINDING AFFINITY PREDICTED BY RF-SCORE:    0.00 PKD
ROOT
HETATM    1  C   UNL     1      -9.310   4.570  68.174  1.00  0.00    -0.140 C  
HETATM    2  O   UNL     1      -9.666   3.890  69.375  1.00  0.00    -0.192 OA 
ENDROOT
BRANCH   2   3
HETATM    3  C   UNL     1      -9.612   4.643  70.521  1.00  0.00    -0.198 A  
HETATM    4  C   UNL     1      -9.289   6.005  70.522  1.00  0.00    -0.177 A  
HETATM    5  C   UNL     1      -9.232   6.752  71.708  1.00  0.00    -0.147 A  
HETATM    6  C   UNL     1      -9.512   6.087  72.916  1.00  0.00    -0.150 A  
HETATM    7  C   UNL     1      -9.850   4.003  71.743  1.00  0.00    -0.179 A  
HETATM    8 CL   UNL     1      -9.492   6.945  74.418  1.00  0.00    -0.266 Cl 
HETATM    9  C   UNL     1      -9.814   4.723  72.937  1.00  0.00    -0.186 A  
HETATM   10 CL   UNL     1     -10.228   2.317  71.817  1.00  0.00    -0.142 Cl 
BRANCH   5  11
HETATM   11  N   UNL     1      -8.808   8.106  71.707  1.00  0.00    -0.140 NA 
HETATM   12  H   UNL     1      -8.775   8.559  72.620  1.00  0.00     0.000 HD 
BRANCH  11  13
HETATM   13  C   UNL     1      -8.422   8.916  70.606  1.00  0.00    -0.184 A  
HETATM   14  C   UNL     1      -6.068   8.080  70.665  1.00  0.00    -0.033 C  
HETATM   15  C   UNL     1      -7.119   8.841  70.073  1.00  0.00    -0.047 A  
HETATM   16  C   UNL     1      -6.838   9.557  68.925  1.00  0.00    -0.055 A  
HETATM   17  N   UNL     1      -7.739  10.312  68.265  1.00  0.00    -0.091 NA 
HETATM   18  N   UNL     1      -5.192   7.453  71.099  1.00  0.00    -0.027 NA 
HETATM   19  C   UNL     1      -8.980  10.388  68.759  1.00  0.00    -0.157 A  
HETATM   20  C   UNL     1      -9.895  11.141  68.045  1.00  0.00    -0.185 A  
HETATM   21  C   UNL     1     -11.230  11.262  68.441  1.00  0.00    -0.262 A  
HETATM   22  C   UNL     1      -9.386   9.729  69.941  1.00  0.00    -0.262 A  
HETATM   23  C   UNL     1     -11.646  10.644  69.621  1.00  0.00    -0.296 A  
HETATM   24  C   UNL     1     -10.724   9.902  70.368  1.00  0.00    -0.379 A  
BRANCH  21  25
HETATM   25  O   UNL     1     -12.115  12.044  67.751  1.00  0.00    -0.537 OA 
BRANCH  25  26
HETATM   26  C   UNL     1     -11.684  12.435  66.440  1.00  0.00    -0.391 C  
BRANCH  26  27
HETATM   27  C   UNL     1     -12.302  13.797  66.157  1.00  0.00    -0.496 C  
BRANCH  27  28
HETATM   28  C   UNL     1     -11.265  14.919  66.104  1.00  0.00    -0.325 C  
BRANCH  28  29
HETATM   29  N   UNL     1     -10.173  14.798  67.085  1.00  0.00    -0.244 NA 
HETATM   30  C   UNL     1      -8.861  15.232  66.554  1.00  0.00    -0.300 C  
HETATM   31  C   UNL     1      -8.746  16.755  66.310  1.00  0.00    -0.307 C  
HETATM   32  N   UNL     1      -9.060  17.587  67.488  1.00  0.00    -0.233 NA 
HETATM   33  C   UNL     1     -10.337  17.144  68.087  1.00  0.00    -0.350 C  
HETATM   34  C   UNL     1      -7.975  17.542  68.468  1.00  0.00    -0.271 C  
HETATM   35  C   UNL     1     -10.473  15.611  68.289  1.00  0.00    -0.252 C  
ENDBRANCH  28  29
ENDBRANCH  27  28
ENDBRANCH  26  27
ENDBRANCH  25  26
ENDBRANCH  21  25
BRANCH  23  36
HETATM   36  O   UNL     1     -12.897  10.714  70.176  1.00  0.00    -0.276 OA 
HETATM   37  C   UNL     1     -13.016  10.150  71.478  1.00  0.00    -0.444 C  
ENDBRANCH  23  36
ENDBRANCH  11  13
ENDBRANCH   5  11
ENDBRANCH   2   3
TORSDOF 9
ENDMDL
MODEL       84
REMARK 921   NORMALIZED FREE ENERGY PREDICTED BY IDOCK:   -5.60 KCAL/MOL
REMARK 922        TOTAL FREE ENERGY PREDICTED BY IDOCK:   -9.90 KCAL/MOL
REMARK 923 INTER-LIGAND FREE ENERGY PREDICTED BY IDOCK:   -9.37 KCAL/MOL
REMARK 924 INTRA-LIGAND FREE ENERGY PREDICTED BY IDOCK:   -0.53 KCAL/MOL
REMARK 927      BINDING AFFINITY PREDICTED BY RF-SCORE:    0.00 PKD
ROOT
HETATM    1  C   UNL     1      -7.569   8.153  71.894  1.00  0.00    -0.097 C  
HETATM    2  O   UNL     1      -8.783   8.709  71.395  1.00  0.00    -0.169 OA 
ENDROOT
BRANCH   2   3
HETATM    3  C   UNL     1      -9.293   8.109  70.271  1.00  0.00    -0.155 A  
HETATM    4  C   UNL     1      -8.676   8.194  69.017  1.00  0.00    -0.144 A  
HETATM    5  C   UNL     1      -9.221   7.578  67.881  1.00  0.00    -0.136 A  
HETATM    6  C   UNL     1     -10.422   6.861  68.036  1.00  0.00    -0.211 A  
HETATM    7  C   UNL     1     -10.504   7.418  70.385  1.00  0.00    -0.221 A  
HETATM    8 CL   UNL     1     -11.141   6.048  66.689  1.00  0.00    -0.261 Cl 
HETATM    9  C   UNL     1     -11.063   6.784  69.275  1.00  0.00    -0.289 A  
HETATM   10 CL   UNL     1     -11.333   7.296  71.897  1.00  0.00    -0.274 Cl 
BRANCH   5  11
HETATM   11  N   UNL     1      -8.641   7.754  66.598  1.00  0.00    -0.130 NA 
HETATM   12  H   UNL     1      -8.054   6.987  66.270  1.00  0.00     0.000 HD 
BRANCH  11  13
HETATM   13  C   UNL     1      -8.768   8.853  65.708  1.00  0.00    -0.176 A  
HETATM   14  C   UNL     1      -7.140   7.876  64.083  1.00  0.00    -0.075 C  
HETATM   15  C   UNL     1      -8.091   8.865  64.471  1.00  0.00    -0.150 A  
HETATM   16  C   UNL     1      -8.351   9.900  63.592  1.00  0.00    -0.164 A  
HETATM   17  N   UNL     1      -9.228  10.894  63.832  1.00  0.00    -0.210 NA 
HETATM   18  N   UNL     1      -6.379   7.079  63.718  1.00  0.00    -0.043 NA 
HETATM   19  C   UNL     1      -9.879  10.891  65.002  1.00  0.00    -0.281 A  
HETATM   20  C   UNL     1     -10.799  11.903  65.210  1.00  0.00    -0.347 A  
HETATM   21  C   UNL     1     -11.568  11.982  66.375  1.00  0.00    -0.313 A  
HETATM   22  C   UNL     1      -9.681   9.909  65.997  1.00  0.00    -0.310 A  
HETATM   23  C   UNL     1     -11.368  11.039  67.384  1.00  0.00    -0.230 A  
HETATM   24  C   UNL     1     -10.420  10.026  67.198  1.00  0.00    -0.305 A  
BRANCH  21  25
HETATM   25  O   UNL     1     -12.443  13.011  66.589  1.00  0.00    -0.349 OA 
BRANCH  25  26
HETATM   26  C   UNL     1     -11.859  14.320  66.558  1.00  0.00    -0.415 C  
BRANCH  26  27
HETATM   27  C   UNL     1     -11.188  14.539  67.906  1.00  0.00    -0.310 C  
BRANCH  27  28
HETATM   28  C   UNL     1     -12.191  14.755  69.040  1.00  0.00    -0.145 C  
BRANCH  28  29
HETATM   29  N   UNL     1     -11.790  14.180  70.336  1.00  0.00    -0.305 NA 
HETATM   30  C   UNL     1     -11.056  15.134  71.196  1.00  0.00    -0.225 C  
HETATM   31  C   UNL     1     -11.922  16.292  71.747  1.00  0.00    -0.406 C  
HETATM   32  N   UNL     1     -13.129  15.855  72.476  1.00  0.00    -0.470 NA 
HETATM   33  C   UNL     1     -13.862  14.851  71.675  1.00  0.00    -0.461 C  
HETATM   34  C   UNL     1     -12.784  15.327  73.796  1.00  0.00    -0.556 C  
HETATM   35  C   UNL     1     -12.986  13.716  71.082  1.00  0.00    -0.278 C  
ENDBRANCH  28  29
ENDBRANCH  27  28
ENDBRANCH  26  27
ENDBRANCH  25  26
ENDBRANCH  21  25
BRANCH  23  36
HETATM   36  O   UNL     1     -11.992  11.012  68.604  1.00  0.00    -0.496 OA 
HETATM   37  C   UNL     1     -11.123  10.926  69.729  1.00  0.00    -0.262 C  
ENDBRANCH  23  36
ENDBRANCH  11  13
ENDBRANCH   5  11
ENDBRANCH   2   3
TORSDOF 9
ENDMDL
MODEL       85
REMARK 921   NORMALIZED FREE ENERGY PREDICTED BY IDOCK:   -5.60 KCAL/MOL
REMARK 922        TOTAL FREE ENERGY PREDICTED BY IDOCK:   -9.89 KCAL/MOL
REMARK 923 INTER-LIGAND FREE ENERGY PREDICTED BY IDOCK:   -9.16 KCAL/MOL
REMARK 924 INTRA-LIGAND FREE ENERGY PREDICTED BY IDOCK:   -0.73 KCAL/MOL
REMARK 927      BINDING AFFINITY PREDICTED BY RF-SCORE:    0.00 PKD
ROOT
HETATM    1  C   UNL     1      -8.491   5.763  65.600  1.00  0.00    -0.149 C  
HETATM    2  O   UNL     1      -8.000   6.727  66.528  1.00  0.00    -0.101 OA 
ENDROOT
BRANCH   2   3
HETATM    3  C   UNL     1      -8.869   7.739  66.847  1.00  0.00    -0.131 A  
HETATM    4  C   UNL     1      -9.109   8.830  66.003  1.00  0.00    -0.265 A  
HETATM    5  C   UNL     1      -9.997   9.858  66.355  1.00  0.00    -0.244 A  
HETATM    6  C   UNL     1     -10.651   9.763  67.597  1.00  0.00    -0.276 A  
HETATM    7  C   UNL     1      -9.508   7.692  68.091  1.00  0.00    -0.145 A  
HETATM    8 CL   UNL     1     -11.782  10.974  68.091  1.00  0.00    -0.333 Cl 
HETATM    9  C   UNL     1     -10.407   8.693  68.462  1.00  0.00    -0.228 A  
HETATM   10 CL   UNL     1      -9.238   6.388  69.194  1.00  0.00    -0.134 Cl 
BRANCH   5  11
HETATM   11  N   UNL     1     -10.156  11.006  65.537  1.00  0.00    -0.248 NA 
HETATM   12  H   UNL     1     -10.071  10.848  64.533  1.00  0.00     0.000 HD 
BRANCH  11  13
HETATM   13  C   UNL     1     -10.418  12.346  65.926  1.00  0.00    -0.256 A  
HETATM   14  C   UNL     1     -12.579  12.412  64.673  1.00  0.00    -0.375 C  
HETATM   15  C   UNL     1     -11.621  12.985  65.559  1.00  0.00    -0.382 A  
HETATM   16  C   UNL     1     -11.877  14.243  66.072  1.00  0.00    -0.391 A  
HETATM   17  N   UNL     1     -11.059  14.895  66.921  1.00  0.00    -0.332 NA 
HETATM   18  N   UNL     1     -13.397  11.971  63.977  1.00  0.00    -0.625 NA 
HETATM   19  C   UNL     1      -9.916  14.297  67.279  1.00  0.00    -0.252 A  
HETATM   20  C   UNL     1      -9.109  14.972  68.178  1.00  0.00    -0.178 A  
HETATM   21  C   UNL     1      -7.913  14.431  68.656  1.00  0.00    -0.145 A  
HETATM   22  C   UNL     1      -9.523  13.027  66.802  1.00  0.00    -0.250 A  
HETATM   23  C   UNL     1      -7.490  13.192  68.176  1.00  0.00    -0.131 A  
HETATM   24  C   UNL     1      -8.282  12.509  67.245  1.00  0.00    -0.184 A  
BRANCH  21  25
HETATM   25  O   UNL     1      -7.102  15.126  69.511  1.00  0.00    -0.168 OA 
BRANCH  25  26
HETATM   26  C   UNL     1      -6.280  16.124  68.891  1.00  0.00    -0.132 C  
BRANCH  26  27
HETATM   27  C   UNL     1      -6.618  17.452  69.552  1.00  0.00    -0.172 C  
BRANCH  27  28
HETATM   28  C   UNL     1      -6.426  18.646  68.616  1.00  0.00    -0.234 C  
BRANCH  28  29
HETATM   29  N   UNL     1      -7.541  19.609  68.605  1.00  0.00    -0.344 NA 
HETATM   30  C   UNL     1      -7.519  20.515  67.436  1.00  0.00    -0.331 C  
HETATM   31  C   UNL     1      -7.834  19.823  66.088  1.00  0.00    -0.335 C  
HETATM   32  N   UNL     1      -9.111  19.083  66.068  1.00  0.00    -0.457 NA 
HETATM   33  C   UNL     1      -9.200  18.208  67.257  1.00  0.00    -0.252 C  
HETATM   34  C   UNL     1     -10.249  19.999  66.000  1.00  0.00    -0.458 C  
HETATM   35  C   UNL     1      -8.839  18.888  68.603  1.00  0.00    -0.338 C  
ENDBRANCH  28  29
ENDBRANCH  27  28
ENDBRANCH  26  27
ENDBRANCH  25  26
ENDBRANCH  21  25
BRANCH  23  36
HETATM   36  O   UNL     1      -6.320  12.554  68.495  1.00  0.00    -0.062 OA 
HETATM   37  C   UNL     1      -5.500  12.196  67.387  1.00  0.00    -0.124 C  
ENDBRANCH  23  36
ENDBRANCH  11  13
ENDBRANCH   5  11
ENDBRANCH   2   3
TORSDOF 9
ENDMDL
MODEL       86
REMARK 921   NORMALIZED FREE ENERGY PREDICTED BY IDOCK:   -5.57 KCAL/MOL
REMARK 922        TOTAL FREE ENERGY PREDICTED BY IDOCK:   -9.84 KCAL/MOL
REMARK 923 INTER-LIGAND FREE ENERGY PREDICTED BY IDOCK:   -8.77 KCAL/MOL
REMARK 924 INTRA-LIGAND FREE ENERGY PREDICTED BY IDOCK:   -1.08 KCAL/MOL
REMARK 927      BINDING AFFINITY PREDICTED BY RF-SCORE:    0.00 PKD
ROOT
HETATM    1  C   UNL     1      -8.153   5.899  64.216  1.00  0.00    -0.119 C  
HETATM    2  O   UNL     1      -7.840   6.362  65.527  1.00  0.00    -0.091 OA 
ENDROOT
BRANCH   2   3
HETATM    3  C   UNL     1      -8.624   7.385  65.997  1.00  0.00    -0.151 A  
HETATM    4  C   UNL     1      -8.353   8.733  65.733  1.00  0.00    -0.139 A  
HETATM    5  C   UNL     1      -9.166   9.763  66.232  1.00  0.00    -0.164 A  
HETATM    6  C   UNL     1     -10.276   9.400  67.017  1.00  0.00    -0.255 A  
HETATM    7  C   UNL     1      -9.715   7.060  66.811  1.00  0.00    -0.184 A  
HETATM    8 CL   UNL     1     -11.342  10.610  67.645  1.00  0.00    -0.361 Cl 
HETATM    9  C   UNL     1     -10.548   8.062  67.310  1.00  0.00    -0.360 A  
HETATM   10 CL   UNL     1     -10.090   5.418  67.200  1.00  0.00    -0.200 Cl 
BRANCH   5  11
HETATM   11  N   UNL     1      -8.826  11.127  66.040  1.00  0.00    -0.188 NA 
HETATM   12  H   UNL     1      -7.896  11.399  66.355  1.00  0.00     0.000 HD 
BRANCH  11  13
HETATM   13  C   UNL     1      -9.607  12.166  65.469  1.00  0.00    -0.128 A  
HETATM   14  C   UNL     1      -9.969  10.889  63.351  1.00  0.00    -0.361 C  
HETATM   15  C   UNL     1     -10.207  12.008  64.202  1.00  0.00    -0.367 A  
HETATM   16  C   UNL     1     -11.058  13.000  63.752  1.00  0.00    -0.312 A  
HETATM   17  N   UNL     1     -11.372  14.105  64.457  1.00  0.00    -0.367 NA 
HETATM   18  N   UNL     1      -9.823   9.984  62.639  1.00  0.00     0.070 NA 
HETATM   19  C   UNL     1     -10.811  14.264  65.662  1.00  0.00    -0.309 A  
HETATM   20  C   UNL     1     -11.175  15.390  66.380  1.00  0.00    -0.164 A  
HETATM   21  C   UNL     1     -10.687  15.643  67.665  1.00  0.00    -0.302 A  
HETATM   22  C   UNL     1      -9.902  13.340  66.222  1.00  0.00    -0.288 A  
HETATM   23  C   UNL     1      -9.765  14.759  68.226  1.00  0.00    -0.218 A  
HETATM   24  C   UNL     1      -9.366  13.631  67.500  1.00  0.00    -0.223 A  
BRANCH  21  25
HETATM   25  O   UNL     1     -11.020  16.781  68.348  1.00  0.00    -0.355 OA 
BRANCH  25  26
HETATM   26  C   UNL     1     -10.725  18.006  67.664  1.00  0.00    -0.344 C  
BRANCH  26  27
HETATM   27  C   UNL     1      -9.855  18.836  68.596  1.00  0.00    -0.441 C  
BRANCH  27  28
HETATM   28  C   UNL     1      -8.386  18.409  68.575  1.00  0.00    -0.323 C  
BRANCH  28  29
HETATM   29  N   UNL     1      -7.434  19.486  68.257  1.00  0.00    -0.304 NA 
HETATM   30  C   UNL     1      -6.131  18.987  67.765  1.00  0.00    -0.205 C  
HETATM   31  C   UNL     1      -6.186  18.343  66.359  1.00  0.00    -0.181 C  
HETATM   32  N   UNL     1      -6.767  19.209  65.315  1.00  0.00    -0.445 NA 
HETATM   33  C   UNL     1      -8.045  19.780  65.792  1.00  0.00    -0.132 C  
HETATM   34  C   UNL     1      -5.832  20.264  64.926  1.00  0.00    -0.224 C  
HETATM   35  C   UNL     1      -8.003  20.384  67.221  1.00  0.00    -0.335 C  
ENDBRANCH  28  29
ENDBRANCH  27  28
ENDBRANCH  26  27
ENDBRANCH  25  26
ENDBRANCH  21  25
BRANCH  23  36
HETATM   36  O   UNL     1      -9.149  14.894  69.443  1.00  0.00    -0.147 OA 
HETATM   37  C   UNL     1      -7.727  14.965  69.399  1.00  0.00    -0.150 C  
ENDBRANCH  23  36
ENDBRANCH  11  13
ENDBRANCH   5  11
ENDBRANCH   2   3
TORSDOF 9
ENDMDL
MODEL       87
REMARK 921   NORMALIZED FREE ENERGY PREDICTED BY IDOCK:   -5.56 KCAL/MOL
REMARK 922        TOTAL FREE ENERGY PREDICTED BY IDOCK:   -9.83 KCAL/MOL
REMARK 923 INTER-LIGAND FREE ENERGY PREDICTED BY IDOCK:   -8.82 KCAL/MOL
REMARK 924 INTRA-LIGAND FREE ENERGY PREDICTED BY IDOCK:   -1.01 KCAL/MOL
REMARK 927      BINDING AFFINITY PREDICTED BY RF-SCORE:    0.00 PKD
ROOT
HETATM    1  C   UNL     1      -6.831  17.915  68.758  1.00  0.00    -0.255 C  
HETATM    2  O   UNL     1      -8.184  18.358  68.696  1.00  0.00    -0.317 OA 
ENDROOT
BRANCH   2   3
HETATM    3  C   UNL     1      -8.932  17.838  67.670  1.00  0.00    -0.249 A  
HETATM    4  C   UNL     1      -8.880  16.489  67.299  1.00  0.00    -0.206 A  
HETATM    5  C   UNL     1      -9.650  15.983  66.241  1.00  0.00    -0.307 A  
HETATM    6  C   UNL     1     -10.487  16.879  65.552  1.00  0.00    -0.204 A  
HETATM    7  C   UNL     1      -9.749  18.711  66.942  1.00  0.00    -0.314 A  
HETATM    8 CL   UNL     1     -11.489  16.326  64.254  1.00  0.00    -0.267 Cl 
HETATM    9  C   UNL     1     -10.535  18.233  65.894  1.00  0.00    -0.324 A  
HETATM   10 CL   UNL     1      -9.840  20.393  67.329  1.00  0.00    -0.592 Cl 
BRANCH   5  11
HETATM   11  N   UNL     1      -9.515  14.637  65.810  1.00  0.00    -0.518 NA 
HETATM   12  H   UNL     1      -9.155  14.511  64.865  1.00  0.00     0.000 HD 
BRANCH  11  13
HETATM   13  C   UNL     1      -9.814  13.443  66.518  1.00  0.00    -0.286 A  
HETATM   14  C   UNL     1     -12.188  13.436  65.738  1.00  0.00    -0.458 C  
HETATM   15  C   UNL     1     -11.085  12.841  66.417  1.00  0.00    -0.320 A  
HETATM   16  C   UNL     1     -11.279  11.615  67.025  1.00  0.00    -0.314 A  
HETATM   17  N   UNL     1     -10.321  10.943  67.695  1.00  0.00    -0.189 NA 
HETATM   18  N   UNL     1     -13.104  13.874  65.173  1.00  0.00    -0.764 NA 
HETATM   19  C   UNL     1      -9.110  11.503  67.793  1.00  0.00    -0.165 A  
HETATM   20  C   UNL     1      -8.135  10.778  68.456  1.00  0.00    -0.133 A  
HETATM   21  C   UNL     1      -6.823  11.241  68.587  1.00  0.00    -0.076 A  
HETATM   22  C   UNL     1      -8.792  12.764  67.243  1.00  0.00    -0.198 A  
HETATM   23  C   UNL     1      -6.494  12.498  68.078  1.00  0.00    -0.087 A  
HETATM   24  C   UNL     1      -7.477  13.255  67.430  1.00  0.00    -0.134 A  
BRANCH  21  25
HETATM   25  O   UNL     1      -5.879  10.536  69.282  1.00  0.00    -0.037 OA 
BRANCH  25  26
HETATM   26  C   UNL     1      -6.282  10.108  70.589  1.00  0.00    -0.103 C  
BRANCH  26  27
HETATM   27  C   UNL     1      -6.344   8.588  70.561  1.00  0.00    -0.036 C  
BRANCH  27  28
HETATM   28  C   UNL     1      -7.174   8.006  71.706  1.00  0.00    -0.077 C  
BRANCH  28  29
HETATM   29  N   UNL     1      -8.383   8.777  72.045  1.00  0.00    -0.368 NA 
HETATM   30  C   UNL     1      -9.378   8.814  70.951  1.00  0.00    -0.214 C  
HETATM   31  C   UNL     1     -10.071   7.459  70.675  1.00  0.00    -0.190 C  
HETATM   32  N   UNL     1     -10.715   6.853  71.857  1.00  0.00    -0.216 NA 
HETATM   33  C   UNL     1      -9.771   6.853  72.996  1.00  0.00    -0.166 C  
HETATM   34  C   UNL     1     -11.953   7.552  72.199  1.00  0.00    -0.285 C  
HETATM   35  C   UNL     1      -9.039   8.198  73.244  1.00  0.00    -0.257 C  
ENDBRANCH  28  29
ENDBRANCH  27  28
ENDBRANCH  26  27
ENDBRANCH  25  26
ENDBRANCH  21  25
BRANCH  23  36
HETATM   36  O   UNL     1      -5.277  13.120  68.176  1.00  0.00    -0.082 OA 
HETATM   37  C   UNL     1      -5.305  14.537  68.035  1.00  0.00    -0.108 C  
ENDBRANCH  23  36
ENDBRANCH  11  13
ENDBRANCH   5  11
ENDBRANCH   2   3
TORSDOF 9
ENDMDL
MODEL       88
REMARK 921   NORMALIZED FREE ENERGY PREDICTED BY IDOCK:   -5.56 KCAL/MOL
REMARK 922        TOTAL FREE ENERGY PREDICTED BY IDOCK:   -9.82 KCAL/MOL
REMARK 923 INTER-LIGAND FREE ENERGY PREDICTED BY IDOCK:   -8.40 KCAL/MOL
REMARK 924 INTRA-LIGAND FREE ENERGY PREDICTED BY IDOCK:   -1.43 KCAL/MOL
REMARK 927      BINDING AFFINITY PREDICTED BY RF-SCORE:    0.00 PKD
ROOT
HETATM    1  C   UNL     1     -13.062  12.049  71.835  1.00  0.00    -0.370 C  
HETATM    2  O   UNL     1     -12.538  13.357  71.621  1.00  0.00    -0.287 OA 
ENDROOT
BRANCH   2   3
HETATM    3  C   UNL     1     -12.229  13.667  70.320  1.00  0.00    -0.353 A  
HETATM    4  C   UNL     1     -12.326  12.741  69.274  1.00  0.00     0.064 A  
HETATM    5  C   UNL     1     -11.996  13.080  67.953  1.00  0.00    -0.291 A  
HETATM    6  C   UNL     1     -11.560  14.394  67.702  1.00  0.00    -0.370 A  
HETATM    7  C   UNL     1     -11.757  14.955  70.043  1.00  0.00    -0.294 A  
HETATM    8 CL   UNL     1     -11.162  14.897  66.095  1.00  0.00    -0.336 Cl 
HETATM    9  C   UNL     1     -11.435  15.324  68.737  1.00  0.00    -0.345 A  
HETATM   10 CL   UNL     1     -11.588  16.140  71.291  1.00  0.00    -0.485 Cl 
BRANCH   5  11
HETATM   11  N   UNL     1     -12.003  12.107  66.920  1.00  0.00    -0.609 NA 
HETATM   12  H   UNL     1     -12.922  11.760  66.647  1.00  0.00     0.000 HD 
BRANCH  11  13
HETATM   13  C   UNL     1     -10.904  11.552  66.213  1.00  0.00    -0.282 A  
HETATM   14  C   UNL     1     -11.747  12.383  64.013  1.00  0.00    -0.420 C  
HETATM   15  C   UNL     1     -10.759  11.753  64.825  1.00  0.00    -0.355 A  
HETATM   16  C   UNL     1      -9.606  11.298  64.214  1.00  0.00    -0.225 A  
HETATM   17  N   UNL     1      -8.594  10.690  64.864  1.00  0.00    -0.169 NA 
HETATM   18  N   UNL     1     -12.513  12.914  63.320  1.00  0.00    -0.690 NA 
HETATM   19  C   UNL     1      -8.719  10.497  66.183  1.00  0.00    -0.158 A  
HETATM   20  C   UNL     1      -7.652   9.902  66.834  1.00  0.00    -0.095 A  
HETATM   21  C   UNL     1      -7.650   9.686  68.215  1.00  0.00    -0.078 A  
HETATM   22  C   UNL     1      -9.859  10.887  66.920  1.00  0.00    -0.222 A  
HETATM   23  C   UNL     1      -8.777  10.036  68.957  1.00  0.00    -0.158 A  
HETATM   24  C   UNL     1      -9.875  10.614  68.308  1.00  0.00    -0.174 A  
BRANCH  21  25
HETATM   25  O   UNL     1      -6.608   9.057  68.841  1.00  0.00    -0.051 OA 
BRANCH  25  26
HETATM   26  C   UNL     1      -6.133   7.874  68.186  1.00  0.00    -0.042 C  
BRANCH  26  27
HETATM   27  C   UNL     1      -6.815   6.691  68.855  1.00  0.00    -0.062 C  
BRANCH  27  28
HETATM   28  C   UNL     1      -7.420   5.708  67.851  1.00  0.00    -0.077 C  
BRANCH  28  29
HETATM   29  N   UNL     1      -8.765   6.066  67.370  1.00  0.00    -0.106 NA 
HETATM   30  C   UNL     1      -8.818   6.308  65.911  1.00  0.00    -0.139 C  
HETATM   31  C   UNL     1      -8.625   5.038  65.048  1.00  0.00    -0.149 C  
HETATM   32  N   UNL     1      -9.560   3.940  65.363  1.00  0.00    -0.175 NA 
HETATM   33  C   UNL     1      -9.583   3.707  66.823  1.00  0.00    -0.149 C  
HETATM   34  C   UNL     1     -10.900   4.228  64.854  1.00  0.00    -0.076 C  
HETATM   35  C   UNL     1      -9.729   4.985  67.692  1.00  0.00    -0.154 C  
ENDBRANCH  28  29
ENDBRANCH  27  28
ENDBRANCH  26  27
ENDBRANCH  25  26
ENDBRANCH  21  25
BRANCH  23  36
HETATM   36  O   UNL     1      -8.958   9.837  70.301  1.00  0.00    -0.232 OA 
HETATM   37  C   UNL     1     -10.309   9.654  70.713  1.00  0.00    -0.286 C  
ENDBRANCH  23  36
ENDBRANCH  11  13
ENDBRANCH   5  11
ENDBRANCH   2   3
TORSDOF 9
ENDMDL
MODEL       89
REMARK 921   NORMALIZED FREE ENERGY PREDICTED BY IDOCK:   -5.55 KCAL/MOL
REMARK 922        TOTAL FREE ENERGY PREDICTED BY IDOCK:   -9.82 KCAL/MOL
REMARK 923 INTER-LIGAND FREE ENERGY PREDICTED BY IDOCK:   -8.52 KCAL/MOL
REMARK 924 INTRA-LIGAND FREE ENERGY PREDICTED BY IDOCK:   -1.29 KCAL/MOL
REMARK 927      BINDING AFFINITY PREDICTED BY RF-SCORE:    0.00 PKD
ROOT
HETATM    1  C   UNL     1      -6.999  16.744  68.834  1.00  0.00    -0.207 C  
HETATM    2  O   UNL     1      -8.268  17.373  68.674  1.00  0.00    -0.267 OA 
ENDROOT
BRANCH   2   3
HETATM    3  C   UNL     1      -9.173  16.693  67.898  1.00  0.00    -0.219 A  
HETATM    4  C   UNL     1     -10.253  15.981  68.435  1.00  0.00    -0.236 A  
HETATM    5  C   UNL     1     -11.161  15.287  67.621  1.00  0.00    -0.323 A  
HETATM    6  C   UNL     1     -10.955  15.326  66.230  1.00  0.00    -0.300 A  
HETATM    7  C   UNL     1      -8.977  16.682  66.512  1.00  0.00    -0.277 A  
HETATM    8 CL   UNL     1     -12.047  14.519  65.157  1.00  0.00    -0.381 Cl 
HETATM    9  C   UNL     1      -9.871  16.012  65.677  1.00  0.00    -0.309 A  
HETATM   10 CL   UNL     1      -7.649  17.517  65.784  1.00  0.00    -0.126 Cl 
BRANCH   5  11
HETATM   11  N   UNL     1     -12.191  14.489  68.181  1.00  0.00    -0.593 NA 
HETATM   12  H   UNL     1     -13.135  14.693  67.853  1.00  0.00     0.000 HD 
BRANCH  11  13
HETATM   13  C   UNL     1     -12.087  13.444  69.137  1.00  0.00    -0.261 A  
HETATM   14  C   UNL     1     -13.167  14.815  70.926  1.00  0.00    -0.356 C  
HETATM   15  C   UNL     1     -12.623  13.593  70.433  1.00  0.00    -0.297 A  
HETATM   16  C   UNL     1     -12.604  12.500  71.279  1.00  0.00    -0.231 A  
HETATM   17  N   UNL     1     -12.123  11.287  70.938  1.00  0.00    -0.336 NA 
HETATM   18  N   UNL     1     -13.642  15.782  71.358  1.00  0.00    -0.491 NA 
HETATM   19  C   UNL     1     -11.615  11.134  69.709  1.00  0.00    -0.334 A  
HETATM   20  C   UNL     1     -11.159   9.872  69.371  1.00  0.00    -0.237 A  
HETATM   21  C   UNL     1     -10.645   9.580  68.105  1.00  0.00    -0.217 A  
HETATM   22  C   UNL     1     -11.548  12.179  68.762  1.00  0.00    -0.380 A  
HETATM   23  C   UNL     1     -10.541  10.604  67.164  1.00  0.00    -0.260 A  
HETATM   24  C   UNL     1     -10.973  11.893  67.500  1.00  0.00    -0.299 A  
BRANCH  21  25
HETATM   25  O   UNL     1     -10.158   8.340  67.797  1.00  0.00    -0.182 OA 
BRANCH  25  26
HETATM   26  C   UNL     1     -10.740   7.259  68.537  1.00  0.00    -0.126 C  
BRANCH  26  27
HETATM   27  C   UNL     1      -9.592   6.395  69.040  1.00  0.00    -0.136 C  
BRANCH  27  28
HETATM   28  C   UNL     1      -8.857   7.018  70.227  1.00  0.00    -0.148 C  
BRANCH  28  29
HETATM   29  N   UNL     1      -7.391   7.075  70.084  1.00  0.00    -0.079 NA 
HETATM   30  C   UNL     1      -6.952   7.417  68.714  1.00  0.00    -0.078 C  
HETATM   31  C   UNL     1      -7.254   8.875  68.293  1.00  0.00    -0.079 C  
HETATM   32  N   UNL     1      -6.719   9.897  69.212  1.00  0.00    -0.052 NA 
HETATM   33  C   UNL     1      -7.085   9.559  70.605  1.00  0.00    -0.123 C  
HETATM   34  C   UNL     1      -5.269  10.030  69.066  1.00  0.00    -0.035 C  
HETATM   35  C   UNL     1      -6.826   8.085  71.014  1.00  0.00    -0.042 C  
ENDBRANCH  28  29
ENDBRANCH  27  28
ENDBRANCH  26  27
ENDBRANCH  25  26
ENDBRANCH  21  25
BRANCH  23  36
HETATM   36  O   UNL     1     -10.008  10.499  65.906  1.00  0.00    -0.229 OA 
HETATM   37  C   UNL     1     -10.224  11.623  65.057  1.00  0.00    -0.275 C  
ENDBRANCH  23  36
ENDBRANCH  11  13
ENDBRANCH   5  11
ENDBRANCH   2   3
TORSDOF 9
ENDMDL
MODEL       90
REMARK 921   NORMALIZED FREE ENERGY PREDICTED BY IDOCK:   -5.53 KCAL/MOL
REMARK 922        TOTAL FREE ENERGY PREDICTED BY IDOCK:   -9.78 KCAL/MOL
REMARK 923 INTER-LIGAND FREE ENERGY PREDICTED BY IDOCK:   -8.77 KCAL/MOL
REMARK 924 INTRA-LIGAND FREE ENERGY PREDICTED BY IDOCK:   -1.01 KCAL/MOL
REMARK 927      BINDING AFFINITY PREDICTED BY RF-SCORE:    0.00 PKD
ROOT
HETATM    1  C   UNL     1     -11.691  15.511  64.350  1.00  0.00    -0.242 C  
HETATM    2  O   UNL     1     -10.542  15.962  65.063  1.00  0.00    -0.497 OA 
ENDROOT
BRANCH   2   3
HETATM    3  C   UNL     1      -9.987  15.054  65.929  1.00  0.00    -0.326 A  
HETATM    4  C   UNL     1     -10.629  13.866  66.299  1.00  0.00    -0.289 A  
HETATM    5  C   UNL     1     -10.044  12.956  67.193  1.00  0.00    -0.243 A  
HETATM    6  C   UNL     1      -8.777  13.273  67.716  1.00  0.00    -0.194 A  
HETATM    7  C   UNL     1      -8.743  15.357  66.494  1.00  0.00    -0.300 A  
HETATM    8 CL   UNL     1      -7.976  12.189  68.801  1.00  0.00    -0.054 Cl 
HETATM    9  C   UNL     1      -8.131  14.465  67.375  1.00  0.00    -0.217 A  
HETATM   10 CL   UNL     1      -7.908  16.819  66.102  1.00  0.00    -0.331 Cl 
BRANCH   5  11
HETATM   11  N   UNL     1     -10.745  11.805  67.637  1.00  0.00    -0.206 NA 
HETATM   12  H   UNL     1     -10.921  11.095  66.927  1.00  0.00     0.000 HD 
BRANCH  11  13
HETATM   13  C   UNL     1     -11.234  11.508  68.936  1.00  0.00    -0.247 A  
HETATM   14  C   UNL     1     -12.054  13.842  69.289  1.00  0.00    -0.329 C  
HETATM   15  C   UNL     1     -11.922  12.480  69.691  1.00  0.00    -0.339 A  
HETATM   16  C   UNL     1     -12.485  12.098  70.894  1.00  0.00    -0.279 A  
HETATM   17  N   UNL     1     -12.438  10.845  71.387  1.00  0.00    -0.369 NA 
HETATM   18  N   UNL     1     -12.206  14.953  68.987  1.00  0.00    -0.193 NA 
HETATM   19  C   UNL     1     -11.791   9.913  70.678  1.00  0.00    -0.303 A  
HETATM   20  C   UNL     1     -11.785   8.626  71.189  1.00  0.00    -0.334 A  
HETATM   21  C   UNL     1     -11.176   7.562  70.518  1.00  0.00    -0.269 A  
HETATM   22  C   UNL     1     -11.147  10.181  69.449  1.00  0.00    -0.288 A  
HETATM   23  C   UNL     1     -10.509   7.810  69.318  1.00  0.00    -0.217 A  
HETATM   24  C   UNL     1     -10.483   9.111  68.803  1.00  0.00    -0.236 A  
BRANCH  21  25
HETATM   25  O   UNL     1     -11.140   6.303  71.053  1.00  0.00    -0.270 OA 
BRANCH  25  26
HETATM   26  C   UNL     1     -11.924   6.127  72.240  1.00  0.00    -0.232 C  
BRANCH  26  27
HETATM   27  C   UNL     1     -11.000   5.549  73.302  1.00  0.00    -0.339 C  
BRANCH  27  28
HETATM   28  C   UNL     1      -9.974   6.561  73.811  1.00  0.00    -0.254 C  
BRANCH  28  29
HETATM   29  N   UNL     1      -8.572   6.228  73.503  1.00  0.00    -0.124 NA 
HETATM   30  C   UNL     1      -8.132   6.724  72.180  1.00  0.00    -0.100 C  
HETATM   31  C   UNL     1      -8.000   8.263  72.089  1.00  0.00    -0.140 C  
HETATM   32  N   UNL     1      -7.123   8.860  73.116  1.00  0.00    -0.336 NA 
HETATM   33  C   UNL     1      -7.491   8.341  74.451  1.00  0.00    -0.212 C  
HETATM   34  C   UNL     1      -5.715   8.602  72.820  1.00  0.00    -0.078 C  
HETATM   35  C   UNL     1      -7.671   6.802  74.532  1.00  0.00    -0.116 C  
ENDBRANCH  28  29
ENDBRANCH  27  28
ENDBRANCH  26  27
ENDBRANCH  25  26
ENDBRANCH  21  25
BRANCH  23  36
HETATM   36  O   UNL     1      -9.814   6.893  68.572  1.00  0.00    -0.141 OA 
HETATM   37  C   UNL     1      -8.442   7.205  68.351  1.00  0.00    -0.124 C  
ENDBRANCH  23  36
ENDBRANCH  11  13
ENDBRANCH   5  11
ENDBRANCH   2   3
TORSDOF 9
ENDMDL
MODEL       91
REMARK 921   NORMALIZED FREE ENERGY PREDICTED BY IDOCK:   -5.52 KCAL/MOL
REMARK 922        TOTAL FREE ENERGY PREDICTED BY IDOCK:   -9.77 KCAL/MOL
REMARK 923 INTER-LIGAND FREE ENERGY PREDICTED BY IDOCK:   -8.56 KCAL/MOL
REMARK 924 INTRA-LIGAND FREE ENERGY PREDICTED BY IDOCK:   -1.21 KCAL/MOL
REMARK 927      BINDING AFFINITY PREDICTED BY RF-SCORE:    0.00 PKD
ROOT
HETATM    1  C   UNL     1     -11.454  16.005  64.456  1.00  0.00    -0.271 C  
HETATM    2  O   UNL     1     -11.134  17.391  64.539  1.00  0.00    -1.008 OA 
ENDROOT
BRANCH   2   3
HETATM    3  C   UNL     1     -10.578  17.802  65.724  1.00  0.00    -0.175 A  
HETATM    4  C   UNL     1     -10.118  16.907  66.698  1.00  0.00    -0.306 A  
HETATM    5  C   UNL     1      -9.560  17.352  67.907  1.00  0.00    -0.267 A  
HETATM    6  C   UNL     1      -9.473  18.740  68.117  1.00  0.00    -0.326 A  
HETATM    7  C   UNL     1     -10.509  19.176  65.979  1.00  0.00    -0.467 A  
HETATM    8 CL   UNL     1      -8.771  19.368  69.568  1.00  0.00     0.092 Cl 
HETATM    9  C   UNL     1      -9.947  19.647  67.165  1.00  0.00    -0.507 A  
HETATM   10 CL   UNL     1     -11.083  20.335  64.831  1.00  0.00     0.443 Cl 
BRANCH   5  11
HETATM   11  N   UNL     1      -9.189  16.438  68.927  1.00  0.00    -0.251 NA 
HETATM   12  H   UNL     1      -9.614  16.600  69.839  1.00  0.00     0.000 HD 
BRANCH  11  13
HETATM   13  C   UNL     1      -8.306  15.329  68.849  1.00  0.00    -0.196 A  
HETATM   14  C   UNL     1      -6.351  16.682  69.616  1.00  0.00    -0.217 C  
HETATM   15  C   UNL     1      -6.960  15.446  69.250  1.00  0.00    -0.168 A  
HETATM   16  C   UNL     1      -6.181  14.304  69.272  1.00  0.00    -0.108 A  
HETATM   17  N   UNL     1      -6.633  13.074  68.954  1.00  0.00    -0.090 NA 
HETATM   18  N   UNL     1      -5.823  17.662  69.947  1.00  0.00    -0.251 NA 
HETATM   19  C   UNL     1      -7.910  12.951  68.576  1.00  0.00    -0.099 A  
HETATM   20  C   UNL     1      -8.359  11.674  68.287  1.00  0.00    -0.159 A  
HETATM   21  C   UNL     1      -9.683  11.415  67.921  1.00  0.00    -0.180 A  
HETATM   22  C   UNL     1      -8.801  14.043  68.482  1.00  0.00    -0.160 A  
HETATM   23  C   UNL     1     -10.572  12.482  67.793  1.00  0.00    -0.219 A  
HETATM   24  C   UNL     1     -10.125  13.783  68.055  1.00  0.00    -0.245 A  
BRANCH  21  25
HETATM   25  O   UNL     1     -10.104  10.154  67.597  1.00  0.00    -0.173 OA 
BRANCH  25  26
HETATM   26  C   UNL     1     -10.187   9.241  68.699  1.00  0.00    -0.199 C  
BRANCH  26  27
HETATM   27  C   UNL     1     -10.407   7.854  68.111  1.00  0.00    -0.249 C  
BRANCH  27  28
HETATM   28  C   UNL     1      -9.809   6.742  68.974  1.00  0.00    -0.149 C  
BRANCH  28  29
HETATM   29  N   UNL     1     -10.796   5.822  69.566  1.00  0.00    -0.346 NA 
HETATM   30  C   UNL     1     -10.178   4.735  70.357  1.00  0.00    -0.191 C  
HETATM   31  C   UNL     1      -9.520   5.203  71.677  1.00  0.00    -0.150 C  
HETATM   32  N   UNL     1     -10.416   5.964  72.568  1.00  0.00    -0.197 NA 
HETATM   33  C   UNL     1     -11.102   7.025  71.801  1.00  0.00    -0.239 C  
HETATM   34  C   UNL     1     -11.380   5.081  73.224  1.00  0.00    -0.317 C  
HETATM   35  C   UNL     1     -11.723   6.567  70.454  1.00  0.00    -0.375 C  
ENDBRANCH  28  29
ENDBRANCH  27  28
ENDBRANCH  26  27
ENDBRANCH  25  26
ENDBRANCH  21  25
BRANCH  23  36
HETATM   36  O   UNL     1     -11.878  12.406  67.387  1.00  0.00    -0.441 OA 
HETATM   37  C   UNL     1     -12.119  12.795  66.039  1.00  0.00    -0.395 C  
ENDBRANCH  23  36
ENDBRANCH  11  13
ENDBRANCH   5  11
ENDBRANCH   2   3
TORSDOF 9
ENDMDL
MODEL       92
REMARK 921   NORMALIZED FREE ENERGY PREDICTED BY IDOCK:   -5.52 KCAL/MOL
REMARK 922        TOTAL FREE ENERGY PREDICTED BY IDOCK:   -9.76 KCAL/MOL
REMARK 923 INTER-LIGAND FREE ENERGY PREDICTED BY IDOCK:   -8.81 KCAL/MOL
REMARK 924 INTRA-LIGAND FREE ENERGY PREDICTED BY IDOCK:   -0.95 KCAL/MOL
REMARK 927      BINDING AFFINITY PREDICTED BY RF-SCORE:    0.00 PKD
ROOT
HETATM    1  C   UNL     1      -7.312  10.471  67.498  1.00  0.00    -0.092 C  
HETATM    2  O   UNL     1      -8.642  10.207  67.058  1.00  0.00    -0.128 OA 
ENDROOT
BRANCH   2   3
HETATM    3  C   UNL     1      -9.614  10.291  68.022  1.00  0.00    -0.145 A  
HETATM    4  C   UNL     1     -10.580  11.304  68.041  1.00  0.00    -0.230 A  
HETATM    5  C   UNL     1     -11.560  11.374  69.044  1.00  0.00    -0.317 A  
HETATM    6  C   UNL     1     -11.546  10.385  70.044  1.00  0.00    -0.301 A  
HETATM    7  C   UNL     1      -9.605   9.344  69.052  1.00  0.00    -0.164 A  
HETATM    8 CL   UNL     1     -12.738  10.385  71.298  1.00  0.00    -0.494 Cl 
HETATM    9  C   UNL     1     -10.575   9.380  70.054  1.00  0.00    -0.267 A  
HETATM   10 CL   UNL     1      -8.424   8.082  69.105  1.00  0.00    -0.135 Cl 
BRANCH   5  11
HETATM   11  N   UNL     1     -12.472  12.459  69.108  1.00  0.00     0.216 NA 
HETATM   12  H   UNL     1     -13.437  12.239  68.867  1.00  0.00     0.000 HD 
BRANCH  11  13
HETATM   13  C   UNL     1     -12.221  13.811  69.463  1.00  0.00    -0.293 A  
HETATM   14  C   UNL     1     -13.210  13.519  71.739  1.00  0.00    -0.404 C  
HETATM   15  C   UNL     1     -12.520  14.287  70.756  1.00  0.00    -0.428 A  
HETATM   16  C   UNL     1     -12.139  15.575  71.085  1.00  0.00    -0.380 A  
HETATM   17  N   UNL     1     -11.478  16.404  70.253  1.00  0.00    -0.222 NA 
HETATM   18  N   UNL     1     -13.746  12.919  72.577  1.00  0.00    -0.566 NA 
HETATM   19  C   UNL     1     -11.186  15.961  69.024  1.00  0.00    -0.327 A  
HETATM   20  C   UNL     1     -10.478  16.818  68.200  1.00  0.00    -0.332 A  
HETATM   21  C   UNL     1     -10.081  16.453  66.910  1.00  0.00    -0.281 A  
HETATM   22  C   UNL     1     -11.547  14.678  68.555  1.00  0.00    -0.346 A  
HETATM   23  C   UNL     1     -10.452  15.202  66.416  1.00  0.00    -0.297 A  
HETATM   24  C   UNL     1     -11.193  14.335  67.228  1.00  0.00    -0.330 A  
BRANCH  21  25
HETATM   25  O   UNL     1      -9.419  17.324  66.089  1.00  0.00    -0.390 OA 
BRANCH  25  26
HETATM   26  C   UNL     1      -8.011  17.085  65.962  1.00  0.00    -0.141 C  
BRANCH  26  27
HETATM   27  C   UNL     1      -7.355  17.608  67.231  1.00  0.00    -0.203 C  
BRANCH  27  28
HETATM   28  C   UNL     1      -6.505  16.552  67.939  1.00  0.00    -0.135 C  
BRANCH  28  29
HETATM   29  N   UNL     1      -7.208  15.292  68.237  1.00  0.00    -0.112 NA 
HETATM   30  C   UNL     1      -6.514  14.098  67.705  1.00  0.00    -0.168 C  
HETATM   31  C   UNL     1      -5.185  13.762  68.421  1.00  0.00    -0.100 C  
HETATM   32  N   UNL     1      -5.302  13.608  69.884  1.00  0.00    -0.089 NA 
HETATM   33  C   UNL     1      -6.045  14.755  70.449  1.00  0.00    -0.160 C  
HETATM   34  C   UNL     1      -5.946  12.341  70.229  1.00  0.00    -0.138 C  
HETATM   35  C   UNL     1      -7.356  15.123  69.704  1.00  0.00    -0.191 C  
ENDBRANCH  28  29
ENDBRANCH  27  28
ENDBRANCH  26  27
ENDBRANCH  25  26
ENDBRANCH  21  25
BRANCH  23  36
HETATM   36  O   UNL     1     -10.197  14.718  65.160  1.00  0.00    -0.381 OA 
HETATM   37  C   UNL     1     -10.330  13.307  65.013  1.00  0.00    -0.340 C  
ENDBRANCH  23  36
ENDBRANCH  11  13
ENDBRANCH   5  11
ENDBRANCH   2   3
TORSDOF 9
ENDMDL
MODEL       93
REMARK 921   NORMALIZED FREE ENERGY PREDICTED BY IDOCK:   -5.51 KCAL/MOL
REMARK 922        TOTAL FREE ENERGY PREDICTED BY IDOCK:   -9.76 KCAL/MOL
REMARK 923 INTER-LIGAND FREE ENERGY PREDICTED BY IDOCK:   -8.51 KCAL/MOL
REMARK 924 INTRA-LIGAND FREE ENERGY PREDICTED BY IDOCK:   -1.25 KCAL/MOL
REMARK 927      BINDING AFFINITY PREDICTED BY RF-SCORE:    0.00 PKD
ROOT
HETATM    1  C   UNL     1     -10.814   6.371  68.602  1.00  0.00    -0.314 C  
HETATM    2  O   UNL     1     -10.353   5.473  67.596  1.00  0.00    -0.191 OA 
ENDROOT
BRANCH   2   3
HETATM    3  C   UNL     1      -9.593   6.036  66.602  1.00  0.00    -0.154 A  
HETATM    4  C   UNL     1      -9.431   7.420  66.460  1.00  0.00    -0.229 A  
HETATM    5  C   UNL     1      -8.655   7.972  65.429  1.00  0.00    -0.114 A  
HETATM    6  C   UNL     1      -8.034   7.087  64.529  1.00  0.00    -0.104 A  
HETATM    7  C   UNL     1      -8.991   5.184  65.669  1.00  0.00    -0.154 A  
HETATM    8 CL   UNL     1      -7.037   7.688  63.250  1.00  0.00    -0.068 Cl 
HETATM    9  C   UNL     1      -8.203   5.704  64.642  1.00  0.00    -0.129 A  
HETATM   10 CL   UNL     1      -9.172   3.468  65.769  1.00  0.00    -0.155 Cl 
BRANCH   5  11
HETATM   11  N   UNL     1      -8.578   9.376  65.236  1.00  0.00    -0.151 NA 
HETATM   12  H   UNL     1      -8.790   9.704  64.294  1.00  0.00     0.000 HD 
BRANCH  11  13
HETATM   13  C   UNL     1      -8.247  10.386  66.177  1.00  0.00    -0.144 A  
HETATM   14  C   UNL     1      -5.982   9.418  66.595  1.00  0.00    -0.060 C  
HETATM   15  C   UNL     1      -6.969  10.432  66.770  1.00  0.00    -0.103 A  
HETATM   16  C   UNL     1      -6.661  11.509  67.581  1.00  0.00    -0.078 A  
HETATM   17  N   UNL     1      -7.499  12.535  67.826  1.00  0.00    -0.117 NA 
HETATM   18  N   UNL     1      -5.141   8.629  66.458  1.00  0.00    -0.033 NA 
HETATM   19  C   UNL     1      -8.714  12.504  67.265  1.00  0.00    -0.193 A  
HETATM   20  C   UNL     1      -9.544  13.585  67.505  1.00  0.00    -0.221 A  
HETATM   21  C   UNL     1     -10.819  13.685  66.941  1.00  0.00    -0.283 A  
HETATM   22  C   UNL     1      -9.162  11.447  66.443  1.00  0.00    -0.209 A  
HETATM   23  C   UNL     1     -11.293  12.638  66.150  1.00  0.00    -0.330 A  
HETATM   24  C   UNL     1     -10.475  11.525  65.921  1.00  0.00    -0.303 A  
BRANCH  21  25
HETATM   25  O   UNL     1     -11.647  14.737  67.220  1.00  0.00    -0.370 OA 
BRANCH  25  26
HETATM   26  C   UNL     1     -11.972  14.902  68.606  1.00  0.00    -0.241 C  
BRANCH  26  27
HETATM   27  C   UNL     1     -11.147  16.073  69.121  1.00  0.00    -0.317 C  
BRANCH  27  28
HETATM   28  C   UNL     1     -10.948  17.166  68.070  1.00  0.00    -0.229 C  
BRANCH  28  29
HETATM   29  N   UNL     1     -10.108  18.295  68.505  1.00  0.00    -0.388 NA 
HETATM   30  C   UNL     1      -8.658  18.006  68.431  1.00  0.00    -0.290 C  
HETATM   31  C   UNL     1      -8.106  17.884  66.992  1.00  0.00    -0.221 C  
HETATM   32  N   UNL     1      -8.382  19.053  66.133  1.00  0.00    -0.438 NA 
HETATM   33  C   UNL     1      -9.813  19.414  66.226  1.00  0.00    -0.403 C  
HETATM   34  C   UNL     1      -7.529  20.184  66.493  1.00  0.00    -0.277 C  
HETATM   35  C   UNL     1     -10.381  19.489  67.668  1.00  0.00    -0.451 C  
ENDBRANCH  28  29
ENDBRANCH  27  28
ENDBRANCH  26  27
ENDBRANCH  25  26
ENDBRANCH  21  25
BRANCH  23  36
HETATM   36  O   UNL     1     -12.535  12.553  65.576  1.00  0.00    -0.646 OA 
HETATM   37  C   UNL     1     -12.541  12.384  64.162  1.00  0.00    -0.403 C  
ENDBRANCH  23  36
ENDBRANCH  11  13
ENDBRANCH   5  11
ENDBRANCH   2   3
TORSDOF 9
ENDMDL
MODEL       94
REMARK 921   NORMALIZED FREE ENERGY PREDICTED BY IDOCK:   -5.48 KCAL/MOL
REMARK 922        TOTAL FREE ENERGY PREDICTED BY IDOCK:   -9.71 KCAL/MOL
REMARK 923 INTER-LIGAND FREE ENERGY PREDICTED BY IDOCK:   -8.23 KCAL/MOL
REMARK 924 INTRA-LIGAND FREE ENERGY PREDICTED BY IDOCK:   -1.48 KCAL/MOL
REMARK 927      BINDING AFFINITY PREDICTED BY RF-SCORE:    0.00 PKD
ROOT
HETATM    1  C   UNL     1      -9.645   3.739  70.412  1.00  0.00    -0.192 C  
HETATM    2  O   UNL     1      -9.380   4.573  71.537  1.00  0.00    -0.133 OA 
ENDROOT
BRANCH   2   3
HETATM    3  C   UNL     1      -9.835   5.864  71.438  1.00  0.00    -0.168 A  
HETATM    4  C   UNL     1      -9.105   6.882  70.813  1.00  0.00    -0.154 A  
HETATM    5  C   UNL     1      -9.589   8.197  70.732  1.00  0.00    -0.166 A  
HETATM    6  C   UNL     1     -10.846   8.469  71.303  1.00  0.00    -0.251 A  
HETATM    7  C   UNL     1     -11.066   6.176  72.027  1.00  0.00    -0.274 A  
HETATM    8 CL   UNL     1     -11.524  10.059  71.218  1.00  0.00    -0.428 Cl 
HETATM    9  C   UNL     1     -11.578   7.471  71.950  1.00  0.00    -0.312 A  
HETATM   10 CL   UNL     1     -12.007   4.973  72.838  1.00  0.00    -0.175 Cl 
BRANCH   5  11
HETATM   11  N   UNL     1      -8.798   9.240  70.185  1.00  0.00    -0.193 NA 
HETATM   12  H   UNL     1      -8.449   9.926  70.854  1.00  0.00     0.000 HD 
BRANCH  11  13
HETATM   13  C   UNL     1      -8.426   9.458  68.832  1.00  0.00    -0.122 A  
HETATM   14  C   UNL     1      -6.422   7.978  69.022  1.00  0.00    -0.040 C  
HETATM   15  C   UNL     1      -7.319   8.790  68.269  1.00  0.00    -0.087 A  
HETATM   16  C   UNL     1      -7.081   8.944  66.916  1.00  0.00    -0.082 A  
HETATM   17  N   UNL     1      -7.852   9.679  66.091  1.00  0.00    -0.101 NA 
HETATM   18  N   UNL     1      -5.682   7.288  69.593  1.00  0.00    -0.023 NA 
HETATM   19  C   UNL     1      -8.907  10.315  66.614  1.00  0.00    -0.136 A  
HETATM   20  C   UNL     1      -9.703  11.035  65.740  1.00  0.00    -0.268 A  
HETATM   21  C   UNL     1     -10.853  11.707  66.162  1.00  0.00    -0.294 A  
HETATM   22  C   UNL     1      -9.242  10.264  67.985  1.00  0.00    -0.138 A  
HETATM   23  C   UNL     1     -11.186  11.694  67.517  1.00  0.00    -0.293 A  
HETATM   24  C   UNL     1     -10.375  10.993  68.417  1.00  0.00    -0.200 A  
BRANCH  21  25
HETATM   25  O   UNL     1     -11.608  12.450  65.297  1.00  0.00    -0.344 OA 
BRANCH  25  26
HETATM   26  C   UNL     1     -10.918  13.543  64.676  1.00  0.00    -0.385 C  
BRANCH  26  27
HETATM   27  C   UNL     1     -11.393  14.816  65.361  1.00  0.00    -0.356 C  
BRANCH  27  28
HETATM   28  C   UNL     1     -10.407  15.327  66.412  1.00  0.00    -0.289 C  
BRANCH  28  29
HETATM   29  N   UNL     1     -10.833  16.550  67.114  1.00  0.00    -0.210 NA 
HETATM   30  C   UNL     1     -10.343  16.624  68.508  1.00  0.00    -0.303 C  
HETATM   31  C   UNL     1      -8.816  16.838  68.635  1.00  0.00    -0.255 C  
HETATM   32  N   UNL     1      -8.304  18.016  67.909  1.00  0.00    -0.243 NA 
HETATM   33  C   UNL     1      -8.823  18.014  66.524  1.00  0.00    -0.258 C  
HETATM   34  C   UNL     1      -8.656  19.256  68.601  1.00  0.00    -0.366 C  
HETATM   35  C   UNL     1     -10.346  17.752  66.392  1.00  0.00    -0.351 C  
ENDBRANCH  28  29
ENDBRANCH  27  28
ENDBRANCH  26  27
ENDBRANCH  25  26
ENDBRANCH  21  25
BRANCH  23  36
HETATM   36  O   UNL     1     -12.240  12.349  68.099  1.00  0.00    -0.314 OA 
HETATM   37  C   UNL     1     -11.905  13.172  69.212  1.00  0.00    -0.323 C  
ENDBRANCH  23  36
ENDBRANCH  11  13
ENDBRANCH   5  11
ENDBRANCH   2   3
TORSDOF 9
ENDMDL
MODEL       95
REMARK 921   NORMALIZED FREE ENERGY PREDICTED BY IDOCK:   -5.48 KCAL/MOL
REMARK 922        TOTAL FREE ENERGY PREDICTED BY IDOCK:   -9.71 KCAL/MOL
REMARK 923 INTER-LIGAND FREE ENERGY PREDICTED BY IDOCK:   -8.60 KCAL/MOL
REMARK 924 INTRA-LIGAND FREE ENERGY PREDICTED BY IDOCK:   -1.11 KCAL/MOL
REMARK 927      BINDING AFFINITY PREDICTED BY RF-SCORE:    0.00 PKD
ROOT
HETATM    1  C   UNL     1      -7.091  19.849  65.905  1.00  0.00    -0.298 C  
HETATM    2  O   UNL     1      -8.453  19.896  66.322  1.00  0.00    -0.348 OA 
ENDROOT
BRANCH   2   3
HETATM    3  C   UNL     1      -8.962  18.723  66.818  1.00  0.00    -0.308 A  
HETATM    4  C   UNL     1      -8.503  17.464  66.413  1.00  0.00    -0.292 A  
HETATM    5  C   UNL     1      -9.045  16.277  66.930  1.00  0.00    -0.220 A  
HETATM    6  C   UNL     1     -10.078  16.387  67.879  1.00  0.00    -0.250 A  
HETATM    7  C   UNL     1     -10.015  18.797  67.737  1.00  0.00    -0.350 A  
HETATM    8 CL   UNL     1     -10.779  14.971  68.584  1.00  0.00    -0.237 Cl 
HETATM    9  C   UNL     1     -10.564  17.635  68.277  1.00  0.00    -0.342 A  
HETATM   10 CL   UNL     1     -10.648  20.319  68.259  1.00  0.00    -0.304 Cl 
BRANCH   5  11
HETATM   11  N   UNL     1      -8.641  15.008  66.440  1.00  0.00    -0.453 NA 
HETATM   12  H   UNL     1      -8.689  14.890  65.428  1.00  0.00     0.000 HD 
BRANCH  11  13
HETATM   13  C   UNL     1      -8.179  13.880  67.168  1.00  0.00    -0.109 A  
HETATM   14  C   UNL     1      -6.549  15.247  68.479  1.00  0.00    -0.109 C  
HETATM   15  C   UNL     1      -7.221  14.023  68.193  1.00  0.00    -0.129 A  
HETATM   16  C   UNL     1      -6.902  12.912  68.951  1.00  0.00    -0.095 A  
HETATM   17  N   UNL     1      -7.465  11.698  68.788  1.00  0.00    -0.117 NA 
HETATM   18  N   UNL     1      -5.999  16.230  68.762  1.00  0.00    -0.113 NA 
HETATM   19  C   UNL     1      -8.378  11.551  67.820  1.00  0.00    -0.136 A  
HETATM   20  C   UNL     1      -8.965  10.305  67.695  1.00  0.00    -0.137 A  
HETATM   21  C   UNL     1      -9.960  10.042  66.748  1.00  0.00    -0.210 A  
HETATM   22  C   UNL     1      -8.769  12.599  66.958  1.00  0.00    -0.198 A  
HETATM   23  C   UNL     1     -10.340  11.054  65.866  1.00  0.00    -0.257 A  
HETATM   24  C   UNL     1      -9.734  12.312  65.963  1.00  0.00    -0.254 A  
BRANCH  21  25
HETATM   25  O   UNL     1     -10.502   8.795  66.605  1.00  0.00    -0.264 OA 
BRANCH  25  26
HETATM   26  C   UNL     1      -9.586   7.709  66.800  1.00  0.00    -0.209 C  
BRANCH  26  27
HETATM   27  C   UNL     1     -10.416   6.487  67.164  1.00  0.00    -0.354 C  
BRANCH  27  28
HETATM   28  C   UNL     1     -11.023   6.576  68.565  1.00  0.00    -0.286 C  
BRANCH  28  29
HETATM   29  N   UNL     1     -10.138   7.168  69.584  1.00  0.00    -0.188 NA 
HETATM   30  C   UNL     1     -10.749   8.316  70.290  1.00  0.00    -0.235 C  
HETATM   31  C   UNL     1     -11.917   7.937  71.231  1.00  0.00    -0.298 C  
HETATM   32  N   UNL     1     -11.581   6.910  72.235  1.00  0.00    -0.276 NA 
HETATM   33  C   UNL     1     -10.911   5.767  71.577  1.00  0.00    -0.253 C  
HETATM   34  C   UNL     1     -10.747   7.468  73.300  1.00  0.00    -0.382 C  
HETATM   35  C   UNL     1      -9.770   6.149  70.597  1.00  0.00    -0.174 C  
ENDBRANCH  28  29
ENDBRANCH  27  28
ENDBRANCH  26  27
ENDBRANCH  25  26
ENDBRANCH  21  25
BRANCH  23  36
HETATM   36  O   UNL     1     -11.250  10.943  64.848  1.00  0.00     0.020 OA 
HETATM   37  C   UNL     1     -10.916  11.646  63.655  1.00  0.00    -0.431 C  
ENDBRANCH  23  36
ENDBRANCH  11  13
ENDBRANCH   5  11
ENDBRANCH   2   3
TORSDOF 9
ENDMDL
MODEL       96
REMARK 921   NORMALIZED FREE ENERGY PREDICTED BY IDOCK:   -5.47 KCAL/MOL
REMARK 922        TOTAL FREE ENERGY PREDICTED BY IDOCK:   -9.69 KCAL/MOL
REMARK 923 INTER-LIGAND FREE ENERGY PREDICTED BY IDOCK:   -8.34 KCAL/MOL
REMARK 924 INTRA-LIGAND FREE ENERGY PREDICTED BY IDOCK:   -1.35 KCAL/MOL
REMARK 927      BINDING AFFINITY PREDICTED BY RF-SCORE:    0.00 PKD
ROOT
HETATM    1  C   UNL     1      -6.544  10.003  65.664  1.00  0.00    -0.104 C  
HETATM    2  O   UNL     1      -7.700   9.905  64.835  1.00  0.00    -0.122 OA 
ENDROOT
BRANCH   2   3
HETATM    3  C   UNL     1      -8.750  10.715  65.183  1.00  0.00    -0.186 A  
HETATM    4  C   UNL     1      -8.834  11.362  66.422  1.00  0.00    -0.193 A  
HETATM    5  C   UNL     1      -9.923  12.181  66.758  1.00  0.00    -0.203 A  
HETATM    6  C   UNL     1     -10.944  12.338  65.803  1.00  0.00    -0.301 A  
HETATM    7  C   UNL     1      -9.800  10.864  64.270  1.00  0.00    -0.310 A  
HETATM    8 CL   UNL     1     -12.306  13.354  66.131  1.00  0.00    -0.458 Cl 
HETATM    9  C   UNL     1     -10.889  11.682  64.571  1.00  0.00    -0.383 A  
HETATM   10 CL   UNL     1      -9.775  10.073  62.732  1.00  0.00    -0.123 Cl 
BRANCH   5  11
HETATM   11  N   UNL     1     -10.044  12.750  68.052  1.00  0.00    -0.224 NA 
HETATM   12  H   UNL     1      -9.443  13.552  68.240  1.00  0.00     0.000 HD 
BRANCH  11  13
HETATM   13  C   UNL     1     -10.891  12.356  69.121  1.00  0.00    -0.097 A  
HETATM   14  C   UNL     1     -11.821  14.659  69.390  1.00  0.00    -0.329 C  
HETATM   15  C   UNL     1     -11.789  13.270  69.709  1.00  0.00    -0.394 A  
HETATM   16  C   UNL     1     -12.676  12.799  70.658  1.00  0.00    -0.077 A  
HETATM   17  N   UNL     1     -12.754  11.511  71.047  1.00  0.00    -0.361 NA 
HETATM   18  N   UNL     1     -11.898  15.791  69.142  1.00  0.00    -0.386 NA 
HETATM   19  C   UNL     1     -11.909  10.633  70.494  1.00  0.00    -0.357 A  
HETATM   20  C   UNL     1     -12.031   9.311  70.885  1.00  0.00    -0.321 A  
HETATM   21  C   UNL     1     -11.232   8.299  70.347  1.00  0.00    -0.219 A  
HETATM   22  C   UNL     1     -10.935  10.992  69.536  1.00  0.00    -0.297 A  
HETATM   23  C   UNL     1     -10.244   8.635  69.421  1.00  0.00    -0.210 A  
HETATM   24  C   UNL     1     -10.090   9.973  69.037  1.00  0.00    -0.211 A  
BRANCH  21  25
HETATM   25  O   UNL     1     -11.333   7.003  70.772  1.00  0.00    -0.270 OA 
BRANCH  25  26
HETATM   26  C   UNL     1     -12.470   6.723  71.599  1.00  0.00    -0.351 C  
BRANCH  26  27
HETATM   27  C   UNL     1     -12.024   5.708  72.641  1.00  0.00    -0.120 C  
BRANCH  27  28
HETATM   28  C   UNL     1     -10.571   5.268  72.457  1.00  0.00    -0.224 C  
BRANCH  28  29
HETATM   29  N   UNL     1      -9.731   5.394  73.661  1.00  0.00    -0.142 NA 
HETATM   30  C   UNL     1      -8.283   5.290  73.374  1.00  0.00    -0.111 C  
HETATM   31  C   UNL     1      -7.700   6.491  72.593  1.00  0.00    -0.102 C  
HETATM   32  N   UNL     1      -7.948   7.804  73.221  1.00  0.00    -0.126 NA 
HETATM   33  C   UNL     1      -9.378   7.924  73.580  1.00  0.00    -0.268 C  
HETATM   34  C   UNL     1      -7.093   7.997  74.391  1.00  0.00    -0.153 C  
HETATM   35  C   UNL     1      -9.976   6.700  74.322  1.00  0.00    -0.345 C  
ENDBRANCH  28  29
ENDBRANCH  27  28
ENDBRANCH  26  27
ENDBRANCH  25  26
ENDBRANCH  21  25
BRANCH  23  36
HETATM   36  O   UNL     1      -9.343   7.777  68.848  1.00  0.00    -0.147 OA 
HETATM   37  C   UNL     1      -8.018   8.283  68.718  1.00  0.00    -0.114 C  
ENDBRANCH  23  36
ENDBRANCH  11  13
ENDBRANCH   5  11
ENDBRANCH   2   3
TORSDOF 9
ENDMDL
MODEL       97
REMARK 921   NORMALIZED FREE ENERGY PREDICTED BY IDOCK:   -5.47 KCAL/MOL
REMARK 922        TOTAL FREE ENERGY PREDICTED BY IDOCK:   -9.69 KCAL/MOL
REMARK 923 INTER-LIGAND FREE ENERGY PREDICTED BY IDOCK:   -8.00 KCAL/MOL
REMARK 924 INTRA-LIGAND FREE ENERGY PREDICTED BY IDOCK:   -1.69 KCAL/MOL
REMARK 927      BINDING AFFINITY PREDICTED BY RF-SCORE:    0.00 PKD
ROOT
HETATM    1  C   UNL     1      -5.360   9.315  70.935  1.00  0.00    -0.033 C  
HETATM    2  O   UNL     1      -5.475   8.140  70.137  1.00  0.00    -0.023 OA 
ENDROOT
BRANCH   2   3
HETATM    3  C   UNL     1      -6.659   7.457  70.254  1.00  0.00    -0.046 A  
HETATM    4  C   UNL     1      -7.845   7.880  69.641  1.00  0.00    -0.105 A  
HETATM    5  C   UNL     1      -9.046   7.169  69.783  1.00  0.00    -0.141 A  
HETATM    6  C   UNL     1      -9.028   6.001  70.567  1.00  0.00    -0.146 A  
HETATM    7  C   UNL     1      -6.683   6.311  71.056  1.00  0.00    -0.058 A  
HETATM    8 CL   UNL     1     -10.461   5.052  70.765  1.00  0.00    -0.269 Cl 
HETATM    9  C   UNL     1      -7.859   5.575  71.204  1.00  0.00    -0.109 A  
HETATM   10 CL   UNL     1      -5.262   5.746  71.863  1.00  0.00    -0.019 Cl 
BRANCH   5  11
HETATM   11  N   UNL     1     -10.262   7.660  69.240  1.00  0.00    -0.205 NA 
HETATM   12  H   UNL     1     -10.762   7.018  68.626  1.00  0.00     0.000 HD 
BRANCH  11  13
HETATM   13  C   UNL     1     -10.876   8.925  69.436  1.00  0.00    -0.119 A  
HETATM   14  C   UNL     1     -11.239   8.502  71.872  1.00  0.00    -0.327 C  
HETATM   15  C   UNL     1     -11.278   9.343  70.721  1.00  0.00    -0.367 A  
HETATM   16  C   UNL     1     -11.754  10.632  70.872  1.00  0.00    -0.289 A  
HETATM   17  N   UNL     1     -11.839  11.529  69.869  1.00  0.00    -0.328 NA 
HETATM   18  N   UNL     1     -11.200   7.860  72.839  1.00  0.00    -0.409 NA 
HETATM   19  C   UNL     1     -11.457  11.145  68.646  1.00  0.00    -0.298 A  
HETATM   20  C   UNL     1     -11.522  12.094  67.641  1.00  0.00    -0.399 A  
HETATM   21  C   UNL     1     -11.112  11.821  66.332  1.00  0.00    -0.307 A  
HETATM   22  C   UNL     1     -10.982   9.847  68.354  1.00  0.00    -0.235 A  
HETATM   23  C   UNL     1     -10.668  10.538  66.015  1.00  0.00    -0.016 A  
HETATM   24  C   UNL     1     -10.622   9.559  67.015  1.00  0.00    -0.271 A  
BRANCH  21  25
HETATM   25  O   UNL     1     -11.221  12.754  65.338  1.00  0.00    -0.281 OA 
BRANCH  25  26
HETATM   26  C   UNL     1     -12.405  13.560  65.390  1.00  0.00    -0.478 C  
BRANCH  26  27
HETATM   27  C   UNL     1     -12.006  14.966  64.965  1.00  0.00    -0.258 C  
BRANCH  27  28
HETATM   28  C   UNL     1     -10.544  15.288  65.279  1.00  0.00    -0.417 C  
BRANCH  28  29
HETATM   29  N   UNL     1     -10.344  16.453  66.159  1.00  0.00    -0.335 NA 
HETATM   30  C   UNL     1     -10.712  16.189  67.568  1.00  0.00    -0.304 C  
HETATM   31  C   UNL     1      -9.761  15.215  68.302  1.00  0.00    -0.219 C  
HETATM   32  N   UNL     1      -8.339  15.609  68.267  1.00  0.00    -0.151 NA 
HETATM   33  C   UNL     1      -7.946  15.941  66.881  1.00  0.00    -0.252 C  
HETATM   34  C   UNL     1      -8.081  16.729  69.171  1.00  0.00    -0.109 C  
HETATM   35  C   UNL     1      -8.924  16.881  66.127  1.00  0.00    -0.236 C  
ENDBRANCH  28  29
ENDBRANCH  27  28
ENDBRANCH  26  27
ENDBRANCH  25  26
ENDBRANCH  21  25
BRANCH  23  36
HETATM   36  O   UNL     1     -10.290  10.094  64.774  1.00  0.00    -0.221 OA 
HETATM   37  C   UNL     1      -8.992   9.511  64.707  1.00  0.00    -0.218 C  
ENDBRANCH  23  36
ENDBRANCH  11  13
ENDBRANCH   5  11
ENDBRANCH   2   3
TORSDOF 9
ENDMDL
MODEL       98
REMARK 921   NORMALIZED FREE ENERGY PREDICTED BY IDOCK:   -5.46 KCAL/MOL
REMARK 922        TOTAL FREE ENERGY PREDICTED BY IDOCK:   -9.68 KCAL/MOL
REMARK 923 INTER-LIGAND FREE ENERGY PREDICTED BY IDOCK:   -9.07 KCAL/MOL
REMARK 924 INTRA-LIGAND FREE ENERGY PREDICTED BY IDOCK:   -0.62 KCAL/MOL
REMARK 927      BINDING AFFINITY PREDICTED BY RF-SCORE:    0.00 PKD
ROOT
HETATM    1  C   UNL     1      -9.830   4.516  68.793  1.00  0.00    -0.110 C  
HETATM    2  O   UNL     1      -9.685   5.378  69.920  1.00  0.00    -0.158 OA 
ENDROOT
BRANCH   2   3
HETATM    3  C   UNL     1      -9.524   6.709  69.631  1.00  0.00    -0.142 A  
HETATM    4  C   UNL     1     -10.595   7.553  69.312  1.00  0.00    -0.215 A  
HETATM    5  C   UNL     1     -10.403   8.911  69.013  1.00  0.00    -0.212 A  
HETATM    6  C   UNL     1      -9.088   9.410  69.042  1.00  0.00    -0.142 A  
HETATM    7  C   UNL     1      -8.225   7.228  69.616  1.00  0.00    -0.131 A  
HETATM    8 CL   UNL     1      -8.773  11.079  68.714  1.00  0.00    -0.159 Cl 
HETATM    9  C   UNL     1      -8.005   8.577  69.336  1.00  0.00    -0.107 A  
HETATM   10 CL   UNL     1      -6.854   6.236  69.974  1.00  0.00    -0.056 Cl 
BRANCH   5  11
HETATM   11  N   UNL     1     -11.482   9.732  68.595  1.00  0.00    -0.488 NA 
HETATM   12  H   UNL     1     -12.054   9.358  67.839  1.00  0.00     0.000 HD 
BRANCH  11  13
HETATM   13  C   UNL     1     -11.874  11.005  69.088  1.00  0.00    -0.337 A  
HETATM   14  C   UNL     1     -12.403  10.095  71.354  1.00  0.00    -0.416 C  
HETATM   15  C   UNL     1     -12.248  11.176  70.437  1.00  0.00    -0.457 A  
HETATM   16  C   UNL     1     -12.497  12.457  70.890  1.00  0.00    -0.274 A  
HETATM   17  N   UNL     1     -12.385  13.564  70.130  1.00  0.00    -0.304 NA 
HETATM   18  N   UNL     1     -12.514   9.248  72.140  1.00  0.00    -0.367 NA 
HETATM   19  C   UNL     1     -12.026  13.415  68.849  1.00  0.00    -0.324 A  
HETATM   20  C   UNL     1     -11.884  14.569  68.098  1.00  0.00    -0.348 A  
HETATM   21  C   UNL     1     -11.476  14.542  66.762  1.00  0.00    -0.367 A  
HETATM   22  C   UNL     1     -11.774  12.158  68.256  1.00  0.00    -0.401 A  
HETATM   23  C   UNL     1     -11.250  13.310  66.147  1.00  0.00    -0.296 A  
HETATM   24  C   UNL     1     -11.416  12.133  66.886  1.00  0.00    -0.414 A  
BRANCH  21  25
HETATM   25  O   UNL     1     -11.381  15.686  66.018  1.00  0.00    -0.138 OA 
BRANCH  25  26
HETATM   26  C   UNL     1     -10.075  15.960  65.493  1.00  0.00    -0.320 C  
BRANCH  26  27
HETATM   27  C   UNL     1      -9.354  16.819  66.521  1.00  0.00    -0.288 C  
BRANCH  27  28
HETATM   28  C   UNL     1      -7.851  16.925  66.257  1.00  0.00    -0.311 C  
BRANCH  28  29
HETATM   29  N   UNL     1      -7.029  17.160  67.457  1.00  0.00    -0.146 NA 
HETATM   30  C   UNL     1      -7.767  16.945  68.721  1.00  0.00    -0.247 C  
HETATM   31  C   UNL     1      -8.124  15.467  69.006  1.00  0.00    -0.213 C  
HETATM   32  N   UNL     1      -6.969  14.547  68.989  1.00  0.00    -0.113 NA 
HETATM   33  C   UNL     1      -6.168  14.773  67.767  1.00  0.00    -0.139 C  
HETATM   34  C   UNL     1      -6.152  14.706  70.192  1.00  0.00    -0.158 C  
HETATM   35  C   UNL     1      -5.850  16.259  67.454  1.00  0.00    -0.150 C  
ENDBRANCH  28  29
ENDBRANCH  27  28
ENDBRANCH  26  27
ENDBRANCH  25  26
ENDBRANCH  21  25
BRANCH  23  36
HETATM   36  O   UNL     1     -10.906  13.109  64.836  1.00  0.00    -0.302 OA 
HETATM   37  C   UNL     1     -10.552  11.771  64.499  1.00  0.00    -0.313 C  
ENDBRANCH  23  36
ENDBRANCH  11  13
ENDBRANCH   5  11
ENDBRANCH   2   3
TORSDOF 9
ENDMDL
MODEL       99
REMARK 921   NORMALIZED FREE ENERGY PREDICTED BY IDOCK:   -5.45 KCAL/MOL
REMARK 922        TOTAL FREE ENERGY PREDICTED BY IDOCK:   -9.66 KCAL/MOL
REMARK 923 INTER-LIGAND FREE ENERGY PREDICTED BY IDOCK:   -8.47 KCAL/MOL
REMARK 924 INTRA-LIGAND FREE ENERGY PREDICTED BY IDOCK:   -1.19 KCAL/MOL
REMARK 927      BINDING AFFINITY PREDICTED BY RF-SCORE:    0.00 PKD
ROOT
HETATM    1  C   UNL     1     -11.843  15.309  70.223  1.00  0.00    -0.318 C  
HETATM    2  O   UNL     1     -12.013  14.990  68.844  1.00  0.00    -0.304 OA 
ENDROOT
BRANCH   2   3
HETATM    3  C   UNL     1     -11.745  13.690  68.498  1.00  0.00    -0.357 A  
HETATM    4  C   UNL     1     -11.297  12.735  69.418  1.00  0.00    -0.267 A  
HETATM    5  C   UNL     1     -11.022  11.412  69.038  1.00  0.00    -0.236 A  
HETATM    6  C   UNL     1     -11.212  11.066  67.687  1.00  0.00    -0.305 A  
HETATM    7  C   UNL     1     -11.890  13.322  67.155  1.00  0.00    -0.374 A  
HETATM    8 CL   UNL     1     -10.923   9.448  67.146  1.00  0.00    -0.124 Cl 
HETATM    9  C   UNL     1     -11.637  12.011  66.751  1.00  0.00    -0.391 A  
HETATM   10 CL   UNL     1     -12.413  14.458  65.961  1.00  0.00    -0.370 Cl 
BRANCH   5  11
HETATM   11  N   UNL     1     -10.474  10.480  69.957  1.00  0.00    -0.449 NA 
HETATM   12  H   UNL     1      -9.521  10.673  70.265  1.00  0.00     0.000 HD 
BRANCH  11  13
HETATM   13  C   UNL     1     -11.073   9.316  70.506  1.00  0.00    -0.265 A  
HETATM   14  C   UNL     1     -12.831  10.638  71.692  1.00  0.00    -0.465 C  
HETATM   15  C   UNL     1     -12.246   9.404  71.283  1.00  0.00    -0.425 A  
HETATM   16  C   UNL     1     -12.855   8.229  71.685  1.00  0.00    -0.329 A  
HETATM   17  N   UNL     1     -12.409   6.998  71.364  1.00  0.00    -0.359 NA 
HETATM   18  N   UNL     1     -13.353  11.620  72.025  1.00  0.00    -0.429 NA 
HETATM   19  C   UNL     1     -11.298   6.903  70.625  1.00  0.00    -0.320 A  
HETATM   20  C   UNL     1     -10.880   5.630  70.281  1.00  0.00    -0.336 A  
HETATM   21  C   UNL     1      -9.758   5.406  69.478  1.00  0.00    -0.176 A  
HETATM   22  C   UNL     1     -10.566   8.025  70.177  1.00  0.00    -0.237 A  
HETATM   23  C   UNL     1      -9.003   6.498  69.049  1.00  0.00    -0.129 A  
HETATM   24  C   UNL     1      -9.398   7.791  69.413  1.00  0.00    -0.152 A  
BRANCH  21  25
HETATM   25  O   UNL     1      -9.329   4.141  69.180  1.00  0.00    -0.138 OA 
BRANCH  25  26
HETATM   26  C   UNL     1      -9.565   3.165  70.203  1.00  0.00    -0.102 C  
BRANCH  26  27
HETATM   27  C   UNL     1      -8.324   3.136  71.084  1.00  0.00    -0.086 C  
BRANCH  27  28
HETATM   28  C   UNL     1      -8.636   3.397  72.558  1.00  0.00    -0.085 C  
BRANCH  28  29
HETATM   29  N   UNL     1      -7.564   4.079  73.304  1.00  0.00    -0.077 NA 
HETATM   30  C   UNL     1      -6.920   5.167  72.536  1.00  0.00    -0.084 C  
HETATM   31  C   UNL     1      -7.822   6.401  72.301  1.00  0.00    -0.102 C  
HETATM   32  N   UNL     1      -8.387   6.985  73.534  1.00  0.00    -0.114 NA 
HETATM   33  C   UNL     1      -8.989   5.919  74.362  1.00  0.00    -0.129 C  
HETATM   34  C   UNL     1      -7.369   7.723  74.281  1.00  0.00    -0.143 C  
HETATM   35  C   UNL     1      -8.104   4.660  74.559  1.00  0.00    -0.094 C  
ENDBRANCH  28  29
ENDBRANCH  27  28
ENDBRANCH  26  27
ENDBRANCH  25  26
ENDBRANCH  21  25
BRANCH  23  36
HETATM   36  O   UNL     1      -7.848   6.447  68.313  1.00  0.00    -0.102 OA 
HETATM   37  C   UNL     1      -7.282   7.711  67.983  1.00  0.00    -0.097 C  
ENDBRANCH  23  36
ENDBRANCH  11  13
ENDBRANCH   5  11
ENDBRANCH   2   3
TORSDOF 9
ENDMDL
MODEL      100
REMARK 921   NORMALIZED FREE ENERGY PREDICTED BY IDOCK:   -5.44 KCAL/MOL
REMARK 922        TOTAL FREE ENERGY PREDICTED BY IDOCK:   -9.65 KCAL/MOL
REMARK 923 INTER-LIGAND FREE ENERGY PREDICTED BY IDOCK:   -7.93 KCAL/MOL
REMARK 924 INTRA-LIGAND FREE ENERGY PREDICTED BY IDOCK:   -1.72 KCAL/MOL
REMARK 927      BINDING AFFINITY PREDICTED BY RF-SCORE:    0.00 PKD
ROOT
HETATM    1  C   UNL     1     -12.351  11.038  69.876  1.00  0.00    -0.288 C  
HETATM    2  O   UNL     1     -12.528  12.215  70.660  1.00  0.00    -0.316 OA 
ENDROOT
BRANCH   2   3
HETATM    3  C   UNL     1     -12.065  13.377  70.097  1.00  0.00    -0.344 A  
HETATM    4  C   UNL     1     -11.144  13.398  69.043  1.00  0.00    -0.293 A  
HETATM    5  C   UNL     1     -10.679  14.600  68.489  1.00  0.00    -0.247 A  
HETATM    6  C   UNL     1     -11.171  15.804  69.028  1.00  0.00    -0.319 A  
HETATM    7  C   UNL     1     -12.507  14.592  70.634  1.00  0.00    -0.343 A  
HETATM    8 CL   UNL     1     -10.669  17.327  68.380  1.00  0.00    -0.360 Cl 
HETATM    9  C   UNL     1     -12.073  15.803  70.095  1.00  0.00    -0.355 A  
HETATM   10 CL   UNL     1     -13.623  14.640  71.954  1.00  0.00    -0.438 Cl 
BRANCH   5  11
HETATM   11  N   UNL     1      -9.673  14.610  67.489  1.00  0.00    -0.209 NA 
HETATM   12  H   UNL     1      -9.894  15.139  66.646  1.00  0.00     0.000 HD 
BRANCH  11  13
HETATM   13  C   UNL     1      -8.398  13.984  67.504  1.00  0.00    -0.192 A  
HETATM   14  C   UNL     1      -7.361  15.858  68.790  1.00  0.00    -0.159 C  
HETATM   15  C   UNL     1      -7.314  14.565  68.193  1.00  0.00    -0.129 A  
HETATM   16  C   UNL     1      -6.134  13.850  68.279  1.00  0.00    -0.112 A  
HETATM   17  N   UNL     1      -5.957  12.617  67.763  1.00  0.00    -0.111 NA 
HETATM   18  N   UNL     1      -7.366  16.896  69.312  1.00  0.00    -0.206 NA 
HETATM   19  C   UNL     1      -6.981  12.055  67.110  1.00  0.00    -0.134 A  
HETATM   20  C   UNL     1      -6.785  10.776  66.619  1.00  0.00    -0.120 A  
HETATM   21  C   UNL     1      -7.793  10.071  65.955  1.00  0.00    -0.122 A  
HETATM   22  C   UNL     1      -8.227  12.692  66.925  1.00  0.00    -0.048 A  
HETATM   23  C   UNL     1      -9.023  10.692  65.735  1.00  0.00    -0.182 A  
HETATM   24  C   UNL     1      -9.226  11.997  66.202  1.00  0.00    -0.181 A  
BRANCH  21  25
HETATM   25  O   UNL     1      -7.575   8.824  65.436  1.00  0.00    -0.084 OA 
BRANCH  25  26
HETATM   26  C   UNL     1      -8.346   7.775  66.036  1.00  0.00    -0.133 C  
BRANCH  26  27
HETATM   27  C   UNL     1      -8.015   7.772  67.521  1.00  0.00    -0.123 C  
BRANCH  27  28
HETATM   28  C   UNL     1      -9.256   7.638  68.405  1.00  0.00    -0.140 C  
BRANCH  28  29
HETATM   29  N   UNL     1      -9.026   6.960  69.692  1.00  0.00    -0.144 NA 
HETATM   30  C   UNL     1      -8.428   7.843  70.718  1.00  0.00    -0.124 C  
HETATM   31  C   UNL     1      -9.378   8.948  71.238  1.00  0.00    -0.266 C  
HETATM   32  N   UNL     1     -10.666   8.450  71.759  1.00  0.00    -0.262 NA 
HETATM   33  C   UNL     1     -11.269   7.513  70.787  1.00  0.00    -0.270 C  
HETATM   34  C   UNL     1     -10.495   7.816  73.066  1.00  0.00    -0.369 C  
HETATM   35  C   UNL     1     -10.305   6.432  70.229  1.00  0.00    -0.205 C  
ENDBRANCH  28  29
ENDBRANCH  27  28
ENDBRANCH  26  27
ENDBRANCH  25  26
ENDBRANCH  21  25
BRANCH  23  36
HETATM   36  O   UNL     1     -10.088  10.165  65.053  1.00  0.00    -0.330 OA 
HETATM   37  C   UNL     1     -10.746  11.064  64.166  1.00  0.00    -0.274 C  
ENDBRANCH  23  36
ENDBRANCH  11  13
ENDBRANCH   5  11
ENDBRANCH   2   3
TORSDOF 9
ENDMDL
MODEL      101
REMARK 921   NORMALIZED FREE ENERGY PREDICTED BY IDOCK:   -5.44 KCAL/MOL
REMARK 922        TOTAL FREE ENERGY PREDICTED BY IDOCK:   -9.64 KCAL/MOL
REMARK 923 INTER-LIGAND FREE ENERGY PREDICTED BY IDOCK:   -8.75 KCAL/MOL
REMARK 924 INTRA-LIGAND FREE ENERGY PREDICTED BY IDOCK:   -0.89 KCAL/MOL
REMARK 927      BINDING AFFINITY PREDICTED BY RF-SCORE:    0.00 PKD
ROOT
HETATM    1  C   UNL     1     -11.897  15.933  64.119  1.00  0.00     0.028 C  
HETATM    2  O   UNL     1     -10.695  16.241  64.819  1.00  0.00    -0.680 OA 
ENDROOT
BRANCH   2   3
HETATM    3  C   UNL     1     -10.247  15.273  65.683  1.00  0.00    -0.372 A  
HETATM    4  C   UNL     1     -10.974  14.111  65.965  1.00  0.00    -0.304 A  
HETATM    5  C   UNL     1     -10.499  13.139  66.859  1.00  0.00    -0.256 A  
HETATM    6  C   UNL     1      -9.254  13.366  67.473  1.00  0.00    -0.219 A  
HETATM    7  C   UNL     1      -9.029  15.486  66.338  1.00  0.00    -0.324 A  
HETATM    8 CL   UNL     1      -8.585  12.201  68.564  1.00  0.00    -0.124 Cl 
HETATM    9  C   UNL     1      -8.525  14.531  67.220  1.00  0.00    -0.234 A  
HETATM   10 CL   UNL     1      -8.092  16.912  66.056  1.00  0.00    -0.278 Cl 
BRANCH   5  11
HETATM   11  N   UNL     1     -11.288  12.014  67.212  1.00  0.00    -0.310 NA 
HETATM   12  H   UNL     1     -12.276  12.203  67.379  1.00  0.00     0.000 HD 
BRANCH  11  13
HETATM   13  C   UNL     1     -10.889  10.660  67.365  1.00  0.00    -0.296 A  
HETATM   14  C   UNL     1      -9.947  10.554  65.053  1.00  0.00    -0.322 C  
HETATM   15  C   UNL     1     -10.184   9.993  66.342  1.00  0.00    -0.290 A  
HETATM   16  C   UNL     1      -9.711   8.719  66.595  1.00  0.00    -0.242 A  
HETATM   17  N   UNL     1      -9.863   8.076  67.770  1.00  0.00    -0.157 NA 
HETATM   18  N   UNL     1      -9.710  10.983  64.000  1.00  0.00    -0.262 NA 
HETATM   19  C   UNL     1     -10.527   8.700  68.749  1.00  0.00    -0.185 A  
HETATM   20  C   UNL     1     -10.640   8.033  69.956  1.00  0.00    -0.242 A  
HETATM   21  C   UNL     1     -11.277   8.600  71.064  1.00  0.00    -0.271 A  
HETATM   22  C   UNL     1     -11.086   9.990  68.608  1.00  0.00    -0.223 A  
HETATM   23  C   UNL     1     -11.862   9.860  70.938  1.00  0.00    -0.356 A  
HETATM   24  C   UNL     1     -11.780  10.536  69.714  1.00  0.00    -0.354 A  
BRANCH  21  25
HETATM   25  O   UNL     1     -11.420   7.913  72.239  1.00  0.00    -0.299 OA 
BRANCH  25  26
HETATM   26  C   UNL     1     -11.705   6.516  72.093  1.00  0.00    -0.311 C  
BRANCH  26  27
HETATM   27  C   UNL     1     -10.466   5.760  72.549  1.00  0.00    -0.246 C  
BRANCH  27  28
HETATM   28  C   UNL     1     -10.242   4.463  71.770  1.00  0.00    -0.131 C  
BRANCH  28  29
HETATM   29  N   UNL     1      -8.879   4.289  71.238  1.00  0.00    -0.108 NA 
HETATM   30  C   UNL     1      -8.518   2.872  71.011  1.00  0.00    -0.062 C  
HETATM   31  C   UNL     1      -9.278   2.201  69.843  1.00  0.00    -0.112 C  
HETATM   32  N   UNL     1      -9.167   2.913  68.555  1.00  0.00    -0.166 NA 
HETATM   33  C   UNL     1      -9.461   4.349  68.750  1.00  0.00    -0.162 C  
HETATM   34  C   UNL     1      -7.844   2.722  67.960  1.00  0.00    -0.059 C  
HETATM   35  C   UNL     1      -8.735   5.012  69.950  1.00  0.00    -0.101 C  
ENDBRANCH  28  29
ENDBRANCH  27  28
ENDBRANCH  26  27
ENDBRANCH  25  26
ENDBRANCH  21  25
BRANCH  23  36
HETATM   36  O   UNL     1     -12.570  10.526  71.903  1.00  0.00    -0.381 OA 
HETATM   37  C   UNL     1     -13.004  11.834  71.545  1.00  0.00    -0.341 C  
ENDBRANCH  23  36
ENDBRANCH  11  13
ENDBRANCH   5  11
ENDBRANCH   2   3
TORSDOF 9
ENDMDL
MODEL      102
REMARK 921   NORMALIZED FREE ENERGY PREDICTED BY IDOCK:   -5.42 KCAL/MOL
REMARK 922        TOTAL FREE ENERGY PREDICTED BY IDOCK:   -9.61 KCAL/MOL
REMARK 923 INTER-LIGAND FREE ENERGY PREDICTED BY IDOCK:   -8.73 KCAL/MOL
REMARK 924 INTRA-LIGAND FREE ENERGY PREDICTED BY IDOCK:   -0.88 KCAL/MOL
REMARK 927      BINDING AFFINITY PREDICTED BY RF-SCORE:    0.00 PKD
ROOT
HETATM    1  C   UNL     1     -11.656  16.043  64.326  1.00  0.00    -0.138 C  
HETATM    2  O   UNL     1     -10.481  16.411  65.044  1.00  0.00    -0.642 OA 
ENDROOT
BRANCH   2   3
HETATM    3  C   UNL     1      -9.960  15.443  65.866  1.00  0.00    -0.346 A  
HETATM    4  C   UNL     1     -10.669  14.290  66.226  1.00  0.00    -0.297 A  
HETATM    5  C   UNL     1     -10.117  13.318  67.075  1.00  0.00    -0.242 A  
HETATM    6  C   UNL     1      -8.815  13.535  67.562  1.00  0.00    -0.209 A  
HETATM    7  C   UNL     1      -8.681  15.645  66.395  1.00  0.00    -0.318 A  
HETATM    8 CL   UNL     1      -8.055  12.369  68.590  1.00  0.00    -0.075 Cl 
HETATM    9  C   UNL     1      -8.102  14.690  67.231  1.00  0.00    -0.230 A  
HETATM   10 CL   UNL     1      -7.762  17.059  66.013  1.00  0.00    -0.279 Cl 
BRANCH   5  11
HETATM   11  N   UNL     1     -10.880  12.204  67.513  1.00  0.00    -0.234 NA 
HETATM   12  H   UNL     1     -11.170  11.554  66.783  1.00  0.00     0.000 HD 
BRANCH  11  13
HETATM   13  C   UNL     1     -11.294  11.871  68.830  1.00  0.00    -0.274 A  
HETATM   14  C   UNL     1     -12.001  14.216  69.325  1.00  0.00    -0.340 C  
HETATM   15  C   UNL     1     -11.894  12.835  69.665  1.00  0.00    -0.384 A  
HETATM   16  C   UNL     1     -12.391  12.424  70.888  1.00  0.00    -0.262 A  
HETATM   17  N   UNL     1     -12.358  11.151  71.328  1.00  0.00    -0.331 NA 
HETATM   18  N   UNL     1     -12.132  15.343  69.077  1.00  0.00    -0.277 NA 
HETATM   19  C   UNL     1     -11.794  10.227  70.542  1.00  0.00    -0.329 A  
HETATM   20  C   UNL     1     -11.802   8.922  71.002  1.00  0.00    -0.324 A  
HETATM   21  C   UNL     1     -11.279   7.865  70.252  1.00  0.00    -0.200 A  
HETATM   22  C   UNL     1     -11.222  10.522  69.285  1.00  0.00    -0.320 A  
HETATM   23  C   UNL     1     -10.683   8.138  69.021  1.00  0.00    -0.080 A  
HETATM   24  C   UNL     1     -10.642   9.457  68.555  1.00  0.00    -0.234 A  
BRANCH  21  25
HETATM   25  O   UNL     1     -11.254   6.585  70.736  1.00  0.00    -0.280 OA 
BRANCH  25  26
HETATM   26  C   UNL     1     -11.979   6.385  71.956  1.00  0.00    -0.326 C  
BRANCH  26  27
HETATM   27  C   UNL     1     -11.217   5.340  72.759  1.00  0.00    -0.347 C  
BRANCH  27  28
HETATM   28  C   UNL     1      -9.702   5.435  72.570  1.00  0.00    -0.152 C  
BRANCH  28  29
HETATM   29  N   UNL     1      -9.032   4.150  72.302  1.00  0.00    -0.113 NA 
HETATM   30  C   UNL     1      -9.702   3.351  71.253  1.00  0.00    -0.157 C  
HETATM   31  C   UNL     1      -9.584   3.942  69.829  1.00  0.00    -0.201 C  
HETATM   32  N   UNL     1      -8.199   4.202  69.390  1.00  0.00    -0.059 NA 
HETATM   33  C   UNL     1      -7.474   4.948  70.440  1.00  0.00    -0.058 C  
HETATM   34  C   UNL     1      -7.510   2.955  69.058  1.00  0.00    -0.048 C  
HETATM   35  C   UNL     1      -7.630   4.383  71.877  1.00  0.00    -0.075 C  
ENDBRANCH  28  29
ENDBRANCH  27  28
ENDBRANCH  26  27
ENDBRANCH  25  26
ENDBRANCH  21  25
BRANCH  23  36
HETATM   36  O   UNL     1     -10.073   7.229  68.195  1.00  0.00    -0.160 OA 
HETATM   37  C   UNL     1     -10.922   6.623  67.226  1.00  0.00    -0.385 C  
ENDBRANCH  23  36
ENDBRANCH  11  13
ENDBRANCH   5  11
ENDBRANCH   2   3
TORSDOF 9
ENDMDL
MODEL      103
REMARK 921   NORMALIZED FREE ENERGY PREDICTED BY IDOCK:   -5.41 KCAL/MOL
REMARK 922        TOTAL FREE ENERGY PREDICTED BY IDOCK:   -9.59 KCAL/MOL
REMARK 923 INTER-LIGAND FREE ENERGY PREDICTED BY IDOCK:   -7.91 KCAL/MOL
REMARK 924 INTRA-LIGAND FREE ENERGY PREDICTED BY IDOCK:   -1.68 KCAL/MOL
REMARK 927      BINDING AFFINITY PREDICTED BY RF-SCORE:    0.00 PKD
ROOT
HETATM    1  C   UNL     1     -11.018   6.074  68.943  1.00  0.00    -0.325 C  
HETATM    2  O   UNL     1     -10.131   5.221  68.225  1.00  0.00    -0.165 OA 
ENDROOT
BRANCH   2   3
HETATM    3  C   UNL     1      -9.458   5.807  67.183  1.00  0.00    -0.117 A  
HETATM    4  C   UNL     1      -9.243   7.188  67.096  1.00  0.00    -0.153 A  
HETATM    5  C   UNL     1      -8.559   7.764  66.015  1.00  0.00    -0.151 A  
HETATM    6  C   UNL     1      -8.087   6.906  65.005  1.00  0.00    -0.117 A  
HETATM    7  C   UNL     1      -9.007   4.984  66.144  1.00  0.00    -0.131 A  
HETATM    8 CL   UNL     1      -7.208   7.536  63.655  1.00  0.00    -0.074 Cl 
HETATM    9  C   UNL     1      -8.311   5.528  65.064  1.00  0.00    -0.146 A  
HETATM   10 CL   UNL     1      -9.261   3.274  66.173  1.00  0.00    -0.162 Cl 
BRANCH   5  11
HETATM   11  N   UNL     1      -8.434   9.172  65.889  1.00  0.00    -0.135 NA 
HETATM   12  H   UNL     1      -7.483   9.522  65.780  1.00  0.00     0.000 HD 
BRANCH  11  13
HETATM   13  C   UNL     1      -9.455  10.159  65.894  1.00  0.00    -0.196 A  
HETATM   14  C   UNL     1      -9.492  10.301  63.399  1.00  0.00    -0.295 C  
HETATM   15  C   UNL     1     -10.001  10.642  64.687  1.00  0.00    -0.401 A  
HETATM   16  C   UNL     1     -11.077  11.507  64.755  1.00  0.00    -0.233 A  
HETATM   17  N   UNL     1     -11.656  11.906  65.904  1.00  0.00    -0.402 NA 
HETATM   18  N   UNL     1      -9.126  10.029  62.332  1.00  0.00    -0.272 NA 
HETATM   19  C   UNL     1     -11.148  11.451  67.056  1.00  0.00    -0.303 A  
HETATM   20  C   UNL     1     -11.781  11.848  68.221  1.00  0.00    -0.385 A  
HETATM   21  C   UNL     1     -11.367  11.406  69.481  1.00  0.00    -0.289 A  
HETATM   22  C   UNL     1     -10.032  10.588  67.125  1.00  0.00    -0.234 A  
HETATM   23  C   UNL     1     -10.249  10.577  69.574  1.00  0.00    -0.200 A  
HETATM   24  C   UNL     1      -9.582  10.189  68.406  1.00  0.00    -0.150 A  
BRANCH  21  25
HETATM   25  O   UNL     1     -11.973  11.839  70.628  1.00  0.00    -0.350 OA 
BRANCH  25  26
HETATM   26  C   UNL     1     -12.720  13.056  70.497  1.00  0.00    -0.039 C  
BRANCH  26  27
HETATM   27  C   UNL     1     -11.811  14.188  70.951  1.00  0.00    -0.294 C  
BRANCH  27  28
HETATM   28  C   UNL     1     -11.637  15.273  69.888  1.00  0.00    -0.311 C  
BRANCH  28  29
HETATM   29  N   UNL     1     -10.246  15.708  69.673  1.00  0.00    -0.275 NA 
HETATM   30  C   UNL     1      -9.507  14.851  68.720  1.00  0.00    -0.214 C  
HETATM   31  C   UNL     1      -9.986  14.969  67.254  1.00  0.00    -0.233 C  
HETATM   32  N   UNL     1      -9.987  16.346  66.722  1.00  0.00    -0.261 NA 
HETATM   33  C   UNL     1     -10.665  17.249  67.677  1.00  0.00    -0.307 C  
HETATM   34  C   UNL     1      -8.627  16.802  66.440  1.00  0.00    -0.303 C  
HETATM   35  C   UNL     1     -10.219  17.099  69.156  1.00  0.00    -0.284 C  
ENDBRANCH  28  29
ENDBRANCH  27  28
ENDBRANCH  26  27
ENDBRANCH  25  26
ENDBRANCH  21  25
BRANCH  23  36
HETATM   36  O   UNL     1      -9.681  10.107  70.730  1.00  0.00     0.199 OA 
HETATM   37  C   UNL     1      -9.008   8.858  70.613  1.00  0.00    -0.199 C  
ENDBRANCH  23  36
ENDBRANCH  11  13
ENDBRANCH   5  11
ENDBRANCH   2   3
TORSDOF 9
ENDMDL
MODEL      104
REMARK 921   NORMALIZED FREE ENERGY PREDICTED BY IDOCK:   -5.39 KCAL/MOL
REMARK 922        TOTAL FREE ENERGY PREDICTED BY IDOCK:   -9.57 KCAL/MOL
REMARK 923 INTER-LIGAND FREE ENERGY PREDICTED BY IDOCK:   -8.39 KCAL/MOL
REMARK 924 INTRA-LIGAND FREE ENERGY PREDICTED BY IDOCK:   -1.19 KCAL/MOL
REMARK 927      BINDING AFFINITY PREDICTED BY RF-SCORE:    0.00 PKD
ROOT
HETATM    1  C   UNL     1      -6.464   9.524  66.895  1.00  0.00    -0.067 C  
HETATM    2  O   UNL     1      -6.965  10.071  65.678  1.00  0.00    -0.101 OA 
ENDROOT
BRANCH   2   3
HETATM    3  C   UNL     1      -8.151  10.754  65.779  1.00  0.00    -0.135 A  
HETATM    4  C   UNL     1      -8.410  11.681  66.797  1.00  0.00    -0.171 A  
HETATM    5  C   UNL     1      -9.634  12.361  66.883  1.00  0.00    -0.219 A  
HETATM    6  C   UNL     1     -10.609  12.085  65.907  1.00  0.00    -0.265 A  
HETATM    7  C   UNL     1      -9.154  10.476  64.844  1.00  0.00    -0.205 A  
HETATM    8 CL   UNL     1     -12.133  12.905  65.928  1.00  0.00    -0.500 Cl 
HETATM    9  C   UNL     1     -10.376  11.148  64.898  1.00  0.00    -0.375 A  
HETATM   10 CL   UNL     1      -8.911   9.324  63.578  1.00  0.00    -0.194 Cl 
BRANCH   5  11
HETATM   11  N   UNL     1      -9.923  13.222  67.974  1.00  0.00    -0.227 NA 
HETATM   12  H   UNL     1      -9.402  14.098  67.994  1.00  0.00     0.000 HD 
BRANCH  11  13
HETATM   13  C   UNL     1     -10.839  13.029  69.041  1.00  0.00    -0.155 A  
HETATM   14  C   UNL     1     -11.509  15.436  69.057  1.00  0.00    -0.337 C  
HETATM   15  C   UNL     1     -11.644  14.090  69.505  1.00  0.00    -0.350 A  
HETATM   16  C   UNL     1     -12.606  13.813  70.459  1.00  0.00    -0.291 A  
HETATM   17  N   UNL     1     -12.840  12.586  70.963  1.00  0.00    -0.223 NA 
HETATM   18  N   UNL     1     -11.450  16.540  68.700  1.00  0.00    -0.248 NA 
HETATM   19  C   UNL     1     -12.084  11.571  70.528  1.00  0.00    -0.378 A  
HETATM   20  C   UNL     1     -12.366  10.315  71.036  1.00  0.00    -0.483 A  
HETATM   21  C   UNL     1     -11.671   9.173  70.627  1.00  0.00    -0.209 A  
HETATM   22  C   UNL     1     -11.049  11.726  69.580  1.00  0.00    -0.199 A  
HETATM   23  C   UNL     1     -10.625   9.307  69.713  1.00  0.00    -0.231 A  
HETATM   24  C   UNL     1     -10.310  10.576  69.212  1.00  0.00    -0.248 A  
BRANCH  21  25
HETATM   25  O   UNL     1     -11.930   7.943  71.168  1.00  0.00    -0.296 OA 
BRANCH  25  26
HETATM   26  C   UNL     1     -11.903   7.894  72.600  1.00  0.00    -0.297 C  
BRANCH  26  27
HETATM   27  C   UNL     1     -10.446   7.750  73.013  1.00  0.00    -0.432 C  
BRANCH  27  28
HETATM   28  C   UNL     1     -10.120   6.363  73.568  1.00  0.00    -0.226 C  
BRANCH  28  29
HETATM   29  N   UNL     1      -8.918   5.735  72.992  1.00  0.00    -0.123 NA 
HETATM   30  C   UNL     1      -8.804   4.294  73.309  1.00  0.00    -0.098 C  
HETATM   31  C   UNL     1      -9.855   3.403  72.606  1.00  0.00    -0.146 C  
HETATM   32  N   UNL     1      -9.890   3.546  71.138  1.00  0.00    -0.163 NA 
HETATM   33  C   UNL     1      -9.942   4.979  70.776  1.00  0.00    -0.221 C  
HETATM   34  C   UNL     1      -8.742   2.887  70.517  1.00  0.00    -0.069 C  
HETATM   35  C   UNL     1      -8.920   5.882  71.515  1.00  0.00    -0.143 C  
ENDBRANCH  28  29
ENDBRANCH  27  28
ENDBRANCH  26  27
ENDBRANCH  25  26
ENDBRANCH  21  25
BRANCH  23  36
HETATM   36  O   UNL     1      -9.811   8.303  69.259  1.00  0.00    -0.178 OA 
HETATM   37  C   UNL     1     -10.108   7.825  67.951  1.00  0.00    -0.185 C  
ENDBRANCH  23  36
ENDBRANCH  11  13
ENDBRANCH   5  11
ENDBRANCH   2   3
TORSDOF 9
ENDMDL
MODEL      105
REMARK 921   NORMALIZED FREE ENERGY PREDICTED BY IDOCK:   -5.39 KCAL/MOL
REMARK 922        TOTAL FREE ENERGY PREDICTED BY IDOCK:   -9.57 KCAL/MOL
REMARK 923 INTER-LIGAND FREE ENERGY PREDICTED BY IDOCK:   -8.37 KCAL/MOL
REMARK 924 INTRA-LIGAND FREE ENERGY PREDICTED BY IDOCK:   -1.20 KCAL/MOL
REMARK 927      BINDING AFFINITY PREDICTED BY RF-SCORE:    0.00 PKD
ROOT
HETATM    1  C   UNL     1     -10.770  14.444  65.124  1.00  0.00    -0.398 C  
HETATM    2  O   UNL     1     -10.293  13.322  64.385  1.00  0.00    -0.413 OA 
ENDROOT
BRANCH   2   3
HETATM    3  C   UNL     1     -10.213  12.143  65.081  1.00  0.00    -0.278 A  
HETATM    4  C   UNL     1     -10.307  12.076  66.477  1.00  0.00    -0.240 A  
HETATM    5  C   UNL     1     -10.214  10.858  67.167  1.00  0.00    -0.210 A  
HETATM    6  C   UNL     1     -10.021   9.688  66.410  1.00  0.00    -0.255 A  
HETATM    7  C   UNL     1      -9.986  10.965  64.360  1.00  0.00    -0.322 A  
HETATM    8 CL   UNL     1      -9.926   8.144  67.185  1.00  0.00    -0.274 Cl 
HETATM    9  C   UNL     1      -9.903   9.738  65.019  1.00  0.00    -0.243 A  
HETATM   10 CL   UNL     1      -9.833  10.979  62.638  1.00  0.00    -0.227 Cl 
BRANCH   5  11
HETATM   11  N   UNL     1     -10.211  10.814  68.586  1.00  0.00    -0.177 NA 
HETATM   12  H   UNL     1     -10.994  11.280  69.043  1.00  0.00     0.000 HD 
BRANCH  11  13
HETATM   13  C   UNL     1      -9.266  10.208  69.454  1.00  0.00    -0.214 A  
HETATM   14  C   UNL     1      -7.339  11.347  68.345  1.00  0.00    -0.095 C  
HETATM   15  C   UNL     1      -7.895  10.528  69.370  1.00  0.00    -0.151 A  
HETATM   16  C   UNL     1      -7.041  10.004  70.322  1.00  0.00    -0.150 A  
HETATM   17  N   UNL     1      -7.436   9.220  71.344  1.00  0.00    -0.336 NA 
HETATM   18  N   UNL     1      -6.850  12.031  67.543  1.00  0.00    -0.115 NA 
HETATM   19  C   UNL     1      -8.735   8.913  71.437  1.00  0.00    -0.192 A  
HETATM   20  C   UNL     1      -9.121   8.134  72.514  1.00  0.00    -0.302 A  
HETATM   21  C   UNL     1     -10.455   7.782  72.738  1.00  0.00    -0.328 A  
HETATM   22  C   UNL     1      -9.705   9.358  70.512  1.00  0.00    -0.331 A  
HETATM   23  C   UNL     1     -11.425   8.186  71.821  1.00  0.00    -0.284 A  
HETATM   24  C   UNL     1     -11.046   8.950  70.711  1.00  0.00    -0.312 A  
BRANCH  21  25
HETATM   25  O   UNL     1     -10.818   6.977  73.783  1.00  0.00    -0.301 OA 
BRANCH  25  26
HETATM   26  C   UNL     1     -11.083   5.612  73.432  1.00  0.00    -0.190 C  
BRANCH  26  27
HETATM   27  C   UNL     1      -9.811   4.826  73.713  1.00  0.00    -0.170 C  
BRANCH  27  28
HETATM   28  C   UNL     1      -9.063   4.431  72.438  1.00  0.00    -0.120 C  
BRANCH  28  29
HETATM   29  N   UNL     1      -9.928   4.025  71.317  1.00  0.00    -0.168 NA 
HETATM   30  C   UNL     1     -10.126   5.095  70.315  1.00  0.00    -0.268 C  
HETATM   31  C   UNL     1      -8.864   5.434  69.486  1.00  0.00    -0.105 C  
HETATM   32  N   UNL     1      -8.256   4.276  68.803  1.00  0.00    -0.079 NA 
HETATM   33  C   UNL     1      -8.097   3.158  69.758  1.00  0.00    -0.044 C  
HETATM   34  C   UNL     1      -9.053   3.870  67.645  1.00  0.00    -0.151 C  
HETATM   35  C   UNL     1      -9.347   2.848  70.623  1.00  0.00    -0.150 C  
ENDBRANCH  28  29
ENDBRANCH  27  28
ENDBRANCH  26  27
ENDBRANCH  25  26
ENDBRANCH  21  25
BRANCH  23  36
HETATM   36  O   UNL     1     -12.759   7.875  71.862  1.00  0.00    -0.314 OA 
HETATM   37  C   UNL     1     -13.615   8.927  72.300  1.00  0.00    -0.462 C  
ENDBRANCH  23  36
ENDBRANCH  11  13
ENDBRANCH   5  11
ENDBRANCH   2   3
TORSDOF 9
ENDMDL
MODEL      106
REMARK 921   NORMALIZED FREE ENERGY PREDICTED BY IDOCK:   -5.38 KCAL/MOL
REMARK 922        TOTAL FREE ENERGY PREDICTED BY IDOCK:   -9.56 KCAL/MOL
REMARK 923 INTER-LIGAND FREE ENERGY PREDICTED BY IDOCK:   -8.59 KCAL/MOL
REMARK 924 INTRA-LIGAND FREE ENERGY PREDICTED BY IDOCK:   -0.97 KCAL/MOL
REMARK 927      BINDING AFFINITY PREDICTED BY RF-SCORE:    0.00 PKD
ROOT
HETATM    1  C   UNL     1      -7.486  17.237  66.114  1.00  0.00    -0.286 C  
HETATM    2  O   UNL     1      -8.868  17.579  66.043  1.00  0.00    -0.499 OA 
ENDROOT
BRANCH   2   3
HETATM    3  C   UNL     1      -9.697  16.871  66.875  1.00  0.00    -0.259 A  
HETATM    4  C   UNL     1     -10.314  15.672  66.494  1.00  0.00    -0.296 A  
HETATM    5  C   UNL     1     -11.165  14.970  67.360  1.00  0.00    -0.335 A  
HETATM    6  C   UNL     1     -11.387  15.508  68.641  1.00  0.00    -0.344 A  
HETATM    7  C   UNL     1      -9.967  17.398  68.143  1.00  0.00    -0.308 A  
HETATM    8 CL   UNL     1     -12.400  14.686  69.777  1.00  0.00    -0.335 Cl 
HETATM    9  C   UNL     1     -10.798  16.714  69.030  1.00  0.00    -0.314 A  
HETATM   10 CL   UNL     1      -9.261  18.886  68.668  1.00  0.00    -0.393 Cl 
BRANCH   5  11
HETATM   11  N   UNL     1     -11.861  13.811  66.929  1.00  0.00    -0.389 NA 
HETATM   12  H   UNL     1     -12.722  13.601  67.433  1.00  0.00     0.000 HD 
BRANCH  11  13
HETATM   13  C   UNL     1     -11.521  12.904  65.891  1.00  0.00    -0.346 A  
HETATM   14  C   UNL     1     -12.255  14.489  64.105  1.00  0.00    -0.342 C  
HETATM   15  C   UNL     1     -11.653  13.271  64.536  1.00  0.00    -0.407 A  
HETATM   16  C   UNL     1     -11.188  12.397  63.572  1.00  0.00    -0.469 A  
HETATM   17  N   UNL     1     -10.595  11.217  63.843  1.00  0.00    -0.373 NA 
HETATM   18  N   UNL     1     -12.715  15.481  63.712  1.00  0.00    -0.395 NA 
HETATM   19  C   UNL     1     -10.462  10.859  65.126  1.00  0.00    -0.246 A  
HETATM   20  C   UNL     1      -9.820   9.660  65.379  1.00  0.00    -0.322 A  
HETATM   21  C   UNL     1      -9.586   9.200  66.679  1.00  0.00    -0.203 A  
HETATM   22  C   UNL     1     -10.922  11.648  66.203  1.00  0.00    -0.339 A  
HETATM   23  C   UNL     1     -10.058   9.949  67.757  1.00  0.00    -0.180 A  
HETATM   24  C   UNL     1     -10.734  11.151  67.515  1.00  0.00    -0.280 A  
BRANCH  21  25
HETATM   25  O   UNL     1      -8.989   7.993  66.916  1.00  0.00    -0.129 OA 
BRANCH  25  26
HETATM   26  C   UNL     1      -7.563   7.982  66.767  1.00  0.00    -0.094 C  
BRANCH  26  27
HETATM   27  C   UNL     1      -7.067   6.658  67.329  1.00  0.00    -0.080 C  
BRANCH  27  28
HETATM   28  C   UNL     1      -5.968   6.025  66.475  1.00  0.00    -0.025 C  
BRANCH  28  29
HETATM   29  N   UNL     1      -6.218   4.626  66.085  1.00  0.00    -0.031 NA 
HETATM   30  C   UNL     1      -7.535   4.426  65.442  1.00  0.00    -0.080 C  
HETATM   31  C   UNL     1      -7.658   5.054  64.033  1.00  0.00    -0.067 C  
HETATM   32  N   UNL     1      -6.615   4.623  63.082  1.00  0.00    -0.026 NA 
HETATM   33  C   UNL     1      -5.282   4.750  63.710  1.00  0.00    -0.009 C  
HETATM   34  C   UNL     1      -6.853   3.255  62.623  1.00  0.00    -0.031 C  
HETATM   35  C   UNL     1      -5.170   4.162  65.142  1.00  0.00    -0.009 C  
ENDBRANCH  28  29
ENDBRANCH  27  28
ENDBRANCH  26  27
ENDBRANCH  25  26
ENDBRANCH  21  25
BRANCH  23  36
HETATM   36  O   UNL     1      -9.966   9.611  69.082  1.00  0.00    -0.170 OA 
HETATM   37  C   UNL     1      -8.758  10.004  69.727  1.00  0.00    -0.179 C  
ENDBRANCH  23  36
ENDBRANCH  11  13
ENDBRANCH   5  11
ENDBRANCH   2   3
TORSDOF 9
ENDMDL
MODEL      107
REMARK 921   NORMALIZED FREE ENERGY PREDICTED BY IDOCK:   -5.38 KCAL/MOL
REMARK 922        TOTAL FREE ENERGY PREDICTED BY IDOCK:   -9.55 KCAL/MOL
REMARK 923 INTER-LIGAND FREE ENERGY PREDICTED BY IDOCK:   -8.31 KCAL/MOL
REMARK 924 INTRA-LIGAND FREE ENERGY PREDICTED BY IDOCK:   -1.24 KCAL/MOL
REMARK 927      BINDING AFFINITY PREDICTED BY RF-SCORE:    0.00 PKD
ROOT
HETATM    1  C   UNL     1      -6.970  10.604  65.868  1.00  0.00    -0.116 C  
HETATM    2  O   UNL     1      -8.281  10.331  65.382  1.00  0.00    -0.146 OA 
ENDROOT
BRANCH   2   3
HETATM    3  C   UNL     1      -9.274  11.144  65.865  1.00  0.00    -0.206 A  
HETATM    4  C   UNL     1      -9.339  11.554  67.202  1.00  0.00    -0.177 A  
HETATM    5  C   UNL     1     -10.370  12.380  67.674  1.00  0.00    -0.216 A  
HETATM    6  C   UNL     1     -11.352  12.794  66.755  1.00  0.00    -0.313 A  
HETATM    7  C   UNL     1     -10.286  11.544  64.984  1.00  0.00    -0.281 A  
HETATM    8 CL   UNL     1     -12.639  13.838  67.253  1.00  0.00     0.006 Cl 
HETATM    9  C   UNL     1     -11.316  12.377  65.422  1.00  0.00    -0.379 A  
HETATM   10 CL   UNL     1     -10.283  11.054  63.326  1.00  0.00    -0.389 Cl 
BRANCH   5  11
HETATM   11  N   UNL     1     -10.481  12.707  69.051  1.00  0.00    -0.437 NA 
HETATM   12  H   UNL     1      -9.849  13.436  69.383  1.00  0.00     0.000 HD 
BRANCH  11  13
HETATM   13  C   UNL     1     -11.351  12.157  70.028  1.00  0.00     0.054 A  
HETATM   14  C   UNL     1     -12.372  14.380  70.539  1.00  0.00    -0.345 C  
HETATM   15  C   UNL     1     -12.303  12.964  70.686  1.00  0.00    -0.385 A  
HETATM   16  C   UNL     1     -13.206  12.351  71.534  1.00  0.00    -0.190 A  
HETATM   17  N   UNL     1     -13.253  11.023  71.758  1.00  0.00    -0.437 NA 
HETATM   18  N   UNL     1     -12.480  15.531  70.428  1.00  0.00    -0.418 NA 
HETATM   19  C   UNL     1     -12.357  10.247  71.137  1.00  0.00    -0.395 A  
HETATM   20  C   UNL     1     -12.446   8.884  71.357  1.00  0.00    -0.357 A  
HETATM   21  C   UNL     1     -11.592   7.971  70.732  1.00  0.00    -0.242 A  
HETATM   22  C   UNL     1     -11.362  10.752  70.270  1.00  0.00    -0.374 A  
HETATM   23  C   UNL     1     -10.584   8.450  69.896  1.00  0.00    -0.228 A  
HETATM   24  C   UNL     1     -10.463   9.829  69.685  1.00  0.00    -0.263 A  
BRANCH  21  25
HETATM   25  O   UNL     1     -11.662   6.630  70.991  1.00  0.00    -0.326 OA 
BRANCH  25  26
HETATM   26  C   UNL     1     -12.158   6.289  72.292  1.00  0.00    -0.206 C  
BRANCH  26  27
HETATM   27  C   UNL     1     -11.255   5.194  72.839  1.00  0.00    -0.362 C  
BRANCH  27  28
HETATM   28  C   UNL     1      -9.777   5.431  72.527  1.00  0.00    -0.152 C  
BRANCH  28  29
HETATM   29  N   UNL     1      -9.010   4.215  72.207  1.00  0.00    -0.113 NA 
HETATM   30  C   UNL     1      -9.581   3.446  71.079  1.00  0.00    -0.169 C  
HETATM   31  C   UNL     1      -9.446   4.139  69.703  1.00  0.00    -0.189 C  
HETATM   32  N   UNL     1      -8.065   4.518  69.345  1.00  0.00    -0.065 NA 
HETATM   33  C   UNL     1      -7.436   5.238  70.472  1.00  0.00    -0.071 C  
HETATM   34  C   UNL     1      -7.280   3.344  68.964  1.00  0.00    -0.049 C  
HETATM   35  C   UNL     1      -7.611   4.568  71.861  1.00  0.00    -0.083 C  
ENDBRANCH  28  29
ENDBRANCH  27  28
ENDBRANCH  26  27
ENDBRANCH  25  26
ENDBRANCH  21  25
BRANCH  23  36
HETATM   36  O   UNL     1      -9.632   7.697  69.259  1.00  0.00    -0.158 OA 
HETATM   37  C   UNL     1      -9.236   8.175  67.977  1.00  0.00    -0.132 C  
ENDBRANCH  23  36
ENDBRANCH  11  13
ENDBRANCH   5  11
ENDBRANCH   2   3
TORSDOF 9
ENDMDL
MODEL      108
REMARK 921   NORMALIZED FREE ENERGY PREDICTED BY IDOCK:   -5.35 KCAL/MOL
REMARK 922        TOTAL FREE ENERGY PREDICTED BY IDOCK:   -9.51 KCAL/MOL
REMARK 923 INTER-LIGAND FREE ENERGY PREDICTED BY IDOCK:   -7.73 KCAL/MOL
REMARK 924 INTRA-LIGAND FREE ENERGY PREDICTED BY IDOCK:   -1.78 KCAL/MOL
REMARK 927      BINDING AFFINITY PREDICTED BY RF-SCORE:    0.00 PKD
ROOT
HETATM    1  C   UNL     1     -10.825   6.937  71.112  1.00  0.00    -0.240 C  
HETATM    2  O   UNL     1     -10.207   6.178  70.077  1.00  0.00    -0.177 OA 
ENDROOT
BRANCH   2   3
HETATM    3  C   UNL     1      -9.411   6.889  69.214  1.00  0.00    -0.144 A  
HETATM    4  C   UNL     1      -9.797   7.201  67.905  1.00  0.00    -0.170 A  
HETATM    5  C   UNL     1      -8.961   7.923  67.039  1.00  0.00    -0.128 A  
HETATM    6  C   UNL     1      -7.707   8.332  67.528  1.00  0.00    -0.099 A  
HETATM    7  C   UNL     1      -8.142   7.280  69.658  1.00  0.00    -0.129 A  
HETATM    8 CL   UNL     1      -6.632   9.252  66.531  1.00  0.00    -0.067 Cl 
HETATM    9  C   UNL     1      -7.296   8.011  68.824  1.00  0.00    -0.085 A  
HETATM   10 CL   UNL     1      -7.591   6.905  71.253  1.00  0.00    -0.086 Cl 
BRANCH   5  11
HETATM   11  N   UNL     1      -9.321   8.147  65.685  1.00  0.00    -0.426 NA 
HETATM   12  H   UNL     1      -9.575   7.315  65.153  1.00  0.00     0.000 HD 
BRANCH  11  13
HETATM   13  C   UNL     1      -9.377   9.373  64.970  1.00  0.00    -0.191 A  
HETATM   14  C   UNL     1      -7.980   8.481  63.100  1.00  0.00    -0.164 C  
HETATM   15  C   UNL     1      -8.784   9.496  63.697  1.00  0.00    -0.239 A  
HETATM   16  C   UNL     1      -8.978  10.671  62.995  1.00  0.00    -0.251 A  
HETATM   17  N   UNL     1      -9.718  11.705  63.441  1.00  0.00    -0.354 NA 
HETATM   18  N   UNL     1      -7.341   7.671  62.567  1.00  0.00    -0.088 NA 
HETATM   19  C   UNL     1     -10.288  11.598  64.647  1.00  0.00    -0.292 A  
HETATM   20  C   UNL     1     -11.070  12.659  65.069  1.00  0.00    -0.326 A  
HETATM   21  C   UNL     1     -11.748  12.645  66.291  1.00  0.00    -0.402 A  
HETATM   22  C   UNL     1     -10.142  10.464  65.476  1.00  0.00    -0.352 A  
HETATM   23  C   UNL     1     -11.594  11.548  67.138  1.00  0.00    -0.167 A  
HETATM   24  C   UNL     1     -10.784  10.479  66.738  1.00  0.00    -0.252 A  
BRANCH  21  25
HETATM   25  O   UNL     1     -12.484  13.718  66.715  1.00  0.00    -0.366 OA 
BRANCH  25  26
HETATM   26  C   UNL     1     -11.771  14.961  66.763  1.00  0.00    -0.233 C  
BRANCH  26  27
HETATM   27  C   UNL     1     -11.208  15.097  68.170  1.00  0.00    -0.326 C  
BRANCH  27  28
HETATM   28  C   UNL     1      -9.696  15.322  68.185  1.00  0.00    -0.212 C  
BRANCH  28  29
HETATM   29  N   UNL     1      -8.937  14.361  69.005  1.00  0.00    -0.063 NA 
HETATM   30  C   UNL     1      -8.747  13.052  68.342  1.00  0.00    -0.115 C  
HETATM   31  C   UNL     1      -7.787  13.087  67.129  1.00  0.00    -0.063 C  
HETATM   32  N   UNL     1      -6.454  13.648  67.422  1.00  0.00    -0.286 NA 
HETATM   33  C   UNL     1      -6.600  14.932  68.142  1.00  0.00    -0.130 C  
HETATM   34  C   UNL     1      -5.642  12.703  68.189  1.00  0.00    -0.076 C  
HETATM   35  C   UNL     1      -7.598  14.911  69.330  1.00  0.00    -0.170 C  
ENDBRANCH  28  29
ENDBRANCH  27  28
ENDBRANCH  26  27
ENDBRANCH  25  26
ENDBRANCH  21  25
BRANCH  23  36
HETATM   36  O   UNL     1     -12.138  11.406  68.388  1.00  0.00    -0.575 OA 
HETATM   37  C   UNL     1     -11.369  10.630  69.301  1.00  0.00    -0.282 C  
ENDBRANCH  23  36
ENDBRANCH  11  13
ENDBRANCH   5  11
ENDBRANCH   2   3
TORSDOF 9
ENDMDL
MODEL      109
REMARK 921   NORMALIZED FREE ENERGY PREDICTED BY IDOCK:   -5.34 KCAL/MOL
REMARK 922        TOTAL FREE ENERGY PREDICTED BY IDOCK:   -9.49 KCAL/MOL
REMARK 923 INTER-LIGAND FREE ENERGY PREDICTED BY IDOCK:   -7.86 KCAL/MOL
REMARK 924 INTRA-LIGAND FREE ENERGY PREDICTED BY IDOCK:   -1.63 KCAL/MOL
REMARK 927      BINDING AFFINITY PREDICTED BY RF-SCORE:    0.00 PKD
ROOT
HETATM    1  C   UNL     1     -12.448  14.161  65.190  1.00  0.00    -0.439 C  
HETATM    2  O   UNL     1     -12.079  14.408  66.544  1.00  0.00    -0.418 OA 
ENDROOT
BRANCH   2   3
HETATM    3  C   UNL     1     -11.285  13.452  67.126  1.00  0.00    -0.302 A  
HETATM    4  C   UNL     1     -11.743  12.164  67.429  1.00  0.00    -0.374 A  
HETATM    5  C   UNL     1     -10.914  11.206  68.032  1.00  0.00    -0.252 A  
HETATM    6  C   UNL     1      -9.590  11.579  68.329  1.00  0.00    -0.189 A  
HETATM    7  C   UNL     1      -9.973  13.802  67.466  1.00  0.00    -0.233 A  
HETATM    8 CL   UNL     1      -8.496  10.445  69.045  1.00  0.00    -0.146 Cl 
HETATM    9  C   UNL     1      -9.122  12.866  68.054  1.00  0.00    -0.211 A  
HETATM   10 CL   UNL     1      -9.351  15.383  67.145  1.00  0.00    -0.216 Cl 
BRANCH   5  11
HETATM   11  N   UNL     1     -11.416   9.939  68.425  1.00  0.00    -0.519 NA 
HETATM   12  H   UNL     1     -11.847   9.386  67.684  1.00  0.00     0.000 HD 
BRANCH  11  13
HETATM   13  C   UNL     1     -11.401   9.335  69.710  1.00  0.00    -0.005 A  
HETATM   14  C   UNL     1     -12.304  11.387  70.814  1.00  0.00    -0.386 C  
HETATM   15  C   UNL     1     -11.895  10.021  70.838  1.00  0.00    -0.459 A  
HETATM   16  C   UNL     1     -11.972   9.339  72.038  1.00  0.00    -0.321 A  
HETATM   17  N   UNL     1     -11.623   8.047  72.197  1.00  0.00    -0.318 NA 
HETATM   18  N   UNL     1     -12.670  12.488  70.832  1.00  0.00    -0.243 NA 
HETATM   19  C   UNL     1     -11.156   7.384  71.132  1.00  0.00    -0.252 A  
HETATM   20  C   UNL     1     -10.837   6.050  71.313  1.00  0.00    -0.331 A  
HETATM   21  C   UNL     1     -10.378   5.246  70.266  1.00  0.00    -0.280 A  
HETATM   22  C   UNL     1     -11.000   7.975  69.859  1.00  0.00    -0.172 A  
HETATM   23  C   UNL     1     -10.188   5.816  69.007  1.00  0.00    -0.217 A  
HETATM   24  C   UNL     1     -10.481   7.171  68.816  1.00  0.00    -0.217 A  
BRANCH  21  25
HETATM   25  O   UNL     1     -10.025   3.939  70.467  1.00  0.00    -0.165 OA 
BRANCH  25  26
HETATM   26  C   UNL     1      -9.507   3.645  71.771  1.00  0.00    -0.141 C  
BRANCH  26  27
HETATM   27  C   UNL     1      -7.991   3.739  71.679  1.00  0.00    -0.062 C  
BRANCH  27  28
HETATM   28  C   UNL     1      -7.425   4.953  72.418  1.00  0.00    -0.089 C  
BRANCH  28  29
HETATM   29  N   UNL     1      -6.435   5.734  71.656  1.00  0.00    -0.047 NA 
HETATM   30  C   UNL     1      -7.045   6.785  70.813  1.00  0.00    -0.068 C  
HETATM   31  C   UNL     1      -7.662   7.960  71.608  1.00  0.00    -0.092 C  
HETATM   32  N   UNL     1      -6.732   8.613  72.550  1.00  0.00    -0.227 NA 
HETATM   33  C   UNL     1      -6.053   7.588  73.373  1.00  0.00    -0.060 C  
HETATM   34  C   UNL     1      -5.762   9.446  71.840  1.00  0.00    -0.041 C  
HETATM   35  C   UNL     1      -5.475   6.385  72.581  1.00  0.00    -0.037 C  
ENDBRANCH  28  29
ENDBRANCH  27  28
ENDBRANCH  26  27
ENDBRANCH  25  26
ENDBRANCH  21  25
BRANCH  23  36
HETATM   36  O   UNL     1      -9.691   5.184  67.897  1.00  0.00    -0.133 OA 
HETATM   37  C   UNL     1     -10.158   5.689  66.650  1.00  0.00    -0.198 C  
ENDBRANCH  23  36
ENDBRANCH  11  13
ENDBRANCH   5  11
ENDBRANCH   2   3
TORSDOF 9
ENDMDL
MODEL      110
REMARK 921   NORMALIZED FREE ENERGY PREDICTED BY IDOCK:   -5.34 KCAL/MOL
REMARK 922        TOTAL FREE ENERGY PREDICTED BY IDOCK:   -9.49 KCAL/MOL
REMARK 923 INTER-LIGAND FREE ENERGY PREDICTED BY IDOCK:   -8.68 KCAL/MOL
REMARK 924 INTRA-LIGAND FREE ENERGY PREDICTED BY IDOCK:   -0.80 KCAL/MOL
REMARK 927      BINDING AFFINITY PREDICTED BY RF-SCORE:    0.00 PKD
ROOT
HETATM    1  C   UNL     1     -10.562  20.066  66.267  1.00  0.00    -0.350 C  
HETATM    2  O   UNL     1      -9.803  19.620  67.388  1.00  0.00    -0.329 OA 
ENDROOT
BRANCH   2   3
HETATM    3  C   UNL     1      -9.358  18.324  67.326  1.00  0.00    -0.256 A  
HETATM    4  C   UNL     1     -10.223  17.226  67.249  1.00  0.00    -0.320 A  
HETATM    5  C   UNL     1      -9.744  15.908  67.195  1.00  0.00    -0.224 A  
HETATM    6  C   UNL     1      -8.350  15.716  67.219  1.00  0.00    -0.184 A  
HETATM    7  C   UNL     1      -7.978  18.097  67.384  1.00  0.00    -0.226 A  
HETATM    8 CL   UNL     1      -7.680  14.124  67.126  1.00  0.00    -0.113 Cl 
HETATM    9  C   UNL     1      -7.472  16.799  67.318  1.00  0.00    -0.201 A  
HETATM   10 CL   UNL     1      -6.855  19.406  67.507  1.00  0.00    -0.223 Cl 
BRANCH   5  11
HETATM   11  N   UNL     1     -10.630  14.800  67.217  1.00  0.00    -0.269 NA 
HETATM   12  H   UNL     1     -11.236  14.737  68.035  1.00  0.00     0.000 HD 
BRANCH  11  13
HETATM   13  C   UNL     1     -10.788  13.768  66.255  1.00  0.00    -0.283 A  
HETATM   14  C   UNL     1     -11.436  15.380  64.459  1.00  0.00    -0.311 C  
HETATM   15  C   UNL     1     -11.109  14.070  64.916  1.00  0.00    -0.378 A  
HETATM   16  C   UNL     1     -11.126  13.037  63.998  1.00  0.00    -0.395 A  
HETATM   17  N   UNL     1     -10.833  11.755  64.295  1.00  0.00    -0.324 NA 
HETATM   18  N   UNL     1     -11.682  16.435  64.041  1.00  0.00    -1.045 NA 
HETATM   19  C   UNL     1     -10.523  11.458  65.563  1.00  0.00    -0.268 A  
HETATM   20  C   UNL     1     -10.194  10.141  65.836  1.00  0.00    -0.281 A  
HETATM   21  C   UNL     1      -9.815   9.719  67.114  1.00  0.00    -0.188 A  
HETATM   22  C   UNL     1     -10.501  12.415  66.601  1.00  0.00    -0.251 A  
HETATM   23  C   UNL     1      -9.814  10.642  68.160  1.00  0.00    -0.155 A  
HETATM   24  C   UNL     1     -10.172  11.971  67.904  1.00  0.00    -0.203 A  
BRANCH  21  25
HETATM   25  O   UNL     1      -9.533   8.408  67.381  1.00  0.00    -0.140 OA 
BRANCH  25  26
HETATM   26  C   UNL     1     -10.464   7.464  66.835  1.00  0.00    -0.309 C  
BRANCH  26  27
HETATM   27  C   UNL     1      -9.925   6.076  67.147  1.00  0.00    -0.186 C  
BRANCH  27  28
HETATM   28  C   UNL     1     -10.432   5.527  68.481  1.00  0.00    -0.164 C  
BRANCH  28  29
HETATM   29  N   UNL     1      -9.523   4.576  69.143  1.00  0.00    -0.150 NA 
HETATM   30  C   UNL     1      -8.094   4.891  68.932  1.00  0.00    -0.083 C  
HETATM   31  C   UNL     1      -7.610   6.171  69.655  1.00  0.00    -0.093 C  
HETATM   32  N   UNL     1      -7.871   6.184  71.108  1.00  0.00    -0.109 NA 
HETATM   33  C   UNL     1      -9.279   5.812  71.367  1.00  0.00    -0.143 C  
HETATM   34  C   UNL     1      -6.952   5.293  71.816  1.00  0.00    -0.070 C  
HETATM   35  C   UNL     1      -9.779   4.556  70.605  1.00  0.00    -0.212 C  
ENDBRANCH  28  29
ENDBRANCH  27  28
ENDBRANCH  26  27
ENDBRANCH  25  26
ENDBRANCH  21  25
BRANCH  23  36
HETATM   36  O   UNL     1      -9.528  10.378  69.474  1.00  0.00    -0.205 OA 
HETATM   37  C   UNL     1      -8.147  10.431  69.818  1.00  0.00    -0.044 C  
ENDBRANCH  23  36
ENDBRANCH  11  13
ENDBRANCH   5  11
ENDBRANCH   2   3
TORSDOF 9
ENDMDL
MODEL      111
REMARK 921   NORMALIZED FREE ENERGY PREDICTED BY IDOCK:   -5.33 KCAL/MOL
REMARK 922        TOTAL FREE ENERGY PREDICTED BY IDOCK:   -9.47 KCAL/MOL
REMARK 923 INTER-LIGAND FREE ENERGY PREDICTED BY IDOCK:   -8.39 KCAL/MOL
REMARK 924 INTRA-LIGAND FREE ENERGY PREDICTED BY IDOCK:   -1.08 KCAL/MOL
REMARK 927      BINDING AFFINITY PREDICTED BY RF-SCORE:    0.00 PKD
ROOT
HETATM    1  C   UNL     1      -8.655   4.648  70.780  1.00  0.00    -0.097 C  
HETATM    2  O   UNL     1     -10.054   4.898  70.680  1.00  0.00    -0.224 OA 
ENDROOT
BRANCH   2   3
HETATM    3  C   UNL     1     -10.417   6.219  70.609  1.00  0.00    -0.223 A  
HETATM    4  C   UNL     1     -10.088   7.040  69.524  1.00  0.00    -0.179 A  
HETATM    5  C   UNL     1     -10.463   8.392  69.477  1.00  0.00    -0.224 A  
HETATM    6  C   UNL     1     -11.191   8.908  70.565  1.00  0.00    -0.252 A  
HETATM    7  C   UNL     1     -11.111   6.772  71.691  1.00  0.00    -0.246 A  
HETATM    8 CL   UNL     1     -11.717  10.556  70.569  1.00  0.00    -0.411 Cl 
HETATM    9  C   UNL     1     -11.510   8.109  71.666  1.00  0.00    -0.323 A  
HETATM   10 CL   UNL     1     -11.527   5.822  73.074  1.00  0.00    -0.254 Cl 
BRANCH   5  11
HETATM   11  N   UNL     1     -10.039   9.238  68.420  1.00  0.00    -0.183 NA 
HETATM   12  H   UNL     1     -10.317   8.947  67.483  1.00  0.00     0.000 HD 
BRANCH  11  13
HETATM   13  C   UNL     1      -9.280  10.436  68.491  1.00  0.00    -0.145 A  
HETATM   14  C   UNL     1      -7.494   9.362  69.869  1.00  0.00    -0.100 C  
HETATM   15  C   UNL     1      -8.025  10.461  69.133  1.00  0.00    -0.141 A  
HETATM   16  C   UNL     1      -7.276  11.621  69.060  1.00  0.00    -0.094 A  
HETATM   17  N   UNL     1      -7.658  12.729  68.395  1.00  0.00    -0.128 NA 
HETATM   18  N   UNL     1      -7.013   8.483  70.455  1.00  0.00    -0.038 NA 
HETATM   19  C   UNL     1      -8.846  12.715  67.779  1.00  0.00    -0.179 A  
HETATM   20  C   UNL     1      -9.201  13.852  67.075  1.00  0.00    -0.257 A  
HETATM   21  C   UNL     1     -10.398  13.941  66.358  1.00  0.00    -0.289 A  
HETATM   22  C   UNL     1      -9.719  11.605  67.803  1.00  0.00    -0.177 A  
HETATM   23  C   UNL     1     -11.289  12.868  66.392  1.00  0.00    -0.319 A  
HETATM   24  C   UNL     1     -10.956  11.721  67.124  1.00  0.00    -0.326 A  
BRANCH  21  25
HETATM   25  O   UNL     1     -10.758  15.085  65.701  1.00  0.00    -0.315 OA 
BRANCH  25  26
HETATM   26  C   UNL     1     -10.889  16.246  66.533  1.00  0.00    -0.105 C  
BRANCH  26  27
HETATM   27  C   UNL     1      -9.968  17.311  65.957  1.00  0.00    -0.249 C  
BRANCH  27  28
HETATM   28  C   UNL     1      -8.617  17.377  66.670  1.00  0.00    -0.255 C  
BRANCH  28  29
HETATM   29  N   UNL     1      -8.693  17.667  68.112  1.00  0.00    -0.257 NA 
HETATM   30  C   UNL     1      -7.694  16.922  68.910  1.00  0.00    -0.237 C  
HETATM   31  C   UNL     1      -6.233  17.380  68.688  1.00  0.00    -0.175 C  
HETATM   32  N   UNL     1      -6.007  18.823  68.904  1.00  0.00    -0.212 NA 
HETATM   33  C   UNL     1      -7.026  19.604  68.171  1.00  0.00    -0.284 C  
HETATM   34  C   UNL     1      -6.018  19.149  70.330  1.00  0.00    -0.186 C  
HETATM   35  C   UNL     1      -8.488  19.116  68.355  1.00  0.00    -0.349 C  
ENDBRANCH  28  29
ENDBRANCH  27  28
ENDBRANCH  26  27
ENDBRANCH  25  26
ENDBRANCH  21  25
BRANCH  23  36
HETATM   36  O   UNL     1     -12.523  12.819  65.798  1.00  0.00    -0.579 OA 
HETATM   37  C   UNL     1     -12.534  12.334  64.459  1.00  0.00    -0.377 C  
ENDBRANCH  23  36
ENDBRANCH  11  13
ENDBRANCH   5  11
ENDBRANCH   2   3
TORSDOF 9
ENDMDL
MODEL      112
REMARK 921   NORMALIZED FREE ENERGY PREDICTED BY IDOCK:   -5.30 KCAL/MOL
REMARK 922        TOTAL FREE ENERGY PREDICTED BY IDOCK:   -9.43 KCAL/MOL
REMARK 923 INTER-LIGAND FREE ENERGY PREDICTED BY IDOCK:   -8.02 KCAL/MOL
REMARK 924 INTRA-LIGAND FREE ENERGY PREDICTED BY IDOCK:   -1.41 KCAL/MOL
REMARK 927      BINDING AFFINITY PREDICTED BY RF-SCORE:    0.00 PKD
ROOT
HETATM    1  C   UNL     1     -11.186  16.026  70.752  1.00  0.00    -0.352 C  
HETATM    2  O   UNL     1     -12.372  15.442  70.220  1.00  0.00    -0.357 OA 
ENDROOT
BRANCH   2   3
HETATM    3  C   UNL     1     -12.445  14.074  70.298  1.00  0.00    -0.338 A  
HETATM    4  C   UNL     1     -12.189  13.235  69.206  1.00  0.00    -0.194 A  
HETATM    5  C   UNL     1     -12.278  11.838  69.308  1.00  0.00    -0.140 A  
HETATM    6  C   UNL     1     -12.637  11.294  70.555  1.00  0.00    -0.246 A  
HETATM    7  C   UNL     1     -12.835  13.502  71.514  1.00  0.00    -0.352 A  
HETATM    8 CL   UNL     1     -12.739   9.580  70.770  1.00  0.00    -0.198 Cl 
HETATM    9  C   UNL     1     -12.918  12.116  71.649  1.00  0.00    -0.427 A  
HETATM   10 CL   UNL     1     -13.192  14.480  72.895  1.00  0.00    -0.584 Cl 
BRANCH   5  11
HETATM   11  N   UNL     1     -12.113  11.005  68.172  1.00  0.00    -0.780 NA 
HETATM   12  H   UNL     1     -12.881  10.362  67.982  1.00  0.00     0.000 HD 
BRANCH  11  13
HETATM   13  C   UNL     1     -11.023  10.944  67.264  1.00  0.00    -0.294 A  
HETATM   14  C   UNL     1     -12.057  12.623  65.729  1.00  0.00    -0.423 C  
HETATM   15  C   UNL     1     -10.979  11.779  66.129  1.00  0.00    -0.355 A  
HETATM   16  C   UNL     1      -9.837  11.767  65.351  1.00  0.00    -0.233 A  
HETATM   17  N   UNL     1      -8.747  11.021  65.618  1.00  0.00    -0.181 NA 
HETATM   18  N   UNL     1     -12.900  13.343  65.383  1.00  0.00    -0.628 NA 
HETATM   19  C   UNL     1      -8.776  10.227  66.695  1.00  0.00    -0.127 A  
HETATM   20  C   UNL     1      -7.632   9.497  66.967  1.00  0.00    -0.091 A  
HETATM   21  C   UNL     1      -7.529   8.665  68.086  1.00  0.00    -0.096 A  
HETATM   22  C   UNL     1      -9.893  10.125  67.554  1.00  0.00    -0.211 A  
HETATM   23  C   UNL     1      -8.631   8.526  68.931  1.00  0.00    -0.127 A  
HETATM   24  C   UNL     1      -9.804   9.237  68.652  1.00  0.00    -0.173 A  
BRANCH  21  25
HETATM   25  O   UNL     1      -6.410   7.915  68.321  1.00  0.00    -0.047 OA 
BRANCH  25  26
HETATM   26  C   UNL     1      -5.550   7.736  67.187  1.00  0.00    -0.032 C  
BRANCH  26  27
HETATM   27  C   UNL     1      -5.592   6.259  66.826  1.00  0.00    -0.013 C  
BRANCH  27  28
HETATM   28  C   UNL     1      -6.706   5.922  65.834  1.00  0.00    -0.055 C  
BRANCH  28  29
HETATM   29  N   UNL     1      -7.831   5.160  66.404  1.00  0.00    -0.102 NA 
HETATM   30  C   UNL     1      -8.808   4.713  65.387  1.00  0.00    -0.141 C  
HETATM   31  C   UNL     1      -8.279   3.612  64.437  1.00  0.00    -0.090 C  
HETATM   32  N   UNL     1      -7.754   2.416  65.124  1.00  0.00    -0.076 NA 
HETATM   33  C   UNL     1      -6.818   2.823  66.193  1.00  0.00    -0.048 C  
HETATM   34  C   UNL     1      -8.842   1.598  65.660  1.00  0.00    -0.124 C  
HETATM   35  C   UNL     1      -7.328   3.960  67.118  1.00  0.00    -0.068 C  
ENDBRANCH  28  29
ENDBRANCH  27  28
ENDBRANCH  26  27
ENDBRANCH  25  26
ENDBRANCH  21  25
BRANCH  23  36
HETATM   36  O   UNL     1      -8.713   7.709  70.028  1.00  0.00    -0.140 OA 
HETATM   37  C   UNL     1      -9.960   7.739  70.716  1.00  0.00    -0.181 C  
ENDBRANCH  23  36
ENDBRANCH  11  13
ENDBRANCH   5  11
ENDBRANCH   2   3
TORSDOF 9
ENDMDL
MODEL      113
REMARK 921   NORMALIZED FREE ENERGY PREDICTED BY IDOCK:   -5.27 KCAL/MOL
REMARK 922        TOTAL FREE ENERGY PREDICTED BY IDOCK:   -9.39 KCAL/MOL
REMARK 923 INTER-LIGAND FREE ENERGY PREDICTED BY IDOCK:   -8.71 KCAL/MOL
REMARK 924 INTRA-LIGAND FREE ENERGY PREDICTED BY IDOCK:   -0.68 KCAL/MOL
REMARK 927      BINDING AFFINITY PREDICTED BY RF-SCORE:    0.00 PKD
ROOT
HETATM    1  C   UNL     1     -11.916  15.850  73.390  1.00  0.00    -0.420 C  
HETATM    2  O   UNL     1     -11.907  16.440  72.092  1.00  0.00    -0.525 OA 
ENDROOT
BRANCH   2   3
HETATM    3  C   UNL     1     -11.848  15.560  71.041  1.00  0.00    -0.382 A  
HETATM    4  C   UNL     1     -10.927  15.687  69.994  1.00  0.00    -0.336 A  
HETATM    5  C   UNL     1     -10.891  14.778  68.925  1.00  0.00    -0.254 A  
HETATM    6  C   UNL     1     -11.819  13.720  68.933  1.00  0.00    -0.360 A  
HETATM    7  C   UNL     1     -12.781  14.518  71.001  1.00  0.00    -0.343 A  
HETATM    8 CL   UNL     1     -11.820  12.542  67.666  1.00  0.00    -0.419 Cl 
HETATM    9  C   UNL     1     -12.760  13.591  69.958  1.00  0.00    -0.005 A  
HETATM   10 CL   UNL     1     -13.963  14.318  72.246  1.00  0.00    -0.592 Cl 
BRANCH   5  11
HETATM   11  N   UNL     1     -10.021  14.973  67.822  1.00  0.00    -0.228 NA 
HETATM   12  H   UNL     1     -10.448  15.377  66.989  1.00  0.00     0.000 HD 
BRANCH  11  13
HETATM   13  C   UNL     1      -8.635  14.681  67.720  1.00  0.00    -0.173 A  
HETATM   14  C   UNL     1      -7.981  17.031  68.261  1.00  0.00    -0.222 C  
HETATM   15  C   UNL     1      -7.665  15.665  68.002  1.00  0.00    -0.133 A  
HETATM   16  C   UNL     1      -6.335  15.290  68.009  1.00  0.00    -0.143 A  
HETATM   17  N   UNL     1      -5.902  14.034  67.785  1.00  0.00    -0.277 NA 
HETATM   18  N   UNL     1      -8.195  18.146  68.503  1.00  0.00    -0.308 NA 
HETATM   19  C   UNL     1      -6.813  13.090  67.520  1.00  0.00    -0.151 A  
HETATM   20  C   UNL     1      -6.346  11.802  67.326  1.00  0.00    -0.132 A  
HETATM   21  C   UNL     1      -7.206  10.727  67.083  1.00  0.00    -0.100 A  
HETATM   22  C   UNL     1      -8.200  13.350  67.452  1.00  0.00    -0.188 A  
HETATM   23  C   UNL     1      -8.577  10.965  66.982  1.00  0.00    -0.136 A  
HETATM   24  C   UNL     1      -9.061  12.268  67.148  1.00  0.00    -0.193 A  
BRANCH  21  25
HETATM   25  O   UNL     1      -6.730   9.466  66.850  1.00  0.00    -0.074 OA 
BRANCH  25  26
HETATM   26  C   UNL     1      -6.477   8.687  68.027  1.00  0.00    -0.057 C  
BRANCH  26  27
HETATM   27  C   UNL     1      -7.633   7.708  68.169  1.00  0.00    -0.114 C  
BRANCH  27  28
HETATM   28  C   UNL     1      -8.395   7.876  69.484  1.00  0.00    -0.131 C  
BRANCH  28  29
HETATM   29  N   UNL     1      -9.752   8.432  69.345  1.00  0.00    -0.175 NA 
HETATM   30  C   UNL     1     -10.816   7.413  69.477  1.00  0.00    -0.189 C  
HETATM   31  C   UNL     1     -10.977   6.841  70.905  1.00  0.00    -0.260 C  
HETATM   32  N   UNL     1     -11.191   7.862  71.949  1.00  0.00    -0.258 NA 
HETATM   33  C   UNL     1     -10.182   8.934  71.814  1.00  0.00    -0.344 C  
HETATM   34  C   UNL     1     -12.548   8.404  71.885  1.00  0.00    -0.349 C  
HETATM   35  C   UNL     1      -9.986   9.476  70.373  1.00  0.00    -0.267 C  
ENDBRANCH  28  29
ENDBRANCH  27  28
ENDBRANCH  26  27
ENDBRANCH  25  26
ENDBRANCH  21  25
BRANCH  23  36
HETATM   36  O   UNL     1      -9.542  10.038  66.690  1.00  0.00    -0.171 OA 
HETATM   37  C   UNL     1      -9.922   9.967  65.319  1.00  0.00    -0.298 C  
ENDBRANCH  23  36
ENDBRANCH  11  13
ENDBRANCH   5  11
ENDBRANCH   2   3
TORSDOF 9
ENDMDL
MODEL      114
REMARK 921   NORMALIZED FREE ENERGY PREDICTED BY IDOCK:   -5.24 KCAL/MOL
REMARK 922        TOTAL FREE ENERGY PREDICTED BY IDOCK:   -9.34 KCAL/MOL
REMARK 923 INTER-LIGAND FREE ENERGY PREDICTED BY IDOCK:   -8.19 KCAL/MOL
REMARK 924 INTRA-LIGAND FREE ENERGY PREDICTED BY IDOCK:   -1.15 KCAL/MOL
REMARK 927      BINDING AFFINITY PREDICTED BY RF-SCORE:    0.00 PKD
ROOT
HETATM    1  C   UNL     1     -12.534  11.948  63.244  1.00  0.00    -0.384 C  
HETATM    2  O   UNL     1     -11.489  12.576  63.982  1.00  0.00    -0.346 OA 
ENDROOT
BRANCH   2   3
HETATM    3  C   UNL     1     -11.542  12.411  65.343  1.00  0.00    -0.381 A  
HETATM    4  C   UNL     1     -11.110  11.244  65.985  1.00  0.00    -0.181 A  
HETATM    5  C   UNL     1     -11.182  11.096  67.379  1.00  0.00    -0.294 A  
HETATM    6  C   UNL     1     -11.707  12.167  68.126  1.00  0.00    -0.341 A  
HETATM    7  C   UNL     1     -12.092  13.444  66.112  1.00  0.00    -0.429 A  
HETATM    8 CL   UNL     1     -11.802  12.074  69.851  1.00  0.00    -0.408 Cl 
HETATM    9  C   UNL     1     -12.164  13.330  67.500  1.00  0.00    -0.213 A  
HETATM   10 CL   UNL     1     -12.669  14.901  65.381  1.00  0.00     0.090 Cl 
BRANCH   5  11
HETATM   11  N   UNL     1     -10.835   9.873  68.009  1.00  0.00    -0.347 NA 
HETATM   12  H   UNL     1     -11.401   9.067  67.749  1.00  0.00     0.000 HD 
BRANCH  11  13
HETATM   13  C   UNL     1      -9.804   9.620  68.952  1.00  0.00    -0.174 A  
HETATM   14  C   UNL     1      -8.114  10.893  67.624  1.00  0.00    -0.115 C  
HETATM   15  C   UNL     1      -8.519  10.175  68.787  1.00  0.00    -0.131 A  
HETATM   16  C   UNL     1      -7.594  10.000  69.799  1.00  0.00    -0.164 A  
HETATM   17  N   UNL     1      -7.848   9.347  70.951  1.00  0.00    -0.300 NA 
HETATM   18  N   UNL     1      -7.751  11.505  66.706  1.00  0.00    -0.152 NA 
HETATM   19  C   UNL     1      -9.066   8.819  71.121  1.00  0.00    -0.225 A  
HETATM   20  C   UNL     1      -9.313   8.183  72.325  1.00  0.00    -0.290 A  
HETATM   21  C   UNL     1     -10.558   7.629  72.632  1.00  0.00    -0.299 A  
HETATM   22  C   UNL     1     -10.089   8.902  70.150  1.00  0.00    -0.212 A  
HETATM   23  C   UNL     1     -11.574   7.673  71.677  1.00  0.00    -0.267 A  
HETATM   24  C   UNL     1     -11.331   8.288  70.444  1.00  0.00    -0.177 A  
BRANCH  21  25
HETATM   25  O   UNL     1     -10.777   6.965  73.808  1.00  0.00    -0.347 OA 
BRANCH  25  26
HETATM   26  C   UNL     1     -10.742   5.535  73.713  1.00  0.00    -0.260 C  
BRANCH  26  27
HETATM   27  C   UNL     1      -9.282   5.119  73.815  1.00  0.00    -0.125 C  
BRANCH  27  28
HETATM   28  C   UNL     1      -8.745   4.513  72.518  1.00  0.00    -0.114 C  
BRANCH  28  29
HETATM   29  N   UNL     1      -9.776   4.181  71.518  1.00  0.00    -0.164 NA 
HETATM   30  C   UNL     1      -9.589   4.887  70.231  1.00  0.00    -0.195 C  
HETATM   31  C   UNL     1      -8.359   4.414  69.419  1.00  0.00    -0.073 C  
HETATM   32  N   UNL     1      -8.326   2.963  69.154  1.00  0.00    -0.058 NA 
HETATM   33  C   UNL     1      -8.571   2.219  70.408  1.00  0.00    -0.054 C  
HETATM   34  C   UNL     1      -9.297   2.594  68.124  1.00  0.00    -0.203 C  
HETATM   35  C   UNL     1      -9.775   2.722  71.247  1.00  0.00    -0.133 C  
ENDBRANCH  28  29
ENDBRANCH  27  28
ENDBRANCH  26  27
ENDBRANCH  25  26
ENDBRANCH  21  25
BRANCH  23  36
HETATM   36  O   UNL     1     -12.825   7.126  71.798  1.00  0.00    -0.345 OA 
HETATM   37  C   UNL     1     -13.906   8.032  71.598  1.00  0.00    -0.379 C  
ENDBRANCH  23  36
ENDBRANCH  11  13
ENDBRANCH   5  11
ENDBRANCH   2   3
TORSDOF 9
ENDMDL
MODEL      115
REMARK 921   NORMALIZED FREE ENERGY PREDICTED BY IDOCK:   -5.22 KCAL/MOL
REMARK 922        TOTAL FREE ENERGY PREDICTED BY IDOCK:   -9.31 KCAL/MOL
REMARK 923 INTER-LIGAND FREE ENERGY PREDICTED BY IDOCK:   -7.81 KCAL/MOL
REMARK 924 INTRA-LIGAND FREE ENERGY PREDICTED BY IDOCK:   -1.50 KCAL/MOL
REMARK 927      BINDING AFFINITY PREDICTED BY RF-SCORE:    0.00 PKD
ROOT
HETATM    1  C   UNL     1     -11.302  14.897  67.313  1.00  0.00    -0.349 C  
HETATM    2  O   UNL     1     -10.958  16.279  67.362  1.00  0.00    -0.281 OA 
ENDROOT
BRANCH   2   3
HETATM    3  C   UNL     1      -9.645  16.573  67.095  1.00  0.00    -0.240 A  
HETATM    4  C   UNL     1      -8.603  15.661  67.306  1.00  0.00    -0.213 A  
HETATM    5  C   UNL     1      -7.266  15.988  67.033  1.00  0.00    -0.213 A  
HETATM    6  C   UNL     1      -6.995  17.275  66.533  1.00  0.00    -0.263 A  
HETATM    7  C   UNL     1      -9.337  17.857  66.631  1.00  0.00    -0.286 A  
HETATM    8 CL   UNL     1      -5.376  17.745  66.144  1.00  0.00    -0.220 Cl 
HETATM    9  C   UNL     1      -8.019  18.206  66.338  1.00  0.00    -0.297 A  
HETATM   10 CL   UNL     1     -10.571  19.041  66.373  1.00  0.00    -0.498 Cl 
BRANCH   5  11
HETATM   11  N   UNL     1      -6.210  15.093  67.344  1.00  0.00    -0.326 NA 
HETATM   12  H   UNL     1      -5.468  15.027  66.648  1.00  0.00     0.000 HD 
BRANCH  11  13
HETATM   13  C   UNL     1      -6.047  14.276  68.494  1.00  0.00    -0.091 A  
HETATM   14  C   UNL     1      -5.618  16.242  69.975  1.00  0.00    -0.183 C  
HETATM   15  C   UNL     1      -5.830  14.848  69.764  1.00  0.00    -0.116 A  
HETATM   16  C   UNL     1      -5.805  14.012  70.864  1.00  0.00    -0.207 A  
HETATM   17  N   UNL     1      -5.995  12.679  70.805  1.00  0.00    -0.244 NA 
HETATM   18  N   UNL     1      -5.467  17.373  70.193  1.00  0.00    -0.234 NA 
HETATM   19  C   UNL     1      -6.204  12.125  69.605  1.00  0.00    -0.131 A  
HETATM   20  C   UNL     1      -6.430  10.759  69.574  1.00  0.00    -0.089 A  
HETATM   21  C   UNL     1      -6.701  10.076  68.386  1.00  0.00    -0.055 A  
HETATM   22  C   UNL     1      -6.223  12.864  68.402  1.00  0.00    -0.079 A  
HETATM   23  C   UNL     1      -6.695  10.782  67.182  1.00  0.00    -0.084 A  
HETATM   24  C   UNL     1      -6.440  12.158  67.194  1.00  0.00    -0.135 A  
BRANCH  21  25
HETATM   25  O   UNL     1      -6.880   8.720  68.362  1.00  0.00    -0.063 OA 
BRANCH  25  26
HETATM   26  C   UNL     1      -8.221   8.282  68.615  1.00  0.00    -0.120 C  
BRANCH  26  27
HETATM   27  C   UNL     1      -8.187   7.456  69.893  1.00  0.00    -0.132 C  
BRANCH  27  28
HETATM   28  C   UNL     1      -9.394   7.710  70.796  1.00  0.00    -0.162 C  
BRANCH  28  29
HETATM   29  N   UNL     1     -10.682   7.821  70.090  1.00  0.00    -0.238 NA 
HETATM   30  C   UNL     1     -11.651   6.772  70.476  1.00  0.00    -0.372 C  
HETATM   31  C   UNL     1     -12.197   6.909  71.916  1.00  0.00    -0.332 C  
HETATM   32  N   UNL     1     -12.802   8.222  72.216  1.00  0.00    -0.307 NA 
HETATM   33  C   UNL     1     -11.888   9.303  71.788  1.00  0.00    -0.384 C  
HETATM   34  C   UNL     1     -14.112   8.356  71.579  1.00  0.00    -0.373 C  
HETATM   35  C   UNL     1     -11.302   9.142  70.360  1.00  0.00    -0.224 C  
ENDBRANCH  28  29
ENDBRANCH  27  28
ENDBRANCH  26  27
ENDBRANCH  25  26
ENDBRANCH  21  25
BRANCH  23  36
HETATM   36  O   UNL     1      -6.880  10.253  65.931  1.00  0.00    -0.110 OA 
HETATM   37  C   UNL     1      -8.206  10.353  65.420  1.00  0.00    -0.159 C  
ENDBRANCH  23  36
ENDBRANCH  11  13
ENDBRANCH   5  11
ENDBRANCH   2   3
TORSDOF 9
ENDMDL
MODEL      116
REMARK 921   NORMALIZED FREE ENERGY PREDICTED BY IDOCK:   -5.21 KCAL/MOL
REMARK 922        TOTAL FREE ENERGY PREDICTED BY IDOCK:   -9.29 KCAL/MOL
REMARK 923 INTER-LIGAND FREE ENERGY PREDICTED BY IDOCK:   -7.56 KCAL/MOL
REMARK 924 INTRA-LIGAND FREE ENERGY PREDICTED BY IDOCK:   -1.73 KCAL/MOL
REMARK 927      BINDING AFFINITY PREDICTED BY RF-SCORE:    0.00 PKD
ROOT
HETATM    1  C   UNL     1     -12.150  14.314  66.362  1.00  0.00    -0.419 C  
HETATM    2  O   UNL     1     -11.605  15.020  67.473  1.00  0.00    -0.344 OA 
ENDROOT
BRANCH   2   3
HETATM    3  C   UNL     1     -10.245  15.199  67.453  1.00  0.00    -0.235 A  
HETATM    4  C   UNL     1      -9.341  14.146  67.264  1.00  0.00    -0.225 A  
HETATM    5  C   UNL     1      -7.953  14.354  67.254  1.00  0.00    -0.180 A  
HETATM    6  C   UNL     1      -7.486  15.667  67.442  1.00  0.00    -0.205 A  
HETATM    7  C   UNL     1      -9.746  16.488  67.672  1.00  0.00    -0.239 A  
HETATM    8 CL   UNL     1      -5.790  16.010  67.415  1.00  0.00    -0.166 Cl 
HETATM    9  C   UNL     1      -8.372  16.727  67.655  1.00  0.00    -0.191 A  
HETATM   10 CL   UNL     1     -10.804  17.830  67.939  1.00  0.00    -0.317 Cl 
BRANCH   5  11
HETATM   11  N   UNL     1      -7.047  13.267  67.161  1.00  0.00    -0.369 NA 
HETATM   12  H   UNL     1      -6.338  13.344  66.432  1.00  0.00     0.000 HD 
BRANCH  11  13
HETATM   13  C   UNL     1      -6.991  12.085  67.947  1.00  0.00    -0.095 A  
HETATM   14  C   UNL     1      -5.729  13.221  69.779  1.00  0.00    -0.114 C  
HETATM   15  C   UNL     1      -6.415  12.097  69.233  1.00  0.00    -0.111 A  
HETATM   16  C   UNL     1      -6.502  10.950  70.001  1.00  0.00    -0.151 A  
HETATM   17  N   UNL     1      -7.124   9.822  69.607  1.00  0.00    -0.072 NA 
HETATM   18  N   UNL     1      -5.186  14.122  70.272  1.00  0.00    -0.095 NA 
HETATM   19  C   UNL     1      -7.679   9.800  68.389  1.00  0.00    -0.081 A  
HETATM   20  C   UNL     1      -8.341   8.642  68.021  1.00  0.00    -0.123 A  
HETATM   21  C   UNL     1      -8.993   8.516  66.791  1.00  0.00    -0.146 A  
HETATM   22  C   UNL     1      -7.632  10.894  67.496  1.00  0.00    -0.101 A  
HETATM   23  C   UNL     1      -8.934   9.572  65.882  1.00  0.00    -0.173 A  
HETATM   24  C   UNL     1      -8.244  10.740  66.229  1.00  0.00    -0.162 A  
BRANCH  21  25
HETATM   25  O   UNL     1      -9.607   7.351  66.421  1.00  0.00    -0.176 OA 
BRANCH  25  26
HETATM   26  C   UNL     1     -10.835   7.070  67.105  1.00  0.00    -0.357 C  
BRANCH  26  27
HETATM   27  C   UNL     1     -10.622   5.785  67.891  1.00  0.00    -0.304 C  
BRANCH  27  28
HETATM   28  C   UNL     1     -11.033   5.912  69.359  1.00  0.00    -0.350 C  
BRANCH  28  29
HETATM   29  N   UNL     1     -10.119   6.717  70.188  1.00  0.00    -0.177 NA 
HETATM   30  C   UNL     1     -10.805   7.800  70.927  1.00  0.00    -0.237 C  
HETATM   31  C   UNL     1     -11.731   7.307  72.065  1.00  0.00    -0.292 C  
HETATM   32  N   UNL     1     -11.070   6.428  73.050  1.00  0.00    -0.233 NA 
HETATM   33  C   UNL     1     -10.320   5.365  72.347  1.00  0.00    -0.209 C  
HETATM   34  C   UNL     1     -10.193   7.196  73.934  1.00  0.00    -0.315 C  
HETATM   35  C   UNL     1      -9.427   5.853  71.176  1.00  0.00    -0.161 C  
ENDBRANCH  28  29
ENDBRANCH  27  28
ENDBRANCH  26  27
ENDBRANCH  25  26
ENDBRANCH  21  25
BRANCH  23  36
HETATM   36  O   UNL     1      -9.465   9.586  64.618  1.00  0.00    -0.228 OA 
HETATM   37  C   UNL     1      -8.666  10.230  63.630  1.00  0.00    -0.206 C  
ENDBRANCH  23  36
ENDBRANCH  11  13
ENDBRANCH   5  11
ENDBRANCH   2   3
TORSDOF 9
ENDMDL
MODEL      117
REMARK 921   NORMALIZED FREE ENERGY PREDICTED BY IDOCK:   -5.20 KCAL/MOL
REMARK 922        TOTAL FREE ENERGY PREDICTED BY IDOCK:   -9.28 KCAL/MOL
REMARK 923 INTER-LIGAND FREE ENERGY PREDICTED BY IDOCK:   -8.68 KCAL/MOL
REMARK 924 INTRA-LIGAND FREE ENERGY PREDICTED BY IDOCK:   -0.59 KCAL/MOL
REMARK 927      BINDING AFFINITY PREDICTED BY RF-SCORE:    0.00 PKD
ROOT
HETATM    1  C   UNL     1     -11.910  16.115  71.807  1.00  0.00    -0.506 C  
HETATM    2  O   UNL     1     -12.638  15.636  70.680  1.00  0.00    -0.437 OA 
ENDROOT
BRANCH   2   3
HETATM    3  C   UNL     1     -12.164  14.478  70.117  1.00  0.00    -0.342 A  
HETATM    4  C   UNL     1     -11.357  14.463  68.972  1.00  0.00    -0.297 A  
HETATM    5  C   UNL     1     -10.892  13.264  68.411  1.00  0.00    -0.258 A  
HETATM    6  C   UNL     1     -11.261  12.059  69.037  1.00  0.00    -0.258 A  
HETATM    7  C   UNL     1     -12.543  13.261  70.695  1.00  0.00    -0.231 A  
HETATM    8 CL   UNL     1     -10.703  10.541  68.422  1.00  0.00    -0.238 Cl 
HETATM    9  C   UNL     1     -12.084  12.054  70.166  1.00  0.00    -0.377 A  
HETATM   10 CL   UNL     1     -13.558  13.205  72.093  1.00  0.00    -0.629 Cl 
BRANCH   5  11
HETATM   11  N   UNL     1     -10.159  13.256  67.196  1.00  0.00    -0.237 NA 
HETATM   12  H   UNL     1      -9.437  13.970  67.112  1.00  0.00     0.000 HD 
BRANCH  11  13
HETATM   13  C   UNL     1     -10.295  12.387  66.081  1.00  0.00    -0.247 A  
HETATM   14  C   UNL     1     -12.498  13.372  65.433  1.00  0.00    -0.494 C  
HETATM   15  C   UNL     1     -11.392  12.502  65.203  1.00  0.00    -0.352 A  
HETATM   16  C   UNL     1     -11.407  11.715  64.067  1.00  0.00    -0.345 A  
HETATM   17  N   UNL     1     -10.425  10.855  63.729  1.00  0.00    -0.325 NA 
HETATM   18  N   UNL     1     -13.404  14.085  65.568  1.00  0.00    -0.617 NA 
HETATM   19  C   UNL     1      -9.377  10.741  64.553  1.00  0.00    -0.236 A  
HETATM   20  C   UNL     1      -8.367   9.877  64.167  1.00  0.00    -0.168 A  
HETATM   21  C   UNL     1      -7.205   9.704  64.925  1.00  0.00    -0.118 A  
HETATM   22  C   UNL     1      -9.256  11.465  65.760  1.00  0.00    -0.223 A  
HETATM   23  C   UNL     1      -7.078  10.387  66.135  1.00  0.00    -0.130 A  
HETATM   24  C   UNL     1      -8.104  11.243  66.552  1.00  0.00    -0.160 A  
BRANCH  21  25
HETATM   25  O   UNL     1      -6.233   8.816  64.556  1.00  0.00    -0.065 OA 
BRANCH  25  26
HETATM   26  C   UNL     1      -6.292   7.544  65.216  1.00  0.00    -0.038 C  
BRANCH  26  27
HETATM   27  C   UNL     1      -6.928   6.566  64.240  1.00  0.00    -0.051 C  
BRANCH  27  28
HETATM   28  C   UNL     1      -8.173   5.884  64.809  1.00  0.00    -0.129 C  
BRANCH  28  29
HETATM   29  N   UNL     1      -8.193   4.418  64.669  1.00  0.00    -0.103 NA 
HETATM   30  C   UNL     1      -9.340   3.782  65.354  1.00  0.00    -0.159 C  
HETATM   31  C   UNL     1     -10.711   4.067  64.698  1.00  0.00    -0.141 C  
HETATM   32  N   UNL     1     -10.784   3.718  63.265  1.00  0.00    -0.225 NA 
HETATM   33  C   UNL     1      -9.619   4.284  62.553  1.00  0.00    -0.129 C  
HETATM   34  C   UNL     1     -10.862   2.269  63.080  1.00  0.00    -0.224 C  
HETATM   35  C   UNL     1      -8.247   4.040  63.235  1.00  0.00    -0.087 C  
ENDBRANCH  28  29
ENDBRANCH  27  28
ENDBRANCH  26  27
ENDBRANCH  25  26
ENDBRANCH  21  25
BRANCH  23  36
HETATM   36  O   UNL     1      -6.037  10.282  67.020  1.00  0.00    -0.053 OA 
HETATM   37  C   UNL     1      -6.384   9.797  68.313  1.00  0.00    -0.055 C  
ENDBRANCH  23  36
ENDBRANCH  11  13
ENDBRANCH   5  11
ENDBRANCH   2   3
TORSDOF 9
ENDMDL
MODEL      118
REMARK 921   NORMALIZED FREE ENERGY PREDICTED BY IDOCK:   -5.19 KCAL/MOL
REMARK 922        TOTAL FREE ENERGY PREDICTED BY IDOCK:   -9.27 KCAL/MOL
REMARK 923 INTER-LIGAND FREE ENERGY PREDICTED BY IDOCK:   -8.61 KCAL/MOL
REMARK 924 INTRA-LIGAND FREE ENERGY PREDICTED BY IDOCK:   -0.66 KCAL/MOL
REMARK 927      BINDING AFFINITY PREDICTED BY RF-SCORE:    0.00 PKD
ROOT
HETATM    1  C   UNL     1      -7.262   8.600  68.297  1.00  0.00    -0.086 C  
HETATM    2  O   UNL     1      -8.560   8.181  67.885  1.00  0.00    -0.130 OA 
ENDROOT
BRANCH   2   3
HETATM    3  C   UNL     1      -9.277   9.099  67.160  1.00  0.00    -0.133 A  
HETATM    4  C   UNL     1     -10.234   9.944  67.736  1.00  0.00    -0.241 A  
HETATM    5  C   UNL     1     -10.961  10.870  66.972  1.00  0.00    -0.247 A  
HETATM    6  C   UNL     1     -10.699  10.929  65.591  1.00  0.00    -0.108 A  
HETATM    7  C   UNL     1      -9.067   9.158  65.778  1.00  0.00    -0.213 A  
HETATM    8 CL   UNL     1     -11.533  12.064  64.586  1.00  0.00    -0.379 Cl 
HETATM    9  C   UNL     1      -9.765  10.078  64.995  1.00  0.00    -0.386 A  
HETATM   10 CL   UNL     1      -7.921   8.126  64.997  1.00  0.00    -0.131 Cl 
BRANCH   5  11
HETATM   11  N   UNL     1     -11.996  11.650  67.549  1.00  0.00    -0.621 NA 
HETATM   12  H   UNL     1     -12.939  11.440  67.225  1.00  0.00     0.000 HD 
BRANCH  11  13
HETATM   13  C   UNL     1     -11.896  12.683  68.518  1.00  0.00    -0.300 A  
HETATM   14  C   UNL     1     -12.247  11.098  70.417  1.00  0.00    -0.369 C  
HETATM   15  C   UNL     1     -11.951  12.392  69.896  1.00  0.00    -0.369 A  
HETATM   16  C   UNL     1     -11.722  13.419  70.792  1.00  0.00     0.211 A  
HETATM   17  N   UNL     1     -11.427  14.684  70.434  1.00  0.00    -0.253 NA 
HETATM   18  N   UNL     1     -12.459  10.056  70.883  1.00  0.00    -0.329 NA 
HETATM   19  C   UNL     1     -11.369  14.972  69.128  1.00  0.00    -0.296 A  
HETATM   20  C   UNL     1     -11.032  16.270  68.786  1.00  0.00    -0.343 A  
HETATM   21  C   UNL     1     -10.901  16.678  67.455  1.00  0.00    -0.221 A  
HETATM   22  C   UNL     1     -11.613  14.021  68.113  1.00  0.00    -0.369 A  
HETATM   23  C   UNL     1     -11.167  15.763  66.436  1.00  0.00     0.034 A  
HETATM   24  C   UNL     1     -11.536  14.454  66.768  1.00  0.00    -0.381 A  
BRANCH  21  25
HETATM   25  O   UNL     1     -10.610  17.974  67.128  1.00  0.00    -0.372 OA 
BRANCH  25  26
HETATM   26  C   UNL     1      -9.773  18.135  65.975  1.00  0.00    -0.105 C  
BRANCH  26  27
HETATM   27  C   UNL     1      -8.344  17.863  66.422  1.00  0.00    -0.273 C  
BRANCH  27  28
HETATM   28  C   UNL     1      -7.777  18.973  67.307  1.00  0.00    -0.237 C  
BRANCH  28  29
HETATM   29  N   UNL     1      -7.904  18.734  68.755  1.00  0.00    -0.328 NA 
HETATM   30  C   UNL     1      -7.625  17.334  69.142  1.00  0.00    -0.103 C  
HETATM   31  C   UNL     1      -6.143  16.916  68.997  1.00  0.00    -0.179 C  
HETATM   32  N   UNL     1      -5.192  17.786  69.716  1.00  0.00    -0.187 NA 
HETATM   33  C   UNL     1      -5.476  19.203  69.404  1.00  0.00    -0.197 C  
HETATM   34  C   UNL     1      -5.243  17.543  71.157  1.00  0.00    -0.134 C  
HETATM   35  C   UNL     1      -6.970  19.612  69.503  1.00  0.00    -0.279 C  
ENDBRANCH  28  29
ENDBRANCH  27  28
ENDBRANCH  26  27
ENDBRANCH  25  26
ENDBRANCH  21  25
BRANCH  23  36
HETATM   36  O   UNL     1     -11.143  16.019  65.090  1.00  0.00    -0.349 OA 
HETATM   37  C   UNL     1     -12.133  15.339  64.325  1.00  0.00    -0.208 C  
ENDBRANCH  23  36
ENDBRANCH  11  13
ENDBRANCH   5  11
ENDBRANCH   2   3
TORSDOF 9
ENDMDL
MODEL      119
REMARK 921   NORMALIZED FREE ENERGY PREDICTED BY IDOCK:   -5.16 KCAL/MOL
REMARK 922        TOTAL FREE ENERGY PREDICTED BY IDOCK:   -9.22 KCAL/MOL
REMARK 923 INTER-LIGAND FREE ENERGY PREDICTED BY IDOCK:   -7.74 KCAL/MOL
REMARK 924 INTRA-LIGAND FREE ENERGY PREDICTED BY IDOCK:   -1.48 KCAL/MOL
REMARK 927      BINDING AFFINITY PREDICTED BY RF-SCORE:    0.00 PKD
ROOT
HETATM    1  C   UNL     1      -5.671  14.302  67.748  1.00  0.00    -0.057 C  
HETATM    2  O   UNL     1      -6.477  15.327  67.174  1.00  0.00    -0.299 OA 
ENDROOT
BRANCH   2   3
HETATM    3  C   UNL     1      -7.801  15.312  67.534  1.00  0.00    -0.176 A  
HETATM    4  C   UNL     1      -8.686  14.302  67.137  1.00  0.00    -0.243 A  
HETATM    5  C   UNL     1     -10.038  14.313  67.512  1.00  0.00    -0.236 A  
HETATM    6  C   UNL     1     -10.489  15.381  68.308  1.00  0.00    -0.241 A  
HETATM    7  C   UNL     1      -8.289  16.379  68.296  1.00  0.00    -0.189 A  
HETATM    8 CL   UNL     1     -12.135  15.451  68.836  1.00  0.00    -0.282 Cl 
HETATM    9  C   UNL     1      -9.626  16.410  68.695  1.00  0.00    -0.240 A  
HETATM   10 CL   UNL     1      -7.259  17.674  68.797  1.00  0.00    -0.261 Cl 
BRANCH   5  11
HETATM   11  N   UNL     1     -10.946  13.338  67.023  1.00  0.00    -0.272 NA 
HETATM   12  H   UNL     1     -11.818  13.247  67.543  1.00  0.00     0.000 HD 
BRANCH  11  13
HETATM   13  C   UNL     1     -10.804  12.472  65.906  1.00  0.00    -0.269 A  
HETATM   14  C   UNL     1     -11.962  14.069  64.372  1.00  0.00    -0.454 C  
HETATM   15  C   UNL     1     -11.237  12.867  64.624  1.00  0.00    -0.353 A  
HETATM   16  C   UNL     1     -10.960  12.037  63.555  1.00  0.00    -0.444 A  
HETATM   17  N   UNL     1     -10.281  10.877  63.653  1.00  0.00    -0.349 NA 
HETATM   18  N   UNL     1     -12.530  15.050  64.120  1.00  0.00    -0.763 NA 
HETATM   19  C   UNL     1      -9.862  10.493  64.865  1.00  0.00    -0.315 A  
HETATM   20  C   UNL     1      -9.138   9.316  64.935  1.00  0.00    -0.227 A  
HETATM   21  C   UNL     1      -8.615   8.835  66.139  1.00  0.00    -0.146 A  
HETATM   22  C   UNL     1     -10.108  11.236  66.041  1.00  0.00    -0.283 A  
HETATM   23  C   UNL     1      -8.870   9.536  67.317  1.00  0.00    -0.128 A  
HETATM   24  C   UNL     1      -9.625  10.714  67.265  1.00  0.00    -0.186 A  
BRANCH  21  25
HETATM   25  O   UNL     1      -7.937   7.648  66.203  1.00  0.00    -0.101 OA 
BRANCH  25  26
HETATM   26  C   UNL     1      -6.539   7.731  65.900  1.00  0.00    -0.046 C  
BRANCH  26  27
HETATM   27  C   UNL     1      -5.874   6.516  66.529  1.00  0.00    -0.018 C  
BRANCH  27  28
HETATM   28  C   UNL     1      -6.393   5.195  65.961  1.00  0.00    -0.039 C  
BRANCH  28  29
HETATM   29  N   UNL     1      -6.405   4.073  66.917  1.00  0.00    -0.039 NA 
HETATM   30  C   UNL     1      -7.038   4.415  68.209  1.00  0.00    -0.060 C  
HETATM   31  C   UNL     1      -8.568   4.630  68.131  1.00  0.00    -0.102 C  
HETATM   32  N   UNL     1      -9.313   3.500  67.542  1.00  0.00    -0.196 NA 
HETATM   33  C   UNL     1      -8.673   3.086  66.274  1.00  0.00    -0.132 C  
HETATM   34  C   UNL     1      -9.399   2.381  68.479  1.00  0.00    -0.192 C  
HETATM   35  C   UNL     1      -7.132   2.916  66.340  1.00  0.00    -0.057 C  
ENDBRANCH  28  29
ENDBRANCH  27  28
ENDBRANCH  26  27
ENDBRANCH  25  26
ENDBRANCH  21  25
BRANCH  23  36
HETATM   36  O   UNL     1      -8.483   9.170  68.580  1.00  0.00    -0.125 OA 
HETATM   37  C   UNL     1      -9.251   9.733  69.639  1.00  0.00    -0.223 C  
ENDBRANCH  23  36
ENDBRANCH  11  13
ENDBRANCH   5  11
ENDBRANCH   2   3
TORSDOF 9
ENDMDL
MODEL      120
REMARK 921   NORMALIZED FREE ENERGY PREDICTED BY IDOCK:   -5.15 KCAL/MOL
REMARK 922        TOTAL FREE ENERGY PREDICTED BY IDOCK:   -9.20 KCAL/MOL
REMARK 923 INTER-LIGAND FREE ENERGY PREDICTED BY IDOCK:   -9.04 KCAL/MOL
REMARK 924 INTRA-LIGAND FREE ENERGY PREDICTED BY IDOCK:   -0.16 KCAL/MOL
REMARK 927      BINDING AFFINITY PREDICTED BY RF-SCORE:    0.00 PKD
ROOT
HETATM    1  C   UNL     1      -9.536   3.488  72.648  1.00  0.00    -0.121 C  
HETATM    2  O   UNL     1      -8.503   3.641  71.678  1.00  0.00    -0.081 OA 
ENDROOT
BRANCH   2   3
HETATM    3  C   UNL     1      -8.715   4.615  70.735  1.00  0.00    -0.104 A  
HETATM    4  C   UNL     1      -8.713   5.982  71.040  1.00  0.00    -0.132 A  
HETATM    5  C   UNL     1      -8.940   6.959  70.059  1.00  0.00    -0.142 A  
HETATM    6  C   UNL     1      -9.173   6.523  68.741  1.00  0.00    -0.131 A  
HETATM    7  C   UNL     1      -8.985   4.214  69.422  1.00  0.00    -0.104 A  
HETATM    8 CL   UNL     1      -9.433   7.668  67.470  1.00  0.00    -0.158 Cl 
HETATM    9  C   UNL     1      -9.201   5.163  68.423  1.00  0.00    -0.142 A  
HETATM   10 CL   UNL     1      -9.029   2.542  68.982  1.00  0.00    -0.153 Cl 
BRANCH   5  11
HETATM   11  N   UNL     1      -9.035   8.334  70.397  1.00  0.00    -0.144 NA 
HETATM   12  H   UNL     1      -8.159   8.784  70.663  1.00  0.00     0.000 HD 
BRANCH  11  13
HETATM   13  C   UNL     1     -10.183   9.169  70.414  1.00  0.00    -0.222 A  
HETATM   14  C   UNL     1     -11.212   7.914  72.314  1.00  0.00    -0.331 C  
HETATM   15  C   UNL     1     -11.189   8.996  71.386  1.00  0.00    -0.394 A  
HETATM   16  C   UNL     1     -12.220   9.916  71.433  1.00  0.00    -0.408 A  
HETATM   17  N   UNL     1     -12.317  10.985  70.618  1.00  0.00    -0.358 NA 
HETATM   18  N   UNL     1     -11.254   7.063  73.103  1.00  0.00    -0.217 NA 
HETATM   19  C   UNL     1     -11.366  11.161  69.693  1.00  0.00    -0.294 A  
HETATM   20  C   UNL     1     -11.469  12.285  68.892  1.00  0.00    -0.355 A  
HETATM   21  C   UNL     1     -10.515  12.595  67.919  1.00  0.00    -0.218 A  
HETATM   22  C   UNL     1     -10.277  10.277  69.522  1.00  0.00    -0.261 A  
HETATM   23  C   UNL     1      -9.448  11.721  67.713  1.00  0.00    -0.181 A  
HETATM   24  C   UNL     1      -9.345  10.566  68.497  1.00  0.00    -0.168 A  
BRANCH  21  25
HETATM   25  O   UNL     1     -10.651  13.686  67.104  1.00  0.00    -0.269 OA 
BRANCH  25  26
HETATM   26  C   UNL     1     -11.875  14.414  67.264  1.00  0.00    -0.405 C  
BRANCH  26  27
HETATM   27  C   UNL     1     -11.635  15.455  68.347  1.00  0.00    -0.368 C  
BRANCH  27  28
HETATM   28  C   UNL     1     -12.642  15.362  69.494  1.00  0.00     0.029 C  
BRANCH  28  29
HETATM   29  N   UNL     1     -12.202  14.541  70.636  1.00  0.00    -0.307 NA 
HETATM   30  C   UNL     1     -11.229  15.231  71.510  1.00  0.00    -0.307 C  
HETATM   31  C   UNL     1     -11.823  16.406  72.322  1.00  0.00    -0.445 C  
HETATM   32  N   UNL     1     -12.998  16.048  73.141  1.00  0.00    -0.520 NA 
HETATM   33  C   UNL     1     -13.972  15.300  72.317  1.00  0.00    -0.546 C  
HETATM   34  C   UNL     1     -12.602  15.278  74.320  1.00  0.00    -0.433 C  
HETATM   35  C   UNL     1     -13.369  14.151  71.466  1.00  0.00    -0.351 C  
ENDBRANCH  28  29
ENDBRANCH  27  28
ENDBRANCH  26  27
ENDBRANCH  25  26
ENDBRANCH  21  25
BRANCH  23  36
HETATM   36  O   UNL     1      -8.467  11.848  66.764  1.00  0.00    -0.179 OA 
HETATM   37  C   UNL     1      -7.285  11.092  67.008  1.00  0.00    -0.123 C  
ENDBRANCH  23  36
ENDBRANCH  11  13
ENDBRANCH   5  11
ENDBRANCH   2   3
TORSDOF 9
ENDMDL
MODEL      121
REMARK 921   NORMALIZED FREE ENERGY PREDICTED BY IDOCK:   -5.14 KCAL/MOL
REMARK 922        TOTAL FREE ENERGY PREDICTED BY IDOCK:   -9.19 KCAL/MOL
REMARK 923 INTER-LIGAND FREE ENERGY PREDICTED BY IDOCK:   -8.05 KCAL/MOL
REMARK 924 INTRA-LIGAND FREE ENERGY PREDICTED BY IDOCK:   -1.14 KCAL/MOL
REMARK 927      BINDING AFFINITY PREDICTED BY RF-SCORE:    0.00 PKD
ROOT
HETATM    1  C   UNL     1      -8.624   4.707  74.566  1.00  0.00    -0.105 C  
HETATM    2  O   UNL     1      -8.828   3.713  73.565  1.00  0.00    -0.091 OA 
ENDROOT
BRANCH   2   3
HETATM    3  C   UNL     1      -9.053   4.185  72.297  1.00  0.00    -0.116 A  
HETATM    4  C   UNL     1      -8.736   5.492  71.904  1.00  0.00    -0.135 A  
HETATM    5  C   UNL     1      -8.983   5.954  70.603  1.00  0.00    -0.145 A  
HETATM    6  C   UNL     1      -9.566   5.057  69.688  1.00  0.00    -0.170 A  
HETATM    7  C   UNL     1      -9.664   3.330  71.373  1.00  0.00    -0.156 A  
HETATM    8 CL   UNL     1      -9.875   5.543  68.056  1.00  0.00    -0.159 Cl 
HETATM    9  C   UNL     1      -9.909   3.758  70.068  1.00  0.00    -0.096 A  
HETATM   10 CL   UNL     1     -10.106   1.713  71.799  1.00  0.00    -0.222 Cl 
BRANCH   5  11
HETATM   11  N   UNL     1      -8.750   7.307  70.245  1.00  0.00    -0.146 NA 
HETATM   12  H   UNL     1      -7.793   7.636  70.364  1.00  0.00     0.000 HD 
BRANCH  11  13
HETATM   13  C   UNL     1      -9.670   8.266  69.744  1.00  0.00    -0.180 A  
HETATM   14  C   UNL     1     -11.039   8.218  71.834  1.00  0.00    -0.292 C  
HETATM   15  C   UNL     1     -10.726   8.744  70.546  1.00  0.00    -0.259 A  
HETATM   16  C   UNL     1     -11.513   9.767  70.051  1.00  0.00    -0.180 A  
HETATM   17  N   UNL     1     -11.324  10.356  68.854  1.00  0.00    -0.241 NA 
HETATM   18  N   UNL     1     -11.311   7.836  72.896  1.00  0.00    -0.390 NA 
HETATM   19  C   UNL     1     -10.322   9.912  68.085  1.00  0.00    -0.195 A  
HETATM   20  C   UNL     1     -10.127  10.555  66.875  1.00  0.00    -0.265 A  
HETATM   21  C   UNL     1      -9.089  10.207  66.006  1.00  0.00    -0.154 A  
HETATM   22  C   UNL     1      -9.466   8.854  68.461  1.00  0.00    -0.152 A  
HETATM   23  C   UNL     1      -8.250   9.145  66.344  1.00  0.00    -0.114 A  
HETATM   24  C   UNL     1      -8.453   8.467  67.552  1.00  0.00    -0.128 A  
BRANCH  21  25
HETATM   25  O   UNL     1      -8.933  10.821  64.794  1.00  0.00    -0.192 OA 
BRANCH  25  26
HETATM   26  C   UNL     1      -9.996  10.596  63.859  1.00  0.00    -0.326 C  
BRANCH  26  27
HETATM   27  C   UNL     1     -10.468  11.963  63.386  1.00  0.00    -0.487 C  
BRANCH  27  28
HETATM   28  C   UNL     1     -11.739  12.431  64.096  1.00  0.00    -0.400 C  
BRANCH  28  29
HETATM   29  N   UNL     1     -11.781  13.872  64.401  1.00  0.00    -0.402 NA 
HETATM   30  C   UNL     1     -12.774  14.220  65.441  1.00  0.00    -0.369 C  
HETATM   31  C   UNL     1     -12.411  13.723  66.860  1.00  0.00    -0.285 C  
HETATM   32  N   UNL     1     -11.082  14.156  67.335  1.00  0.00    -0.298 NA 
HETATM   33  C   UNL     1     -10.066  13.881  66.296  1.00  0.00    -0.300 C  
HETATM   34  C   UNL     1     -11.090  15.571  67.703  1.00  0.00    -0.311 C  
HETATM   35  C   UNL     1     -10.450  14.337  64.863  1.00  0.00    -0.430 C  
ENDBRANCH  28  29
ENDBRANCH  27  28
ENDBRANCH  26  27
ENDBRANCH  25  26
ENDBRANCH  21  25
BRANCH  23  36
HETATM   36  O   UNL     1      -7.230   8.642  65.579  1.00  0.00    -0.081 OA 
HETATM   37  C   UNL     1      -7.298   7.244  65.318  1.00  0.00    -0.080 C  
ENDBRANCH  23  36
ENDBRANCH  11  13
ENDBRANCH   5  11
ENDBRANCH   2   3
TORSDOF 9
ENDMDL
MODEL      122
REMARK 921   NORMALIZED FREE ENERGY PREDICTED BY IDOCK:   -5.13 KCAL/MOL
REMARK 922        TOTAL FREE ENERGY PREDICTED BY IDOCK:   -9.18 KCAL/MOL
REMARK 923 INTER-LIGAND FREE ENERGY PREDICTED BY IDOCK:   -8.15 KCAL/MOL
REMARK 924 INTRA-LIGAND FREE ENERGY PREDICTED BY IDOCK:   -1.03 KCAL/MOL
REMARK 927      BINDING AFFINITY PREDICTED BY RF-SCORE:    0.00 PKD
ROOT
HETATM    1  C   UNL     1      -7.020  16.126  69.088  1.00  0.00    -0.201 C  
HETATM    2  O   UNL     1      -8.226  16.876  68.965  1.00  0.00    -0.234 OA 
ENDROOT
BRANCH   2   3
HETATM    3  C   UNL     1      -9.230  16.273  68.252  1.00  0.00    -0.197 A  
HETATM    4  C   UNL     1     -10.353  15.696  68.858  1.00  0.00    -0.218 A  
HETATM    5  C   UNL     1     -11.364  15.077  68.106  1.00  0.00    -0.330 A  
HETATM    6  C   UNL     1     -11.218  15.052  66.707  1.00  0.00    -0.322 A  
HETATM    7  C   UNL     1      -9.098  16.200  66.860  1.00  0.00    -0.218 A  
HETATM    8 CL   UNL     1     -12.435  14.334  65.709  1.00  0.00    -0.445 Cl 
HETATM    9  C   UNL     1     -10.094  15.603  66.087  1.00  0.00    -0.333 A  
HETATM   10 CL   UNL     1      -7.725  16.868  66.049  1.00  0.00    -0.251 Cl 
BRANCH   5  11
HETATM   11  N   UNL     1     -12.446  14.409  68.736  1.00  0.00    -0.558 NA 
HETATM   12  H   UNL     1     -13.376  14.679  68.418  1.00  0.00     0.000 HD 
BRANCH  11  13
HETATM   13  C   UNL     1     -12.409  13.416  69.749  1.00  0.00    -0.159 A  
HETATM   14  C   UNL     1     -13.750  14.810  71.330  1.00  0.00    -0.408 C  
HETATM   15  C   UNL     1     -13.099  13.595  70.965  1.00  0.00    -0.250 A  
HETATM   16  C   UNL     1     -13.132  12.544  71.862  1.00  0.00    -0.368 A  
HETATM   17  N   UNL     1     -12.561  11.343  71.640  1.00  0.00    -0.287 NA 
HETATM   18  N   UNL     1     -14.315  15.771  71.654  1.00  0.00    -0.393 NA 
HETATM   19  C   UNL     1     -11.906  11.159  70.488  1.00  0.00    -0.351 A  
HETATM   20  C   UNL     1     -11.359   9.907  70.269  1.00  0.00    -0.357 A  
HETATM   21  C   UNL     1     -10.687   9.585  69.087  1.00  0.00    -0.210 A  
HETATM   22  C   UNL     1     -11.774  12.163  69.503  1.00  0.00    -0.402 A  
HETATM   23  C   UNL     1     -10.518  10.570  68.113  1.00  0.00    -0.186 A  
HETATM   24  C   UNL     1     -11.043  11.849  68.332  1.00  0.00    -0.292 A  
BRANCH  21  25
HETATM   25  O   UNL     1     -10.112   8.357  68.900  1.00  0.00    -0.189 OA 
BRANCH  25  26
HETATM   26  C   UNL     1      -9.325   7.883  70.000  1.00  0.00    -0.157 C  
BRANCH  26  27
HETATM   27  C   UNL     1      -8.048   7.300  69.414  1.00  0.00    -0.130 C  
BRANCH  27  28
HETATM   28  C   UNL     1      -8.138   5.792  69.178  1.00  0.00    -0.101 C  
BRANCH  28  29
HETATM   29  N   UNL     1      -6.868   5.151  68.793  1.00  0.00    -0.050 NA 
HETATM   30  C   UNL     1      -5.854   5.170  69.870  1.00  0.00    -0.017 C  
HETATM   31  C   UNL     1      -6.186   4.257  71.073  1.00  0.00    -0.018 C  
HETATM   32  N   UNL     1      -6.445   2.848  70.715  1.00  0.00    -0.026 NA 
HETATM   33  C   UNL     1      -7.410   2.786  69.597  1.00  0.00    -0.044 C  
HETATM   34  C   UNL     1      -5.202   2.154  70.379  1.00  0.00    -0.004 C  
HETATM   35  C   UNL     1      -7.104   3.737  68.409  1.00  0.00    -0.051 C  
ENDBRANCH  28  29
ENDBRANCH  27  28
ENDBRANCH  26  27
ENDBRANCH  25  26
ENDBRANCH  21  25
BRANCH  23  36
HETATM   36  O   UNL     1      -9.836  10.434  66.932  1.00  0.00    -0.178 OA 
HETATM   37  C   UNL     1     -10.520  10.911  65.777  1.00  0.00    -0.210 C  
ENDBRANCH  23  36
ENDBRANCH  11  13
ENDBRANCH   5  11
ENDBRANCH   2   3
TORSDOF 9
ENDMDL
MODEL      123
REMARK 921   NORMALIZED FREE ENERGY PREDICTED BY IDOCK:   -5.07 KCAL/MOL
REMARK 922        TOTAL FREE ENERGY PREDICTED BY IDOCK:   -9.09 KCAL/MOL
REMARK 923 INTER-LIGAND FREE ENERGY PREDICTED BY IDOCK:   -7.72 KCAL/MOL
REMARK 924 INTRA-LIGAND FREE ENERGY PREDICTED BY IDOCK:   -1.36 KCAL/MOL
REMARK 927      BINDING AFFINITY PREDICTED BY RF-SCORE:    0.00 PKD
ROOT
HETATM    1  C   UNL     1      -8.327   5.136  66.529  1.00  0.00    -0.108 C  
HETATM    2  O   UNL     1      -7.135   5.526  67.206  1.00  0.00    -0.070 OA 
ENDROOT
BRANCH   2   3
HETATM    3  C   UNL     1      -7.236   5.636  68.570  1.00  0.00    -0.075 A  
HETATM    4  C   UNL     1      -7.801   6.750  69.203  1.00  0.00    -0.111 A  
HETATM    5  C   UNL     1      -7.885   6.842  70.601  1.00  0.00    -0.101 A  
HETATM    6  C   UNL     1      -7.381   5.771  71.361  1.00  0.00    -0.083 A  
HETATM    7  C   UNL     1      -6.711   4.603  69.355  1.00  0.00    -0.045 A  
HETATM    8 CL   UNL     1      -7.475   5.797  73.088  1.00  0.00    -0.095 Cl 
HETATM    9  C   UNL     1      -6.794   4.662  70.747  1.00  0.00    -0.036 A  
HETATM   10 CL   UNL     1      -5.976   3.212  68.640  1.00  0.00    -0.023 Cl 
BRANCH   5  11
HETATM   11  N   UNL     1      -8.369   8.017  71.233  1.00  0.00    -0.110 NA 
HETATM   12  H   UNL     1      -7.723   8.466  71.883  1.00  0.00     0.000 HD 
BRANCH  11  13
HETATM   13  C   UNL     1      -9.629   8.653  71.084  1.00  0.00    -0.220 A  
HETATM   14  C   UNL     1     -10.626   7.385  72.993  1.00  0.00    -0.343 C  
HETATM   15  C   UNL     1     -10.684   8.388  71.981  1.00  0.00    -0.387 A  
HETATM   16  C   UNL     1     -11.845   9.129  71.864  1.00  0.00    -0.369 A  
HETATM   17  N   UNL     1     -12.030  10.108  70.956  1.00  0.00    -0.348 NA 
HETATM   18  N   UNL     1     -10.611   6.597  73.846  1.00  0.00    -0.308 NA 
HETATM   19  C   UNL     1     -11.034  10.370  70.101  1.00  0.00    -0.300 A  
HETATM   20  C   UNL     1     -11.235  11.402  69.201  1.00  0.00    -0.335 A  
HETATM   21  C   UNL     1     -10.252  11.794  68.287  1.00  0.00    -0.205 A  
HETATM   22  C   UNL     1      -9.810   9.665  70.097  1.00  0.00    -0.310 A  
HETATM   23  C   UNL     1      -9.047  11.092  68.245  1.00  0.00    -0.162 A  
HETATM   24  C   UNL     1      -8.841  10.028  69.131  1.00  0.00    -0.171 A  
BRANCH  21  25
HETATM   25  O   UNL     1     -10.478  12.787  67.374  1.00  0.00    -0.226 OA 
BRANCH  25  26
HETATM   26  C   UNL     1     -11.849  13.179  67.231  1.00  0.00    -0.367 C  
BRANCH  26  27
HETATM   27  C   UNL     1     -11.941  14.639  67.650  1.00  0.00    -0.307 C  
BRANCH  27  28
HETATM   28  C   UNL     1     -10.894  15.519  66.966  1.00  0.00    -0.314 C  
BRANCH  28  29
HETATM   29  N   UNL     1      -9.893  16.107  67.873  1.00  0.00    -0.233 NA 
HETATM   30  C   UNL     1      -8.502  15.917  67.409  1.00  0.00    -0.175 C  
HETATM   31  C   UNL     1      -8.135  16.733  66.146  1.00  0.00    -0.258 C  
HETATM   32  N   UNL     1      -8.382  18.183  66.266  1.00  0.00    -0.434 NA 
HETATM   33  C   UNL     1      -9.746  18.416  66.787  1.00  0.00    -0.326 C  
HETATM   34  C   UNL     1      -7.377  18.820  67.115  1.00  0.00    -0.213 C  
HETATM   35  C   UNL     1     -10.132  17.564  68.025  1.00  0.00    -0.332 C  
ENDBRANCH  28  29
ENDBRANCH  27  28
ENDBRANCH  26  27
ENDBRANCH  25  26
ENDBRANCH  21  25
BRANCH  23  36
HETATM   36  O   UNL     1      -8.012  11.310  67.374  1.00  0.00    -0.122 OA 
HETATM   37  C   UNL     1      -6.970  12.147  67.865  1.00  0.00    -0.099 C  
ENDBRANCH  23  36
ENDBRANCH  11  13
ENDBRANCH   5  11
ENDBRANCH   2   3
TORSDOF 9
ENDMDL
MODEL      124
REMARK 921   NORMALIZED FREE ENERGY PREDICTED BY IDOCK:   -5.03 KCAL/MOL
REMARK 922        TOTAL FREE ENERGY PREDICTED BY IDOCK:   -9.02 KCAL/MOL
REMARK 923 INTER-LIGAND FREE ENERGY PREDICTED BY IDOCK:   -7.90 KCAL/MOL
REMARK 924 INTRA-LIGAND FREE ENERGY PREDICTED BY IDOCK:   -1.12 KCAL/MOL
REMARK 927      BINDING AFFINITY PREDICTED BY RF-SCORE:    0.00 PKD
ROOT
HETATM    1  C   UNL     1      -6.801  15.664  68.117  1.00  0.00    -0.122 C  
HETATM    2  O   UNL     1      -8.055  15.833  68.772  1.00  0.00    -0.153 OA 
ENDROOT
BRANCH   2   3
HETATM    3  C   UNL     1      -9.159  15.471  68.042  1.00  0.00    -0.182 A  
HETATM    4  C   UNL     1     -10.024  14.441  68.432  1.00  0.00    -0.241 A  
HETATM    5  C   UNL     1     -11.143  14.084  67.664  1.00  0.00    -0.282 A  
HETATM    6  C   UNL     1     -11.377  14.798  66.474  1.00  0.00    -0.344 A  
HETATM    7  C   UNL     1      -9.400  16.138  66.836  1.00  0.00    -0.227 A  
HETATM    8 CL   UNL     1     -12.752  14.437  65.488  1.00  0.00    -0.383 Cl 
HETATM    9  C   UNL     1     -10.512  15.813  66.058  1.00  0.00    -0.350 A  
HETATM   10 CL   UNL     1      -8.358  17.401  66.281  1.00  0.00    -0.291 Cl 
BRANCH   5  11
HETATM   11  N   UNL     1     -11.955  12.975  68.017  1.00  0.00    -0.337 NA 
HETATM   12  H   UNL     1     -12.853  12.915  67.538  1.00  0.00     0.000 HD 
BRANCH  11  13
HETATM   13  C   UNL     1     -11.686  11.936  68.947  1.00  0.00    -0.323 A  
HETATM   14  C   UNL     1     -12.686  13.216  70.845  1.00  0.00    -0.233 C  
HETATM   15  C   UNL     1     -12.105  12.039  70.289  1.00  0.00    -0.395 A  
HETATM   16  C   UNL     1     -11.928  10.946  71.116  1.00  0.00    -0.212 A  
HETATM   17  N   UNL     1     -11.397   9.773  70.718  1.00  0.00    -0.314 NA 
HETATM   18  N   UNL     1     -13.186  14.145  71.331  1.00  0.00    -0.345 NA 
HETATM   19  C   UNL     1     -10.999   9.663  69.445  1.00  0.00    -0.190 A  
HETATM   20  C   UNL     1     -10.488   8.438  69.051  1.00  0.00    -0.216 A  
HETATM   21  C   UNL     1     -10.077   8.190  67.738  1.00  0.00    -0.204 A  
HETATM   22  C   UNL     1     -11.096  10.715  68.507  1.00  0.00    -0.318 A  
HETATM   23  C   UNL     1     -10.136   9.224  66.803  1.00  0.00    -0.261 A  
HETATM   24  C   UNL     1     -10.625  10.476  67.194  1.00  0.00    -0.319 A  
BRANCH  21  25
HETATM   25  O   UNL     1      -9.534   6.990  67.371  1.00  0.00    -0.129 OA 
BRANCH  25  26
HETATM   26  C   UNL     1     -10.454   6.064  66.779  1.00  0.00    -0.267 C  
BRANCH  26  27
HETATM   27  C   UNL     1     -10.033   4.671  67.225  1.00  0.00    -0.203 C  
BRANCH  27  28
HETATM   28  C   UNL     1      -9.986   4.525  68.747  1.00  0.00    -0.050 C  
BRANCH  28  29
HETATM   29  N   UNL     1      -8.963   3.589  69.245  1.00  0.00    -0.105 NA 
HETATM   30  C   UNL     1      -7.598   4.161  69.241  1.00  0.00    -0.054 C  
HETATM   31  C   UNL     1      -7.375   5.281  70.285  1.00  0.00    -0.067 C  
HETATM   32  N   UNL     1      -7.705   4.896  71.671  1.00  0.00    -0.095 NA 
HETATM   33  C   UNL     1      -9.040   4.263  71.709  1.00  0.00    -0.123 C  
HETATM   34  C   UNL     1      -6.684   4.009  72.229  1.00  0.00    -0.036 C  
HETATM   35  C   UNL     1      -9.283   3.172  70.633  1.00  0.00    -0.138 C  
ENDBRANCH  28  29
ENDBRANCH  27  28
ENDBRANCH  26  27
ENDBRANCH  25  26
ENDBRANCH  21  25
BRANCH  23  36
HETATM   36  O   UNL     1      -9.718   9.163  65.499  1.00  0.00    -0.247 OA 
HETATM   37  C   UNL     1      -8.462   9.779  65.235  1.00  0.00    -0.145 C  
ENDBRANCH  23  36
ENDBRANCH  11  13
ENDBRANCH   5  11
ENDBRANCH   2   3
TORSDOF 9
ENDMDL
MODEL      125
REMARK 921   NORMALIZED FREE ENERGY PREDICTED BY IDOCK:   -5.03 KCAL/MOL
REMARK 922        TOTAL FREE ENERGY PREDICTED BY IDOCK:   -9.02 KCAL/MOL
REMARK 923 INTER-LIGAND FREE ENERGY PREDICTED BY IDOCK:   -6.84 KCAL/MOL
REMARK 924 INTRA-LIGAND FREE ENERGY PREDICTED BY IDOCK:   -2.18 KCAL/MOL
REMARK 927      BINDING AFFINITY PREDICTED BY RF-SCORE:    0.00 PKD
ROOT
HETATM    1  C   UNL     1      -8.091   9.549  66.980  1.00  0.00    -0.113 C  
HETATM    2  O   UNL     1      -9.492   9.671  66.746  1.00  0.00    -0.149 OA 
ENDROOT
BRANCH   2   3
HETATM    3  C   UNL     1     -10.231  10.140  67.802  1.00  0.00    -0.191 A  
HETATM    4  C   UNL     1     -10.098   9.642  69.104  1.00  0.00    -0.196 A  
HETATM    5  C   UNL     1     -10.871  10.133  70.167  1.00  0.00    -0.311 A  
HETATM    6  C   UNL     1     -11.797  11.154  69.887  1.00  0.00    -0.363 A  
HETATM    7  C   UNL     1     -11.186  11.131  67.550  1.00  0.00    -0.301 A  
HETATM    8 CL   UNL     1     -12.767  11.833  71.149  1.00  0.00    -0.455 Cl 
HETATM    9  C   UNL     1     -11.960  11.648  68.590  1.00  0.00    -0.311 A  
HETATM   10 CL   UNL     1     -11.422  11.771  65.962  1.00  0.00    -0.345 Cl 
BRANCH   5  11
HETATM   11  N   UNL     1     -10.798   9.554  71.460  1.00  0.00    -0.330 NA 
HETATM   12  H   UNL     1     -10.679  10.210  72.232  1.00  0.00     0.000 HD 
BRANCH  11  13
HETATM   13  C   UNL     1     -10.870   8.183  71.826  1.00  0.00    -0.256 A  
HETATM   14  C   UNL     1     -13.368   8.204  71.871  1.00  0.00    -0.324 C  
HETATM   15  C   UNL     1     -12.113   7.532  71.953  1.00  0.00    -0.338 A  
HETATM   16  C   UNL     1     -12.118   6.169  72.186  1.00  0.00    -0.207 A  
HETATM   17  N   UNL     1     -11.006   5.414  72.281  1.00  0.00    -0.233 NA 
HETATM   18  N   UNL     1     -14.410   8.708  71.786  1.00  0.00    -0.413 NA 
HETATM   19  C   UNL     1      -9.819   6.021  72.159  1.00  0.00    -0.161 A  
HETATM   20  C   UNL     1      -8.694   5.219  72.226  1.00  0.00    -0.129 A  
HETATM   21  C   UNL     1      -7.403   5.734  72.073  1.00  0.00    -0.094 A  
HETATM   22  C   UNL     1      -9.678   7.411  71.949  1.00  0.00    -0.179 A  
HETATM   23  C   UNL     1      -7.238   7.108  71.894  1.00  0.00    -0.080 A  
HETATM   24  C   UNL     1      -8.366   7.935  71.852  1.00  0.00    -0.151 A  
BRANCH  21  25
HETATM   25  O   UNL     1      -6.296   4.938  72.184  1.00  0.00    -0.031 OA 
BRANCH  25  26
HETATM   26  C   UNL     1      -5.680   4.579  70.940  1.00  0.00    -0.016 C  
BRANCH  26  27
HETATM   27  C   UNL     1      -6.378   3.321  70.445  1.00  0.00    -0.027 C  
BRANCH  27  28
HETATM   28  C   UNL     1      -6.993   3.490  69.055  1.00  0.00    -0.046 C  
BRANCH  28  29
HETATM   29  N   UNL     1      -8.414   3.878  69.053  1.00  0.00    -0.076 NA 
HETATM   30  C   UNL     1      -8.645   5.246  68.540  1.00  0.00    -0.094 C  
HETATM   31  C   UNL     1      -8.387   5.410  67.023  1.00  0.00    -0.107 C  
HETATM   32  N   UNL     1      -9.143   4.470  66.172  1.00  0.00    -0.123 NA 
HETATM   33  C   UNL     1      -8.988   3.093  66.689  1.00  0.00    -0.156 C  
HETATM   34  C   UNL     1     -10.553   4.849  66.094  1.00  0.00    -0.271 C  
HETATM   35  C   UNL     1      -9.200   2.936  68.218  1.00  0.00    -0.193 C  
ENDBRANCH  28  29
ENDBRANCH  27  28
ENDBRANCH  26  27
ENDBRANCH  25  26
ENDBRANCH  21  25
BRANCH  23  36
HETATM   36  O   UNL     1      -6.045   7.774  71.789  1.00  0.00    -0.035 OA 
HETATM   37  C   UNL     1      -5.895   8.570  70.617  1.00  0.00    -0.031 C  
ENDBRANCH  23  36
ENDBRANCH  11  13
ENDBRANCH   5  11
ENDBRANCH   2   3
TORSDOF 9
ENDMDL
MODEL      126
REMARK 921   NORMALIZED FREE ENERGY PREDICTED BY IDOCK:   -5.01 KCAL/MOL
REMARK 922        TOTAL FREE ENERGY PREDICTED BY IDOCK:   -9.00 KCAL/MOL
REMARK 923 INTER-LIGAND FREE ENERGY PREDICTED BY IDOCK:   -7.28 KCAL/MOL
REMARK 924 INTRA-LIGAND FREE ENERGY PREDICTED BY IDOCK:   -1.72 KCAL/MOL
REMARK 927      BINDING AFFINITY PREDICTED BY RF-SCORE:    0.00 PKD
ROOT
HETATM    1  C   UNL     1     -12.372   8.154  72.143  1.00  0.00    -0.338 C  
HETATM    2  O   UNL     1     -12.261   6.845  71.591  1.00  0.00    -0.326 OA 
ENDROOT
BRANCH   2   3
HETATM    3  C   UNL     1     -10.983   6.362  71.464  1.00  0.00    -0.263 A  
HETATM    4  C   UNL     1     -10.066   6.870  70.536  1.00  0.00    -0.201 A  
HETATM    5  C   UNL     1      -8.767   6.353  70.420  1.00  0.00    -0.147 A  
HETATM    6  C   UNL     1      -8.404   5.295  71.273  1.00  0.00    -0.123 A  
HETATM    7  C   UNL     1     -10.602   5.285  72.273  1.00  0.00    -0.222 A  
HETATM    8 CL   UNL     1      -6.811   4.622  71.211  1.00  0.00    -0.034 Cl 
HETATM    9  C   UNL     1      -9.313   4.760  72.189  1.00  0.00    -0.171 A  
HETATM   10 CL   UNL     1     -11.693   4.591  73.421  1.00  0.00    -0.276 Cl 
BRANCH   5  11
HETATM   11  N   UNL     1      -7.880   6.809  69.410  1.00  0.00    -0.111 NA 
HETATM   12  H   UNL     1      -6.934   7.027  69.720  1.00  0.00     0.000 HD 
BRANCH  11  13
HETATM   13  C   UNL     1      -8.133   7.004  68.026  1.00  0.00    -0.119 A  
HETATM   14  C   UNL     1      -7.897   4.568  67.521  1.00  0.00    -0.089 C  
HETATM   15  C   UNL     1      -8.205   5.908  67.143  1.00  0.00    -0.105 A  
HETATM   16  C   UNL     1      -8.578   6.146  65.833  1.00  0.00    -0.147 A  
HETATM   17  N   UNL     1      -8.900   7.361  65.347  1.00  0.00     0.021 NA 
HETATM   18  N   UNL     1      -7.680   3.460  67.794  1.00  0.00    -0.068 NA 
HETATM   19  C   UNL     1      -8.838   8.408  66.178  1.00  0.00    -0.165 A  
HETATM   20  C   UNL     1      -9.205   9.640  65.664  1.00  0.00    -0.270 A  
HETATM   21  C   UNL     1      -9.220  10.798  66.446  1.00  0.00    -0.170 A  
HETATM   22  C   UNL     1      -8.442   8.304  67.530  1.00  0.00    -0.130 A  
HETATM   23  C   UNL     1      -8.804  10.724  67.775  1.00  0.00    -0.130 A  
HETATM   24  C   UNL     1      -8.403   9.490  68.301  1.00  0.00    -0.118 A  
BRANCH  21  25
HETATM   25  O   UNL     1      -9.543  12.017  65.916  1.00  0.00    -0.234 OA 
BRANCH  25  26
HETATM   26  C   UNL     1     -10.941  12.335  65.937  1.00  0.00    -0.302 C  
BRANCH  26  27
HETATM   27  C   UNL     1     -11.051  13.851  66.001  1.00  0.00    -0.289 C  
BRANCH  27  28
HETATM   28  C   UNL     1     -11.656  14.348  67.315  1.00  0.00    -0.379 C  
BRANCH  28  29
HETATM   29  N   UNL     1     -10.840  14.075  68.511  1.00  0.00    -0.246 NA 
HETATM   30  C   UNL     1     -10.279  15.299  69.126  1.00  0.00    -0.242 C  
HETATM   31  C   UNL     1     -11.330  16.211  69.801  1.00  0.00    -0.323 C  
HETATM   32  N   UNL     1     -12.165  15.534  70.812  1.00  0.00    -0.371 NA 
HETATM   33  C   UNL     1     -12.697  14.271  70.256  1.00  0.00    -0.249 C  
HETATM   34  C   UNL     1     -11.411  15.293  72.041  1.00  0.00    -0.413 C  
HETATM   35  C   UNL     1     -11.653  13.377  69.538  1.00  0.00    -0.290 C  
ENDBRANCH  28  29
ENDBRANCH  27  28
ENDBRANCH  26  27
ENDBRANCH  25  26
ENDBRANCH  21  25
BRANCH  23  36
HETATM   36  O   UNL     1      -8.702  11.771  68.653  1.00  0.00    -0.143 OA 
HETATM   37  C   UNL     1      -7.440  12.430  68.670  1.00  0.00    -0.095 C  
ENDBRANCH  23  36
ENDBRANCH  11  13
ENDBRANCH   5  11
ENDBRANCH   2   3
TORSDOF 9
ENDMDL
MODEL      127
REMARK 921   NORMALIZED FREE ENERGY PREDICTED BY IDOCK:   -5.01 KCAL/MOL
REMARK 922        TOTAL FREE ENERGY PREDICTED BY IDOCK:   -8.99 KCAL/MOL
REMARK 923 INTER-LIGAND FREE ENERGY PREDICTED BY IDOCK:   -8.75 KCAL/MOL
REMARK 924 INTRA-LIGAND FREE ENERGY PREDICTED BY IDOCK:   -0.24 KCAL/MOL
REMARK 927      BINDING AFFINITY PREDICTED BY RF-SCORE:    0.00 PKD
ROOT
HETATM    1  C   UNL     1      -7.499   9.259  71.164  1.00  0.00    -0.013 C  
HETATM    2  O   UNL     1      -8.520   8.450  70.586  1.00  0.00    -0.121 OA 
ENDROOT
BRANCH   2   3
HETATM    3  C   UNL     1      -9.791   8.679  71.048  1.00  0.00    -0.210 A  
HETATM    4  C   UNL     1     -10.591   9.731  70.585  1.00  0.00    -0.382 A  
HETATM    5  C   UNL     1     -11.886   9.949  71.079  1.00  0.00    -0.376 A  
HETATM    6  C   UNL     1     -12.368   9.070  72.066  1.00  0.00    -0.384 A  
HETATM    7  C   UNL     1     -10.287   7.844  72.056  1.00  0.00    -0.225 A  
HETATM    8 CL   UNL     1     -13.966   9.255  72.704  1.00  0.00    -0.432 Cl 
HETATM    9  C   UNL     1     -11.576   8.028  72.556  1.00  0.00    -0.464 A  
HETATM   10 CL   UNL     1      -9.344   6.542  72.692  1.00  0.00    -0.143 Cl 
BRANCH   5  11
HETATM   11  N   UNL     1     -12.648  11.076  70.675  1.00  0.00    -0.344 NA 
HETATM   12  H   UNL     1     -13.636  11.052  70.925  1.00  0.00     0.000 HD 
BRANCH  11  13
HETATM   13  C   UNL     1     -12.222  12.231  69.969  1.00  0.00    -0.196 A  
HETATM   14  C   UNL     1     -12.908  13.760  71.822  1.00  0.00    -0.326 C  
HETATM   15  C   UNL     1     -12.290  13.508  70.562  1.00  0.00    -0.412 A  
HETATM   16  C   UNL     1     -11.744  14.578  69.878  1.00  0.00    -0.299 A  
HETATM   17  N   UNL     1     -11.129  14.478  68.683  1.00  0.00    -0.246 NA 
HETATM   18  N   UNL     1     -13.377  14.005  72.856  1.00  0.00    -0.648 NA 
HETATM   19  C   UNL     1     -11.055  13.270  68.112  1.00  0.00    -0.259 A  
HETATM   20  C   UNL     1     -10.389  13.187  66.902  1.00  0.00    -0.247 A  
HETATM   21  C   UNL     1     -10.213  11.974  66.230  1.00  0.00    -0.222 A  
HETATM   22  C   UNL     1     -11.599  12.103  68.692  1.00  0.00    -0.372 A  
HETATM   23  C   UNL     1     -10.768  10.814  66.771  1.00  0.00    -0.231 A  
HETATM   24  C   UNL     1     -11.469  10.887  67.980  1.00  0.00    -0.356 A  
BRANCH  21  25
HETATM   25  O   UNL     1      -9.590  11.911  65.014  1.00  0.00    -0.200 OA 
BRANCH  25  26
HETATM   26  C   UNL     1     -10.407  11.430  63.939  1.00  0.00    -0.379 C  
BRANCH  26  27
HETATM   27  C   UNL     1      -9.466  10.982  62.831  1.00  0.00    -0.378 C  
BRANCH  27  28
HETATM   28  C   UNL     1      -8.104  10.527  63.356  1.00  0.00    -0.076 C  
BRANCH  28  29
HETATM   29  N   UNL     1      -8.155   9.420  64.327  1.00  0.00    -0.131 NA 
HETATM   30  C   UNL     1      -8.259   8.089  63.689  1.00  0.00    -0.039 C  
HETATM   31  C   UNL     1      -6.982   7.641  62.939  1.00  0.00    -0.073 C  
HETATM   32  N   UNL     1      -5.756   7.660  63.759  1.00  0.00    -0.044 NA 
HETATM   33  C   UNL     1      -5.646   8.955  64.465  1.00  0.00    -0.063 C  
HETATM   34  C   UNL     1      -5.736   6.543  64.703  1.00  0.00    -0.030 C  
HETATM   35  C   UNL     1      -6.940   9.428  65.178  1.00  0.00    -0.092 C  
ENDBRANCH  28  29
ENDBRANCH  27  28
ENDBRANCH  26  27
ENDBRANCH  25  26
ENDBRANCH  21  25
BRANCH  23  36
HETATM   36  O   UNL     1     -10.738   9.563  66.211  1.00  0.00    -0.031 OA 
HETATM   37  C   UNL     1     -10.295   8.521  67.075  1.00  0.00    -0.309 C  
ENDBRANCH  23  36
ENDBRANCH  11  13
ENDBRANCH   5  11
ENDBRANCH   2   3
TORSDOF 9
ENDMDL
MODEL      128
REMARK 921   NORMALIZED FREE ENERGY PREDICTED BY IDOCK:   -5.01 KCAL/MOL
REMARK 922        TOTAL FREE ENERGY PREDICTED BY IDOCK:   -8.99 KCAL/MOL
REMARK 923 INTER-LIGAND FREE ENERGY PREDICTED BY IDOCK:   -8.02 KCAL/MOL
REMARK 924 INTRA-LIGAND FREE ENERGY PREDICTED BY IDOCK:   -0.97 KCAL/MOL
REMARK 927      BINDING AFFINITY PREDICTED BY RF-SCORE:    0.00 PKD
ROOT
HETATM    1  C   UNL     1      -9.322  10.012  62.753  1.00  0.00    -0.260 C  
HETATM    2  O   UNL     1      -8.883   9.399  63.962  1.00  0.00    -0.215 OA 
ENDROOT
BRANCH   2   3
HETATM    3  C   UNL     1      -8.576  10.260  64.986  1.00  0.00    -0.180 A  
HETATM    4  C   UNL     1      -9.512  11.138  65.547  1.00  0.00    -0.251 A  
HETATM    5  C   UNL     1      -9.172  12.014  66.589  1.00  0.00    -0.211 A  
HETATM    6  C   UNL     1      -7.848  11.988  67.062  1.00  0.00    -0.138 A  
HETATM    7  C   UNL     1      -7.258  10.283  65.456  1.00  0.00    -0.149 A  
HETATM    8 CL   UNL     1      -7.358  13.017  68.364  1.00  0.00    -0.109 Cl 
HETATM    9  C   UNL     1      -6.895  11.135  66.499  1.00  0.00    -0.126 A  
HETATM   10 CL   UNL     1      -6.046   9.245  64.790  1.00  0.00    -0.065 Cl 
BRANCH   5  11
HETATM   11  N   UNL     1     -10.101  12.968  67.081  1.00  0.00    -0.241 NA 
HETATM   12  H   UNL     1     -10.343  13.721  66.438  1.00  0.00     0.000 HD 
BRANCH  11  13
HETATM   13  C   UNL     1     -10.739  13.015  68.349  1.00  0.00    -0.256 A  
HETATM   14  C   UNL     1     -10.952  15.503  68.280  1.00  0.00    -0.305 C  
HETATM   15  C   UNL     1     -11.204  14.235  68.880  1.00  0.00    -0.289 A  
HETATM   16  C   UNL     1     -11.928  14.203  70.057  1.00  0.00    -0.340 A  
HETATM   17  N   UNL     1     -12.239  13.074  70.724  1.00  0.00    -0.342 NA 
HETATM   18  N   UNL     1     -10.792  16.553  67.810  1.00  0.00    -0.332 NA 
HETATM   19  C   UNL     1     -11.806  11.909  70.227  1.00  0.00    -0.281 A  
HETATM   20  C   UNL     1     -12.167  10.762  70.911  1.00  0.00    -0.487 A  
HETATM   21  C   UNL     1     -11.808   9.486  70.466  1.00  0.00    -0.183 A  
HETATM   22  C   UNL     1     -11.032  11.808  69.050  1.00  0.00    -0.276 A  
HETATM   23  C   UNL     1     -11.019   9.365  69.322  1.00  0.00    -0.117 A  
HETATM   24  C   UNL     1     -10.622  10.518  68.636  1.00  0.00    -0.226 A  
BRANCH  21  25
HETATM   25  O   UNL     1     -12.135   8.362  71.173  1.00  0.00    -0.289 OA 
BRANCH  25  26
HETATM   26  C   UNL     1     -11.664   8.340  72.528  1.00  0.00    -0.383 C  
BRANCH  26  27
HETATM   27  C   UNL     1     -10.255   7.767  72.500  1.00  0.00    -0.320 C  
BRANCH  27  28
HETATM   28  C   UNL     1     -10.172   6.367  73.110  1.00  0.00    -0.205 C  
BRANCH  28  29
HETATM   29  N   UNL     1     -10.705   5.290  72.257  1.00  0.00    -0.225 NA 
HETATM   30  C   UNL     1     -10.116   5.275  70.900  1.00  0.00    -0.226 C  
HETATM   31  C   UNL     1      -8.629   4.852  70.855  1.00  0.00    -0.115 C  
HETATM   32  N   UNL     1      -8.347   3.549  71.489  1.00  0.00    -0.071 NA 
HETATM   33  C   UNL     1      -8.972   3.499  72.828  1.00  0.00    -0.096 C  
HETATM   34  C   UNL     1      -8.810   2.444  70.650  1.00  0.00    -0.070 C  
HETATM   35  C   UNL     1     -10.450   3.968  72.883  1.00  0.00    -0.171 C  
ENDBRANCH  28  29
ENDBRANCH  27  28
ENDBRANCH  26  27
ENDBRANCH  25  26
ENDBRANCH  21  25
BRANCH  23  36
HETATM   36  O   UNL     1     -10.533   8.198  68.792  1.00  0.00    -0.211 OA 
HETATM   37  C   UNL     1     -10.569   8.115  67.371  1.00  0.00    -0.255 C  
ENDBRANCH  23  36
ENDBRANCH  11  13
ENDBRANCH   5  11
ENDBRANCH   2   3
TORSDOF 9
ENDMDL
MODEL      129
REMARK 921   NORMALIZED FREE ENERGY PREDICTED BY IDOCK:   -5.01 KCAL/MOL
REMARK 922        TOTAL FREE ENERGY PREDICTED BY IDOCK:   -8.98 KCAL/MOL
REMARK 923 INTER-LIGAND FREE ENERGY PREDICTED BY IDOCK:   -7.40 KCAL/MOL
REMARK 924 INTRA-LIGAND FREE ENERGY PREDICTED BY IDOCK:   -1.58 KCAL/MOL
REMARK 927      BINDING AFFINITY PREDICTED BY RF-SCORE:    0.00 PKD
ROOT
HETATM    1  C   UNL     1     -11.887  13.051  63.337  1.00  0.00    -0.476 C  
HETATM    2  O   UNL     1     -10.922  13.403  64.326  1.00  0.00    -0.382 OA 
ENDROOT
BRANCH   2   3
HETATM    3  C   UNL     1     -10.748  12.489  65.335  1.00  0.00    -0.280 A  
HETATM    4  C   UNL     1      -9.932  11.359  65.204  1.00  0.00    -0.310 A  
HETATM    5  C   UNL     1      -9.776  10.434  66.248  1.00  0.00    -0.205 A  
HETATM    6  C   UNL     1     -10.470  10.676  67.448  1.00  0.00    -0.235 A  
HETATM    7  C   UNL     1     -11.452  12.682  66.529  1.00  0.00    -0.353 A  
HETATM    8 CL   UNL     1     -10.306   9.599  68.792  1.00  0.00    -0.222 Cl 
HETATM    9  C   UNL     1     -11.306  11.787  67.588  1.00  0.00    -0.370 A  
HETATM   10 CL   UNL     1     -12.497  14.042  66.748  1.00  0.00    -0.355 Cl 
BRANCH   5  11
HETATM   11  N   UNL     1      -9.026   9.242  66.071  1.00  0.00    -0.164 NA 
HETATM   12  H   UNL     1      -9.266   8.689  65.248  1.00  0.00     0.000 HD 
BRANCH  11  13
HETATM   13  C   UNL     1      -7.988   8.715  66.883  1.00  0.00    -0.095 A  
HETATM   14  C   UNL     1      -6.745  10.882  66.905  1.00  0.00    -0.106 C  
HETATM   15  C   UNL     1      -6.933   9.535  67.333  1.00  0.00    -0.084 A  
HETATM   16  C   UNL     1      -6.021   9.000  68.223  1.00  0.00    -0.042 A  
HETATM   17  N   UNL     1      -6.085   7.744  68.708  1.00  0.00    -0.038 NA 
HETATM   18  N   UNL     1      -6.570  11.990  66.604  1.00  0.00     0.014 NA 
HETATM   19  C   UNL     1      -7.084   6.958  68.291  1.00  0.00    -0.086 A  
HETATM   20  C   UNL     1      -7.148   5.685  68.830  1.00  0.00    -0.069 A  
HETATM   21  C   UNL     1      -8.168   4.787  68.502  1.00  0.00    -0.083 A  
HETATM   22  C   UNL     1      -8.063   7.374  67.361  1.00  0.00    -0.113 A  
HETATM   23  C   UNL     1      -9.128   5.167  67.563  1.00  0.00    -0.114 A  
HETATM   24  C   UNL     1      -9.060   6.442  66.989  1.00  0.00    -0.130 A  
BRANCH  21  25
HETATM   25  O   UNL     1      -8.196   3.517  69.008  1.00  0.00    -0.060 OA 
BRANCH  25  26
HETATM   26  C   UNL     1      -8.448   3.431  70.417  1.00  0.00    -0.057 C  
BRANCH  26  27
HETATM   27  C   UNL     1      -9.882   3.888  70.641  1.00  0.00    -0.193 C  
BRANCH  27  28
HETATM   28  C   UNL     1      -9.979   5.117  71.545  1.00  0.00    -0.187 C  
BRANCH  28  29
HETATM   29  N   UNL     1     -10.141   6.396  70.832  1.00  0.00    -0.185 NA 
HETATM   30  C   UNL     1     -11.524   6.631  70.362  1.00  0.00    -0.386 C  
HETATM   31  C   UNL     1     -12.544   6.899  71.494  1.00  0.00    -0.367 C  
HETATM   32  N   UNL     1     -12.175   8.006  72.397  1.00  0.00    -0.315 NA 
HETATM   33  C   UNL     1     -10.774   7.842  72.843  1.00  0.00    -0.385 C  
HETATM   34  C   UNL     1     -12.373   9.302  71.749  1.00  0.00    -0.379 C  
HETATM   35  C   UNL     1      -9.757   7.526  71.714  1.00  0.00    -0.160 C  
ENDBRANCH  28  29
ENDBRANCH  27  28
ENDBRANCH  26  27
ENDBRANCH  25  26
ENDBRANCH  21  25
BRANCH  23  36
HETATM   36  O   UNL     1     -10.151   4.388  67.090  1.00  0.00    -0.175 OA 
HETATM   37  C   UNL     1     -10.491   4.596  65.722  1.00  0.00    -0.255 C  
ENDBRANCH  23  36
ENDBRANCH  11  13
ENDBRANCH   5  11
ENDBRANCH   2   3
TORSDOF 9
ENDMDL
MODEL      130
REMARK 921   NORMALIZED FREE ENERGY PREDICTED BY IDOCK:   -4.99 KCAL/MOL
REMARK 922        TOTAL FREE ENERGY PREDICTED BY IDOCK:   -8.96 KCAL/MOL
REMARK 923 INTER-LIGAND FREE ENERGY PREDICTED BY IDOCK:   -7.69 KCAL/MOL
REMARK 924 INTRA-LIGAND FREE ENERGY PREDICTED BY IDOCK:   -1.27 KCAL/MOL
REMARK 927      BINDING AFFINITY PREDICTED BY RF-SCORE:    0.00 PKD
ROOT
HETATM    1  C   UNL     1      -8.751   9.146  62.500  1.00  0.00    -0.211 C  
HETATM    2  O   UNL     1      -8.456   8.583  63.776  1.00  0.00    -0.134 OA 
ENDROOT
BRANCH   2   3
HETATM    3  C   UNL     1      -8.526   9.450  64.837  1.00  0.00    -0.163 A  
HETATM    4  C   UNL     1      -9.736   9.833  65.428  1.00  0.00    -0.383 A  
HETATM    5  C   UNL     1      -9.783  10.728  66.508  1.00  0.00    -0.196 A  
HETATM    6  C   UNL     1      -8.563  11.238  66.989  1.00  0.00    -0.148 A  
HETATM    7  C   UNL     1      -7.333  10.003  65.316  1.00  0.00    -0.137 A  
HETATM    8 CL   UNL     1      -8.534  12.323  68.336  1.00  0.00    -0.163 Cl 
HETATM    9  C   UNL     1      -7.348  10.885  66.398  1.00  0.00    -0.141 A  
HETATM   10 CL   UNL     1      -5.806   9.596  64.616  1.00  0.00    -0.076 Cl 
BRANCH   5  11
HETATM   11  N   UNL     1     -11.019  11.184  67.034  1.00  0.00    -0.288 NA 
HETATM   12  H   UNL     1     -11.751  11.364  66.347  1.00  0.00     0.000 HD 
BRANCH  11  13
HETATM   13  C   UNL     1     -11.375  11.425  68.387  1.00  0.00    -0.281 A  
HETATM   14  C   UNL     1     -11.780  13.856  67.970  1.00  0.00    -0.352 C  
HETATM   15  C   UNL     1     -11.805  12.701  68.806  1.00  0.00    -0.341 A  
HETATM   16  C   UNL     1     -12.259  12.845  70.104  1.00  0.00    -0.266 A  
HETATM   17  N   UNL     1     -12.338  11.837  70.994  1.00  0.00    -0.334 NA 
HETATM   18  N   UNL     1     -11.800  14.814  67.316  1.00  0.00    -0.354 NA 
HETATM   19  C   UNL     1     -11.936  10.620  70.606  1.00  0.00    -0.367 A  
HETATM   20  C   UNL     1     -12.059   9.595  71.527  1.00  0.00    -0.482 A  
HETATM   21  C   UNL     1     -11.711   8.276  71.224  1.00  0.00    -0.283 A  
HETATM   22  C   UNL     1     -11.424  10.347  69.318  1.00  0.00    -0.281 A  
HETATM   23  C   UNL     1     -11.175   7.989  69.968  1.00  0.00    -0.090 A  
HETATM   24  C   UNL     1     -11.019   9.021  69.036  1.00  0.00    -0.001 A  
BRANCH  21  25
HETATM   25  O   UNL     1     -11.796   7.279  72.156  1.00  0.00    -0.288 OA 
BRANCH  25  26
HETATM   26  C   UNL     1     -10.544   6.686  72.526  1.00  0.00    -0.217 C  
BRANCH  26  27
HETATM   27  C   UNL     1      -9.683   7.796  73.110  1.00  0.00    -0.347 C  
BRANCH  27  28
HETATM   28  C   UNL     1      -8.198   7.630  72.781  1.00  0.00    -0.121 C  
BRANCH  28  29
HETATM   29  N   UNL     1      -7.524   8.862  72.335  1.00  0.00    -0.342 NA 
HETATM   30  C   UNL     1      -6.048   8.772  72.389  1.00  0.00    -0.066 C  
HETATM   31  C   UNL     1      -5.431   7.813  71.344  1.00  0.00    -0.034 C  
HETATM   32  N   UNL     1      -5.820   8.100  69.950  1.00  0.00    -0.023 NA 
HETATM   33  C   UNL     1      -7.287   8.259  69.863  1.00  0.00    -0.064 C  
HETATM   34  C   UNL     1      -5.130   9.286  69.444  1.00  0.00    -0.036 C  
HETATM   35  C   UNL     1      -7.914   9.184  70.940  1.00  0.00    -0.157 C  
ENDBRANCH  28  29
ENDBRANCH  27  28
ENDBRANCH  26  27
ENDBRANCH  25  26
ENDBRANCH  21  25
BRANCH  23  36
HETATM   36  O   UNL     1     -10.729   6.767  69.536  1.00  0.00    -0.226 OA 
HETATM   37  C   UNL     1     -10.846   6.537  68.136  1.00  0.00    -0.295 C  
ENDBRANCH  23  36
ENDBRANCH  11  13
ENDBRANCH   5  11
ENDBRANCH   2   3
TORSDOF 9
ENDMDL
MODEL      131
REMARK 921   NORMALIZED FREE ENERGY PREDICTED BY IDOCK:   -4.97 KCAL/MOL
REMARK 922        TOTAL FREE ENERGY PREDICTED BY IDOCK:   -8.92 KCAL/MOL
REMARK 923 INTER-LIGAND FREE ENERGY PREDICTED BY IDOCK:   -7.47 KCAL/MOL
REMARK 924 INTRA-LIGAND FREE ENERGY PREDICTED BY IDOCK:   -1.45 KCAL/MOL
REMARK 927      BINDING AFFINITY PREDICTED BY RF-SCORE:    0.00 PKD
ROOT
HETATM    1  C   UNL     1     -10.076   3.699  64.115  1.00  0.00    -0.212 C  
HETATM    2  O   UNL     1     -10.415   4.310  65.357  1.00  0.00    -0.244 OA 
ENDROOT
BRANCH   2   3
HETATM    3  C   UNL     1      -9.394   4.973  65.990  1.00  0.00    -0.157 A  
HETATM    4  C   UNL     1      -9.030   6.287  65.674  1.00  0.00    -0.035 A  
HETATM    5  C   UNL     1      -7.976   6.942  66.331  1.00  0.00    -0.106 A  
HETATM    6  C   UNL     1      -7.285   6.232  67.330  1.00  0.00    -0.078 A  
HETATM    7  C   UNL     1      -8.663   4.283  66.964  1.00  0.00    -0.109 A  
HETATM    8 CL   UNL     1      -5.993   6.979  68.205  1.00  0.00    -0.024 Cl 
HETATM    9  C   UNL     1      -7.620   4.912  67.643  1.00  0.00    -0.083 A  
HETATM   10 CL   UNL     1      -9.042   2.649  67.384  1.00  0.00    -0.193 Cl 
BRANCH   5  11
HETATM   11  N   UNL     1      -7.553   8.237  65.935  1.00  0.00    -0.080 NA 
HETATM   12  H   UNL     1      -6.629   8.518  66.262  1.00  0.00     0.000 HD 
BRANCH  11  13
HETATM   13  C   UNL     1      -8.241   9.194  65.143  1.00  0.00    -0.145 A  
HETATM   14  C   UNL     1      -7.219   8.350  63.025  1.00  0.00    -0.096 C  
HETATM   15  C   UNL     1      -8.123   9.191  63.738  1.00  0.00    -0.156 A  
HETATM   16  C   UNL     1      -8.912  10.063  63.013  1.00  0.00    -0.260 A  
HETATM   17  N   UNL     1      -9.808  10.907  63.561  1.00  0.00    -0.327 NA 
HETATM   18  N   UNL     1      -6.517   7.664  62.404  1.00  0.00    -0.071 NA 
HETATM   19  C   UNL     1      -9.931  10.916  64.894  1.00  0.00    -0.303 A  
HETATM   20  C   UNL     1     -10.882  11.767  65.431  1.00  0.00    -0.347 A  
HETATM   21  C   UNL     1     -11.129  11.835  66.805  1.00  0.00    -0.306 A  
HETATM   22  C   UNL     1      -9.162  10.097  65.750  1.00  0.00    -0.221 A  
HETATM   23  C   UNL     1     -10.361  11.056  67.671  1.00  0.00    -0.191 A  
HETATM   24  C   UNL     1      -9.376  10.211  67.144  1.00  0.00    -0.176 A  
BRANCH  21  25
HETATM   25  O   UNL     1     -12.041  12.710  67.328  1.00  0.00    -0.448 OA 
BRANCH  25  26
HETATM   26  C   UNL     1     -11.818  14.087  66.996  1.00  0.00    -0.428 C  
BRANCH  26  27
HETATM   27  C   UNL     1     -10.865  14.648  68.042  1.00  0.00    -0.260 C  
BRANCH  27  28
HETATM   28  C   UNL     1     -10.875  16.176  68.096  1.00  0.00    -0.329 C  
BRANCH  28  29
HETATM   29  N   UNL     1      -9.937  16.832  67.169  1.00  0.00    -0.267 NA 
HETATM   30  C   UNL     1      -9.761  18.276  67.442  1.00  0.00    -0.296 C  
HETATM   31  C   UNL     1      -9.003  18.588  68.754  1.00  0.00    -0.240 C  
HETATM   32  N   UNL     1      -7.682  17.939  68.863  1.00  0.00    -0.245 NA 
HETATM   33  C   UNL     1      -7.803  16.501  68.537  1.00  0.00    -0.210 C  
HETATM   34  C   UNL     1      -6.700  18.595  68.000  1.00  0.00    -0.221 C  
HETATM   35  C   UNL     1      -8.604  16.184  67.246  1.00  0.00    -0.178 C  
ENDBRANCH  28  29
ENDBRANCH  27  28
ENDBRANCH  26  27
ENDBRANCH  25  26
ENDBRANCH  21  25
BRANCH  23  36
HETATM   36  O   UNL     1     -10.435  11.051  69.039  1.00  0.00    -0.204 OA 
HETATM   37  C   UNL     1      -9.607  10.092  69.689  1.00  0.00    -0.226 C  
ENDBRANCH  23  36
ENDBRANCH  11  13
ENDBRANCH   5  11
ENDBRANCH   2   3
TORSDOF 9
ENDMDL
MODEL      132
REMARK 921   NORMALIZED FREE ENERGY PREDICTED BY IDOCK:   -4.97 KCAL/MOL
REMARK 922        TOTAL FREE ENERGY PREDICTED BY IDOCK:   -8.92 KCAL/MOL
REMARK 923 INTER-LIGAND FREE ENERGY PREDICTED BY IDOCK:   -7.92 KCAL/MOL
REMARK 924 INTRA-LIGAND FREE ENERGY PREDICTED BY IDOCK:   -1.00 KCAL/MOL
REMARK 927      BINDING AFFINITY PREDICTED BY RF-SCORE:    0.00 PKD
ROOT
HETATM    1  C   UNL     1      -7.125   5.386  72.682  1.00  0.00    -0.088 C  
HETATM    2  O   UNL     1      -8.489   5.259  72.290  1.00  0.00    -0.123 OA 
ENDROOT
BRANCH   2   3
HETATM    3  C   UNL     1      -9.071   6.396  71.788  1.00  0.00    -0.143 A  
HETATM    4  C   UNL     1      -8.497   7.154  70.761  1.00  0.00    -0.133 A  
HETATM    5  C   UNL     1      -9.108   8.318  70.270  1.00  0.00    -0.150 A  
HETATM    6  C   UNL     1     -10.331   8.710  70.846  1.00  0.00    -0.211 A  
HETATM    7  C   UNL     1     -10.270   6.832  72.364  1.00  0.00    -0.180 A  
HETATM    8 CL   UNL     1     -11.161  10.117  70.276  1.00  0.00    -0.356 Cl 
HETATM    9  C   UNL     1     -10.907   7.978  71.887  1.00  0.00    -0.316 A  
HETATM   10 CL   UNL     1     -11.020   5.958  73.654  1.00  0.00    -0.188 Cl 
BRANCH   5  11
HETATM   11  N   UNL     1      -8.469   9.132  69.299  1.00  0.00    -0.128 NA 
HETATM   12  H   UNL     1      -7.577   9.537  69.581  1.00  0.00     0.000 HD 
BRANCH  11  13
HETATM   13  C   UNL     1      -8.904   9.459  67.988  1.00  0.00    -0.124 A  
HETATM   14  C   UNL     1      -9.249   7.060  67.378  1.00  0.00    -0.126 C  
HETATM   15  C   UNL     1      -9.341   8.455  67.099  1.00  0.00    -0.192 A  
HETATM   16  C   UNL     1      -9.871   8.843  65.883  1.00  0.00    -0.129 A  
HETATM   17  N   UNL     1     -10.019  10.126  65.496  1.00  0.00    -0.292 NA 
HETATM   18  N   UNL     1      -9.216   5.917  67.575  1.00  0.00    -0.109 NA 
HETATM   19  C   UNL     1      -9.611  11.087  66.333  1.00  0.00    -0.198 A  
HETATM   20  C   UNL     1      -9.804  12.396  65.928  1.00  0.00    -0.265 A  
HETATM   21  C   UNL     1      -9.456  13.484  66.734  1.00  0.00    -0.269 A  
HETATM   22  C   UNL     1      -9.025  10.823  67.591  1.00  0.00    -0.140 A  
HETATM   23  C   UNL     1      -8.848  13.246  67.967  1.00  0.00    -0.190 A  
HETATM   24  C   UNL     1      -8.621  11.928  68.378  1.00  0.00    -0.152 A  
BRANCH  21  25
HETATM   25  O   UNL     1      -9.612  14.774  66.305  1.00  0.00    -0.280 OA 
BRANCH  25  26
HETATM   26  C   UNL     1     -10.867  15.054  65.671  1.00  0.00    -0.349 C  
BRANCH  26  27
HETATM   27  C   UNL     1     -10.784  16.472  65.127  1.00  0.00    -0.261 C  
BRANCH  27  28
HETATM   28  C   UNL     1     -10.565  17.516  66.223  1.00  0.00    -0.198 C  
BRANCH  28  29
HETATM   29  N   UNL     1      -9.440  18.437  65.983  1.00  0.00    -0.504 NA 
HETATM   30  C   UNL     1      -9.574  19.722  66.703  1.00  0.00    -0.392 C  
HETATM   31  C   UNL     1      -9.421  19.611  68.238  1.00  0.00    -0.368 C  
HETATM   32  N   UNL     1      -8.168  18.968  68.680  1.00  0.00    -0.361 NA 
HETATM   33  C   UNL     1      -7.964  17.706  67.938  1.00  0.00    -0.231 C  
HETATM   34  C   UNL     1      -7.028  19.869  68.513  1.00  0.00    -0.304 C  
HETATM   35  C   UNL     1      -8.164  17.806  66.402  1.00  0.00    -0.255 C  
ENDBRANCH  28  29
ENDBRANCH  27  28
ENDBRANCH  26  27
ENDBRANCH  25  26
ENDBRANCH  21  25
BRANCH  23  36
HETATM   36  O   UNL     1      -8.394  14.197  68.844  1.00  0.00    -0.111 OA 
HETATM   37  C   UNL     1      -6.983  14.218  69.040  1.00  0.00    -0.112 C  
ENDBRANCH  23  36
ENDBRANCH  11  13
ENDBRANCH   5  11
ENDBRANCH   2   3
TORSDOF 9
ENDMDL
MODEL      133
REMARK 921   NORMALIZED FREE ENERGY PREDICTED BY IDOCK:   -4.96 KCAL/MOL
REMARK 922        TOTAL FREE ENERGY PREDICTED BY IDOCK:   -8.91 KCAL/MOL
REMARK 923 INTER-LIGAND FREE ENERGY PREDICTED BY IDOCK:   -8.19 KCAL/MOL
REMARK 924 INTRA-LIGAND FREE ENERGY PREDICTED BY IDOCK:   -0.71 KCAL/MOL
REMARK 927      BINDING AFFINITY PREDICTED BY RF-SCORE:    0.00 PKD
ROOT
HETATM    1  C   UNL     1      -8.104  15.064  66.923  1.00  0.00    -0.126 C  
HETATM    2  O   UNL     1      -8.867  16.075  67.577  1.00  0.00    -0.185 OA 
ENDROOT
BRANCH   2   3
HETATM    3  C   UNL     1      -9.917  15.626  68.338  1.00  0.00    -0.210 A  
HETATM    4  C   UNL     1     -10.380  14.306  68.292  1.00  0.00    -0.242 A  
HETATM    5  C   UNL     1     -11.461  13.873  69.075  1.00  0.00    -0.299 A  
HETATM    6  C   UNL     1     -12.078  14.814  69.919  1.00  0.00    -0.332 A  
HETATM    7  C   UNL     1     -10.575  16.547  69.161  1.00  0.00    -0.319 A  
HETATM    8 CL   UNL     1     -13.398  14.351  70.937  1.00  0.00    -0.363 Cl 
HETATM    9  C   UNL     1     -11.644  16.142  69.961  1.00  0.00    -0.247 A  
HETATM   10 CL   UNL     1     -10.073  18.199  69.246  1.00  0.00    -0.212 Cl 
BRANCH   5  11
HETATM   11  N   UNL     1     -11.984  12.560  68.947  1.00  0.00    -0.281 NA 
HETATM   12  H   UNL     1     -12.826  12.366  69.489  1.00  0.00     0.000 HD 
BRANCH  11  13
HETATM   13  C   UNL     1     -11.494  11.479  68.167  1.00  0.00    -0.315 A  
HETATM   14  C   UNL     1     -11.862  12.708  66.022  1.00  0.00    -0.436 C  
HETATM   15  C   UNL     1     -11.377  11.592  66.766  1.00  0.00    -0.354 A  
HETATM   16  C   UNL     1     -10.777  10.558  66.074  1.00  0.00    -0.016 A  
HETATM   17  N   UNL     1     -10.273   9.450  66.654  1.00  0.00    -0.258 NA 
HETATM   18  N   UNL     1     -12.219  13.608  65.381  1.00  0.00    -0.415 NA 
HETATM   19  C   UNL     1     -10.375   9.334  67.983  1.00  0.00    -0.221 A  
HETATM   20  C   UNL     1      -9.820   8.204  68.559  1.00  0.00    -0.190 A  
HETATM   21  C   UNL     1      -9.829   7.992  69.941  1.00  0.00    -0.186 A  
HETATM   22  C   UNL     1     -10.993  10.305  68.802  1.00  0.00    -0.285 A  
HETATM   23  C   UNL     1     -10.461   8.924  70.765  1.00  0.00    -0.227 A  
HETATM   24  C   UNL     1     -11.050  10.058  70.194  1.00  0.00    -0.371 A  
BRANCH  21  25
HETATM   25  O   UNL     1      -9.316   6.851  70.495  1.00  0.00    -0.159 OA 
BRANCH  25  26
HETATM   26  C   UNL     1      -9.679   5.637  69.826  1.00  0.00    -0.167 C  
BRANCH  26  27
HETATM   27  C   UNL     1      -8.387   4.897  69.515  1.00  0.00    -0.085 C  
BRANCH  27  28
HETATM   28  C   UNL     1      -8.171   4.682  68.016  1.00  0.00    -0.091 C  
BRANCH  28  29
HETATM   29  N   UNL     1      -9.395   4.379  67.253  1.00  0.00    -0.144 NA 
HETATM   30  C   UNL     1      -9.590   5.266  66.086  1.00  0.00    -0.161 C  
HETATM   31  C   UNL     1      -8.575   5.043  64.940  1.00  0.00    -0.150 C  
HETATM   32  N   UNL     1      -8.507   3.653  64.449  1.00  0.00    -0.093 NA 
HETATM   33  C   UNL     1      -8.373   2.725  65.593  1.00  0.00    -0.093 C  
HETATM   34  C   UNL     1      -9.678   3.323  63.637  1.00  0.00    -0.134 C  
HETATM   35  C   UNL     1      -9.359   2.978  66.764  1.00  0.00    -0.094 C  
ENDBRANCH  28  29
ENDBRANCH  27  28
ENDBRANCH  26  27
ENDBRANCH  25  26
ENDBRANCH  21  25
BRANCH  23  36
HETATM   36  O   UNL     1     -10.609   8.834  72.125  1.00  0.00    -0.340 OA 
HETATM   37  C   UNL     1     -11.747   8.100  72.565  1.00  0.00    -0.394 C  
ENDBRANCH  23  36
ENDBRANCH  11  13
ENDBRANCH   5  11
ENDBRANCH   2   3
TORSDOF 9
ENDMDL
MODEL      134
REMARK 921   NORMALIZED FREE ENERGY PREDICTED BY IDOCK:   -4.94 KCAL/MOL
REMARK 922        TOTAL FREE ENERGY PREDICTED BY IDOCK:   -8.88 KCAL/MOL
REMARK 923 INTER-LIGAND FREE ENERGY PREDICTED BY IDOCK:   -8.18 KCAL/MOL
REMARK 924 INTRA-LIGAND FREE ENERGY PREDICTED BY IDOCK:   -0.70 KCAL/MOL
REMARK 927      BINDING AFFINITY PREDICTED BY RF-SCORE:    0.00 PKD
ROOT
HETATM    1  C   UNL     1     -10.420  15.793  65.352  1.00  0.00    -0.414 C  
HETATM    2  O   UNL     1     -11.555  14.990  65.663  1.00  0.00    -0.302 OA 
ENDROOT
BRANCH   2   3
HETATM    3  C   UNL     1     -11.283  13.701  66.046  1.00  0.00    -0.296 A  
HETATM    4  C   UNL     1     -10.763  13.376  67.305  1.00  0.00    -0.265 A  
HETATM    5  C   UNL     1     -10.486  12.050  67.672  1.00  0.00    -0.205 A  
HETATM    6  C   UNL     1     -10.747  11.041  66.727  1.00  0.00    -0.266 A  
HETATM    7  C   UNL     1     -11.498  12.677  65.117  1.00  0.00    -0.326 A  
HETATM    8 CL   UNL     1     -10.459   9.379  67.114  1.00  0.00    -0.321 Cl 
HETATM    9  C   UNL     1     -11.244  11.348  65.458  1.00  0.00    -0.140 A  
HETATM   10 CL   UNL     1     -12.113  13.010  63.536  1.00  0.00    -0.615 Cl 
BRANCH   5  11
HETATM   11  N   UNL     1      -9.867  11.743  68.911  1.00  0.00    -0.402 NA 
HETATM   12  H   UNL     1      -9.931  12.466  69.627  1.00  0.00     0.000 HD 
BRANCH  11  13
HETATM   13  C   UNL     1      -9.172  10.564  69.290  1.00  0.00    -0.148 A  
HETATM   14  C   UNL     1      -7.209  11.117  67.847  1.00  0.00    -0.090 C  
HETATM   15  C   UNL     1      -7.866  10.312  68.823  1.00  0.00    -0.106 A  
HETATM   16  C   UNL     1      -7.192   9.214  69.324  1.00  0.00    -0.065 A  
HETATM   17  N   UNL     1      -7.695   8.376  70.251  1.00  0.00    -0.077 NA 
HETATM   18  N   UNL     1      -6.628  11.760  67.074  1.00  0.00    -0.144 NA 
HETATM   19  C   UNL     1      -8.933   8.607  70.705  1.00  0.00    -0.171 A  
HETATM   20  C   UNL     1      -9.414   7.753  71.681  1.00  0.00    -0.179 A  
HETATM   21  C   UNL     1     -10.675   7.918  72.260  1.00  0.00    -0.283 A  
HETATM   22  C   UNL     1      -9.737   9.676  70.252  1.00  0.00    -0.314 A  
HETATM   23  C   UNL     1     -11.499   8.949  71.806  1.00  0.00    -0.353 A  
HETATM   24  C   UNL     1     -11.036   9.805  70.800  1.00  0.00    -0.415 A  
BRANCH  21  25
HETATM   25  O   UNL     1     -11.157   7.042  73.193  1.00  0.00    -0.279 OA 
BRANCH  25  26
HETATM   26  C   UNL     1     -11.366   5.705  72.718  1.00  0.00    -0.299 C  
BRANCH  26  27
HETATM   27  C   UNL     1     -10.841   4.765  73.793  1.00  0.00    -0.379 C  
BRANCH  27  28
HETATM   28  C   UNL     1      -9.440   5.139  74.277  1.00  0.00    -0.127 C  
BRANCH  28  29
HETATM   29  N   UNL     1      -8.411   4.110  74.045  1.00  0.00    -0.094 NA 
HETATM   30  C   UNL     1      -8.401   3.598  72.657  1.00  0.00    -0.086 C  
HETATM   31  C   UNL     1      -7.908   4.620  71.605  1.00  0.00    -0.097 C  
HETATM   32  N   UNL     1      -6.578   5.193  71.890  1.00  0.00    -0.039 NA 
HETATM   33  C   UNL     1      -6.525   5.662  73.291  1.00  0.00    -0.067 C  
HETATM   34  C   UNL     1      -5.518   4.222  71.619  1.00  0.00    -0.007 C  
HETATM   35  C   UNL     1      -7.064   4.657  74.343  1.00  0.00    -0.073 C  
ENDBRANCH  28  29
ENDBRANCH  27  28
ENDBRANCH  26  27
ENDBRANCH  25  26
ENDBRANCH  21  25
BRANCH  23  36
HETATM   36  O   UNL     1     -12.778   9.209  72.224  1.00  0.00    -0.383 OA 
HETATM   37  C   UNL     1     -13.396  10.342  71.621  1.00  0.00    -0.353 C  
ENDBRANCH  23  36
ENDBRANCH  11  13
ENDBRANCH   5  11
ENDBRANCH   2   3
TORSDOF 9
ENDMDL
MODEL      135
REMARK 921   NORMALIZED FREE ENERGY PREDICTED BY IDOCK:   -4.92 KCAL/MOL
REMARK 922        TOTAL FREE ENERGY PREDICTED BY IDOCK:   -8.85 KCAL/MOL
REMARK 923 INTER-LIGAND FREE ENERGY PREDICTED BY IDOCK:   -7.75 KCAL/MOL
REMARK 924 INTRA-LIGAND FREE ENERGY PREDICTED BY IDOCK:   -1.10 KCAL/MOL
REMARK 927      BINDING AFFINITY PREDICTED BY RF-SCORE:    0.00 PKD
ROOT
HETATM    1  C   UNL     1      -9.640   9.674  64.939  1.00  0.00    -0.173 C  
HETATM    2  O   UNL     1     -10.528  10.781  64.809  1.00  0.00    -0.326 OA 
ENDROOT
BRANCH   2   3
HETATM    3  C   UNL     1     -10.833  11.437  65.975  1.00  0.00    -0.249 A  
HETATM    4  C   UNL     1     -10.361  11.023  67.226  1.00  0.00    -0.249 A  
HETATM    5  C   UNL     1     -10.693  11.707  68.406  1.00  0.00    -0.217 A  
HETATM    6  C   UNL     1     -11.524  12.836  68.297  1.00  0.00    -0.314 A  
HETATM    7  C   UNL     1     -11.687  12.543  65.905  1.00  0.00    -0.426 A  
HETATM    8 CL   UNL     1     -11.955  13.750  69.702  1.00  0.00    -0.378 Cl 
HETATM    9  C   UNL     1     -12.023  13.251  67.060  1.00  0.00    -0.419 A  
HETATM   10 CL   UNL     1     -12.327  13.093  64.396  1.00  0.00    -0.434 Cl 
BRANCH   5  11
HETATM   11  N   UNL     1     -10.291  11.221  69.677  1.00  0.00    -0.426 NA 
HETATM   12  H   UNL     1      -9.830  11.899  70.283  1.00  0.00     0.000 HD 
BRANCH  11  13
HETATM   13  C   UNL     1     -10.443   9.917  70.220  1.00  0.00    -0.291 A  
HETATM   14  C   UNL     1     -12.551  10.533  71.411  1.00  0.00    -0.434 C  
HETATM   15  C   UNL     1     -11.572   9.584  70.996  1.00  0.00    -0.419 A  
HETATM   16  C   UNL     1     -11.730   8.269  71.391  1.00  0.00    -0.287 A  
HETATM   17  N   UNL     1     -10.882   7.274  71.065  1.00  0.00    -0.236 NA 
HETATM   18  N   UNL     1     -13.385  11.268  71.749  1.00  0.00    -0.349 NA 
HETATM   19  C   UNL     1      -9.809   7.578  70.325  1.00  0.00    -0.183 A  
HETATM   20  C   UNL     1      -8.971   6.533  69.975  1.00  0.00    -0.144 A  
HETATM   21  C   UNL     1      -7.842   6.721  69.172  1.00  0.00    -0.111 A  
HETATM   22  C   UNL     1      -9.517   8.887  69.884  1.00  0.00    -0.177 A  
HETATM   23  C   UNL     1      -7.519   8.011  68.750  1.00  0.00    -0.091 A  
HETATM   24  C   UNL     1      -8.341   9.081  69.120  1.00  0.00    -0.123 A  
BRANCH  21  25
HETATM   25  O   UNL     1      -6.999   5.688  68.868  1.00  0.00    -0.062 OA 
BRANCH  25  26
HETATM   26  C   UNL     1      -6.813   5.450  67.466  1.00  0.00    -0.060 C  
BRANCH  26  27
HETATM   27  C   UNL     1      -8.153   4.986  66.913  1.00  0.00    -0.107 C  
BRANCH  27  28
HETATM   28  C   UNL     1      -8.053   3.666  66.147  1.00  0.00    -0.093 C  
BRANCH  28  29
HETATM   29  N   UNL     1      -9.348   3.060  65.792  1.00  0.00    -0.125 NA 
HETATM   30  C   UNL     1     -10.185   3.930  64.937  1.00  0.00    -0.164 C  
HETATM   31  C   UNL     1      -9.647   4.118  63.499  1.00  0.00    -0.128 C  
HETATM   32  N   UNL     1      -9.407   2.858  62.769  1.00  0.00    -0.094 NA 
HETATM   33  C   UNL     1      -8.623   1.932  63.615  1.00  0.00    -0.081 C  
HETATM   34  C   UNL     1     -10.666   2.246  62.346  1.00  0.00    -0.142 C  
HETATM   35  C   UNL     1      -9.134   1.779  65.073  1.00  0.00    -0.120 C  
ENDBRANCH  28  29
ENDBRANCH  27  28
ENDBRANCH  26  27
ENDBRANCH  25  26
ENDBRANCH  21  25
BRANCH  23  36
HETATM   36  O   UNL     1      -6.420   8.371  68.014  1.00  0.00    -0.055 OA 
HETATM   37  C   UNL     1      -6.449   9.694  67.487  1.00  0.00    -0.069 C  
ENDBRANCH  23  36
ENDBRANCH  11  13
ENDBRANCH   5  11
ENDBRANCH   2   3
TORSDOF 9
ENDMDL
MODEL      136
REMARK 921   NORMALIZED FREE ENERGY PREDICTED BY IDOCK:   -4.92 KCAL/MOL
REMARK 922        TOTAL FREE ENERGY PREDICTED BY IDOCK:   -8.85 KCAL/MOL
REMARK 923 INTER-LIGAND FREE ENERGY PREDICTED BY IDOCK:   -7.06 KCAL/MOL
REMARK 924 INTRA-LIGAND FREE ENERGY PREDICTED BY IDOCK:   -1.79 KCAL/MOL
REMARK 927      BINDING AFFINITY PREDICTED BY RF-SCORE:    0.00 PKD
ROOT
HETATM    1  C   UNL     1     -11.191  15.700  68.467  1.00  0.00    -0.342 C  
HETATM    2  O   UNL     1     -10.942  17.020  67.991  1.00  0.00    -0.360 OA 
ENDROOT
BRANCH   2   3
HETATM    3  C   UNL     1      -9.702  17.227  67.441  1.00  0.00    -0.258 A  
HETATM    4  C   UNL     1      -8.629  16.348  67.630  1.00  0.00    -0.181 A  
HETATM    5  C   UNL     1      -7.368  16.586  67.064  1.00  0.00    -0.210 A  
HETATM    6  C   UNL     1      -7.206  17.749  66.289  1.00  0.00    -0.296 A  
HETATM    7  C   UNL     1      -9.498  18.393  66.695  1.00  0.00    -0.313 A  
HETATM    8 CL   UNL     1      -5.690  18.099  65.532  1.00  0.00    -0.220 Cl 
HETATM    9  C   UNL     1      -8.259  18.650  66.108  1.00  0.00    -0.187 A  
HETATM   10 CL   UNL     1     -10.772  19.536  66.444  1.00  0.00    -0.544 Cl 
BRANCH   5  11
HETATM   11  N   UNL     1      -6.263  15.741  67.343  1.00  0.00    -0.268 NA 
HETATM   12  H   UNL     1      -5.636  15.561  66.560  1.00  0.00     0.000 HD 
BRANCH  11  13
HETATM   13  C   UNL     1      -5.912  15.111  68.567  1.00  0.00    -0.097 A  
HETATM   14  C   UNL     1      -5.343  17.285  69.659  1.00  0.00    -0.178 C  
HETATM   15  C   UNL     1      -5.537  15.873  69.692  1.00  0.00    -0.127 A  
HETATM   16  C   UNL     1      -5.330  15.214  70.889  1.00  0.00    -0.131 A  
HETATM   17  N   UNL     1      -5.483  13.886  71.059  1.00  0.00    -0.164 NA 
HETATM   18  N   UNL     1      -5.199  18.437  69.681  1.00  0.00    -0.188 NA 
HETATM   19  C   UNL     1      -5.842  13.153  69.998  1.00  0.00    -0.139 A  
HETATM   20  C   UNL     1      -6.026  11.797  70.205  1.00  0.00    -0.155 A  
HETATM   21  C   UNL     1      -6.440  10.937  69.184  1.00  0.00    -0.063 A  
HETATM   22  C   UNL     1      -6.055  13.700  68.713  1.00  0.00    -0.086 A  
HETATM   23  C   UNL     1      -6.627  11.451  67.900  1.00  0.00    -0.059 A  
HETATM   24  C   UNL     1      -6.417  12.815  67.670  1.00  0.00    -0.152 A  
BRANCH  21  25
HETATM   25  O   UNL     1      -6.577   9.592  69.390  1.00  0.00    -0.043 OA 
BRANCH  25  26
HETATM   26  C   UNL     1      -7.073   9.224  70.684  1.00  0.00    -0.111 C  
BRANCH  26  27
HETATM   27  C   UNL     1      -8.569   8.990  70.537  1.00  0.00    -0.229 C  
BRANCH  27  28
HETATM   28  C   UNL     1      -9.027   8.975  69.078  1.00  0.00    -0.140 C  
BRANCH  28  29
HETATM   29  N   UNL     1     -10.433   9.361  68.868  1.00  0.00    -0.213 NA 
HETATM   30  C   UNL     1     -10.752  10.709  69.387  1.00  0.00    -0.244 C  
HETATM   31  C   UNL     1     -10.104  11.867  68.591  1.00  0.00    -0.177 C  
HETATM   32  N   UNL     1     -10.399  11.852  67.145  1.00  0.00    -0.208 NA 
HETATM   33  C   UNL     1     -10.151  10.501  66.598  1.00  0.00    -0.222 C  
HETATM   34  C   UNL     1     -11.772  12.283  66.884  1.00  0.00    -0.334 C  
HETATM   35  C   UNL     1     -10.761   9.335  67.421  1.00  0.00    -0.193 C  
ENDBRANCH  28  29
ENDBRANCH  27  28
ENDBRANCH  26  27
ENDBRANCH  25  26
ENDBRANCH  21  25
BRANCH  23  36
HETATM   36  O   UNL     1      -6.970  10.736  66.783  1.00  0.00    -0.104 OA 
HETATM   37  C   UNL     1      -5.912  10.511  65.857  1.00  0.00    -0.121 C  
ENDBRANCH  23  36
ENDBRANCH  11  13
ENDBRANCH   5  11
ENDBRANCH   2   3
TORSDOF 9
ENDMDL
MODEL      137
REMARK 921   NORMALIZED FREE ENERGY PREDICTED BY IDOCK:   -4.91 KCAL/MOL
REMARK 922        TOTAL FREE ENERGY PREDICTED BY IDOCK:   -8.84 KCAL/MOL
REMARK 923 INTER-LIGAND FREE ENERGY PREDICTED BY IDOCK:   -8.00 KCAL/MOL
REMARK 924 INTRA-LIGAND FREE ENERGY PREDICTED BY IDOCK:   -0.84 KCAL/MOL
REMARK 927      BINDING AFFINITY PREDICTED BY RF-SCORE:    0.00 PKD
ROOT
HETATM    1  C   UNL     1     -10.146  19.764  69.343  1.00  0.00    -0.126 C  
HETATM    2  O   UNL     1      -9.273  19.347  68.296  1.00  0.00    -0.321 OA 
ENDROOT
BRANCH   2   3
HETATM    3  C   UNL     1      -9.629  18.188  67.654  1.00  0.00    -0.278 A  
HETATM    4  C   UNL     1      -9.369  16.916  68.179  1.00  0.00    -0.240 A  
HETATM    5  C   UNL     1      -9.736  15.745  67.499  1.00  0.00    -0.226 A  
HETATM    6  C   UNL     1     -10.382  15.884  66.256  1.00  0.00    -0.314 A  
HETATM    7  C   UNL     1     -10.241  18.291  66.400  1.00  0.00    -0.403 A  
HETATM    8 CL   UNL     1     -10.892  14.488  65.370  1.00  0.00    -0.336 Cl 
HETATM    9  C   UNL     1     -10.629  17.144  65.706  1.00  0.00    -0.201 A  
HETATM   10 CL   UNL     1     -10.567  19.829  65.680  1.00  0.00    -0.556 Cl 
BRANCH   5  11
HETATM   11  N   UNL     1      -9.379  14.464  67.993  1.00  0.00    -0.194 NA 
HETATM   12  H   UNL     1      -8.380  14.299  68.111  1.00  0.00     0.000 HD 
BRANCH  11  13
HETATM   13  C   UNL     1     -10.226  13.380  68.346  1.00  0.00    -0.251 A  
HETATM   14  C   UNL     1     -11.511  14.762  69.983  1.00  0.00    -0.277 C  
HETATM   15  C   UNL     1     -11.290  13.557  69.253  1.00  0.00    -0.317 A  
HETATM   16  C   UNL     1     -12.156  12.501  69.462  1.00  0.00    -0.187 A  
HETATM   17  N   UNL     1     -12.063  11.311  68.836  1.00  0.00    -0.502 NA 
HETATM   18  N   UNL     1     -11.742  15.733  70.577  1.00  0.00    -0.348 NA 
HETATM   19  C   UNL     1     -11.059  11.132  67.969  1.00  0.00    -0.276 A  
HETATM   20  C   UNL     1     -11.005   9.914  67.313  1.00  0.00    -0.187 A  
HETATM   21  C   UNL     1     -10.027   9.627  66.357  1.00  0.00    -0.255 A  
HETATM   22  C   UNL     1     -10.090  12.121  67.690  1.00  0.00    -0.205 A  
HETATM   23  C   UNL     1      -9.042  10.577  66.088  1.00  0.00    -0.162 A  
HETATM   24  C   UNL     1      -9.068  11.803  66.764  1.00  0.00    -0.194 A  
BRANCH  21  25
HETATM   25  O   UNL     1      -9.957   8.404  65.747  1.00  0.00     0.059 OA 
BRANCH  25  26
HETATM   26  C   UNL     1      -9.544   7.326  66.597  1.00  0.00    -0.178 C  
BRANCH  26  27
HETATM   27  C   UNL     1     -10.716   6.360  66.691  1.00  0.00    -0.271 C  
BRANCH  27  28
HETATM   28  C   UNL     1     -10.275   4.897  66.761  1.00  0.00    -0.235 C  
BRANCH  28  29
HETATM   29  N   UNL     1      -8.855   4.664  66.446  1.00  0.00    -0.112 NA 
HETATM   30  C   UNL     1      -8.238   3.608  67.279  1.00  0.00    -0.091 C  
HETATM   31  C   UNL     1      -8.750   2.180  66.978  1.00  0.00    -0.120 C  
HETATM   32  N   UNL     1      -8.628   1.775  65.564  1.00  0.00    -0.103 NA 
HETATM   33  C   UNL     1      -9.179   2.834  64.691  1.00  0.00    -0.135 C  
HETATM   34  C   UNL     1      -7.238   1.478  65.219  1.00  0.00    -0.048 C  
HETATM   35  C   UNL     1      -8.703   4.274  65.023  1.00  0.00    -0.128 C  
ENDBRANCH  28  29
ENDBRANCH  27  28
ENDBRANCH  26  27
ENDBRANCH  25  26
ENDBRANCH  21  25
BRANCH  23  36
HETATM   36  O   UNL     1      -7.984  10.429  65.229  1.00  0.00    -0.150 OA 
HETATM   37  C   UNL     1      -6.697  10.482  65.835  1.00  0.00    -0.130 C  
ENDBRANCH  23  36
ENDBRANCH  11  13
ENDBRANCH   5  11
ENDBRANCH   2   3
TORSDOF 9
ENDMDL
MODEL      138
REMARK 921   NORMALIZED FREE ENERGY PREDICTED BY IDOCK:   -4.91 KCAL/MOL
REMARK 922        TOTAL FREE ENERGY PREDICTED BY IDOCK:   -8.84 KCAL/MOL
REMARK 923 INTER-LIGAND FREE ENERGY PREDICTED BY IDOCK:   -8.25 KCAL/MOL
REMARK 924 INTRA-LIGAND FREE ENERGY PREDICTED BY IDOCK:   -0.59 KCAL/MOL
REMARK 927      BINDING AFFINITY PREDICTED BY RF-SCORE:    0.00 PKD
ROOT
HETATM    1  C   UNL     1     -11.500   6.474  70.944  1.00  0.00    -0.351 C  
HETATM    2  O   UNL     1     -10.975   5.953  69.726  1.00  0.00    -0.349 OA 
ENDROOT
BRANCH   2   3
HETATM    3  C   UNL     1     -10.577   6.888  68.804  1.00  0.00    -0.220 A  
HETATM    4  C   UNL     1     -10.566   8.263  69.070  1.00  0.00    -0.167 A  
HETATM    5  C   UNL     1     -10.163   9.200  68.107  1.00  0.00    -0.207 A  
HETATM    6  C   UNL     1      -9.764   8.716  66.848  1.00  0.00    -0.214 A  
HETATM    7  C   UNL     1     -10.208   6.442  67.530  1.00  0.00    -0.170 A  
HETATM    8 CL   UNL     1      -9.225   9.806  65.617  1.00  0.00    -0.228 Cl 
HETATM    9  C   UNL     1      -9.790   7.350  66.557  1.00  0.00    -0.209 A  
HETATM   10 CL   UNL     1     -10.225   4.761  67.124  1.00  0.00    -0.207 Cl 
BRANCH   5  11
HETATM   11  N   UNL     1     -10.250  10.595  68.355  1.00  0.00    -0.166 NA 
HETATM   12  H   UNL     1     -11.178  10.943  68.591  1.00  0.00     0.000 HD 
BRANCH  11  13
HETATM   13  C   UNL     1      -9.219  11.570  68.319  1.00  0.00    -0.186 A  
HETATM   14  C   UNL     1      -7.654  10.135  69.635  1.00  0.00    -0.156 C  
HETATM   15  C   UNL     1      -7.953  11.307  68.880  1.00  0.00    -0.104 A  
HETATM   16  C   UNL     1      -6.951  12.242  68.705  1.00  0.00    -0.098 A  
HETATM   17  N   UNL     1      -7.099  13.388  68.011  1.00  0.00    -0.107 NA 
HETATM   18  N   UNL     1      -7.361   9.183  70.233  1.00  0.00    -0.077 NA 
HETATM   19  C   UNL     1      -8.295  13.648  67.471  1.00  0.00    -0.188 A  
HETATM   20  C   UNL     1      -8.413  14.814  66.735  1.00  0.00    -0.179 A  
HETATM   21  C   UNL     1      -9.600  15.171  66.090  1.00  0.00    -0.313 A  
HETATM   22  C   UNL     1      -9.409  12.789  67.603  1.00  0.00    -0.191 A  
HETATM   23  C   UNL     1     -10.721  14.352  66.232  1.00  0.00    -0.307 A  
HETATM   24  C   UNL     1     -10.625  13.184  66.997  1.00  0.00    -0.259 A  
BRANCH  21  25
HETATM   25  O   UNL     1      -9.717  16.347  65.401  1.00  0.00    -0.486 OA 
BRANCH  25  26
HETATM   26  C   UNL     1     -10.674  17.270  65.936  1.00  0.00    -0.126 C  
BRANCH  26  27
HETATM   27  C   UNL     1      -9.915  18.218  66.852  1.00  0.00    -0.356 C  
BRANCH  27  28
HETATM   28  C   UNL     1      -8.553  18.625  66.287  1.00  0.00    -0.217 C  
BRANCH  28  29
HETATM   29  N   UNL     1      -8.033  19.907  66.794  1.00  0.00    -0.297 NA 
HETATM   30  C   UNL     1      -8.166  20.052  68.260  1.00  0.00    -0.151 C  
HETATM   31  C   UNL     1      -7.242  19.121  69.079  1.00  0.00    -0.335 C  
HETATM   32  N   UNL     1      -5.810  19.230  68.738  1.00  0.00    -0.212 NA 
HETATM   33  C   UNL     1      -5.638  19.151  67.272  1.00  0.00    -0.167 C  
HETATM   34  C   UNL     1      -5.235  20.465  69.271  1.00  0.00    -0.247 C  
HETATM   35  C   UNL     1      -6.597  20.050  66.447  1.00  0.00    -0.207 C  
ENDBRANCH  28  29
ENDBRANCH  27  28
ENDBRANCH  26  27
ENDBRANCH  25  26
ENDBRANCH  21  25
BRANCH  23  36
HETATM   36  O   UNL     1     -11.969  14.589  65.719  1.00  0.00    -0.360 OA 
HETATM   37  C   UNL     1     -12.593  13.471  65.097  1.00  0.00    -0.436 C  
ENDBRANCH  23  36
ENDBRANCH  11  13
ENDBRANCH   5  11
ENDBRANCH   2   3
TORSDOF 9
ENDMDL
MODEL      139
REMARK 921   NORMALIZED FREE ENERGY PREDICTED BY IDOCK:   -4.90 KCAL/MOL
REMARK 922        TOTAL FREE ENERGY PREDICTED BY IDOCK:   -8.83 KCAL/MOL
REMARK 923 INTER-LIGAND FREE ENERGY PREDICTED BY IDOCK:   -8.18 KCAL/MOL
REMARK 924 INTRA-LIGAND FREE ENERGY PREDICTED BY IDOCK:   -0.65 KCAL/MOL
REMARK 927      BINDING AFFINITY PREDICTED BY RF-SCORE:    0.00 PKD
ROOT
HETATM    1  C   UNL     1     -10.633  19.870  65.831  1.00  0.00    -0.417 C  
HETATM    2  O   UNL     1     -10.867  18.997  66.933  1.00  0.00    -0.419 OA 
ENDROOT
BRANCH   2   3
HETATM    3  C   UNL     1     -10.096  17.863  66.965  1.00  0.00    -0.340 A  
HETATM    4  C   UNL     1     -10.627  16.577  66.807  1.00  0.00    -0.224 A  
HETATM    5  C   UNL     1      -9.818  15.431  66.852  1.00  0.00    -0.244 A  
HETATM    6  C   UNL     1      -8.439  15.610  67.064  1.00  0.00    -0.226 A  
HETATM    7  C   UNL     1      -8.725  18.004  67.210  1.00  0.00    -0.243 A  
HETATM    8 CL   UNL     1      -7.371  14.250  67.104  1.00  0.00    -0.028 Cl 
HETATM    9  C   UNL     1      -7.894  16.884  67.247  1.00  0.00    -0.204 A  
HETATM   10 CL   UNL     1      -8.008  19.560  67.442  1.00  0.00    -0.295 Cl 
BRANCH   5  11
HETATM   11  N   UNL     1     -10.380  14.130  66.790  1.00  0.00    -0.272 NA 
HETATM   12  H   UNL     1     -10.887  13.828  67.621  1.00  0.00     0.000 HD 
BRANCH  11  13
HETATM   13  C   UNL     1     -10.332  13.191  65.725  1.00  0.00    -0.289 A  
HETATM   14  C   UNL     1     -11.844  14.566  64.288  1.00  0.00    -0.348 C  
HETATM   15  C   UNL     1     -10.986  13.448  64.503  1.00  0.00    -0.404 A  
HETATM   16  C   UNL     1     -10.801  12.559  63.461  1.00  0.00    -0.397 A  
HETATM   17  N   UNL     1     -10.015  11.466  63.530  1.00  0.00    -0.348 NA 
HETATM   18  N   UNL     1     -12.529  15.477  64.063  1.00  0.00    -0.593 NA 
HETATM   19  C   UNL     1      -9.386  11.214  64.684  1.00  0.00    -0.175 A  
HETATM   20  C   UNL     1      -8.559  10.105  64.719  1.00  0.00    -0.191 A  
HETATM   21  C   UNL     1      -7.819   9.764  65.855  1.00  0.00    -0.108 A  
HETATM   22  C   UNL     1      -9.516  12.027  65.832  1.00  0.00    -0.207 A  
HETATM   23  C   UNL     1      -7.955  10.535  67.009  1.00  0.00    -0.118 A  
HETATM   24  C   UNL     1      -8.810  11.644  66.997  1.00  0.00    -0.177 A  
BRANCH  21  25
HETATM   25  O   UNL     1      -7.038   8.642  65.891  1.00  0.00    -0.074 OA 
BRANCH  25  26
HETATM   26  C   UNL     1      -6.989   7.897  64.667  1.00  0.00    -0.067 C  
BRANCH  26  27
HETATM   27  C   UNL     1      -7.279   6.445  65.018  1.00  0.00    -0.067 C  
BRANCH  27  28
HETATM   28  C   UNL     1      -8.772   6.164  65.196  1.00  0.00     0.021 C  
BRANCH  28  29
HETATM   29  N   UNL     1      -9.097   5.216  66.276  1.00  0.00    -0.131 NA 
HETATM   30  C   UNL     1      -8.455   5.557  67.564  1.00  0.00    -0.106 C  
HETATM   31  C   UNL     1      -9.016   6.832  68.237  1.00  0.00    -0.123 C  
HETATM   32  N   UNL     1     -10.477   6.819  68.445  1.00  0.00    -0.190 NA 
HETATM   33  C   UNL     1     -11.156   6.422  67.193  1.00  0.00    -0.341 C  
HETATM   34  C   UNL     1     -10.843   5.932  69.548  1.00  0.00    -0.372 C  
HETATM   35  C   UNL     1     -10.565   5.170  66.492  1.00  0.00    -0.260 C  
ENDBRANCH  28  29
ENDBRANCH  27  28
ENDBRANCH  26  27
ENDBRANCH  25  26
ENDBRANCH  21  25
BRANCH  23  36
HETATM   36  O   UNL     1      -7.351  10.301  68.217  1.00  0.00    -0.082 OA 
HETATM   37  C   UNL     1      -7.235  11.437  69.068  1.00  0.00    -0.118 C  
ENDBRANCH  23  36
ENDBRANCH  11  13
ENDBRANCH   5  11
ENDBRANCH   2   3
TORSDOF 9
ENDMDL
MODEL      140
REMARK 921   NORMALIZED FREE ENERGY PREDICTED BY IDOCK:   -4.89 KCAL/MOL
REMARK 922        TOTAL FREE ENERGY PREDICTED BY IDOCK:   -8.80 KCAL/MOL
REMARK 923 INTER-LIGAND FREE ENERGY PREDICTED BY IDOCK:   -8.15 KCAL/MOL
REMARK 924 INTRA-LIGAND FREE ENERGY PREDICTED BY IDOCK:   -0.65 KCAL/MOL
REMARK 927      BINDING AFFINITY PREDICTED BY RF-SCORE:    0.00 PKD
ROOT
HETATM    1  C   UNL     1     -14.007  14.919  71.137  1.00  0.00    -0.330 C  
HETATM    2  O   UNL     1     -13.025  14.144  70.454  1.00  0.00    -0.278 OA 
ENDROOT
BRANCH   2   3
HETATM    3  C   UNL     1     -12.069  14.859  69.778  1.00  0.00    -0.314 A  
HETATM    4  C   UNL     1     -11.653  14.536  68.481  1.00  0.00    -0.344 A  
HETATM    5  C   UNL     1     -10.667  15.279  67.813  1.00  0.00    -0.286 A  
HETATM    6  C   UNL     1     -10.099  16.373  68.491  1.00  0.00    -0.248 A  
HETATM    7  C   UNL     1     -11.458  15.931  70.438  1.00  0.00    -0.378 A  
HETATM    8 CL   UNL     1      -8.898  17.355  67.725  1.00  0.00    -0.229 Cl 
HETATM    9  C   UNL     1     -10.485  16.696  69.795  1.00  0.00    -0.182 A  
HETATM   10 CL   UNL     1     -11.904  16.368  72.051  1.00  0.00    -0.550 Cl 
BRANCH   5  11
HETATM   11  N   UNL     1     -10.184  14.883  66.539  1.00  0.00    -0.268 NA 
HETATM   12  H   UNL     1      -9.630  15.580  66.042  1.00  0.00     0.000 HD 
BRANCH  11  13
HETATM   13  C   UNL     1     -10.367  13.649  65.862  1.00  0.00    -0.301 A  
HETATM   14  C   UNL     1     -12.164  14.583  64.398  1.00  0.00    -0.458 C  
HETATM   15  C   UNL     1     -11.275  13.539  64.789  1.00  0.00    -0.363 A  
HETATM   16  C   UNL     1     -11.319  12.349  64.088  1.00  0.00    -0.379 A  
HETATM   17  N   UNL     1     -10.533  11.286  64.350  1.00  0.00    -0.323 NA 
HETATM   18  N   UNL     1     -12.885  15.416  64.032  1.00  0.00    -0.422 NA 
HETATM   19  C   UNL     1      -9.665  11.380  65.364  1.00  0.00    -0.230 A  
HETATM   20  C   UNL     1      -8.845  10.289  65.592  1.00  0.00    -0.186 A  
HETATM   21  C   UNL     1      -7.872  10.285  66.596  1.00  0.00    -0.116 A  
HETATM   22  C   UNL     1      -9.543  12.529  66.177  1.00  0.00    -0.230 A  
HETATM   23  C   UNL     1      -7.755  11.397  67.430  1.00  0.00    -0.135 A  
HETATM   24  C   UNL     1      -8.597  12.498  67.229  1.00  0.00    -0.191 A  
BRANCH  21  25
HETATM   25  O   UNL     1      -7.097   9.185  66.839  1.00  0.00    -0.080 OA 
BRANCH  25  26
HETATM   26  C   UNL     1      -7.627   7.948  66.343  1.00  0.00    -0.091 C  
BRANCH  26  27
HETATM   27  C   UNL     1      -7.486   6.924  67.460  1.00  0.00    -0.097 C  
BRANCH  27  28
HETATM   28  C   UNL     1      -7.829   7.496  68.836  1.00  0.00    -0.124 C  
BRANCH  28  29
HETATM   29  N   UNL     1      -7.036   6.944  69.949  1.00  0.00    -0.069 NA 
HETATM   30  C   UNL     1      -6.006   7.879  70.451  1.00  0.00    -0.029 C  
HETATM   31  C   UNL     1      -6.574   9.110  71.197  1.00  0.00    -0.088 C  
HETATM   32  N   UNL     1      -7.476   8.780  72.318  1.00  0.00    -0.335 NA 
HETATM   33  C   UNL     1      -8.487   7.798  71.872  1.00  0.00    -0.114 C  
HETATM   34  C   UNL     1      -6.726   8.280  73.469  1.00  0.00    -0.120 C  
HETATM   35  C   UNL     1      -7.925   6.586  71.083  1.00  0.00    -0.112 C  
ENDBRANCH  28  29
ENDBRANCH  27  28
ENDBRANCH  26  27
ENDBRANCH  25  26
ENDBRANCH  21  25
BRANCH  23  36
HETATM   36  O   UNL     1      -6.899  11.528  68.492  1.00  0.00    -0.065 OA 
HETATM   37  C   UNL     1      -6.433  12.851  68.738  1.00  0.00    -0.085 C  
ENDBRANCH  23  36
ENDBRANCH  11  13
ENDBRANCH   5  11
ENDBRANCH   2   3
TORSDOF 9
ENDMDL
MODEL      141
REMARK 921   NORMALIZED FREE ENERGY PREDICTED BY IDOCK:   -4.86 KCAL/MOL
REMARK 922        TOTAL FREE ENERGY PREDICTED BY IDOCK:   -8.76 KCAL/MOL
REMARK 923 INTER-LIGAND FREE ENERGY PREDICTED BY IDOCK:   -7.38 KCAL/MOL
REMARK 924 INTRA-LIGAND FREE ENERGY PREDICTED BY IDOCK:   -1.38 KCAL/MOL
REMARK 927      BINDING AFFINITY PREDICTED BY RF-SCORE:    0.00 PKD
ROOT
HETATM    1  C   UNL     1      -7.036  13.204  68.566  1.00  0.00    -0.103 C  
HETATM    2  O   UNL     1      -7.975  14.227  68.887  1.00  0.00    -0.136 OA 
ENDROOT
BRANCH   2   3
HETATM    3  C   UNL     1      -9.166  14.173  68.207  1.00  0.00    -0.198 A  
HETATM    4  C   UNL     1      -9.660  12.997  67.630  1.00  0.00    -0.206 A  
HETATM    5  C   UNL     1     -10.877  12.969  66.933  1.00  0.00    -0.264 A  
HETATM    6  C   UNL     1     -11.600  14.171  66.826  1.00  0.00    -0.391 A  
HETATM    7  C   UNL     1      -9.891  15.360  68.052  1.00  0.00    -0.216 A  
HETATM    8 CL   UNL     1     -13.123  14.213  66.007  1.00  0.00    -0.094 Cl 
HETATM    9  C   UNL     1     -11.111  15.359  67.376  1.00  0.00    -0.311 A  
HETATM   10 CL   UNL     1      -9.326  16.853  68.715  1.00  0.00    -0.262 Cl 
BRANCH   5  11
HETATM   11  N   UNL     1     -11.319  11.795  66.269  1.00  0.00    -0.342 NA 
HETATM   12  H   UNL     1     -12.205  11.411  66.595  1.00  0.00     0.000 HD 
BRANCH  11  13
HETATM   13  C   UNL     1     -10.694  11.083  65.212  1.00  0.00    -0.164 A  
HETATM   14  C   UNL     1     -11.652  12.595  63.469  1.00  0.00    -0.514 C  
HETATM   15  C   UNL     1     -10.808  11.521  63.876  1.00  0.00    -0.469 A  
HETATM   16  C   UNL     1     -10.076  10.863  62.906  1.00  0.00    -0.133 A  
HETATM   17  N   UNL     1      -9.239   9.837  63.156  1.00  0.00    -0.250 NA 
HETATM   18  N   UNL     1     -12.306  13.480  63.098  1.00  0.00    -0.685 NA 
HETATM   19  C   UNL     1      -9.120   9.414  64.420  1.00  0.00    -0.127 A  
HETATM   20  C   UNL     1      -8.229   8.382  64.656  1.00  0.00    -0.157 A  
HETATM   21  C   UNL     1      -7.990   7.883  65.940  1.00  0.00    -0.106 A  
HETATM   22  C   UNL     1      -9.835   9.981  65.498  1.00  0.00    -0.373 A  
HETATM   23  C   UNL     1      -8.707   8.408  67.015  1.00  0.00    -0.126 A  
HETATM   24  C   UNL     1      -9.632   9.434  66.787  1.00  0.00    -0.234 A  
BRANCH  21  25
HETATM   25  O   UNL     1      -7.139   6.834  66.155  1.00  0.00    -0.063 OA 
BRANCH  25  26
HETATM   26  C   UNL     1      -7.182   5.804  65.158  1.00  0.00    -0.070 C  
BRANCH  26  27
HETATM   27  C   UNL     1      -8.430   4.976  65.428  1.00  0.00    -0.138 C  
BRANCH  27  28
HETATM   28  C   UNL     1      -8.172   3.809  66.383  1.00  0.00    -0.100 C  
BRANCH  28  29
HETATM   29  N   UNL     1      -9.323   3.433  67.222  1.00  0.00    -0.198 NA 
HETATM   30  C   UNL     1      -9.093   2.203  68.010  1.00  0.00    -0.178 C  
HETATM   31  C   UNL     1      -8.055   2.359  69.147  1.00  0.00    -0.051 C  
HETATM   32  N   UNL     1      -8.346   3.457  70.089  1.00  0.00    -0.051 NA 
HETATM   33  C   UNL     1      -8.643   4.696  69.338  1.00  0.00    -0.082 C  
HETATM   34  C   UNL     1      -9.448   3.105  70.983  1.00  0.00    -0.158 C  
HETATM   35  C   UNL     1      -9.648   4.530  68.167  1.00  0.00    -0.146 C  
ENDBRANCH  28  29
ENDBRANCH  27  28
ENDBRANCH  26  27
ENDBRANCH  25  26
ENDBRANCH  21  25
BRANCH  23  36
HETATM   36  O   UNL     1      -8.635   7.992  68.318  1.00  0.00    -0.129 OA 
HETATM   37  C   UNL     1      -9.495   8.678  69.224  1.00  0.00    -0.158 C  
ENDBRANCH  23  36
ENDBRANCH  11  13
ENDBRANCH   5  11
ENDBRANCH   2   3
TORSDOF 9
ENDMDL
MODEL      142
REMARK 921   NORMALIZED FREE ENERGY PREDICTED BY IDOCK:   -4.86 KCAL/MOL
REMARK 922        TOTAL FREE ENERGY PREDICTED BY IDOCK:   -8.76 KCAL/MOL
REMARK 923 INTER-LIGAND FREE ENERGY PREDICTED BY IDOCK:   -7.88 KCAL/MOL
REMARK 924 INTRA-LIGAND FREE ENERGY PREDICTED BY IDOCK:   -0.88 KCAL/MOL
REMARK 927      BINDING AFFINITY PREDICTED BY RF-SCORE:    0.00 PKD
ROOT
HETATM    1  C   UNL     1      -6.481   4.417  66.637  1.00  0.00    -0.038 C  
HETATM    2  O   UNL     1      -7.297   4.591  65.481  1.00  0.00    -0.077 OA 
ENDROOT
BRANCH   2   3
HETATM    3  C   UNL     1      -7.663   5.884  65.203  1.00  0.00    -0.093 A  
HETATM    4  C   UNL     1      -8.432   6.661  66.077  1.00  0.00    -0.142 A  
HETATM    5  C   UNL     1      -8.801   7.979  65.766  1.00  0.00    -0.132 A  
HETATM    6  C   UNL     1      -8.371   8.507  64.535  1.00  0.00    -0.128 A  
HETATM    7  C   UNL     1      -7.281   6.427  63.971  1.00  0.00    -0.062 A  
HETATM    8 CL   UNL     1      -8.759  10.134  64.092  1.00  0.00    -0.194 Cl 
HETATM    9  C   UNL     1      -7.621   7.739  63.641  1.00  0.00    -0.126 A  
HETATM   10 CL   UNL     1      -6.353   5.514  62.833  1.00  0.00    -0.021 Cl 
BRANCH   5  11
HETATM   11  N   UNL     1      -9.663   8.722  66.614  1.00  0.00    -0.219 NA 
HETATM   12  H   UNL     1     -10.613   8.362  66.702  1.00  0.00     0.000 HD 
BRANCH  11  13
HETATM   13  C   UNL     1      -9.382   9.900  67.356  1.00  0.00    -0.137 A  
HETATM   14  C   UNL     1      -7.626   8.761  68.722  1.00  0.00    -0.095 C  
HETATM   15  C   UNL     1      -8.352   9.920  68.319  1.00  0.00    -0.110 A  
HETATM   16  C   UNL     1      -8.041  11.125  68.919  1.00  0.00    -0.115 A  
HETATM   17  N   UNL     1      -8.645  12.294  68.629  1.00  0.00    -0.049 NA 
HETATM   18  N   UNL     1      -6.994   7.847  69.059  1.00  0.00    -0.057 NA 
HETATM   19  C   UNL     1      -9.622  12.288  67.713  1.00  0.00    -0.200 A  
HETATM   20  C   UNL     1     -10.204  13.505  67.408  1.00  0.00    -0.237 A  
HETATM   21  C   UNL     1     -11.205  13.630  66.440  1.00  0.00    -0.308 A  
HETATM   22  C   UNL     1     -10.055  11.118  67.050  1.00  0.00    -0.235 A  
HETATM   23  C   UNL     1     -11.669  12.484  65.794  1.00  0.00    -0.426 A  
HETATM   24  C   UNL     1     -11.109  11.241  66.113  1.00  0.00    -0.207 A  
BRANCH  21  25
HETATM   25  O   UNL     1     -11.802  14.832  66.177  1.00  0.00    -0.311 OA 
BRANCH  25  26
HETATM   26  C   UNL     1     -11.468  15.410  64.908  1.00  0.00    -0.311 C  
BRANCH  26  27
HETATM   27  C   UNL     1     -10.194  16.217  65.109  1.00  0.00    -0.039 C  
BRANCH  27  28
HETATM   28  C   UNL     1     -10.396  17.430  66.019  1.00  0.00    -0.304 C  
BRANCH  28  29
HETATM   29  N   UNL     1      -9.276  18.387  66.030  1.00  0.00    -0.503 NA 
HETATM   30  C   UNL     1      -9.558  19.606  66.819  1.00  0.00    -0.371 C  
HETATM   31  C   UNL     1      -9.639  19.371  68.346  1.00  0.00    -0.388 C  
HETATM   32  N   UNL     1      -8.450  18.717  68.926  1.00  0.00    -0.236 NA 
HETATM   33  C   UNL     1      -8.097  17.524  68.127  1.00  0.00    -0.249 C  
HETATM   34  C   UNL     1      -7.325  19.648  69.009  1.00  0.00    -0.328 C  
HETATM   35  C   UNL     1      -8.061  17.746  66.591  1.00  0.00    -0.258 C  
ENDBRANCH  28  29
ENDBRANCH  27  28
ENDBRANCH  26  27
ENDBRANCH  25  26
ENDBRANCH  21  25
BRANCH  23  36
HETATM   36  O   UNL     1     -12.680  12.427  64.871  1.00  0.00    -0.620 OA 
HETATM   37  C   UNL     1     -12.294  11.982  63.574  1.00  0.00    -0.551 C  
ENDBRANCH  23  36
ENDBRANCH  11  13
ENDBRANCH   5  11
ENDBRANCH   2   3
TORSDOF 9
ENDMDL
MODEL      143
REMARK 921   NORMALIZED FREE ENERGY PREDICTED BY IDOCK:   -4.85 KCAL/MOL
REMARK 922        TOTAL FREE ENERGY PREDICTED BY IDOCK:   -8.74 KCAL/MOL
REMARK 923 INTER-LIGAND FREE ENERGY PREDICTED BY IDOCK:   -7.22 KCAL/MOL
REMARK 924 INTRA-LIGAND FREE ENERGY PREDICTED BY IDOCK:   -1.52 KCAL/MOL
REMARK 927      BINDING AFFINITY PREDICTED BY RF-SCORE:    0.00 PKD
ROOT
HETATM    1  C   UNL     1      -6.848  17.023  69.377  1.00  0.00    -0.179 C  
HETATM    2  O   UNL     1      -8.114  17.650  69.193  1.00  0.00    -0.117 OA 
ENDROOT
BRANCH   2   3
HETATM    3  C   UNL     1      -8.811  17.264  68.076  1.00  0.00    -0.238 A  
HETATM    4  C   UNL     1      -8.902  15.930  67.660  1.00  0.00    -0.180 A  
HETATM    5  C   UNL     1      -9.614  15.561  66.508  1.00  0.00    -0.272 A  
HETATM    6  C   UNL     1     -10.243  16.581  65.771  1.00  0.00    -0.329 A  
HETATM    7  C   UNL     1      -9.418  18.259  67.300  1.00  0.00    -0.264 A  
HETATM    8 CL   UNL     1     -11.164  16.203  64.356  1.00  0.00    -0.358 Cl 
HETATM    9  C   UNL     1     -10.144  17.920  66.158  1.00  0.00    -0.322 A  
HETATM   10 CL   UNL     1      -9.321  19.928  67.740  1.00  0.00    -0.434 Cl 
BRANCH   5  11
HETATM   11  N   UNL     1      -9.617  14.221  66.043  1.00  0.00    -0.461 NA 
HETATM   12  H   UNL     1      -9.262  14.081  65.097  1.00  0.00     0.000 HD 
BRANCH  11  13
HETATM   13  C   UNL     1     -10.048  13.046  66.715  1.00  0.00    -0.247 A  
HETATM   14  C   UNL     1     -12.392  13.289  65.885  1.00  0.00    -0.418 C  
HETATM   15  C   UNL     1     -11.369  12.574  66.574  1.00  0.00    -0.387 A  
HETATM   16  C   UNL     1     -11.695  11.360  67.149  1.00  0.00     0.030 A  
HETATM   17  N   UNL     1     -10.824  10.583  67.822  1.00  0.00    -0.272 NA 
HETATM   18  N   UNL     1     -13.247  13.826  65.312  1.00  0.00    -0.702 NA 
HETATM   19  C   UNL     1      -9.566  11.020  67.959  1.00  0.00    -0.170 A  
HETATM   20  C   UNL     1      -8.682  10.189  68.625  1.00  0.00    -0.128 A  
HETATM   21  C   UNL     1      -7.335  10.519  68.796  1.00  0.00    -0.092 A  
HETATM   22  C   UNL     1      -9.114  12.255  67.446  1.00  0.00    -0.184 A  
HETATM   23  C   UNL     1      -6.873  11.747  68.323  1.00  0.00    -0.068 A  
HETATM   24  C   UNL     1      -7.762  12.611  67.672  1.00  0.00    -0.155 A  
BRANCH  21  25
HETATM   25  O   UNL     1      -6.481   9.709  69.493  1.00  0.00    -0.043 OA 
BRANCH  25  26
HETATM   26  C   UNL     1      -6.918   9.361  70.813  1.00  0.00    -0.114 C  
BRANCH  26  27
HETATM   27  C   UNL     1      -6.801   7.849  70.936  1.00  0.00    -0.041 C  
BRANCH  27  28
HETATM   28  C   UNL     1      -7.945   7.107  70.244  1.00  0.00    -0.116 C  
BRANCH  28  29
HETATM   29  N   UNL     1      -7.545   6.317  69.066  1.00  0.00    -0.094 NA 
HETATM   30  C   UNL     1      -7.216   4.911  69.391  1.00  0.00    -0.056 C  
HETATM   31  C   UNL     1      -8.433   4.052  69.808  1.00  0.00    -0.060 C  
HETATM   32  N   UNL     1      -9.539   4.048  68.831  1.00  0.00    -0.166 NA 
HETATM   33  C   UNL     1      -9.859   5.436  68.432  1.00  0.00    -0.147 C  
HETATM   34  C   UNL     1      -9.209   3.228  67.666  1.00  0.00    -0.195 C  
HETATM   35  C   UNL     1      -8.634   6.313  68.059  1.00  0.00    -0.116 C  
ENDBRANCH  28  29
ENDBRANCH  27  28
ENDBRANCH  26  27
ENDBRANCH  25  26
ENDBRANCH  21  25
BRANCH  23  36
HETATM   36  O   UNL     1      -5.604  12.245  68.462  1.00  0.00    -0.053 OA 
HETATM   37  C   UNL     1      -5.494  13.413  69.269  1.00  0.00    -0.076 C  
ENDBRANCH  23  36
ENDBRANCH  11  13
ENDBRANCH   5  11
ENDBRANCH   2   3
TORSDOF 9
ENDMDL
MODEL      144
REMARK 921   NORMALIZED FREE ENERGY PREDICTED BY IDOCK:   -4.83 KCAL/MOL
REMARK 922        TOTAL FREE ENERGY PREDICTED BY IDOCK:   -8.72 KCAL/MOL
REMARK 923 INTER-LIGAND FREE ENERGY PREDICTED BY IDOCK:   -8.04 KCAL/MOL
REMARK 924 INTRA-LIGAND FREE ENERGY PREDICTED BY IDOCK:   -0.68 KCAL/MOL
REMARK 927      BINDING AFFINITY PREDICTED BY RF-SCORE:    0.00 PKD
ROOT
HETATM    1  C   UNL     1     -12.025  16.168  72.518  1.00  0.00    -0.561 C  
HETATM    2  O   UNL     1     -12.881  15.606  71.527  1.00  0.00    -0.425 OA 
ENDROOT
BRANCH   2   3
HETATM    3  C   UNL     1     -12.438  14.443  70.951  1.00  0.00    -0.354 A  
HETATM    4  C   UNL     1     -11.434  14.411  69.976  1.00  0.00    -0.295 A  
HETATM    5  C   UNL     1     -11.004  13.208  69.395  1.00  0.00     0.001 A  
HETATM    6  C   UNL     1     -11.617  12.017  69.824  1.00  0.00    -0.276 A  
HETATM    7  C   UNL     1     -13.052  13.244  71.330  1.00  0.00    -0.277 A  
HETATM    8 CL   UNL     1     -11.121  10.490  69.178  1.00  0.00    -0.275 Cl 
HETATM    9  C   UNL     1     -12.636  12.031  70.780  1.00  0.00    -0.312 A  
HETATM   10 CL   UNL     1     -14.317  13.213  72.509  1.00  0.00    -0.275 Cl 
BRANCH   5  11
HETATM   11  N   UNL     1     -10.057  13.198  68.338  1.00  0.00    -0.238 NA 
HETATM   12  H   UNL     1      -9.089  13.034  68.615  1.00  0.00     0.000 HD 
BRANCH  11  13
HETATM   13  C   UNL     1     -10.274  13.384  66.948  1.00  0.00    -0.252 A  
HETATM   14  C   UNL     1     -10.750  15.821  67.229  1.00  0.00    -0.313 C  
HETATM   15  C   UNL     1     -10.539  14.665  66.421  1.00  0.00    -0.301 A  
HETATM   16  C   UNL     1     -10.617  14.806  65.049  1.00  0.00    -0.429 A  
HETATM   17  N   UNL     1     -10.434  13.799  64.173  1.00  0.00    -0.170 NA 
HETATM   18  N   UNL     1     -10.903  16.791  67.849  1.00  0.00    -0.339 NA 
HETATM   19  C   UNL     1     -10.178  12.579  64.661  1.00  0.00    -0.290 A  
HETATM   20  C   UNL     1      -9.961  11.568  63.741  1.00  0.00    -0.384 A  
HETATM   21  C   UNL     1      -9.645  10.263  64.130  1.00  0.00    -0.315 A  
HETATM   22  C   UNL     1     -10.103  12.296  66.043  1.00  0.00    -0.269 A  
HETATM   23  C   UNL     1      -9.596   9.954  65.490  1.00  0.00    -0.277 A  
HETATM   24  C   UNL     1      -9.841  10.961  66.431  1.00  0.00    -0.249 A  
BRANCH  21  25
HETATM   25  O   UNL     1      -9.475   9.262  63.213  1.00  0.00     0.264 OA 
BRANCH  25  26
HETATM   26  C   UNL     1      -8.263   9.339  62.451  1.00  0.00    -0.152 C  
BRANCH  26  27
HETATM   27  C   UNL     1      -7.416   8.136  62.842  1.00  0.00    -0.115 C  
BRANCH  27  28
HETATM   28  C   UNL     1      -8.130   6.805  62.606  1.00  0.00    -0.059 C  
BRANCH  28  29
HETATM   29  N   UNL     1      -7.425   5.624  63.135  1.00  0.00    -0.059 NA 
HETATM   30  C   UNL     1      -7.379   5.586  64.613  1.00  0.00    -0.064 C  
HETATM   31  C   UNL     1      -8.746   5.324  65.286  1.00  0.00    -0.151 C  
HETATM   32  N   UNL     1      -9.431   4.102  64.819  1.00  0.00    -0.162 NA 
HETATM   33  C   UNL     1      -9.445   4.072  63.341  1.00  0.00    -0.150 C  
HETATM   34  C   UNL     1      -8.798   2.902  65.366  1.00  0.00    -0.130 C  
HETATM   35  C   UNL     1      -8.084   4.381  62.663  1.00  0.00    -0.070 C  
ENDBRANCH  28  29
ENDBRANCH  27  28
ENDBRANCH  26  27
ENDBRANCH  25  26
ENDBRANCH  21  25
BRANCH  23  36
HETATM   36  O   UNL     1      -9.362   8.718  66.033  1.00  0.00    -0.210 OA 
HETATM   37  C   UNL     1      -8.068   8.539  66.600  1.00  0.00    -0.104 C  
ENDBRANCH  23  36
ENDBRANCH  11  13
ENDBRANCH   5  11
ENDBRANCH   2   3
TORSDOF 9
ENDMDL
MODEL      145
REMARK 921   NORMALIZED FREE ENERGY PREDICTED BY IDOCK:   -4.80 KCAL/MOL
REMARK 922        TOTAL FREE ENERGY PREDICTED BY IDOCK:   -8.67 KCAL/MOL
REMARK 923 INTER-LIGAND FREE ENERGY PREDICTED BY IDOCK:   -7.48 KCAL/MOL
REMARK 924 INTRA-LIGAND FREE ENERGY PREDICTED BY IDOCK:   -1.18 KCAL/MOL
REMARK 927      BINDING AFFINITY PREDICTED BY RF-SCORE:    0.00 PKD
ROOT
HETATM    1  C   UNL     1     -12.319  15.546  64.039  1.00  0.00     0.171 C  
HETATM    2  O   UNL     1     -11.421  16.628  64.276  1.00  0.00    -1.075 OA 
ENDROOT
BRANCH   2   3
HETATM    3  C   UNL     1     -10.657  16.527  65.411  1.00  0.00    -0.276 A  
HETATM    4  C   UNL     1     -10.240  15.299  65.940  1.00  0.00    -0.353 A  
HETATM    5  C   UNL     1      -9.465  15.221  67.107  1.00  0.00    -0.214 A  
HETATM    6  C   UNL     1      -9.112  16.427  67.741  1.00  0.00    -0.199 A  
HETATM    7  C   UNL     1     -10.319  17.705  66.086  1.00  0.00    -0.334 A  
HETATM    8 CL   UNL     1      -8.134  16.416  69.168  1.00  0.00    -0.231 Cl 
HETATM    9  C   UNL     1      -9.538  17.659  67.241  1.00  0.00    -0.271 A  
HETATM   10 CL   UNL     1     -10.824  19.253  65.503  1.00  0.00    -0.362 Cl 
BRANCH   5  11
HETATM   11  N   UNL     1      -9.132  13.970  67.688  1.00  0.00    -0.184 NA 
HETATM   12  H   UNL     1      -8.143  13.827  67.890  1.00  0.00     0.000 HD 
BRANCH  11  13
HETATM   13  C   UNL     1      -9.990  12.891  68.026  1.00  0.00    -0.236 A  
HETATM   14  C   UNL     1     -11.525  14.367  69.333  1.00  0.00    -0.288 C  
HETATM   15  C   UNL     1     -11.174  13.109  68.761  1.00  0.00    -0.323 A  
HETATM   16  C   UNL     1     -12.032  12.043  68.952  1.00  0.00    -0.246 A  
HETATM   17  N   UNL     1     -11.822  10.805  68.462  1.00  0.00    -0.463 NA 
HETATM   18  N   UNL     1     -11.861  15.379  69.794  1.00  0.00    -0.325 NA 
HETATM   19  C   UNL     1     -10.704  10.587  67.760  1.00  0.00    -0.272 A  
HETATM   20  C   UNL     1     -10.527   9.317  67.240  1.00  0.00    -0.334 A  
HETATM   21  C   UNL     1      -9.419   8.981  66.457  1.00  0.00    -0.206 A  
HETATM   22  C   UNL     1      -9.731  11.583  67.521  1.00  0.00    -0.189 A  
HETATM   23  C   UNL     1      -8.432   9.941  66.232  1.00  0.00    -0.128 A  
HETATM   24  C   UNL     1      -8.583  11.222  66.776  1.00  0.00    -0.159 A  
BRANCH  21  25
HETATM   25  O   UNL     1      -9.234   7.711  65.983  1.00  0.00    -0.150 OA 
BRANCH  25  26
HETATM   26  C   UNL     1      -9.268   6.681  66.980  1.00  0.00    -0.135 C  
BRANCH  26  27
HETATM   27  C   UNL     1      -7.879   6.062  67.027  1.00  0.00    -0.102 C  
BRANCH  27  28
HETATM   28  C   UNL     1      -7.191   6.247  68.380  1.00  0.00    -0.085 C  
BRANCH  28  29
HETATM   29  N   UNL     1      -7.785   5.475  69.486  1.00  0.00    -0.081 NA 
HETATM   30  C   UNL     1      -7.284   4.085  69.562  1.00  0.00    -0.049 C  
HETATM   31  C   UNL     1      -5.805   3.965  70.002  1.00  0.00    -0.018 C  
HETATM   32  N   UNL     1      -5.494   4.633  71.280  1.00  0.00    -0.004 NA 
HETATM   33  C   UNL     1      -6.034   6.010  71.269  1.00  0.00    -0.030 C  
HETATM   34  C   UNL     1      -6.018   3.871  72.414  1.00  0.00    -0.009 C  
HETATM   35  C   UNL     1      -7.502   6.137  70.783  1.00  0.00    -0.091 C  
ENDBRANCH  28  29
ENDBRANCH  27  28
ENDBRANCH  26  27
ENDBRANCH  25  26
ENDBRANCH  21  25
BRANCH  23  36
HETATM   36  O   UNL     1      -7.262   9.755  65.542  1.00  0.00    -0.098 OA 
HETATM   37  C   UNL     1      -7.353   9.939  64.133  1.00  0.00    -0.133 C  
ENDBRANCH  23  36
ENDBRANCH  11  13
ENDBRANCH   5  11
ENDBRANCH   2   3
TORSDOF 9
ENDMDL
MODEL      146
REMARK 921   NORMALIZED FREE ENERGY PREDICTED BY IDOCK:   -4.77 KCAL/MOL
REMARK 922        TOTAL FREE ENERGY PREDICTED BY IDOCK:   -8.63 KCAL/MOL
REMARK 923 INTER-LIGAND FREE ENERGY PREDICTED BY IDOCK:   -7.23 KCAL/MOL
REMARK 924 INTRA-LIGAND FREE ENERGY PREDICTED BY IDOCK:   -1.40 KCAL/MOL
REMARK 927      BINDING AFFINITY PREDICTED BY RF-SCORE:    0.00 PKD
ROOT
HETATM    1  C   UNL     1      -6.131  13.502  67.751  1.00  0.00    -0.143 C  
HETATM    2  O   UNL     1      -6.513  14.843  68.043  1.00  0.00    -0.122 OA 
ENDROOT
BRANCH   2   3
HETATM    3  C   UNL     1      -7.848  15.041  68.287  1.00  0.00    -0.119 A  
HETATM    4  C   UNL     1      -8.845  14.189  67.795  1.00  0.00    -0.185 A  
HETATM    5  C   UNL     1     -10.206  14.416  68.052  1.00  0.00    -0.228 A  
HETATM    6  C   UNL     1     -10.548  15.539  68.828  1.00  0.00    -0.242 A  
HETATM    7  C   UNL     1      -8.225  16.168  69.025  1.00  0.00    -0.244 A  
HETATM    8 CL   UNL     1     -12.202  15.871  69.212  1.00  0.00    -0.188 Cl 
HETATM    9  C   UNL     1      -9.569  16.412  69.307  1.00  0.00    -0.198 A  
HETATM   10 CL   UNL     1      -7.048  17.276  69.639  1.00  0.00     0.054 Cl 
BRANCH   5  11
HETATM   11  N   UNL     1     -11.212  13.604  67.467  1.00  0.00    -0.284 NA 
HETATM   12  H   UNL     1     -12.162  13.774  67.795  1.00  0.00     0.000 HD 
BRANCH  11  13
HETATM   13  C   UNL     1     -11.074  12.586  66.487  1.00  0.00    -0.287 A  
HETATM   14  C   UNL     1     -11.482  14.179  64.606  1.00  0.00    -0.387 C  
HETATM   15  C   UNL     1     -11.139  12.891  65.112  1.00  0.00    -0.321 A  
HETATM   16  C   UNL     1     -10.872  11.884  64.204  1.00  0.00    -0.356 A  
HETATM   17  N   UNL     1     -10.532  10.626  64.548  1.00  0.00    -0.294 NA 
HETATM   18  N   UNL     1     -11.732  15.218  64.152  1.00  0.00    -0.329 NA 
HETATM   19  C   UNL     1     -10.464  10.325  65.850  1.00  0.00    -0.097 A  
HETATM   20  C   UNL     1     -10.080   9.037  66.178  1.00  0.00    -0.242 A  
HETATM   21  C   UNL     1      -9.934   8.618  67.504  1.00  0.00    -0.199 A  
HETATM   22  C   UNL     1     -10.742  11.255  66.876  1.00  0.00    -0.319 A  
HETATM   23  C   UNL     1     -10.233   9.511  68.533  1.00  0.00    -0.199 A  
HETATM   24  C   UNL     1     -10.650  10.809  68.217  1.00  0.00    -0.233 A  
BRANCH  21  25
HETATM   25  O   UNL     1      -9.596   7.330  67.816  1.00  0.00    -0.136 OA 
BRANCH  25  26
HETATM   26  C   UNL     1      -8.189   7.056  67.816  1.00  0.00    -0.114 C  
BRANCH  26  27
HETATM   27  C   UNL     1      -7.752   6.970  69.271  1.00  0.00    -0.109 C  
BRANCH  27  28
HETATM   28  C   UNL     1      -8.048   5.608  69.900  1.00  0.00    -0.095 C  
BRANCH  28  29
HETATM   29  N   UNL     1      -9.448   5.411  70.316  1.00  0.00    -0.156 NA 
HETATM   30  C   UNL     1      -9.742   4.023  70.735  1.00  0.00    -0.193 C  
HETATM   31  C   UNL     1      -9.075   3.605  72.067  1.00  0.00    -0.108 C  
HETATM   32  N   UNL     1      -9.372   4.499  73.203  1.00  0.00    -0.121 NA 
HETATM   33  C   UNL     1      -9.149   5.905  72.806  1.00  0.00    -0.129 C  
HETATM   34  C   UNL     1     -10.737   4.298  73.687  1.00  0.00    -0.257 C  
HETATM   35  C   UNL     1      -9.778   6.313  71.447  1.00  0.00    -0.173 C  
ENDBRANCH  28  29
ENDBRANCH  27  28
ENDBRANCH  26  27
ENDBRANCH  25  26
ENDBRANCH  21  25
BRANCH  23  36
HETATM   36  O   UNL     1     -10.201   9.241  69.876  1.00  0.00    -0.192 OA 
HETATM   37  C   UNL     1     -10.979  10.112  70.691  1.00  0.00    -0.285 C  
ENDBRANCH  23  36
ENDBRANCH  11  13
ENDBRANCH   5  11
ENDBRANCH   2   3
TORSDOF 9
ENDMDL
MODEL      147
REMARK 921   NORMALIZED FREE ENERGY PREDICTED BY IDOCK:   -4.72 KCAL/MOL
REMARK 922        TOTAL FREE ENERGY PREDICTED BY IDOCK:   -8.55 KCAL/MOL
REMARK 923 INTER-LIGAND FREE ENERGY PREDICTED BY IDOCK:   -7.48 KCAL/MOL
REMARK 924 INTRA-LIGAND FREE ENERGY PREDICTED BY IDOCK:   -1.08 KCAL/MOL
REMARK 927      BINDING AFFINITY PREDICTED BY RF-SCORE:    0.00 PKD
ROOT
HETATM    1  C   UNL     1      -6.275  15.320  70.096  1.00  0.00    -0.131 C  
HETATM    2  O   UNL     1      -6.539  16.496  69.336  1.00  0.00    -0.197 OA 
ENDROOT
BRANCH   2   3
HETATM    3  C   UNL     1      -7.521  16.380  68.385  1.00  0.00    -0.171 A  
HETATM    4  C   UNL     1      -8.475  15.355  68.398  1.00  0.00    -0.160 A  
HETATM    5  C   UNL     1      -9.465  15.253  67.409  1.00  0.00    -0.199 A  
HETATM    6  C   UNL     1      -9.476  16.222  66.389  1.00  0.00    -0.294 A  
HETATM    7  C   UNL     1      -7.537  17.307  67.337  1.00  0.00    -0.182 A  
HETATM    8 CL   UNL     1     -10.683  16.182  65.150  1.00  0.00    -0.429 Cl 
HETATM    9  C   UNL     1      -8.518  17.239  66.348  1.00  0.00    -0.304 A  
HETATM   10 CL   UNL     1      -6.373  18.582  67.244  1.00  0.00    -0.188 Cl 
BRANCH   5  11
HETATM   11  N   UNL     1     -10.363  14.155  67.377  1.00  0.00    -0.255 NA 
HETATM   12  H   UNL     1     -11.120  14.184  68.060  1.00  0.00     0.000 HD 
BRANCH  11  13
HETATM   13  C   UNL     1     -10.351  13.020  66.523  1.00  0.00    -0.274 A  
HETATM   14  C   UNL     1     -12.545  13.627  65.492  1.00  0.00    -0.496 C  
HETATM   15  C   UNL     1     -11.374  12.818  65.574  1.00  0.00    -0.347 A  
HETATM   16  C   UNL     1     -11.244  11.767  64.686  1.00  0.00    -0.286 A  
HETATM   17  N   UNL     1     -10.188  10.930  64.653  1.00  0.00    -0.325 NA 
HETATM   18  N   UNL     1     -13.500  14.277  65.374  1.00  0.00    -0.398 NA 
HETATM   19  C   UNL     1      -9.210  11.115  65.547  1.00  0.00    -0.216 A  
HETATM   20  C   UNL     1      -8.121  10.264  65.472  1.00  0.00    -0.156 A  
HETATM   21  C   UNL     1      -7.020  10.385  66.325  1.00  0.00    -0.118 A  
HETATM   22  C   UNL     1      -9.236  12.132  66.527  1.00  0.00    -0.216 A  
HETATM   23  C   UNL     1      -7.039  11.364  67.319  1.00  0.00    -0.119 A  
HETATM   24  C   UNL     1      -8.146  12.214  67.426  1.00  0.00    -0.171 A  
BRANCH  21  25
HETATM   25  O   UNL     1      -5.969   9.512  66.269  1.00  0.00    -0.057 OA 
BRANCH  25  26
HETATM   26  C   UNL     1      -6.044   8.414  67.188  1.00  0.00    -0.055 C  
BRANCH  26  27
HETATM   27  C   UNL     1      -7.306   7.634  66.848  1.00  0.00    -0.090 C  
BRANCH  27  28
HETATM   28  C   UNL     1      -8.142   7.292  68.082  1.00  0.00    -0.124 C  
BRANCH  28  29
HETATM   29  N   UNL     1      -9.491   7.883  68.097  1.00  0.00    -0.146 NA 
HETATM   30  C   UNL     1     -10.518   6.981  68.663  1.00  0.00    -0.204 C  
HETATM   31  C   UNL     1     -10.384   6.741  70.185  1.00  0.00    -0.202 C  
HETATM   32  N   UNL     1     -10.362   7.974  70.997  1.00  0.00    -0.201 NA 
HETATM   33  C   UNL     1      -9.390   8.930  70.426  1.00  0.00    -0.193 C  
HETATM   34  C   UNL     1     -11.696   8.568  71.087  1.00  0.00    -0.281 C  
HETATM   35  C   UNL     1      -9.492   9.137  68.892  1.00  0.00    -0.151 C  
ENDBRANCH  28  29
ENDBRANCH  27  28
ENDBRANCH  26  27
ENDBRANCH  25  26
ENDBRANCH  21  25
BRANCH  23  36
HETATM   36  O   UNL     1      -6.073  11.574  68.268  1.00  0.00    -0.046 OA 
HETATM   37  C   UNL     1      -6.375  11.069  69.565  1.00  0.00    -0.095 C  
ENDBRANCH  23  36
ENDBRANCH  11  13
ENDBRANCH   5  11
ENDBRANCH   2   3
TORSDOF 9
ENDMDL
MODEL      148
REMARK 921   NORMALIZED FREE ENERGY PREDICTED BY IDOCK:   -4.71 KCAL/MOL
REMARK 922        TOTAL FREE ENERGY PREDICTED BY IDOCK:   -8.53 KCAL/MOL
REMARK 923 INTER-LIGAND FREE ENERGY PREDICTED BY IDOCK:   -7.21 KCAL/MOL
REMARK 924 INTRA-LIGAND FREE ENERGY PREDICTED BY IDOCK:   -1.32 KCAL/MOL
REMARK 927      BINDING AFFINITY PREDICTED BY RF-SCORE:    0.00 PKD
ROOT
HETATM    1  C   UNL     1     -11.387   6.535  67.111  1.00  0.00    -0.027 C  
HETATM    2  O   UNL     1     -10.761   6.337  68.376  1.00  0.00    -0.230 OA 
ENDROOT
BRANCH   2   3
HETATM    3  C   UNL     1      -9.472   6.797  68.479  1.00  0.00    -0.131 A  
HETATM    4  C   UNL     1      -9.070   8.047  67.993  1.00  0.00    -0.130 A  
HETATM    5  C   UNL     1      -7.744   8.492  68.103  1.00  0.00    -0.102 A  
HETATM    6  C   UNL     1      -6.815   7.637  68.724  1.00  0.00    -0.065 A  
HETATM    7  C   UNL     1      -8.516   5.956  69.059  1.00  0.00    -0.105 A  
HETATM    8 CL   UNL     1      -5.167   8.125  68.923  1.00  0.00    -0.023 Cl 
HETATM    9  C   UNL     1      -7.193   6.377  69.194  1.00  0.00    -0.090 A  
HETATM   10 CL   UNL     1      -8.938   4.389  69.655  1.00  0.00    -0.138 Cl 
BRANCH   5  11
HETATM   11  N   UNL     1      -7.327   9.716  67.519  1.00  0.00    -0.090 NA 
HETATM   12  H   UNL     1      -6.558   9.648  66.853  1.00  0.00     0.000 HD 
BRANCH  11  13
HETATM   13  C   UNL     1      -7.836  11.024  67.737  1.00  0.00    -0.110 A  
HETATM   14  C   UNL     1      -6.617  11.265  69.905  1.00  0.00    -0.108 C  
HETATM   15  C   UNL     1      -7.431  11.782  68.854  1.00  0.00    -0.080 A  
HETATM   16  C   UNL     1      -7.860  13.092  68.947  1.00  0.00     0.118 A  
HETATM   17  N   UNL     1      -8.628  13.704  68.024  1.00  0.00    -0.166 NA 
HETATM   18  N   UNL     1      -5.935  10.891  70.767  1.00  0.00    -0.317 NA 
HETATM   19  C   UNL     1      -9.016  12.996  66.957  1.00  0.00    -0.225 A  
HETATM   20  C   UNL     1      -9.775  13.656  66.007  1.00  0.00    -0.239 A  
HETATM   21  C   UNL     1     -10.204  13.032  64.832  1.00  0.00    -0.284 A  
HETATM   22  C   UNL     1      -8.671  11.640  66.759  1.00  0.00    -0.189 A  
HETATM   23  C   UNL     1      -9.900  11.685  64.630  1.00  0.00    -0.227 A  
HETATM   24  C   UNL     1      -9.157  10.997  65.596  1.00  0.00    -0.223 A  
BRANCH  21  25
HETATM   25  O   UNL     1     -10.990  13.682  63.920  1.00  0.00    -0.165 OA 
BRANCH  25  26
HETATM   26  C   UNL     1     -11.995  14.535  64.485  1.00  0.00    -0.468 C  
BRANCH  26  27
HETATM   27  C   UNL     1     -11.504  15.966  64.327  1.00  0.00    -0.197 C  
BRANCH  27  28
HETATM   28  C   UNL     1     -11.149  16.623  65.661  1.00  0.00     0.117 C  
BRANCH  28  29
HETATM   29  N   UNL     1     -10.057  17.610  65.592  1.00  0.00    -0.583 NA 
HETATM   30  C   UNL     1     -10.468  18.966  66.018  1.00  0.00    -0.446 C  
HETATM   31  C   UNL     1     -10.764  19.096  67.531  1.00  0.00    -0.458 C  
HETATM   32  N   UNL     1      -9.661  18.658  68.407  1.00  0.00    -0.341 NA 
HETATM   33  C   UNL     1      -9.178  17.328  67.976  1.00  0.00    -0.256 C  
HETATM   34  C   UNL     1      -8.574  19.637  68.414  1.00  0.00    -0.315 C  
HETATM   35  C   UNL     1      -8.925  17.182  66.452  1.00  0.00    -0.260 C  
ENDBRANCH  28  29
ENDBRANCH  27  28
ENDBRANCH  26  27
ENDBRANCH  25  26
ENDBRANCH  21  25
BRANCH  23  36
HETATM   36  O   UNL     1     -10.295  10.915  63.567  1.00  0.00    -0.352 OA 
HETATM   37  C   UNL     1      -9.280  10.636  62.608  1.00  0.00    -0.309 C  
ENDBRANCH  23  36
ENDBRANCH  11  13
ENDBRANCH   5  11
ENDBRANCH   2   3
TORSDOF 9
ENDMDL
MODEL      149
REMARK 921   NORMALIZED FREE ENERGY PREDICTED BY IDOCK:   -4.70 KCAL/MOL
REMARK 922        TOTAL FREE ENERGY PREDICTED BY IDOCK:   -8.51 KCAL/MOL
REMARK 923 INTER-LIGAND FREE ENERGY PREDICTED BY IDOCK:   -7.51 KCAL/MOL
REMARK 924 INTRA-LIGAND FREE ENERGY PREDICTED BY IDOCK:   -1.00 KCAL/MOL
REMARK 927      BINDING AFFINITY PREDICTED BY RF-SCORE:    0.00 PKD
ROOT
HETATM    1  C   UNL     1     -12.159  14.384  64.301  1.00  0.00    -0.436 C  
HETATM    2  O   UNL     1     -11.913  14.690  65.671  1.00  0.00    -0.329 OA 
ENDROOT
BRANCH   2   3
HETATM    3  C   UNL     1     -11.163  13.769  66.359  1.00  0.00    -0.316 A  
HETATM    4  C   UNL     1     -11.655  12.511  66.728  1.00  0.00    -0.446 A  
HETATM    5  C   UNL     1     -10.871  11.589  67.438  1.00  0.00    -0.246 A  
HETATM    6  C   UNL     1      -9.558  11.967  67.775  1.00  0.00    -0.193 A  
HETATM    7  C   UNL     1      -9.865  14.128  66.740  1.00  0.00    -0.272 A  
HETATM    8 CL   UNL     1      -8.519  10.875  68.624  1.00  0.00    -0.146 Cl 
HETATM    9  C   UNL     1      -9.058  13.227  67.435  1.00  0.00    -0.216 A  
HETATM   10 CL   UNL     1      -9.204  15.675  66.341  1.00  0.00    -0.314 Cl 
BRANCH   5  11
HETATM   11  N   UNL     1     -11.412  10.358  67.892  1.00  0.00    -0.653 NA 
HETATM   12  H   UNL     1     -11.959   9.838  67.208  1.00  0.00     0.000 HD 
BRANCH  11  13
HETATM   13  C   UNL     1     -11.293   9.753  69.171  1.00  0.00     0.015 A  
HETATM   14  C   UNL     1     -12.047  11.823  70.350  1.00  0.00    -0.352 C  
HETATM   15  C   UNL     1     -11.668  10.448  70.339  1.00  0.00    -0.419 A  
HETATM   16  C   UNL     1     -11.651   9.767  71.541  1.00  0.00    -0.353 A  
HETATM   17  N   UNL     1     -11.317   8.467  71.669  1.00  0.00    -0.275 NA 
HETATM   18  N   UNL     1     -12.387  12.932  70.401  1.00  0.00    -0.299 NA 
HETATM   19  C   UNL     1     -10.962   7.796  70.567  1.00  0.00    -0.245 A  
HETATM   20  C   UNL     1     -10.657   6.455  70.720  1.00  0.00    -0.288 A  
HETATM   21  C   UNL     1     -10.312   5.642  69.636  1.00  0.00    -0.276 A  
HETATM   22  C   UNL     1     -10.909   8.385  69.284  1.00  0.00    -0.069 A  
HETATM   23  C   UNL     1     -10.225   6.209  68.364  1.00  0.00    -0.175 A  
HETATM   24  C   UNL     1     -10.504   7.571  68.199  1.00  0.00    -0.233 A  
BRANCH  21  25
HETATM   25  O   UNL     1      -9.970   4.328  69.805  1.00  0.00    -0.222 OA 
BRANCH  25  26
HETATM   26  C   UNL     1      -8.821   4.103  70.632  1.00  0.00    -0.079 C  
BRANCH  26  27
HETATM   27  C   UNL     1      -7.832   3.293  69.807  1.00  0.00    -0.050 C  
BRANCH  27  28
HETATM   28  C   UNL     1      -7.185   4.109  68.687  1.00  0.00    -0.055 C  
BRANCH  28  29
HETATM   29  N   UNL     1      -6.279   3.346  67.811  1.00  0.00    -0.032 NA 
HETATM   30  C   UNL     1      -6.951   2.232  67.106  1.00  0.00    -0.044 C  
HETATM   31  C   UNL     1      -7.955   2.680  66.019  1.00  0.00    -0.082 C  
HETATM   32  N   UNL     1      -7.387   3.587  65.002  1.00  0.00    -0.070 NA 
HETATM   33  C   UNL     1      -6.653   4.685  65.666  1.00  0.00    -0.041 C  
HETATM   34  C   UNL     1      -6.522   2.861  64.073  1.00  0.00    -0.030 C  
HETATM   35  C   UNL     1      -5.679   4.241  66.790  1.00  0.00    -0.022 C  
ENDBRANCH  28  29
ENDBRANCH  27  28
ENDBRANCH  26  27
ENDBRANCH  25  26
ENDBRANCH  21  25
BRANCH  23  36
HETATM   36  O   UNL     1      -9.844   5.568  67.215  1.00  0.00    -0.130 OA 
HETATM   37  C   UNL     1     -10.890   5.323  66.280  1.00  0.00    -0.112 C  
ENDBRANCH  23  36
ENDBRANCH  11  13
ENDBRANCH   5  11
ENDBRANCH   2   3
TORSDOF 9
ENDMDL
MODEL      150
REMARK 921   NORMALIZED FREE ENERGY PREDICTED BY IDOCK:   -4.69 KCAL/MOL
REMARK 922        TOTAL FREE ENERGY PREDICTED BY IDOCK:   -8.50 KCAL/MOL
REMARK 923 INTER-LIGAND FREE ENERGY PREDICTED BY IDOCK:   -7.23 KCAL/MOL
REMARK 924 INTRA-LIGAND FREE ENERGY PREDICTED BY IDOCK:   -1.27 KCAL/MOL
REMARK 927      BINDING AFFINITY PREDICTED BY RF-SCORE:    0.00 PKD
ROOT
HETATM    1  C   UNL     1     -11.989  16.252  64.695  1.00  0.00     0.448 C  
HETATM    2  O   UNL     1     -11.398  17.548  64.649  1.00  0.00    -0.810 OA 
ENDROOT
BRANCH   2   3
HETATM    3  C   UNL     1     -10.588  17.869  65.709  1.00  0.00    -0.174 A  
HETATM    4  C   UNL     1      -9.953  16.904  66.500  1.00  0.00    -0.309 A  
HETATM    5  C   UNL     1      -9.135  17.257  67.584  1.00  0.00    -0.228 A  
HETATM    6  C   UNL     1      -8.968  18.626  67.860  1.00  0.00    -0.287 A  
HETATM    7  C   UNL     1     -10.429  19.221  66.032  1.00  0.00    -0.487 A  
HETATM    8 CL   UNL     1      -7.952  19.143  69.162  1.00  0.00    -0.266 Cl 
HETATM    9  C   UNL     1      -9.612  19.602  67.096  1.00  0.00    -0.459 A  
HETATM   10 CL   UNL     1     -11.206  20.463  65.114  1.00  0.00     0.387 Cl 
BRANCH   5  11
HETATM   11  N   UNL     1      -8.578  16.270  68.438  1.00  0.00    -0.192 NA 
HETATM   12  H   UNL     1      -8.316  16.590  69.370  1.00  0.00     0.000 HD 
BRANCH  11  13
HETATM   13  C   UNL     1      -8.334  14.897  68.170  1.00  0.00    -0.144 A  
HETATM   14  C   UNL     1      -6.070  15.362  67.223  1.00  0.00     0.180 C  
HETATM   15  C   UNL     1      -7.096  14.469  67.649  1.00  0.00    -0.202 A  
HETATM   16  C   UNL     1      -6.871  13.111  67.528  1.00  0.00    -0.149 A  
HETATM   17  N   UNL     1      -7.753  12.162  67.896  1.00  0.00    -0.122 NA 
HETATM   18  N   UNL     1      -5.198  16.053  66.889  1.00  0.00    -0.277 NA 
HETATM   19  C   UNL     1      -8.931  12.556  68.396  1.00  0.00    -0.130 A  
HETATM   20  C   UNL     1      -9.806  11.562  68.798  1.00  0.00    -0.153 A  
HETATM   21  C   UNL     1     -11.048  11.852  69.372  1.00  0.00    -0.153 A  
HETATM   22  C   UNL     1      -9.296  13.912  68.543  1.00  0.00    -0.164 A  
HETATM   23  C   UNL     1     -11.441  13.184  69.499  1.00  0.00    -0.226 A  
HETATM   24  C   UNL     1     -10.577  14.199  69.070  1.00  0.00    -0.227 A  
BRANCH  21  25
HETATM   25  O   UNL     1     -11.922  10.862  69.726  1.00  0.00    -0.301 OA 
BRANCH  25  26
HETATM   26  C   UNL     1     -11.312   9.622  70.109  1.00  0.00    -0.227 C  
BRANCH  26  27
HETATM   27  C   UNL     1     -11.209   9.628  71.627  1.00  0.00    -0.287 C  
BRANCH  27  28
HETATM   28  C   UNL     1     -10.702   8.301  72.193  1.00  0.00    -0.319 C  
BRANCH  28  29
HETATM   29  N   UNL     1     -11.002   7.121  71.363  1.00  0.00    -0.232 NA 
HETATM   30  C   UNL     1      -9.807   6.556  70.698  1.00  0.00    -0.183 C  
HETATM   31  C   UNL     1      -8.805   5.877  71.661  1.00  0.00    -0.139 C  
HETATM   32  N   UNL     1      -9.395   4.825  72.511  1.00  0.00    -0.131 NA 
HETATM   33  C   UNL     1     -10.630   5.330  73.148  1.00  0.00    -0.234 C  
HETATM   34  C   UNL     1      -9.659   3.611  71.740  1.00  0.00    -0.151 C  
HETATM   35  C   UNL     1     -11.615   6.054  72.192  1.00  0.00    -0.293 C  
ENDBRANCH  28  29
ENDBRANCH  27  28
ENDBRANCH  26  27
ENDBRANCH  25  26
ENDBRANCH  21  25
BRANCH  23  36
HETATM   36  O   UNL     1     -12.643  13.633  69.981  1.00  0.00    -0.243 OA 
HETATM   37  C   UNL     1     -12.560  14.673  70.949  1.00  0.00    -0.342 C  
ENDBRANCH  23  36
ENDBRANCH  11  13
ENDBRANCH   5  11
ENDBRANCH   2   3
TORSDOF 9
ENDMDL
MODEL      151
REMARK 921   NORMALIZED FREE ENERGY PREDICTED BY IDOCK:   -4.69 KCAL/MOL
REMARK 922        TOTAL FREE ENERGY PREDICTED BY IDOCK:   -8.49 KCAL/MOL
REMARK 923 INTER-LIGAND FREE ENERGY PREDICTED BY IDOCK:   -7.71 KCAL/MOL
REMARK 924 INTRA-LIGAND FREE ENERGY PREDICTED BY IDOCK:   -0.79 KCAL/MOL
REMARK 927      BINDING AFFINITY PREDICTED BY RF-SCORE:    0.00 PKD
ROOT
HETATM    1  C   UNL     1      -9.624   2.060  69.016  1.00  0.00    -0.008 C  
HETATM    2  O   UNL     1      -9.504   2.174  67.601  1.00  0.00    -0.161 OA 
ENDROOT
BRANCH   2   3
HETATM    3  C   UNL     1      -9.183   3.423  67.131  1.00  0.00    -0.191 A  
HETATM    4  C   UNL     1      -8.897   4.502  67.976  1.00  0.00    -0.122 A  
HETATM    5  C   UNL     1      -8.578   5.773  67.472  1.00  0.00    -0.105 A  
HETATM    6  C   UNL     1      -8.553   5.936  66.075  1.00  0.00    -0.142 A  
HETATM    7  C   UNL     1      -9.184   3.628  65.747  1.00  0.00    -0.159 A  
HETATM    8 CL   UNL     1      -8.141   7.464  65.375  1.00  0.00    -0.128 Cl 
HETATM    9  C   UNL     1      -8.858   4.876  65.217  1.00  0.00    -0.152 A  
HETATM   10 CL   UNL     1      -9.555   2.346  64.647  1.00  0.00    -0.110 Cl 
BRANCH   5  11
HETATM   11  N   UNL     1      -8.387   6.881  68.336  1.00  0.00    -0.120 NA 
HETATM   12  H   UNL     1      -7.421   7.177  68.468  1.00  0.00     0.000 HD 
BRANCH  11  13
HETATM   13  C   UNL     1      -9.361   7.636  69.043  1.00  0.00    -0.146 A  
HETATM   14  C   UNL     1      -9.458   5.980  70.912  1.00  0.00    -0.168 C  
HETATM   15  C   UNL     1      -9.815   7.223  70.313  1.00  0.00    -0.179 A  
HETATM   16  C   UNL     1     -10.667   8.061  71.008  1.00  0.00    -0.220 A  
HETATM   17  N   UNL     1     -11.078   9.263  70.559  1.00  0.00    -0.252 NA 
HETATM   18  N   UNL     1      -9.172   4.989  71.446  1.00  0.00    -0.143 NA 
HETATM   19  C   UNL     1     -10.651   9.667  69.357  1.00  0.00    -0.225 A  
HETATM   20  C   UNL     1     -11.060  10.919  68.933  1.00  0.00    -0.307 A  
HETATM   21  C   UNL     1     -10.646  11.465  67.714  1.00  0.00    -0.195 A  
HETATM   22  C   UNL     1      -9.804   8.892  68.534  1.00  0.00    -0.182 A  
HETATM   23  C   UNL     1      -9.833  10.704  66.873  1.00  0.00    -0.188 A  
HETATM   24  C   UNL     1      -9.434   9.425  67.276  1.00  0.00    -0.169 A  
BRANCH  21  25
HETATM   25  O   UNL     1     -11.091  12.685  67.286  1.00  0.00    -0.256 OA 
BRANCH  25  26
HETATM   26  C   UNL     1     -10.291  13.801  67.698  1.00  0.00    -0.239 C  
BRANCH  26  27
HETATM   27  C   UNL     1      -9.365  14.137  66.538  1.00  0.00    -0.285 C  
BRANCH  27  28
HETATM   28  C   UNL     1      -8.561  15.416  66.771  1.00  0.00    -0.273 C  
BRANCH  28  29
HETATM   29  N   UNL     1      -8.894  16.528  65.863  1.00  0.00    -0.483 NA 
HETATM   30  C   UNL     1     -10.284  17.012  66.019  1.00  0.00    -0.325 C  
HETATM   31  C   UNL     1     -10.555  17.750  67.352  1.00  0.00    -0.335 C  
HETATM   32  N   UNL     1      -9.645  18.881  67.619  1.00  0.00    -0.302 NA 
HETATM   33  C   UNL     1      -8.244  18.454  67.413  1.00  0.00    -0.244 C  
HETATM   34  C   UNL     1      -9.975  20.031  66.777  1.00  0.00    -0.454 C  
HETATM   35  C   UNL     1      -7.980  17.673  66.099  1.00  0.00    -0.213 C  
ENDBRANCH  28  29
ENDBRANCH  27  28
ENDBRANCH  26  27
ENDBRANCH  25  26
ENDBRANCH  21  25
BRANCH  23  36
HETATM   36  O   UNL     1      -9.392  11.066  65.626  1.00  0.00    -0.199 OA 
HETATM   37  C   UNL     1     -10.149  10.545  64.539  1.00  0.00    -0.332 C  
ENDBRANCH  23  36
ENDBRANCH  11  13
ENDBRANCH   5  11
ENDBRANCH   2   3
TORSDOF 9
ENDMDL
MODEL      152
REMARK 921   NORMALIZED FREE ENERGY PREDICTED BY IDOCK:   -4.66 KCAL/MOL
REMARK 922        TOTAL FREE ENERGY PREDICTED BY IDOCK:   -8.46 KCAL/MOL
REMARK 923 INTER-LIGAND FREE ENERGY PREDICTED BY IDOCK:   -7.17 KCAL/MOL
REMARK 924 INTRA-LIGAND FREE ENERGY PREDICTED BY IDOCK:   -1.30 KCAL/MOL
REMARK 927      BINDING AFFINITY PREDICTED BY RF-SCORE:    0.00 PKD
ROOT
HETATM    1  C   UNL     1      -7.829   8.424  62.919  1.00  0.00    -0.149 C  
HETATM    2  O   UNL     1      -6.947   7.586  63.661  1.00  0.00    -0.056 OA 
ENDROOT
BRANCH   2   3
HETATM    3  C   UNL     1      -7.551   6.706  64.524  1.00  0.00    -0.103 A  
HETATM    4  C   UNL     1      -8.468   7.110  65.502  1.00  0.00    -0.114 A  
HETATM    5  C   UNL     1      -9.067   6.192  66.379  1.00  0.00    -0.148 A  
HETATM    6  C   UNL     1      -8.717   4.835  66.247  1.00  0.00    -0.114 A  
HETATM    7  C   UNL     1      -7.198   5.355  64.443  1.00  0.00    -0.055 A  
HETATM    8 CL   UNL     1      -9.434   3.639  67.271  1.00  0.00    -0.235 Cl 
HETATM    9  C   UNL     1      -7.787   4.418  65.292  1.00  0.00    -0.086 A  
HETATM   10 CL   UNL     1      -6.052   4.792  63.277  1.00  0.00    -0.017 Cl 
BRANCH   5  11
HETATM   11  N   UNL     1      -9.918   6.624  67.429  1.00  0.00    -0.135 NA 
HETATM   12  H   UNL     1     -10.847   6.205  67.445  1.00  0.00     0.000 HD 
BRANCH  11  13
HETATM   13  C   UNL     1      -9.650   7.560  68.462  1.00  0.00    -0.150 A  
HETATM   14  C   UNL     1      -8.782   5.793  70.001  1.00  0.00    -0.132 C  
HETATM   15  C   UNL     1      -9.040   7.155  69.667  1.00  0.00    -0.140 A  
HETATM   16  C   UNL     1      -8.690   8.128  70.584  1.00  0.00    -0.135 A  
HETATM   17  N   UNL     1      -8.874   9.450  70.392  1.00  0.00    -0.235 NA 
HETATM   18  N   UNL     1      -8.531   4.700  70.300  1.00  0.00    -0.074 NA 
HETATM   19  C   UNL     1      -9.448   9.846  69.250  1.00  0.00    -0.209 A  
HETATM   20  C   UNL     1      -9.596  11.210  69.062  1.00  0.00    -0.099 A  
HETATM   21  C   UNL     1     -10.144  11.745  67.893  1.00  0.00    -0.186 A  
HETATM   22  C   UNL     1      -9.881   8.951  68.247  1.00  0.00    -0.187 A  
HETATM   23  C   UNL     1     -10.605  10.878  66.902  1.00  0.00    -0.261 A  
HETATM   24  C   UNL     1     -10.488   9.495  67.091  1.00  0.00    -0.322 A  
BRANCH  21  25
HETATM   25  O   UNL     1     -10.324  13.092  67.737  1.00  0.00    -0.219 OA 
BRANCH  25  26
HETATM   26  C   UNL     1     -11.505  13.621  68.354  1.00  0.00    -0.311 C  
BRANCH  26  27
HETATM   27  C   UNL     1     -11.680  15.041  67.835  1.00  0.00    -0.310 C  
BRANCH  27  28
HETATM   28  C   UNL     1     -10.519  15.960  68.215  1.00  0.00    -0.257 C  
BRANCH  28  29
HETATM   29  N   UNL     1     -10.193  16.989  67.212  1.00  0.00    -0.303 NA 
HETATM   30  C   UNL     1     -10.603  18.351  67.620  1.00  0.00    -0.408 C  
HETATM   31  C   UNL     1      -9.781  18.940  68.790  1.00  0.00    -0.400 C  
HETATM   32  N   UNL     1      -8.322  18.951  68.565  1.00  0.00    -0.340 NA 
HETATM   33  C   UNL     1      -7.879  17.620  68.096  1.00  0.00    -0.257 C  
HETATM   34  C   UNL     1      -7.944  19.997  67.616  1.00  0.00    -0.303 C  
HETATM   35  C   UNL     1      -8.731  17.007  66.953  1.00  0.00    -0.227 C  
ENDBRANCH  28  29
ENDBRANCH  27  28
ENDBRANCH  26  27
ENDBRANCH  25  26
ENDBRANCH  21  25
BRANCH  23  36
HETATM   36  O   UNL     1     -11.220  11.237  65.732  1.00  0.00    -0.164 OA 
HETATM   37  C   UNL     1     -10.519  10.883  64.543  1.00  0.00    -0.323 C  
ENDBRANCH  23  36
ENDBRANCH  11  13
ENDBRANCH   5  11
ENDBRANCH   2   3
TORSDOF 9
ENDMDL
MODEL      153
REMARK 921   NORMALIZED FREE ENERGY PREDICTED BY IDOCK:   -4.64 KCAL/MOL
REMARK 922        TOTAL FREE ENERGY PREDICTED BY IDOCK:   -8.43 KCAL/MOL
REMARK 923 INTER-LIGAND FREE ENERGY PREDICTED BY IDOCK:   -7.33 KCAL/MOL
REMARK 924 INTRA-LIGAND FREE ENERGY PREDICTED BY IDOCK:   -1.09 KCAL/MOL
REMARK 927      BINDING AFFINITY PREDICTED BY RF-SCORE:    0.00 PKD
ROOT
HETATM    1  C   UNL     1     -12.521  14.796  64.763  1.00  0.00    -0.210 C  
HETATM    2  O   UNL     1     -11.202  14.306  64.542  1.00  0.00    -0.371 OA 
ENDROOT
BRANCH   2   3
HETATM    3  C   UNL     1     -10.653  13.591  65.577  1.00  0.00    -0.296 A  
HETATM    4  C   UNL     1     -11.088  12.308  65.930  1.00  0.00    -0.360 A  
HETATM    5  C   UNL     1     -10.515  11.600  66.998  1.00  0.00    -0.224 A  
HETATM    6  C   UNL     1      -9.478  12.223  67.716  1.00  0.00    -0.197 A  
HETATM    7  C   UNL     1      -9.643  14.197  66.333  1.00  0.00    -0.293 A  
HETATM    8 CL   UNL     1      -8.701  11.404  69.027  1.00  0.00    -0.000 Cl 
HETATM    9  C   UNL     1      -9.046  13.512  67.392  1.00  0.00    -0.219 A  
HETATM   10 CL   UNL     1      -9.077  15.789  65.969  1.00  0.00    -0.379 Cl 
BRANCH   5  11
HETATM   11  N   UNL     1     -11.030  10.343  67.408  1.00  0.00    -0.293 NA 
HETATM   12  H   UNL     1     -12.041  10.301  67.536  1.00  0.00     0.000 HD 
BRANCH  11  13
HETATM   13  C   UNL     1     -10.328   9.136  67.665  1.00  0.00    -0.255 A  
HETATM   14  C   UNL     1      -9.278   9.127  65.398  1.00  0.00    -0.202 C  
HETATM   15  C   UNL     1      -9.436   8.600  66.714  1.00  0.00    -0.250 A  
HETATM   16  C   UNL     1      -8.687   7.494  67.068  1.00  0.00    -0.127 A  
HETATM   17  N   UNL     1      -8.738   6.902  68.278  1.00  0.00    -0.124 NA 
HETATM   18  N   UNL     1      -9.099   9.539  64.327  1.00  0.00    -0.215 NA 
HETATM   19  C   UNL     1      -9.578   7.404  69.190  1.00  0.00    -0.156 A  
HETATM   20  C   UNL     1      -9.587   6.800  70.435  1.00  0.00    -0.174 A  
HETATM   21  C   UNL     1     -10.392   7.261  71.481  1.00  0.00    -0.201 A  
HETATM   22  C   UNL     1     -10.420   8.511  68.944  1.00  0.00    -0.207 A  
HETATM   23  C   UNL     1     -11.253   8.334  71.250  1.00  0.00    -0.259 A  
HETATM   24  C   UNL     1     -11.276   8.937  69.987  1.00  0.00    -0.120 A  
BRANCH  21  25
HETATM   25  O   UNL     1     -10.424   6.629  72.694  1.00  0.00    -0.198 OA 
BRANCH  25  26
HETATM   26  C   UNL     1     -11.380   5.565  72.798  1.00  0.00    -0.303 C  
BRANCH  26  27
HETATM   27  C   UNL     1     -10.840   4.582  73.826  1.00  0.00    -0.360 C  
BRANCH  27  28
HETATM   28  C   UNL     1     -10.317   3.291  73.196  1.00  0.00    -0.159 C  
BRANCH  28  29
HETATM   29  N   UNL     1      -8.971   2.889  73.638  1.00  0.00    -0.079 NA 
HETATM   30  C   UNL     1      -8.467   1.681  72.949  1.00  0.00    -0.057 C  
HETATM   31  C   UNL     1      -8.135   1.893  71.453  1.00  0.00    -0.047 C  
HETATM   32  N   UNL     1      -7.190   2.996  71.189  1.00  0.00    -0.033 NA 
HETATM   33  C   UNL     1      -7.626   4.210  71.911  1.00  0.00    -0.070 C  
HETATM   34  C   UNL     1      -5.826   2.621  71.561  1.00  0.00    -0.013 C  
HETATM   35  C   UNL     1      -8.004   3.990  73.400  1.00  0.00    -0.089 C  
ENDBRANCH  28  29
ENDBRANCH  27  28
ENDBRANCH  26  27
ENDBRANCH  25  26
ENDBRANCH  21  25
BRANCH  23  36
HETATM   36  O   UNL     1     -12.146   8.864  72.145  1.00  0.00    -0.358 OA 
HETATM   37  C   UNL     1     -12.828  10.033  71.702  1.00  0.00    -0.440 C  
ENDBRANCH  23  36
ENDBRANCH  11  13
ENDBRANCH   5  11
ENDBRANCH   2   3
TORSDOF 9
ENDMDL
MODEL      154
REMARK 921   NORMALIZED FREE ENERGY PREDICTED BY IDOCK:   -4.64 KCAL/MOL
REMARK 922        TOTAL FREE ENERGY PREDICTED BY IDOCK:   -8.42 KCAL/MOL
REMARK 923 INTER-LIGAND FREE ENERGY PREDICTED BY IDOCK:   -7.33 KCAL/MOL
REMARK 924 INTRA-LIGAND FREE ENERGY PREDICTED BY IDOCK:   -1.09 KCAL/MOL
REMARK 927      BINDING AFFINITY PREDICTED BY RF-SCORE:    0.00 PKD
ROOT
HETATM    1  C   UNL     1      -6.963   3.446  72.708  1.00  0.00    -0.043 C  
HETATM    2  O   UNL     1      -8.379   3.607  72.733  1.00  0.00    -0.084 OA 
ENDROOT
BRANCH   2   3
HETATM    3  C   UNL     1      -8.881   4.569  71.894  1.00  0.00    -0.118 A  
HETATM    4  C   UNL     1      -8.126   5.156  70.871  1.00  0.00    -0.105 A  
HETATM    5  C   UNL     1      -8.660   6.144  70.030  1.00  0.00    -0.136 A  
HETATM    6  C   UNL     1      -9.995   6.536  70.244  1.00  0.00    -0.174 A  
HETATM    7  C   UNL     1     -10.194   5.006  72.103  1.00  0.00    -0.201 A  
HETATM    8 CL   UNL     1     -10.735   7.727  69.231  1.00  0.00    -0.196 Cl 
HETATM    9  C   UNL     1     -10.756   5.977  71.274  1.00  0.00    -0.320 A  
HETATM   10 CL   UNL     1     -11.174   4.344  73.364  1.00  0.00    -0.390 Cl 
BRANCH   5  11
HETATM   11  N   UNL     1      -7.857   6.801  69.063  1.00  0.00    -0.109 NA 
HETATM   12  H   UNL     1      -7.142   7.426  69.435  1.00  0.00     0.000 HD 
BRANCH  11  13
HETATM   13  C   UNL     1      -7.912   6.706  67.647  1.00  0.00    -0.115 A  
HETATM   14  C   UNL     1      -7.415   4.258  67.675  1.00  0.00    -0.069 C  
HETATM   15  C   UNL     1      -7.766   5.463  66.999  1.00  0.00    -0.100 A  
HETATM   16  C   UNL     1      -7.955   5.412  65.630  1.00  0.00    -0.107 A  
HETATM   17  N   UNL     1      -8.292   6.474  64.873  1.00  0.00    -0.095 NA 
HETATM   18  N   UNL     1      -7.157   3.250  68.190  1.00  0.00    -0.050 NA 
HETATM   19  C   UNL     1      -8.438   7.659  65.478  1.00  0.00    -0.120 A  
HETATM   20  C   UNL     1      -8.817   8.727  64.685  1.00  0.00    -0.054 A  
HETATM   21  C   UNL     1      -9.039  10.003  65.210  1.00  0.00    -0.200 A  
HETATM   22  C   UNL     1      -8.243   7.851  66.864  1.00  0.00    -0.116 A  
HETATM   23  C   UNL     1      -8.824  10.222  66.571  1.00  0.00    -0.137 A  
HETATM   24  C   UNL     1      -8.412   9.157  67.381  1.00  0.00    -0.115 A  
BRANCH  21  25
HETATM   25  O   UNL     1      -9.373  11.061  64.409  1.00  0.00    -0.208 OA 
BRANCH  25  26
HETATM   26  C   UNL     1     -10.747  11.106  64.006  1.00  0.00    -0.339 C  
BRANCH  26  27
HETATM   27  C   UNL     1     -11.048  12.544  63.610  1.00  0.00    -0.523 C  
BRANCH  27  28
HETATM   28  C   UNL     1     -10.416  13.565  64.557  1.00  0.00    -0.407 C  
BRANCH  28  29
HETATM   29  N   UNL     1     -11.355  14.555  65.112  1.00  0.00    -0.350 NA 
HETATM   30  C   UNL     1     -12.292  13.979  66.102  1.00  0.00    -0.458 C  
HETATM   31  C   UNL     1     -11.630  13.556  67.435  1.00  0.00    -0.356 C  
HETATM   32  N   UNL     1     -10.865  14.627  68.101  1.00  0.00    -0.247 NA 
HETATM   33  C   UNL     1      -9.957  15.272  67.129  1.00  0.00    -0.233 C  
HETATM   34  C   UNL     1     -11.758  15.607  68.718  1.00  0.00    -0.370 C  
HETATM   35  C   UNL     1     -10.608  15.654  65.773  1.00  0.00    -0.361 C  
ENDBRANCH  28  29
ENDBRANCH  27  28
ENDBRANCH  26  27
ENDBRANCH  25  26
ENDBRANCH  21  25
BRANCH  23  36
HETATM   36  O   UNL     1      -8.936  11.420  67.228  1.00  0.00    -0.154 OA 
HETATM   37  C   UNL     1      -7.733  12.175  67.325  1.00  0.00    -0.168 C  
ENDBRANCH  23  36
ENDBRANCH  11  13
ENDBRANCH   5  11
ENDBRANCH   2   3
TORSDOF 9
ENDMDL
MODEL      155
REMARK 921   NORMALIZED FREE ENERGY PREDICTED BY IDOCK:   -4.53 KCAL/MOL
REMARK 922        TOTAL FREE ENERGY PREDICTED BY IDOCK:   -8.26 KCAL/MOL
REMARK 923 INTER-LIGAND FREE ENERGY PREDICTED BY IDOCK:   -6.87 KCAL/MOL
REMARK 924 INTRA-LIGAND FREE ENERGY PREDICTED BY IDOCK:   -1.39 KCAL/MOL
REMARK 927      BINDING AFFINITY PREDICTED BY RF-SCORE:    0.00 PKD
ROOT
HETATM    1  C   UNL     1     -11.912  14.088  64.862  1.00  0.00    -0.404 C  
HETATM    2  O   UNL     1     -10.594  13.550  64.791  1.00  0.00    -0.370 OA 
ENDROOT
BRANCH   2   3
HETATM    3  C   UNL     1     -10.211  12.775  65.857  1.00  0.00    -0.287 A  
HETATM    4  C   UNL     1     -10.695  11.478  66.067  1.00  0.00    -0.332 A  
HETATM    5  C   UNL     1     -10.294  10.709  67.170  1.00  0.00    -0.228 A  
HETATM    6  C   UNL     1      -9.380  11.283  68.073  1.00  0.00    -0.166 A  
HETATM    7  C   UNL     1      -9.331  13.330  66.793  1.00  0.00    -0.252 A  
HETATM    8 CL   UNL     1      -8.816  10.387  69.442  1.00  0.00    -0.167 Cl 
HETATM    9  C   UNL     1      -8.905  12.584  67.892  1.00  0.00    -0.185 A  
HETATM   10 CL   UNL     1      -8.716  14.936  66.609  1.00  0.00    -0.287 Cl 
BRANCH   5  11
HETATM   11  N   UNL     1     -10.865   9.435  67.426  1.00  0.00    -0.394 NA 
HETATM   12  H   UNL     1     -11.883   9.412  67.485  1.00  0.00     0.000 HD 
BRANCH  11  13
HETATM   13  C   UNL     1     -10.212   8.188  67.611  1.00  0.00    -0.234 A  
HETATM   14  C   UNL     1      -8.830   8.473  65.549  1.00  0.00    -0.154 C  
HETATM   15  C   UNL     1      -9.187   7.771  66.738  1.00  0.00    -0.202 A  
HETATM   16  C   UNL     1      -8.501   6.610  67.040  1.00  0.00    -0.113 A  
HETATM   17  N   UNL     1      -8.735   5.855  68.132  1.00  0.00    -0.112 NA 
HETATM   18  N   UNL     1      -8.491   9.027  64.586  1.00  0.00    -0.173 NA 
HETATM   19  C   UNL     1      -9.703   6.243  68.970  1.00  0.00    -0.130 A  
HETATM   20  C   UNL     1      -9.901   5.471  70.101  1.00  0.00    -0.261 A  
HETATM   21  C   UNL     1     -10.855   5.799  71.069  1.00  0.00    -0.247 A  
HETATM   22  C   UNL     1     -10.497   7.393  68.760  1.00  0.00    -0.215 A  
HETATM   23  C   UNL     1     -11.670   6.913  70.867  1.00  0.00    -0.361 A  
HETATM   24  C   UNL     1     -11.500   7.688  69.714  1.00  0.00     0.140 A  
BRANCH  21  25
HETATM   25  O   UNL     1     -11.071   5.004  72.162  1.00  0.00    -0.129 OA 
BRANCH  25  26
HETATM   26  C   UNL     1     -10.246   3.834  72.232  1.00  0.00    -0.131 C  
BRANCH  26  27
HETATM   27  C   UNL     1      -9.463   3.919  73.534  1.00  0.00    -0.126 C  
BRANCH  27  28
HETATM   28  C   UNL     1      -7.972   4.181  73.314  1.00  0.00    -0.089 C  
BRANCH  28  29
HETATM   29  N   UNL     1      -7.387   5.199  74.203  1.00  0.00    -0.082 NA 
HETATM   30  C   UNL     1      -6.001   5.565  73.837  1.00  0.00    -0.056 C  
HETATM   31  C   UNL     1      -5.880   6.358  72.514  1.00  0.00    -0.038 C  
HETATM   32  N   UNL     1      -6.704   7.580  72.458  1.00  0.00    -0.059 NA 
HETATM   33  C   UNL     1      -8.088   7.269  72.877  1.00  0.00    -0.106 C  
HETATM   34  C   UNL     1      -6.129   8.641  73.285  1.00  0.00    -0.091 C  
HETATM   35  C   UNL     1      -8.210   6.434  74.180  1.00  0.00    -0.119 C  
ENDBRANCH  28  29
ENDBRANCH  27  28
ENDBRANCH  26  27
ENDBRANCH  25  26
ENDBRANCH  21  25
BRANCH  23  36
HETATM   36  O   UNL     1     -12.687   7.333  71.684  1.00  0.00    -0.346 OA 
HETATM   37  C   UNL     1     -12.843   8.745  71.784  1.00  0.00    -0.360 C  
ENDBRANCH  23  36
ENDBRANCH  11  13
ENDBRANCH   5  11
ENDBRANCH   2   3
TORSDOF 9
ENDMDL
MODEL      156
REMARK 921   NORMALIZED FREE ENERGY PREDICTED BY IDOCK:   -4.52 KCAL/MOL
REMARK 922        TOTAL FREE ENERGY PREDICTED BY IDOCK:   -8.25 KCAL/MOL
REMARK 923 INTER-LIGAND FREE ENERGY PREDICTED BY IDOCK:   -8.17 KCAL/MOL
REMARK 924 INTRA-LIGAND FREE ENERGY PREDICTED BY IDOCK:   -0.08 KCAL/MOL
REMARK 927      BINDING AFFINITY PREDICTED BY RF-SCORE:    0.00 PKD
ROOT
HETATM    1  C   UNL     1     -12.789  10.457  70.755  1.00  0.00    -0.364 C  
HETATM    2  O   UNL     1     -11.706   9.533  70.835  1.00  0.00    -0.281 OA 
ENDROOT
BRANCH   2   3
HETATM    3  C   UNL     1     -11.077   9.252  69.649  1.00  0.00    -0.116 A  
HETATM    4  C   UNL     1     -11.069  10.137  68.564  1.00  0.00    -0.266 A  
HETATM    5  C   UNL     1     -10.425   9.823  67.357  1.00  0.00    -0.259 A  
HETATM    6  C   UNL     1      -9.777   8.578  67.265  1.00  0.00    -0.183 A  
HETATM    7  C   UNL     1     -10.453   8.007  69.512  1.00  0.00    -0.226 A  
HETATM    8 CL   UNL     1      -8.935   8.129  65.822  1.00  0.00    -0.192 Cl 
HETATM    9  C   UNL     1      -9.793   7.673  68.330  1.00  0.00    -0.181 A  
HETATM   10 CL   UNL     1     -10.448   6.856  70.803  1.00  0.00    -0.233 Cl 
BRANCH   5  11
HETATM   11  N   UNL     1     -10.508  10.684  66.232  1.00  0.00    -0.230 NA 
HETATM   12  H   UNL     1     -10.887  10.265  65.384  1.00  0.00     0.000 HD 
BRANCH  11  13
HETATM   13  C   UNL     1     -10.134  12.050  66.128  1.00  0.00    -0.226 A  
HETATM   14  C   UNL     1     -12.231  12.651  64.909  1.00  0.00    -0.471 C  
HETATM   15  C   UNL     1     -11.005  12.996  65.550  1.00  0.00    -0.296 A  
HETATM   16  C   UNL     1     -10.642  14.329  65.589  1.00  0.00    -0.319 A  
HETATM   17  N   UNL     1      -9.515  14.790  66.167  1.00  0.00    -0.304 NA 
HETATM   18  N   UNL     1     -13.248  12.417  64.401  1.00  0.00    -0.778 NA 
HETATM   19  C   UNL     1      -8.683  13.901  66.723  1.00  0.00    -0.097 A  
HETATM   20  C   UNL     1      -7.549  14.402  67.338  1.00  0.00    -0.196 A  
HETATM   21  C   UNL     1      -6.628  13.575  67.987  1.00  0.00    -0.137 A  
HETATM   22  C   UNL     1      -8.922  12.509  66.722  1.00  0.00    -0.198 A  
HETATM   23  C   UNL     1      -6.829  12.195  67.973  1.00  0.00    -0.081 A  
HETATM   24  C   UNL     1      -7.957  11.672  67.330  1.00  0.00    -0.157 A  
BRANCH  21  25
HETATM   25  O   UNL     1      -5.489  14.077  68.555  1.00  0.00    -0.084 OA 
BRANCH  25  26
HETATM   26  C   UNL     1      -5.701  14.914  69.700  1.00  0.00    -0.100 C  
BRANCH  26  27
HETATM   27  C   UNL     1      -6.076  16.294  69.180  1.00  0.00    -0.154 C  
BRANCH  27  28
HETATM   28  C   UNL     1      -5.583  17.424  70.083  1.00  0.00    -0.246 C  
BRANCH  28  29
HETATM   29  N   UNL     1      -5.194  18.656  69.375  1.00  0.00    -0.192 NA 
HETATM   30  C   UNL     1      -5.222  18.515  67.903  1.00  0.00    -0.166 C  
HETATM   31  C   UNL     1      -6.642  18.377  67.304  1.00  0.00    -0.194 C  
HETATM   32  N   UNL     1      -7.569  19.462  67.677  1.00  0.00    -0.253 NA 
HETATM   33  C   UNL     1      -7.525  19.677  69.139  1.00  0.00    -0.275 C  
HETATM   34  C   UNL     1      -7.255  20.694  66.954  1.00  0.00    -0.292 C  
HETATM   35  C   UNL     1      -6.101  19.769  69.748  1.00  0.00    -0.327 C  
ENDBRANCH  28  29
ENDBRANCH  27  28
ENDBRANCH  26  27
ENDBRANCH  25  26
ENDBRANCH  21  25
BRANCH  23  36
HETATM   36  O   UNL     1      -5.994  11.248  68.507  1.00  0.00    -0.043 OA 
HETATM   37  C   UNL     1      -6.466   9.907  68.428  1.00  0.00    -0.054 C  
ENDBRANCH  23  36
ENDBRANCH  11  13
ENDBRANCH   5  11
ENDBRANCH   2   3
TORSDOF 9
ENDMDL
MODEL      157
REMARK 921   NORMALIZED FREE ENERGY PREDICTED BY IDOCK:   -4.49 KCAL/MOL
REMARK 922        TOTAL FREE ENERGY PREDICTED BY IDOCK:   -8.19 KCAL/MOL
REMARK 923 INTER-LIGAND FREE ENERGY PREDICTED BY IDOCK:   -6.42 KCAL/MOL
REMARK 924 INTRA-LIGAND FREE ENERGY PREDICTED BY IDOCK:   -1.77 KCAL/MOL
REMARK 927      BINDING AFFINITY PREDICTED BY RF-SCORE:    0.00 PKD
ROOT
HETATM    1  C   UNL     1      -9.751  10.385  65.835  1.00  0.00    -0.217 C  
HETATM    2  O   UNL     1      -9.535  11.376  66.836  1.00  0.00    -0.175 OA 
ENDROOT
BRANCH   2   3
HETATM    3  C   UNL     1     -10.277  11.235  67.981  1.00  0.00    -0.183 A  
HETATM    4  C   UNL     1      -9.951  10.323  68.992  1.00  0.00    -0.223 A  
HETATM    5  C   UNL     1     -10.731  10.191  70.151  1.00  0.00    -0.300 A  
HETATM    6  C   UNL     1     -11.867  11.012  70.273  1.00  0.00    -0.367 A  
HETATM    7  C   UNL     1     -11.434  12.011  68.117  1.00  0.00    -0.322 A  
HETATM    8 CL   UNL     1     -12.864  10.930  71.685  1.00  0.00    -0.555 Cl 
HETATM    9  C   UNL     1     -12.221  11.912  69.264  1.00  0.00    -0.169 A  
HETATM   10 CL   UNL     1     -11.911  13.138  66.895  1.00  0.00    -0.436 Cl 
BRANCH   5  11
HETATM   11  N   UNL     1     -10.447   9.196  71.121  1.00  0.00    -0.287 NA 
HETATM   12  H   UNL     1     -10.328   9.532  72.076  1.00  0.00     0.000 HD 
BRANCH  11  13
HETATM   13  C   UNL     1     -10.306   7.794  70.942  1.00  0.00    -0.200 A  
HETATM   14  C   UNL     1     -12.729   7.375  71.383  1.00  0.00    -0.369 C  
HETATM   15  C   UNL     1     -11.426   6.940  71.004  1.00  0.00    -0.358 A  
HETATM   16  C   UNL     1     -11.248   5.604  70.698  1.00  0.00    -0.019 A  
HETATM   17  N   UNL     1     -10.072   5.064  70.321  1.00  0.00    -0.256 NA 
HETATM   18  N   UNL     1     -13.811   7.693  71.662  1.00  0.00    -0.392 NA 
HETATM   19  C   UNL     1      -9.003   5.866  70.255  1.00  0.00    -0.146 A  
HETATM   20  C   UNL     1      -7.815   5.295  69.834  1.00  0.00    -0.080 A  
HETATM   21  C   UNL     1      -6.641   6.040  69.687  1.00  0.00    -0.044 A  
HETATM   22  C   UNL     1      -9.045   7.241  70.573  1.00  0.00    -0.158 A  
HETATM   23  C   UNL     1      -6.653   7.394  70.024  1.00  0.00    -0.046 A  
HETATM   24  C   UNL     1      -7.840   7.979  70.478  1.00  0.00    -0.094 A  
BRANCH  21  25
HETATM   25  O   UNL     1      -5.463   5.456  69.311  1.00  0.00    -0.006 OA 
BRANCH  25  26
HETATM   26  C   UNL     1      -5.242   5.395  67.896  1.00  0.00    -0.004 C  
BRANCH  26  27
HETATM   27  C   UNL     1      -5.424   3.943  67.480  1.00  0.00    -0.017 C  
BRANCH  27  28
HETATM   28  C   UNL     1      -6.276   3.788  66.220  1.00  0.00    -0.032 C  
BRANCH  28  29
HETATM   29  N   UNL     1      -7.650   4.306  66.337  1.00  0.00    -0.088 NA 
HETATM   30  C   UNL     1      -8.066   5.123  65.175  1.00  0.00    -0.118 C  
HETATM   31  C   UNL     1      -8.263   4.318  63.869  1.00  0.00    -0.096 C  
HETATM   32  N   UNL     1      -9.199   3.183  63.988  1.00  0.00    -0.106 NA 
HETATM   33  C   UNL     1      -8.855   2.373  65.176  1.00  0.00    -0.120 C  
HETATM   34  C   UNL     1     -10.585   3.648  64.051  1.00  0.00    -0.263 C  
HETATM   35  C   UNL     1      -8.610   3.183  66.477  1.00  0.00    -0.119 C  
ENDBRANCH  28  29
ENDBRANCH  27  28
ENDBRANCH  26  27
ENDBRANCH  25  26
ENDBRANCH  21  25
BRANCH  23  36
HETATM   36  O   UNL     1      -5.579   8.246  69.995  1.00  0.00    -0.023 OA 
HETATM   37  C   UNL     1      -5.864   9.568  69.549  1.00  0.00    -0.033 C  
ENDBRANCH  23  36
ENDBRANCH  11  13
ENDBRANCH   5  11
ENDBRANCH   2   3
TORSDOF 9
ENDMDL
MODEL      158
REMARK 921   NORMALIZED FREE ENERGY PREDICTED BY IDOCK:   -4.47 KCAL/MOL
REMARK 922        TOTAL FREE ENERGY PREDICTED BY IDOCK:   -8.17 KCAL/MOL
REMARK 923 INTER-LIGAND FREE ENERGY PREDICTED BY IDOCK:   -6.46 KCAL/MOL
REMARK 924 INTRA-LIGAND FREE ENERGY PREDICTED BY IDOCK:   -1.71 KCAL/MOL
REMARK 927      BINDING AFFINITY PREDICTED BY RF-SCORE:    0.00 PKD
ROOT
HETATM    1  C   UNL     1      -8.812   1.573  67.762  1.00  0.00    -0.111 C  
HETATM    2  O   UNL     1      -9.595   2.640  68.291  1.00  0.00    -0.192 OA 
ENDROOT
BRANCH   2   3
HETATM    3  C   UNL     1      -8.918   3.808  68.537  1.00  0.00    -0.124 A  
HETATM    4  C   UNL     1      -8.166   4.471  67.559  1.00  0.00    -0.100 A  
HETATM    5  C   UNL     1      -7.476   5.661  67.837  1.00  0.00    -0.077 A  
HETATM    6  C   UNL     1      -7.561   6.178  69.143  1.00  0.00    -0.095 A  
HETATM    7  C   UNL     1      -8.953   4.330  69.835  1.00  0.00    -0.096 A  
HETATM    8 CL   UNL     1      -6.762   7.656  69.556  1.00  0.00    -0.036 Cl 
HETATM    9  C   UNL     1      -8.288   5.519  70.136  1.00  0.00    -0.116 A  
HETATM   10 CL   UNL     1      -9.840   3.549  71.096  1.00  0.00    -0.233 Cl 
BRANCH   5  11
HETATM   11  N   UNL     1      -6.637   6.269  66.867  1.00  0.00    -0.056 NA 
HETATM   12  H   UNL     1      -5.668   6.411  67.149  1.00  0.00     0.000 HD 
BRANCH  11  13
HETATM   13  C   UNL     1      -6.966   6.708  65.558  1.00  0.00    -0.060 A  
HETATM   14  C   UNL     1      -6.106   4.607  64.512  1.00  0.00    -0.029 C  
HETATM   15  C   UNL     1      -6.767   5.869  64.442  1.00  0.00    -0.045 A  
HETATM   16  C   UNL     1      -7.221   6.299  63.210  1.00  0.00    -0.058 A  
HETATM   17  N   UNL     1      -7.864   7.466  63.005  1.00  0.00    -0.134 NA 
HETATM   18  N   UNL     1      -5.598   3.563  64.530  1.00  0.00    -0.010 NA 
HETATM   19  C   UNL     1      -8.061   8.269  64.057  1.00  0.00    -0.128 A  
HETATM   20  C   UNL     1      -8.753   9.445  63.828  1.00  0.00    -0.223 A  
HETATM   21  C   UNL     1      -9.054  10.344  64.856  1.00  0.00    -0.208 A  
HETATM   22  C   UNL     1      -7.619   7.960  65.363  1.00  0.00    -0.084 A  
HETATM   23  C   UNL     1      -8.602  10.073  66.147  1.00  0.00    -0.133 A  
HETATM   24  C   UNL     1      -7.876   8.900  66.389  1.00  0.00    -0.103 A  
BRANCH  21  25
HETATM   25  O   UNL     1      -9.701  11.524  64.610  1.00  0.00    -0.238 OA 
BRANCH  25  26
HETATM   26  C   UNL     1     -10.884  11.411  63.807  1.00  0.00    -0.395 C  
BRANCH  26  27
HETATM   27  C   UNL     1     -11.445  12.816  63.643  1.00  0.00    -0.544 C  
BRANCH  27  28
HETATM   28  C   UNL     1     -10.716  13.851  64.500  1.00  0.00    -0.366 C  
BRANCH  28  29
HETATM   29  N   UNL     1     -11.594  14.688  65.337  1.00  0.00    -0.350 NA 
HETATM   30  C   UNL     1     -12.526  13.900  66.174  1.00  0.00    -0.436 C  
HETATM   31  C   UNL     1     -11.844  13.114  67.319  1.00  0.00    -0.367 C  
HETATM   32  N   UNL     1     -11.013  13.941  68.215  1.00  0.00    -0.247 NA 
HETATM   33  C   UNL     1     -10.107  14.791  67.413  1.00  0.00    -0.231 C  
HETATM   34  C   UNL     1     -11.844  14.750  69.106  1.00  0.00    -0.305 C  
HETATM   35  C   UNL     1     -10.781  15.544  66.236  1.00  0.00    -0.307 C  
ENDBRANCH  28  29
ENDBRANCH  27  28
ENDBRANCH  26  27
ENDBRANCH  25  26
ENDBRANCH  21  25
BRANCH  23  36
HETATM   36  O   UNL     1      -8.759  10.876  67.247  1.00  0.00    -0.130 OA 
HETATM   37  C   UNL     1      -7.591  11.052  68.043  1.00  0.00    -0.092 C  
ENDBRANCH  23  36
ENDBRANCH  11  13
ENDBRANCH   5  11
ENDBRANCH   2   3
TORSDOF 9
ENDMDL
MODEL      159
REMARK 921   NORMALIZED FREE ENERGY PREDICTED BY IDOCK:   -4.46 KCAL/MOL
REMARK 922        TOTAL FREE ENERGY PREDICTED BY IDOCK:   -8.15 KCAL/MOL
REMARK 923 INTER-LIGAND FREE ENERGY PREDICTED BY IDOCK:   -6.91 KCAL/MOL
REMARK 924 INTRA-LIGAND FREE ENERGY PREDICTED BY IDOCK:   -1.24 KCAL/MOL
REMARK 927      BINDING AFFINITY PREDICTED BY RF-SCORE:    0.00 PKD
ROOT
HETATM    1  C   UNL     1     -11.692  15.852  64.296  1.00  0.00    -0.132 C  
HETATM    2  O   UNL     1     -10.940  17.046  64.491  1.00  0.00    -1.031 OA 
ENDROOT
BRANCH   2   3
HETATM    3  C   UNL     1     -10.716  17.400  65.798  1.00  0.00    -0.120 A  
HETATM    4  C   UNL     1     -10.494  16.461  66.812  1.00  0.00    -0.273 A  
HETATM    5  C   UNL     1     -10.275  16.847  68.144  1.00  0.00    -0.311 A  
HETATM    6  C   UNL     1     -10.284  18.223  68.437  1.00  0.00    -0.380 A  
HETATM    7  C   UNL     1     -10.753  18.759  66.129  1.00  0.00    -0.257 A  
HETATM    8 CL   UNL     1      -9.992  18.781  70.048  1.00  0.00     0.674 Cl 
HETATM    9  C   UNL     1     -10.525  19.173  67.441  1.00  0.00    -0.552 A  
HETATM   10 CL   UNL     1     -11.048  19.970  64.930  1.00  0.00     0.465 Cl 
BRANCH   5  11
HETATM   11  N   UNL     1     -10.151  15.885  69.179  1.00  0.00    -0.224 NA 
HETATM   12  H   UNL     1      -9.775  16.232  70.061  1.00  0.00     0.000 HD 
BRANCH  11  13
HETATM   13  C   UNL     1     -10.479  14.504  69.153  1.00  0.00    -0.216 A  
HETATM   14  C   UNL     1     -12.697  14.890  70.235  1.00  0.00    -0.271 C  
HETATM   15  C   UNL     1     -11.736  14.050  69.602  1.00  0.00    -0.368 A  
HETATM   16  C   UNL     1     -12.047  12.713  69.437  1.00  0.00    -0.179 A  
HETATM   17  N   UNL     1     -11.231  11.813  68.852  1.00  0.00    -0.233 NA 
HETATM   18  N   UNL     1     -13.518  15.545  70.731  1.00  0.00    -0.468 NA 
HETATM   19  C   UNL     1     -10.037  12.234  68.418  1.00  0.00    -0.215 A  
HETATM   20  C   UNL     1      -9.232  11.299  67.791  1.00  0.00    -0.156 A  
HETATM   21  C   UNL     1      -7.981  11.629  67.262  1.00  0.00    -0.157 A  
HETATM   22  C   UNL     1      -9.587  13.566  68.555  1.00  0.00    -0.151 A  
HETATM   23  C   UNL     1      -7.504  12.932  67.412  1.00  0.00    -0.132 A  
HETATM   24  C   UNL     1      -8.296  13.881  68.069  1.00  0.00    -0.166 A  
BRANCH  21  25
HETATM   25  O   UNL     1      -7.176  10.687  66.682  1.00  0.00    -0.113 OA 
BRANCH  25  26
HETATM   26  C   UNL     1      -7.699   9.352  66.695  1.00  0.00    -0.097 C  
BRANCH  26  27
HETATM   27  C   UNL     1      -7.336   8.745  68.042  1.00  0.00    -0.088 C  
BRANCH  27  28
HETATM   28  C   UNL     1      -8.325   7.671  68.495  1.00  0.00    -0.129 C  
BRANCH  28  29
HETATM   29  N   UNL     1      -8.308   7.387  69.941  1.00  0.00    -0.132 NA 
HETATM   30  C   UNL     1      -8.454   8.599  70.775  1.00  0.00    -0.158 C  
HETATM   31  C   UNL     1      -9.856   9.251  70.713  1.00  0.00    -0.283 C  
HETATM   32  N   UNL     1     -10.967   8.336  71.039  1.00  0.00    -0.239 NA 
HETATM   33  C   UNL     1     -10.824   7.082  70.269  1.00  0.00    -0.254 C  
HETATM   34  C   UNL     1     -11.024   8.068  72.476  1.00  0.00    -0.364 C  
HETATM   35  C   UNL     1      -9.406   6.452  70.292  1.00  0.00    -0.158 C  
ENDBRANCH  28  29
ENDBRANCH  27  28
ENDBRANCH  26  27
ENDBRANCH  25  26
ENDBRANCH  21  25
BRANCH  23  36
HETATM   36  O   UNL     1      -6.282  13.399  67.007  1.00  0.00    -0.131 OA 
HETATM   37  C   UNL     1      -5.912  14.669  67.534  1.00  0.00     0.092 C  
ENDBRANCH  23  36
ENDBRANCH  11  13
ENDBRANCH   5  11
ENDBRANCH   2   3
TORSDOF 9
ENDMDL
MODEL      160
REMARK 921   NORMALIZED FREE ENERGY PREDICTED BY IDOCK:   -4.46 KCAL/MOL
REMARK 922        TOTAL FREE ENERGY PREDICTED BY IDOCK:   -8.15 KCAL/MOL
REMARK 923 INTER-LIGAND FREE ENERGY PREDICTED BY IDOCK:   -7.46 KCAL/MOL
REMARK 924 INTRA-LIGAND FREE ENERGY PREDICTED BY IDOCK:   -0.69 KCAL/MOL
REMARK 927      BINDING AFFINITY PREDICTED BY RF-SCORE:    0.00 PKD
ROOT
HETATM    1  C   UNL     1     -12.985   8.195  72.038  1.00  0.00    -0.305 C  
HETATM    2  O   UNL     1     -12.634   6.934  71.475  1.00  0.00    -0.365 OA 
ENDROOT
BRANCH   2   3
HETATM    3  C   UNL     1     -11.289   6.703  71.329  1.00  0.00    -0.299 A  
HETATM    4  C   UNL     1     -10.486   7.427  70.440  1.00  0.00    -0.230 A  
HETATM    5  C   UNL     1      -9.113   7.167  70.303  1.00  0.00    -0.156 A  
HETATM    6  C   UNL     1      -8.557   6.145  71.095  1.00  0.00    -0.125 A  
HETATM    7  C   UNL     1     -10.713   5.670  72.076  1.00  0.00    -0.235 A  
HETATM    8 CL   UNL     1      -6.868   5.784  71.006  1.00  0.00    -0.059 Cl 
HETATM    9  C   UNL     1      -9.349   5.398  71.971  1.00  0.00    -0.163 A  
HETATM   10 CL   UNL     1     -11.652   4.719  73.173  1.00  0.00    -0.361 Cl 
BRANCH   5  11
HETATM   11  N   UNL     1      -8.330   7.838  69.329  1.00  0.00    -0.135 NA 
HETATM   12  H   UNL     1      -7.321   7.800  69.472  1.00  0.00     0.000 HD 
BRANCH  11  13
HETATM   13  C   UNL     1      -8.761   8.555  68.182  1.00  0.00    -0.142 A  
HETATM   14  C   UNL     1      -9.955   6.571  67.245  1.00  0.00    -0.147 C  
HETATM   15  C   UNL     1      -9.599   7.951  67.222  1.00  0.00    -0.205 A  
HETATM   16  C   UNL     1     -10.088   8.734  66.194  1.00  0.00    -0.084 A  
HETATM   17  N   UNL     1      -9.833  10.050  66.058  1.00  0.00    -0.239 NA 
HETATM   18  N   UNL     1     -10.290   5.459  67.240  1.00  0.00    -0.218 NA 
HETATM   19  C   UNL     1      -9.041  10.636  66.965  1.00  0.00    -0.144 A  
HETATM   20  C   UNL     1      -8.821  11.995  66.823  1.00  0.00    -0.198 A  
HETATM   21  C   UNL     1      -8.046  12.722  67.730  1.00  0.00    -0.168 A  
HETATM   22  C   UNL     1      -8.453   9.941  68.045  1.00  0.00    -0.117 A  
HETATM   23  C   UNL     1      -7.432  12.051  68.787  1.00  0.00    -0.086 A  
HETATM   24  C   UNL     1      -7.622  10.671  68.928  1.00  0.00    -0.113 A  
BRANCH  21  25
HETATM   25  O   UNL     1      -7.801  14.056  67.555  1.00  0.00    -0.161 OA 
BRANCH  25  26
HETATM   26  C   UNL     1      -8.962  14.896  67.591  1.00  0.00    -0.180 C  
BRANCH  26  27
HETATM   27  C   UNL     1      -9.086  15.543  66.220  1.00  0.00    -0.369 C  
BRANCH  27  28
HETATM   28  C   UNL     1      -8.922  17.063  66.264  1.00  0.00    -0.247 C  
BRANCH  28  29
HETATM   29  N   UNL     1      -7.697  17.533  66.934  1.00  0.00    -0.203 NA 
HETATM   30  C   UNL     1      -6.893  18.454  66.102  1.00  0.00    -0.251 C  
HETATM   31  C   UNL     1      -7.544  19.839  65.875  1.00  0.00    -0.323 C  
HETATM   32  N   UNL     1      -7.913  20.549  67.116  1.00  0.00    -0.332 NA 
HETATM   33  C   UNL     1      -8.667  19.640  68.006  1.00  0.00    -0.319 C  
HETATM   34  C   UNL     1      -6.729  21.083  67.789  1.00  0.00    -0.295 C  
HETATM   35  C   UNL     1      -8.040  18.234  68.196  1.00  0.00    -0.285 C  
ENDBRANCH  28  29
ENDBRANCH  27  28
ENDBRANCH  26  27
ENDBRANCH  25  26
ENDBRANCH  21  25
BRANCH  23  36
HETATM   36  O   UNL     1      -6.596  12.603  69.723  1.00  0.00    -0.060 OA 
HETATM   37  C   UNL     1      -5.592  11.730  70.231  1.00  0.00    -0.143 C  
ENDBRANCH  23  36
ENDBRANCH  11  13
ENDBRANCH   5  11
ENDBRANCH   2   3
TORSDOF 9
ENDMDL
MODEL      161
REMARK 921   NORMALIZED FREE ENERGY PREDICTED BY IDOCK:   -4.46 KCAL/MOL
REMARK 922        TOTAL FREE ENERGY PREDICTED BY IDOCK:   -8.15 KCAL/MOL
REMARK 923 INTER-LIGAND FREE ENERGY PREDICTED BY IDOCK:   -7.02 KCAL/MOL
REMARK 924 INTRA-LIGAND FREE ENERGY PREDICTED BY IDOCK:   -1.13 KCAL/MOL
REMARK 927      BINDING AFFINITY PREDICTED BY RF-SCORE:    0.00 PKD
ROOT
HETATM    1  C   UNL     1      -6.306   3.792  70.325  1.00  0.00    -0.027 C  
HETATM    2  O   UNL     1      -7.677   3.964  70.676  1.00  0.00    -0.047 OA 
ENDROOT
BRANCH   2   3
HETATM    3  C   UNL     1      -8.153   5.248  70.597  1.00  0.00    -0.108 A  
HETATM    4  C   UNL     1      -7.724   6.160  69.624  1.00  0.00    -0.098 A  
HETATM    5  C   UNL     1      -8.220   7.472  69.569  1.00  0.00    -0.130 A  
HETATM    6  C   UNL     1      -9.174   7.853  70.530  1.00  0.00    -0.158 A  
HETATM    7  C   UNL     1      -9.076   5.670  71.560  1.00  0.00    -0.140 A  
HETATM    8 CL   UNL     1      -9.855   9.443  70.510  1.00  0.00    -0.307 Cl 
HETATM    9  C   UNL     1      -9.597   6.964  71.521  1.00  0.00    -0.162 A  
HETATM   10 CL   UNL     1      -9.629   4.605  72.805  1.00  0.00    -0.155 Cl 
BRANCH   5  11
HETATM   11  N   UNL     1      -7.705   8.415  68.642  1.00  0.00    -0.105 NA 
HETATM   12  H   UNL     1      -6.692   8.532  68.648  1.00  0.00     0.000 HD 
BRANCH  11  13
HETATM   13  C   UNL     1      -8.410   9.219  67.707  1.00  0.00    -0.116 A  
HETATM   14  C   UNL     1      -9.627   7.254  66.758  1.00  0.00    -0.185 C  
HETATM   15  C   UNL     1      -9.381   8.655  66.855  1.00  0.00    -0.216 A  
HETATM   16  C   UNL     1     -10.123   9.504  66.056  1.00  0.00    -0.249 A  
HETATM   17  N   UNL     1      -9.995  10.846  66.053  1.00  0.00    -0.230 NA 
HETATM   18  N   UNL     1      -9.876   6.124  66.667  1.00  0.00    -0.162 NA 
HETATM   19  C   UNL     1      -9.079  11.392  66.861  1.00  0.00    -0.175 A  
HETATM   20  C   UNL     1      -8.989  12.773  66.865  1.00  0.00    -0.213 A  
HETATM   21  C   UNL     1      -8.099  13.459  67.696  1.00  0.00    -0.175 A  
HETATM   22  C   UNL     1      -8.236  10.634  67.703  1.00  0.00    -0.107 A  
HETATM   23  C   UNL     1      -7.236  12.729  68.514  1.00  0.00    -0.114 A  
HETATM   24  C   UNL     1      -7.296  11.331  68.500  1.00  0.00    -0.106 A  
BRANCH  21  25
HETATM   25  O   UNL     1      -7.989  14.822  67.660  1.00  0.00    -0.147 OA 
BRANCH  25  26
HETATM   26  C   UNL     1      -9.233  15.528  67.560  1.00  0.00    -0.198 C  
BRANCH  26  27
HETATM   27  C   UNL     1      -9.372  16.365  68.823  1.00  0.00    -0.245 C  
BRANCH  27  28
HETATM   28  C   UNL     1     -10.089  15.622  69.951  1.00  0.00    -0.265 C  
BRANCH  28  29
HETATM   29  N   UNL     1     -11.480  16.049  70.184  1.00  0.00    -0.346 NA 
HETATM   30  C   UNL     1     -12.479  15.069  69.705  1.00  0.00    -0.181 C  
HETATM   31  C   UNL     1     -12.529  13.758  70.525  1.00  0.00    -0.339 C  
HETATM   32  N   UNL     1     -12.739  13.953  71.973  1.00  0.00    -0.279 NA 
HETATM   33  C   UNL     1     -11.798  14.974  72.481  1.00  0.00    -0.320 C  
HETATM   34  C   UNL     1     -14.125  14.325  72.258  1.00  0.00    -0.526 C  
HETATM   35  C   UNL     1     -11.712  16.271  71.633  1.00  0.00    -0.420 C  
ENDBRANCH  28  29
ENDBRANCH  27  28
ENDBRANCH  26  27
ENDBRANCH  25  26
ENDBRANCH  21  25
BRANCH  23  36
HETATM   36  O   UNL     1      -6.269  13.244  69.337  1.00  0.00    -0.099 OA 
HETATM   37  C   UNL     1      -5.687  12.315  70.246  1.00  0.00    -0.167 C  
ENDBRANCH  23  36
ENDBRANCH  11  13
ENDBRANCH   5  11
ENDBRANCH   2   3
TORSDOF 9
ENDMDL
MODEL      162
REMARK 921   NORMALIZED FREE ENERGY PREDICTED BY IDOCK:   -4.45 KCAL/MOL
REMARK 922        TOTAL FREE ENERGY PREDICTED BY IDOCK:   -8.13 KCAL/MOL
REMARK 923 INTER-LIGAND FREE ENERGY PREDICTED BY IDOCK:   -7.10 KCAL/MOL
REMARK 924 INTRA-LIGAND FREE ENERGY PREDICTED BY IDOCK:   -1.03 KCAL/MOL
REMARK 927      BINDING AFFINITY PREDICTED BY RF-SCORE:    0.00 PKD
ROOT
HETATM    1  C   UNL     1     -10.729   4.760  65.778  1.00  0.00    -0.170 C  
HETATM    2  O   UNL     1      -9.855   3.928  66.538  1.00  0.00    -0.198 OA 
ENDROOT
BRANCH   2   3
HETATM    3  C   UNL     1      -9.723   4.260  67.862  1.00  0.00    -0.114 A  
HETATM    4  C   UNL     1      -9.619   5.583  68.308  1.00  0.00    -0.148 A  
HETATM    5  C   UNL     1      -9.477   5.896  69.669  1.00  0.00    -0.143 A  
HETATM    6  C   UNL     1      -9.442   4.831  70.587  1.00  0.00    -0.171 A  
HETATM    7  C   UNL     1      -9.649   3.221  68.798  1.00  0.00    -0.037 A  
HETATM    8 CL   UNL     1      -9.298   5.136  72.284  1.00  0.00    -0.154 Cl 
HETATM    9  C   UNL     1      -9.522   3.503  70.158  1.00  0.00    -0.252 A  
HETATM   10 CL   UNL     1      -9.744   1.564  68.314  1.00  0.00    -0.189 Cl 
BRANCH   5  11
HETATM   11  N   UNL     1      -9.273   7.233  70.099  1.00  0.00    -0.152 NA 
HETATM   12  H   UNL     1      -9.682   7.473  71.002  1.00  0.00     0.000 HD 
BRANCH  11  13
HETATM   13  C   UNL     1      -8.576   8.282  69.443  1.00  0.00    -0.134 A  
HETATM   14  C   UNL     1      -6.452   6.969  69.347  1.00  0.00    -0.043 C  
HETATM   15  C   UNL     1      -7.239   8.113  69.027  1.00  0.00    -0.074 A  
HETATM   16  C   UNL     1      -6.653   9.120  68.283  1.00  0.00    -0.059 A  
HETATM   17  N   UNL     1      -7.285  10.250  67.908  1.00  0.00    -0.085 NA 
HETATM   18  N   UNL     1      -5.785   6.043  69.563  1.00  0.00    -0.015 NA 
HETATM   19  C   UNL     1      -8.555  10.419  68.295  1.00  0.00    -0.128 A  
HETATM   20  C   UNL     1      -9.193  11.571  67.870  1.00  0.00    -0.168 A  
HETATM   21  C   UNL     1     -10.530  11.839  68.176  1.00  0.00    -0.201 A  
HETATM   22  C   UNL     1      -9.258   9.481  69.083  1.00  0.00    -0.163 A  
HETATM   23  C   UNL     1     -11.234  10.940  68.978  1.00  0.00    -0.266 A  
HETATM   24  C   UNL     1     -10.594   9.784  69.439  1.00  0.00    -0.248 A  
BRANCH  21  25
HETATM   25  O   UNL     1     -11.137  13.001  67.786  1.00  0.00    -0.245 OA 
BRANCH  25  26
HETATM   26  C   UNL     1     -10.356  14.187  67.980  1.00  0.00    -0.231 C  
BRANCH  26  27
HETATM   27  C   UNL     1     -10.620  15.094  66.787  1.00  0.00    -0.298 C  
BRANCH  27  28
HETATM   28  C   UNL     1      -9.539  16.159  66.601  1.00  0.00    -0.244 C  
BRANCH  28  29
HETATM   29  N   UNL     1      -9.478  17.170  67.670  1.00  0.00    -0.239 NA 
HETATM   30  C   UNL     1      -8.221  17.951  67.664  1.00  0.00    -0.232 C  
HETATM   31  C   UNL     1      -8.078  18.917  66.464  1.00  0.00    -0.287 C  
HETATM   32  N   UNL     1      -9.202  19.860  66.303  1.00  0.00    -0.383 NA 
HETATM   33  C   UNL     1     -10.484  19.125  66.365  1.00  0.00    -0.463 C  
HETATM   34  C   UNL     1      -9.151  20.917  67.312  1.00  0.00    -0.097 C  
HETATM   35  C   UNL     1     -10.610  18.121  67.542  1.00  0.00    -0.401 C  
ENDBRANCH  28  29
ENDBRANCH  27  28
ENDBRANCH  26  27
ENDBRANCH  25  26
ENDBRANCH  21  25
BRANCH  23  36
HETATM   36  O   UNL     1     -12.525  11.083  69.417  1.00  0.00    -0.355 OA 
HETATM   37  C   UNL     1     -12.845  10.367  70.605  1.00  0.00    -0.313 C  
ENDBRANCH  23  36
ENDBRANCH  11  13
ENDBRANCH   5  11
ENDBRANCH   2   3
TORSDOF 9
ENDMDL
MODEL      163
REMARK 921   NORMALIZED FREE ENERGY PREDICTED BY IDOCK:   -4.44 KCAL/MOL
REMARK 922        TOTAL FREE ENERGY PREDICTED BY IDOCK:   -8.13 KCAL/MOL
REMARK 923 INTER-LIGAND FREE ENERGY PREDICTED BY IDOCK:   -6.99 KCAL/MOL
REMARK 924 INTRA-LIGAND FREE ENERGY PREDICTED BY IDOCK:   -1.13 KCAL/MOL
REMARK 927      BINDING AFFINITY PREDICTED BY RF-SCORE:    0.00 PKD
ROOT
HETATM    1  C   UNL     1      -9.392   4.562  65.013  1.00  0.00    -0.156 C  
HETATM    2  O   UNL     1      -8.210   4.419  65.797  1.00  0.00    -0.108 OA 
ENDROOT
BRANCH   2   3
HETATM    3  C   UNL     1      -8.410   4.229  67.141  1.00  0.00    -0.100 A  
HETATM    4  C   UNL     1      -8.685   5.279  68.025  1.00  0.00    -0.102 A  
HETATM    5  C   UNL     1      -8.878   5.060  69.397  1.00  0.00    -0.091 A  
HETATM    6  C   UNL     1      -8.786   3.738  69.870  1.00  0.00    -0.076 A  
HETATM    7  C   UNL     1      -8.290   2.930  67.648  1.00  0.00    -0.082 A  
HETATM    8 CL   UNL     1      -9.039   3.382  71.544  1.00  0.00    -0.157 Cl 
HETATM    9  C   UNL     1      -8.489   2.680  69.006  1.00  0.00    -0.100 A  
HETATM   10 CL   UNL     1      -7.925   1.590  66.618  1.00  0.00    -0.069 Cl 
BRANCH   5  11
HETATM   11  N   UNL     1      -9.057   6.142  70.298  1.00  0.00    -0.152 NA 
HETATM   12  H   UNL     1      -8.371   6.210  71.049  1.00  0.00     0.000 HD 
BRANCH  11  13
HETATM   13  C   UNL     1     -10.063   7.144  70.294  1.00  0.00    -0.188 A  
HETATM   14  C   UNL     1     -11.159   6.217  72.340  1.00  0.00    -0.270 C  
HETATM   15  C   UNL     1     -11.026   7.207  71.322  1.00  0.00    -0.264 A  
HETATM   16  C   UNL     1     -11.902   8.276  71.335  1.00  0.00    -0.293 A  
HETATM   17  N   UNL     1     -11.883   9.281  70.437  1.00  0.00    -0.130 NA 
HETATM   18  N   UNL     1     -11.284   5.448  73.201  1.00  0.00    -0.307 NA 
HETATM   19  C   UNL     1     -10.971   9.234  69.459  1.00  0.00    -0.151 A  
HETATM   20  C   UNL     1     -10.949  10.293  68.569  1.00  0.00    -0.294 A  
HETATM   21  C   UNL     1     -10.017  10.375  67.530  1.00  0.00    -0.181 A  
HETATM   22  C   UNL     1     -10.040   8.181  69.316  1.00  0.00    -0.202 A  
HETATM   23  C   UNL     1      -9.108   9.331  67.353  1.00  0.00    -0.126 A  
HETATM   24  C   UNL     1      -9.136   8.240  68.228  1.00  0.00    -0.135 A  
BRANCH  21  25
HETATM   25  O   UNL     1     -10.033  11.405  66.631  1.00  0.00    -0.200 OA 
BRANCH  25  26
HETATM   26  C   UNL     1     -10.925  11.229  65.523  1.00  0.00    -0.131 C  
BRANCH  26  27
HETATM   27  C   UNL     1     -11.747  12.504  65.406  1.00  0.00    -0.444 C  
BRANCH  27  28
HETATM   28  C   UNL     1     -10.901  13.770  65.542  1.00  0.00    -0.299 C  
BRANCH  28  29
HETATM   29  N   UNL     1     -11.517  14.841  66.345  1.00  0.00    -0.343 NA 
HETATM   30  C   UNL     1     -11.934  14.393  67.692  1.00  0.00    -0.343 C  
HETATM   31  C   UNL     1     -10.761  14.071  68.648  1.00  0.00    -0.259 C  
HETATM   32  N   UNL     1      -9.790  15.171  68.813  1.00  0.00    -0.215 NA 
HETATM   33  C   UNL     1      -9.393  15.690  67.487  1.00  0.00    -0.206 C  
HETATM   34  C   UNL     1     -10.339  16.235  69.653  1.00  0.00    -0.261 C  
HETATM   35  C   UNL     1     -10.566  15.969  66.510  1.00  0.00    -0.284 C  
ENDBRANCH  28  29
ENDBRANCH  27  28
ENDBRANCH  26  27
ENDBRANCH  25  26
ENDBRANCH  21  25
BRANCH  23  36
HETATM   36  O   UNL     1      -8.175   9.229  66.354  1.00  0.00    -0.109 OA 
HETATM   37  C   UNL     1      -8.488   8.298  65.323  1.00  0.00    -0.162 C  
ENDBRANCH  23  36
ENDBRANCH  11  13
ENDBRANCH   5  11
ENDBRANCH   2   3
TORSDOF 9
ENDMDL
MODEL      164
REMARK 921   NORMALIZED FREE ENERGY PREDICTED BY IDOCK:   -4.35 KCAL/MOL
REMARK 922        TOTAL FREE ENERGY PREDICTED BY IDOCK:   -7.99 KCAL/MOL
REMARK 923 INTER-LIGAND FREE ENERGY PREDICTED BY IDOCK:   -6.90 KCAL/MOL
REMARK 924 INTRA-LIGAND FREE ENERGY PREDICTED BY IDOCK:   -1.09 KCAL/MOL
REMARK 927      BINDING AFFINITY PREDICTED BY RF-SCORE:    0.00 PKD
ROOT
HETATM    1  C   UNL     1     -12.029  11.126  70.176  1.00  0.00    -0.365 C  
HETATM    2  O   UNL     1     -12.618  12.361  70.575  1.00  0.00    -0.206 OA 
ENDROOT
BRANCH   2   3
HETATM    3  C   UNL     1     -12.119  13.482  69.962  1.00  0.00    -0.341 A  
HETATM    4  C   UNL     1     -11.071  13.439  69.035  1.00  0.00    -0.293 A  
HETATM    5  C   UNL     1     -10.572  14.601  68.426  1.00  0.00    -0.241 A  
HETATM    6  C   UNL     1     -11.163  15.829  68.776  1.00  0.00    -0.342 A  
HETATM    7  C   UNL     1     -12.661  14.723  70.315  1.00  0.00    -0.315 A  
HETATM    8 CL   UNL     1     -10.624  17.303  68.048  1.00  0.00    -0.384 Cl 
HETATM    9  C   UNL     1     -12.195  15.894  69.716  1.00  0.00    -0.157 A  
HETATM   10 CL   UNL     1     -13.939  14.852  71.472  1.00  0.00    -0.519 Cl 
BRANCH   5  11
HETATM   11  N   UNL     1      -9.446  14.556  67.565  1.00  0.00    -0.200 NA 
HETATM   12  H   UNL     1      -9.460  15.213  66.785  1.00  0.00     0.000 HD 
BRANCH  11  13
HETATM   13  C   UNL     1      -8.301  13.720  67.641  1.00  0.00    -0.182 A  
HETATM   14  C   UNL     1      -7.072  15.338  69.096  1.00  0.00    -0.155 C  
HETATM   15  C   UNL     1      -7.194  14.079  68.438  1.00  0.00    -0.108 A  
HETATM   16  C   UNL     1      -6.162  13.169  68.574  1.00  0.00    -0.079 A  
HETATM   17  N   UNL     1      -6.153  11.945  68.009  1.00  0.00    -0.051 NA 
HETATM   18  N   UNL     1      -6.944  16.339  69.670  1.00  0.00    -0.165 NA 
HETATM   19  C   UNL     1      -7.200  11.593  67.254  1.00  0.00    -0.137 A  
HETATM   20  C   UNL     1      -7.183  10.319  66.712  1.00  0.00    -0.105 A  
HETATM   21  C   UNL     1      -8.238   9.824  65.940  1.00  0.00    -0.117 A  
HETATM   22  C   UNL     1      -8.303  12.441  67.011  1.00  0.00    -0.157 A  
HETATM   23  C   UNL     1      -9.323  10.656  65.663  1.00  0.00    -0.201 A  
HETATM   24  C   UNL     1      -9.341  11.956  66.181  1.00  0.00    -0.228 A  
BRANCH  21  25
HETATM   25  O   UNL     1      -8.191   8.579  65.375  1.00  0.00    -0.127 OA 
BRANCH  25  26
HETATM   26  C   UNL     1      -9.033   7.599  65.996  1.00  0.00    -0.139 C  
BRANCH  26  27
HETATM   27  C   UNL     1      -8.321   6.260  65.877  1.00  0.00    -0.142 C  
BRANCH  27  28
HETATM   28  C   UNL     1      -9.288   5.077  65.806  1.00  0.00    -0.160 C  
BRANCH  28  29
HETATM   29  N   UNL     1      -9.531   4.560  64.448  1.00  0.00    -0.117 NA 
HETATM   30  C   UNL     1      -8.364   4.706  63.550  1.00  0.00    -0.113 C  
HETATM   31  C   UNL     1      -7.169   3.790  63.905  1.00  0.00    -0.051 C  
HETATM   32  N   UNL     1      -7.505   2.355  63.988  1.00  0.00    -0.058 NA 
HETATM   33  C   UNL     1      -8.707   2.171  64.829  1.00  0.00    -0.109 C  
HETATM   34  C   UNL     1      -7.701   1.783  62.656  1.00  0.00    -0.050 C  
HETATM   35  C   UNL     1      -9.890   3.121  64.505  1.00  0.00    -0.123 C  
ENDBRANCH  28  29
ENDBRANCH  27  28
ENDBRANCH  26  27
ENDBRANCH  25  26
ENDBRANCH  21  25
BRANCH  23  36
HETATM   36  O   UNL     1     -10.402  10.346  64.877  1.00  0.00    -0.317 OA 
HETATM   37  C   UNL     1     -10.991  11.447  64.192  1.00  0.00    -0.341 C  
ENDBRANCH  23  36
ENDBRANCH  11  13
ENDBRANCH   5  11
ENDBRANCH   2   3
TORSDOF 9
ENDMDL
MODEL      165
REMARK 921   NORMALIZED FREE ENERGY PREDICTED BY IDOCK:   -4.35 KCAL/MOL
REMARK 922        TOTAL FREE ENERGY PREDICTED BY IDOCK:   -7.98 KCAL/MOL
REMARK 923 INTER-LIGAND FREE ENERGY PREDICTED BY IDOCK:   -6.85 KCAL/MOL
REMARK 924 INTRA-LIGAND FREE ENERGY PREDICTED BY IDOCK:   -1.13 KCAL/MOL
REMARK 927      BINDING AFFINITY PREDICTED BY RF-SCORE:    0.00 PKD
ROOT
HETATM    1  C   UNL     1     -11.342  15.858  64.433  1.00  0.00    -0.267 C  
HETATM    2  O   UNL     1     -10.905  17.198  64.648  1.00  0.00    -0.852 OA 
ENDROOT
BRANCH   2   3
HETATM    3  C   UNL     1     -10.618  17.526  65.949  1.00  0.00    -0.203 A  
HETATM    4  C   UNL     1     -10.451  16.567  66.956  1.00  0.00    -0.289 A  
HETATM    5  C   UNL     1     -10.165  16.928  68.282  1.00  0.00    -0.318 A  
HETATM    6  C   UNL     1     -10.048  18.299  68.578  1.00  0.00    -0.398 A  
HETATM    7  C   UNL     1     -10.531  18.882  66.284  1.00  0.00    -0.445 A  
HETATM    8 CL   UNL     1      -9.669  18.823  70.182  1.00  0.00     0.993 Cl 
HETATM    9  C   UNL     1     -10.234  19.270  67.590  1.00  0.00    -0.507 A  
HETATM   10 CL   UNL     1     -10.752  20.118  65.096  1.00  0.00    -0.073 Cl 
BRANCH   5  11
HETATM   11  N   UNL     1     -10.096  15.954  69.312  1.00  0.00    -0.232 NA 
HETATM   12  H   UNL     1      -9.691  16.271  70.192  1.00  0.00     0.000 HD 
BRANCH  11  13
HETATM   13  C   UNL     1     -10.516  14.598  69.283  1.00  0.00    -0.209 A  
HETATM   14  C   UNL     1     -12.704  15.130  70.366  1.00  0.00    -0.333 C  
HETATM   15  C   UNL     1     -11.801  14.228  69.731  1.00  0.00    -0.380 A  
HETATM   16  C   UNL     1     -12.201  12.916  69.562  1.00  0.00    -0.119 A  
HETATM   17  N   UNL     1     -11.447  11.965  68.975  1.00  0.00    -0.271 NA 
HETATM   18  N   UNL     1     -13.480  15.837  70.863  1.00  0.00    -0.446 NA 
HETATM   19  C   UNL     1     -10.227  12.305  68.543  1.00  0.00    -0.206 A  
HETATM   20  C   UNL     1      -9.486  11.320  67.914  1.00  0.00    -0.179 A  
HETATM   21  C   UNL     1      -8.216  11.567  67.386  1.00  0.00    -0.149 A  
HETATM   22  C   UNL     1      -9.689  13.604  68.683  1.00  0.00    -0.118 A  
HETATM   23  C   UNL     1      -7.653  12.834  67.539  1.00  0.00    -0.162 A  
HETATM   24  C   UNL     1      -8.380  13.833  68.198  1.00  0.00    -0.165 A  
BRANCH  21  25
HETATM   25  O   UNL     1      -7.476  10.575  66.804  1.00  0.00    -0.105 OA 
BRANCH  25  26
HETATM   26  C   UNL     1      -8.021   9.255  66.936  1.00  0.00    -0.105 C  
BRANCH  26  27
HETATM   27  C   UNL     1      -7.515   8.445  65.752  1.00  0.00    -0.077 C  
BRANCH  27  28
HETATM   28  C   UNL     1      -8.246   7.111  65.589  1.00  0.00    -0.138 C  
BRANCH  28  29
HETATM   29  N   UNL     1      -7.369   5.929  65.537  1.00  0.00    -0.074 NA 
HETATM   30  C   UNL     1      -7.717   4.900  66.542  1.00  0.00    -0.095 C  
HETATM   31  C   UNL     1      -9.055   4.172  66.271  1.00  0.00    -0.134 C  
HETATM   32  N   UNL     1      -9.154   3.556  64.934  1.00  0.00    -0.131 NA 
HETATM   33  C   UNL     1      -8.754   4.536  63.901  1.00  0.00    -0.139 C  
HETATM   34  C   UNL     1      -8.341   2.343  64.853  1.00  0.00    -0.089 C  
HETATM   35  C   UNL     1      -7.436   5.301  64.194  1.00  0.00    -0.059 C  
ENDBRANCH  28  29
ENDBRANCH  27  28
ENDBRANCH  26  27
ENDBRANCH  25  26
ENDBRANCH  21  25
BRANCH  23  36
HETATM   36  O   UNL     1      -6.402  13.220  67.135  1.00  0.00    -0.250 OA 
HETATM   37  C   UNL     1      -5.855  14.335  67.833  1.00  0.00    -0.123 C  
ENDBRANCH  23  36
ENDBRANCH  11  13
ENDBRANCH   5  11
ENDBRANCH   2   3
TORSDOF 9
ENDMDL
MODEL      166
REMARK 921   NORMALIZED FREE ENERGY PREDICTED BY IDOCK:   -4.34 KCAL/MOL
REMARK 922        TOTAL FREE ENERGY PREDICTED BY IDOCK:   -7.97 KCAL/MOL
REMARK 923 INTER-LIGAND FREE ENERGY PREDICTED BY IDOCK:   -6.34 KCAL/MOL
REMARK 924 INTRA-LIGAND FREE ENERGY PREDICTED BY IDOCK:   -1.63 KCAL/MOL
REMARK 927      BINDING AFFINITY PREDICTED BY RF-SCORE:    0.00 PKD
ROOT
HETATM    1  C   UNL     1      -8.710   7.865  73.194  1.00  0.00    -0.220 C  
HETATM    2  O   UNL     1      -8.774   6.452  73.368  1.00  0.00    -0.124 OA 
ENDROOT
BRANCH   2   3
HETATM    3  C   UNL     1      -8.153   5.706  72.398  1.00  0.00    -0.107 A  
HETATM    4  C   UNL     1      -8.124   6.085  71.050  1.00  0.00    -0.121 A  
HETATM    5  C   UNL     1      -7.489   5.301  70.074  1.00  0.00    -0.064 A  
HETATM    6  C   UNL     1      -6.874   4.107  70.491  1.00  0.00    -0.033 A  
HETATM    7  C   UNL     1      -7.562   4.495  72.774  1.00  0.00    -0.086 A  
HETATM    8 CL   UNL     1      -6.046   3.100  69.354  1.00  0.00    -0.024 Cl 
HETATM    9  C   UNL     1      -6.913   3.701  71.828  1.00  0.00    -0.027 A  
HETATM   10 CL   UNL     1      -7.585   3.953  74.416  1.00  0.00    -0.073 Cl 
BRANCH   5  11
HETATM   11  N   UNL     1      -7.551   5.644  68.699  1.00  0.00    -0.087 NA 
HETATM   12  H   UNL     1      -6.659   5.653  68.206  1.00  0.00     0.000 HD 
BRANCH  11  13
HETATM   13  C   UNL     1      -8.687   5.977  67.916  1.00  0.00    -0.112 A  
HETATM   14  C   UNL     1      -9.331   3.581  67.619  1.00  0.00    -0.204 C  
HETATM   15  C   UNL     1      -9.572   4.978  67.461  1.00  0.00    -0.169 A  
HETATM   16  C   UNL     1     -10.727   5.371  66.812  1.00  0.00    -0.211 A  
HETATM   17  N   UNL     1     -11.077   6.655  66.601  1.00  0.00    -0.145 NA 
HETATM   18  N   UNL     1      -9.186   2.437  67.749  1.00  0.00    -0.188 NA 
HETATM   19  C   UNL     1     -10.247   7.613  67.031  1.00  0.00    -0.300 A  
HETATM   20  C   UNL     1     -10.644   8.924  66.833  1.00  0.00    -0.254 A  
HETATM   21  C   UNL     1      -9.880  10.008  67.275  1.00  0.00    -0.181 A  
HETATM   22  C   UNL     1      -9.022   7.343  67.681  1.00  0.00    -0.126 A  
HETATM   23  C   UNL     1      -8.653   9.765  67.892  1.00  0.00    -0.125 A  
HETATM   24  C   UNL     1      -8.225   8.445  68.074  1.00  0.00    -0.127 A  
BRANCH  21  25
HETATM   25  O   UNL     1     -10.262  11.299  67.036  1.00  0.00    -0.204 OA 
BRANCH  25  26
HETATM   26  C   UNL     1     -11.507  11.684  67.634  1.00  0.00    -0.303 C  
BRANCH  26  27
HETATM   27  C   UNL     1     -11.927  12.994  66.984  1.00  0.00    -0.409 C  
BRANCH  27  28
HETATM   28  C   UNL     1     -11.759  14.198  67.912  1.00  0.00    -0.367 C  
BRANCH  28  29
HETATM   29  N   UNL     1     -11.076  15.354  67.306  1.00  0.00    -0.322 NA 
HETATM   30  C   UNL     1     -10.863  16.469  68.255  1.00  0.00    -0.352 C  
HETATM   31  C   UNL     1      -9.820  16.174  69.359  1.00  0.00    -0.232 C  
HETATM   32  N   UNL     1      -8.502  15.746  68.853  1.00  0.00    -0.201 NA 
HETATM   33  C   UNL     1      -8.675  14.672  67.852  1.00  0.00    -0.169 C  
HETATM   34  C   UNL     1      -7.762  16.876  68.291  1.00  0.00    -0.205 C  
HETATM   35  C   UNL     1      -9.754  14.946  66.771  1.00  0.00    -0.251 C  
ENDBRANCH  28  29
ENDBRANCH  27  28
ENDBRANCH  26  27
ENDBRANCH  25  26
ENDBRANCH  21  25
BRANCH  23  36
HETATM   36  O   UNL     1      -7.762  10.712  68.326  1.00  0.00    -0.099 OA 
HETATM   37  C   UNL     1      -7.415  10.634  69.705  1.00  0.00    -0.115 C  
ENDBRANCH  23  36
ENDBRANCH  11  13
ENDBRANCH   5  11
ENDBRANCH   2   3
TORSDOF 9
ENDMDL
MODEL      167
REMARK 921   NORMALIZED FREE ENERGY PREDICTED BY IDOCK:   -4.34 KCAL/MOL
REMARK 922        TOTAL FREE ENERGY PREDICTED BY IDOCK:   -7.96 KCAL/MOL
REMARK 923 INTER-LIGAND FREE ENERGY PREDICTED BY IDOCK:   -6.80 KCAL/MOL
REMARK 924 INTRA-LIGAND FREE ENERGY PREDICTED BY IDOCK:   -1.16 KCAL/MOL
REMARK 927      BINDING AFFINITY PREDICTED BY RF-SCORE:    0.00 PKD
ROOT
HETATM    1  C   UNL     1      -9.760   4.240  68.708  1.00  0.00    -0.114 C  
HETATM    2  O   UNL     1      -8.425   4.738  68.684  1.00  0.00    -0.086 OA 
ENDROOT
BRANCH   2   3
HETATM    3  C   UNL     1      -8.168   5.787  69.532  1.00  0.00    -0.108 A  
HETATM    4  C   UNL     1      -9.176   6.607  70.053  1.00  0.00    -0.158 A  
HETATM    5  C   UNL     1      -8.887   7.679  70.912  1.00  0.00    -0.146 A  
HETATM    6  C   UNL     1      -7.539   7.911  71.241  1.00  0.00    -0.081 A  
HETATM    7  C   UNL     1      -6.834   6.066  69.850  1.00  0.00    -0.064 A  
HETATM    8 CL   UNL     1      -7.104   9.194  72.317  1.00  0.00     0.227 Cl 
HETATM    9  C   UNL     1      -6.519   7.116  70.712  1.00  0.00    -0.043 A  
HETATM   10 CL   UNL     1      -5.539   5.109  69.220  1.00  0.00    -0.008 Cl 
BRANCH   5  11
HETATM   11  N   UNL     1      -9.905   8.563  71.354  1.00  0.00    -0.206 NA 
HETATM   12  H   UNL     1      -9.963   8.700  72.362  1.00  0.00     0.000 HD 
BRANCH  11  13
HETATM   13  C   UNL     1     -10.854   9.284  70.581  1.00  0.00    -0.278 A  
HETATM   14  C   UNL     1     -12.654   8.970  72.285  1.00  0.00    -0.375 C  
HETATM   15  C   UNL     1     -12.151   9.530  71.074  1.00  0.00    -0.398 A  
HETATM   16  C   UNL     1     -12.989  10.344  70.335  1.00  0.00    -0.127 A  
HETATM   17  N   UNL     1     -12.639  10.939  69.178  1.00  0.00    -0.238 NA 
HETATM   18  N   UNL     1     -13.093   8.557  73.277  1.00  0.00     0.319 NA 
HETATM   19  C   UNL     1     -11.408  10.715  68.702  1.00  0.00    -0.281 A  
HETATM   20  C   UNL     1     -11.061  11.364  67.530  1.00  0.00    -0.339 A  
HETATM   21  C   UNL     1      -9.791  11.240  66.959  1.00  0.00    -0.191 A  
HETATM   22  C   UNL     1     -10.468   9.880  69.345  1.00  0.00    -0.250 A  
HETATM   23  C   UNL     1      -8.857  10.397  67.561  1.00  0.00    -0.134 A  
HETATM   24  C   UNL     1      -9.203   9.713  68.732  1.00  0.00    -0.141 A  
BRANCH  21  25
HETATM   25  O   UNL     1      -9.473  11.852  65.777  1.00  0.00    -0.236 OA 
BRANCH  25  26
HETATM   26  C   UNL     1     -10.587  12.126  64.918  1.00  0.00    -0.293 C  
BRANCH  26  27
HETATM   27  C   UNL     1     -10.449  13.569  64.456  1.00  0.00    -0.426 C  
BRANCH  27  28
HETATM   28  C   UNL     1     -10.883  14.577  65.520  1.00  0.00    -0.336 C  
BRANCH  28  29
HETATM   29  N   UNL     1      -9.845  14.919  66.507  1.00  0.00    -0.254 NA 
HETATM   30  C   UNL     1      -9.194  16.221  66.243  1.00  0.00    -0.328 C  
HETATM   31  C   UNL     1     -10.107  17.448  66.476  1.00  0.00    -0.320 C  
HETATM   32  N   UNL     1     -10.718  17.507  67.818  1.00  0.00    -0.372 NA 
HETATM   33  C   UNL     1     -11.328  16.201  68.148  1.00  0.00    -0.270 C  
HETATM   34  C   UNL     1      -9.733  17.898  68.827  1.00  0.00    -0.323 C  
HETATM   35  C   UNL     1     -10.430  14.966  67.870  1.00  0.00    -0.250 C  
ENDBRANCH  28  29
ENDBRANCH  27  28
ENDBRANCH  26  27
ENDBRANCH  25  26
ENDBRANCH  21  25
BRANCH  23  36
HETATM   36  O   UNL     1      -7.597  10.121  67.098  1.00  0.00    -0.091 OA 
HETATM   37  C   UNL     1      -7.130   8.801  67.358  1.00  0.00    -0.079 C  
ENDBRANCH  23  36
ENDBRANCH  11  13
ENDBRANCH   5  11
ENDBRANCH   2   3
TORSDOF 9
ENDMDL
MODEL      168
REMARK 921   NORMALIZED FREE ENERGY PREDICTED BY IDOCK:   -4.25 KCAL/MOL
REMARK 922        TOTAL FREE ENERGY PREDICTED BY IDOCK:   -7.83 KCAL/MOL
REMARK 923 INTER-LIGAND FREE ENERGY PREDICTED BY IDOCK:   -6.31 KCAL/MOL
REMARK 924 INTRA-LIGAND FREE ENERGY PREDICTED BY IDOCK:   -1.53 KCAL/MOL
REMARK 927      BINDING AFFINITY PREDICTED BY RF-SCORE:    0.00 PKD
ROOT
HETATM    1  C   UNL     1     -10.095   4.809  68.931  1.00  0.00    -0.079 C  
HETATM    2  O   UNL     1      -8.864   4.273  68.453  1.00  0.00    -0.098 OA 
ENDROOT
BRANCH   2   3
HETATM    3  C   UNL     1      -8.137   5.096  67.632  1.00  0.00    -0.099 A  
HETATM    4  C   UNL     1      -8.162   6.492  67.740  1.00  0.00    -0.115 A  
HETATM    5  C   UNL     1      -7.415   7.314  66.882  1.00  0.00    -0.097 A  
HETATM    6  C   UNL     1      -6.629   6.690  65.896  1.00  0.00    -0.044 A  
HETATM    7  C   UNL     1      -7.373   4.509  66.617  1.00  0.00    -0.081 A  
HETATM    8 CL   UNL     1      -5.657   7.633  64.819  1.00  0.00    -0.033 Cl 
HETATM    9  C   UNL     1      -6.610   5.300  65.759  1.00  0.00    -0.044 A  
HETATM   10 CL   UNL     1      -7.319   2.793  66.410  1.00  0.00    -0.066 Cl 
BRANCH   5  11
HETATM   11  N   UNL     1      -7.524   8.728  66.936  1.00  0.00    -0.089 NA 
HETATM   12  H   UNL     1      -6.642   9.237  66.991  1.00  0.00     0.000 HD 
BRANCH  11  13
HETATM   13  C   UNL     1      -8.695   9.530  66.925  1.00  0.00    -0.128 A  
HETATM   14  C   UNL     1      -8.541   9.928  64.463  1.00  0.00    -0.186 C  
HETATM   15  C   UNL     1      -9.210  10.044  65.717  1.00  0.00    -0.222 A  
HETATM   16  C   UNL     1     -10.420  10.711  65.752  1.00  0.00    -0.164 A  
HETATM   17  N   UNL     1     -11.156  10.886  66.867  1.00  0.00    -0.242 NA 
HETATM   18  N   UNL     1      -8.043   9.834  63.419  1.00  0.00    -0.141 NA 
HETATM   19  C   UNL     1     -10.679  10.400  68.019  1.00  0.00    -0.249 A  
HETATM   20  C   UNL     1     -11.468  10.563  69.144  1.00  0.00    -0.314 A  
HETATM   21  C   UNL     1     -11.095  10.063  70.395  1.00  0.00    -0.327 A  
HETATM   22  C   UNL     1      -9.442   9.727  68.124  1.00  0.00    -0.146 A  
HETATM   23  C   UNL     1      -9.863   9.421  70.527  1.00  0.00    -0.270 A  
HETATM   24  C   UNL     1      -9.042   9.273  69.404  1.00  0.00    -0.152 A  
BRANCH  21  25
HETATM   25  O   UNL     1     -11.863  10.268  71.508  1.00  0.00    -0.336 OA 
BRANCH  25  26
HETATM   26  C   UNL     1     -13.160  10.823  71.255  1.00  0.00    -0.330 C  
BRANCH  26  27
HETATM   27  C   UNL     1     -13.215  12.168  71.965  1.00  0.00    -0.496 C  
BRANCH  27  28
HETATM   28  C   UNL     1     -13.004  13.349  71.016  1.00  0.00    -0.184 C  
BRANCH  28  29
HETATM   29  N   UNL     1     -11.599  13.756  70.840  1.00  0.00     0.086 NA 
HETATM   30  C   UNL     1     -11.218  13.938  69.422  1.00  0.00    -0.224 C  
HETATM   31  C   UNL     1     -11.872  15.163  68.739  1.00  0.00    -0.303 C  
HETATM   32  N   UNL     1     -11.648  16.443  69.440  1.00  0.00    -0.157 NA 
HETATM   33  C   UNL     1     -11.959  16.286  70.878  1.00  0.00    -0.065 C  
HETATM   34  C   UNL     1     -10.277  16.916  69.246  1.00  0.00    -0.262 C  
HETATM   35  C   UNL     1     -11.342  15.032  71.552  1.00  0.00    -0.269 C  
ENDBRANCH  28  29
ENDBRANCH  27  28
ENDBRANCH  26  27
ENDBRANCH  25  26
ENDBRANCH  21  25
BRANCH  23  36
HETATM   36  O   UNL     1      -9.325   8.930  71.688  1.00  0.00    -0.264 OA 
HETATM   37  C   UNL     1      -8.270   7.989  71.519  1.00  0.00    -0.115 C  
ENDBRANCH  23  36
ENDBRANCH  11  13
ENDBRANCH   5  11
ENDBRANCH   2   3
TORSDOF 9
ENDMDL
MODEL      169
REMARK 921   NORMALIZED FREE ENERGY PREDICTED BY IDOCK:   -4.25 KCAL/MOL
REMARK 922        TOTAL FREE ENERGY PREDICTED BY IDOCK:   -7.82 KCAL/MOL
REMARK 923 INTER-LIGAND FREE ENERGY PREDICTED BY IDOCK:   -7.27 KCAL/MOL
REMARK 924 INTRA-LIGAND FREE ENERGY PREDICTED BY IDOCK:   -0.56 KCAL/MOL
REMARK 927      BINDING AFFINITY PREDICTED BY RF-SCORE:    0.00 PKD
ROOT
HETATM    1  C   UNL     1      -9.734   3.715  68.982  1.00  0.00     0.008 C  
HETATM    2  O   UNL     1      -9.830   4.424  70.215  1.00  0.00    -0.201 OA 
ENDROOT
BRANCH   2   3
HETATM    3  C   UNL     1     -10.158   5.752  70.113  1.00  0.00    -0.212 A  
HETATM    4  C   UNL     1      -9.727   6.562  69.056  1.00  0.00    -0.140 A  
HETATM    5  C   UNL     1     -10.070   7.921  68.977  1.00  0.00    -0.200 A  
HETATM    6  C   UNL     1     -10.871   8.455  70.003  1.00  0.00    -0.225 A  
HETATM    7  C   UNL     1     -10.924   6.322  71.136  1.00  0.00    -0.280 A  
HETATM    8 CL   UNL     1     -11.361  10.114  69.963  1.00  0.00    -0.323 Cl 
HETATM    9  C   UNL     1     -11.292   7.667  71.077  1.00  0.00    -0.289 A  
HETATM   10 CL   UNL     1     -11.467   5.386  72.484  1.00  0.00    -0.294 Cl 
BRANCH   5  11
HETATM   11  N   UNL     1      -9.546   8.755  67.956  1.00  0.00    -0.140 NA 
HETATM   12  H   UNL     1      -9.644   8.402  67.005  1.00  0.00     0.000 HD 
BRANCH  11  13
HETATM   13  C   UNL     1      -8.905  10.016  68.079  1.00  0.00    -0.125 A  
HETATM   14  C   UNL     1      -7.340   9.179  69.838  1.00  0.00    -0.064 C  
HETATM   15  C   UNL     1      -7.801  10.185  68.939  1.00  0.00    -0.100 A  
HETATM   16  C   UNL     1      -7.138  11.398  68.924  1.00  0.00    -0.109 A  
HETATM   17  N   UNL     1      -7.467  12.430  68.121  1.00  0.00    -0.108 NA 
HETATM   18  N   UNL     1      -6.917   8.379  70.566  1.00  0.00    -0.037 NA 
HETATM   19  C   UNL     1      -8.512  12.279  67.298  1.00  0.00    -0.181 A  
HETATM   20  C   UNL     1      -8.809  13.340  66.460  1.00  0.00     0.000 A  
HETATM   21  C   UNL     1      -9.851  13.284  65.529  1.00  0.00    -0.136 A  
HETATM   22  C   UNL     1      -9.290  11.102  67.239  1.00  0.00    -0.170 A  
HETATM   23  C   UNL     1     -10.650  12.142  65.475  1.00  0.00    -0.277 A  
HETATM   24  C   UNL     1     -10.379  11.072  66.336  1.00  0.00    -0.302 A  
BRANCH  21  25
HETATM   25  O   UNL     1     -10.162  14.354  64.736  1.00  0.00    -0.404 OA 
BRANCH  25  26
HETATM   26  C   UNL     1     -11.189  15.212  65.251  1.00  0.00    -0.358 C  
BRANCH  26  27
HETATM   27  C   UNL     1     -10.545  16.564  65.522  1.00  0.00    -0.310 C  
BRANCH  27  28
HETATM   28  C   UNL     1      -9.721  16.581  66.810  1.00  0.00    -0.258 C  
BRANCH  28  29
HETATM   29  N   UNL     1     -10.434  17.095  67.993  1.00  0.00    -0.354 NA 
HETATM   30  C   UNL     1     -11.750  16.451  68.206  1.00  0.00     0.106 C  
HETATM   31  C   UNL     1     -11.670  14.970  68.644  1.00  0.00    -0.337 C  
HETATM   32  N   UNL     1     -10.846  14.734  69.846  1.00  0.00    -0.203 NA 
HETATM   33  C   UNL     1      -9.542  15.415  69.700  1.00  0.00    -0.229 C  
HETATM   34  C   UNL     1     -11.540  15.179  71.055  1.00  0.00    -0.347 C  
HETATM   35  C   UNL     1      -9.618  16.887  69.214  1.00  0.00    -0.079 C  
ENDBRANCH  28  29
ENDBRANCH  27  28
ENDBRANCH  26  27
ENDBRANCH  25  26
ENDBRANCH  21  25
BRANCH  23  36
HETATM   36  O   UNL     1     -11.741  11.954  64.668  1.00  0.00    -0.308 OA 
HETATM   37  C   UNL     1     -11.460  11.877  63.274  1.00  0.00    -0.284 C  
ENDBRANCH  23  36
ENDBRANCH  11  13
ENDBRANCH   5  11
ENDBRANCH   2   3
TORSDOF 9
ENDMDL
MODEL      170
REMARK 921   NORMALIZED FREE ENERGY PREDICTED BY IDOCK:   -4.23 KCAL/MOL
REMARK 922        TOTAL FREE ENERGY PREDICTED BY IDOCK:   -7.80 KCAL/MOL
REMARK 923 INTER-LIGAND FREE ENERGY PREDICTED BY IDOCK:   -7.11 KCAL/MOL
REMARK 924 INTRA-LIGAND FREE ENERGY PREDICTED BY IDOCK:   -0.69 KCAL/MOL
REMARK 927      BINDING AFFINITY PREDICTED BY RF-SCORE:    0.00 PKD
ROOT
HETATM    1  C   UNL     1      -7.406   2.771  71.730  1.00  0.00    -0.040 C  
HETATM    2  O   UNL     1      -8.450   3.308  72.538  1.00  0.00    -0.081 OA 
ENDROOT
BRANCH   2   3
HETATM    3  C   UNL     1      -8.868   4.571  72.203  1.00  0.00    -0.121 A  
HETATM    4  C   UNL     1      -8.351   5.279  71.111  1.00  0.00    -0.122 A  
HETATM    5  C   UNL     1      -8.789   6.574  70.794  1.00  0.00    -0.144 A  
HETATM    6  C   UNL     1      -9.776   7.151  71.614  1.00  0.00    -0.159 A  
HETATM    7  C   UNL     1      -9.823   5.188  73.020  1.00  0.00    -0.154 A  
HETATM    8 CL   UNL     1     -10.390   8.733  71.271  1.00  0.00    -0.306 Cl 
HETATM    9  C   UNL     1     -10.287   6.469  72.721  1.00  0.00    -0.224 A  
HETATM   10 CL   UNL     1     -10.483   4.382  74.399  1.00  0.00    -0.301 Cl 
BRANCH   5  11
HETATM   11  N   UNL     1      -8.189   7.319  69.746  1.00  0.00    -0.128 NA 
HETATM   12  H   UNL     1      -7.196   7.522  69.862  1.00  0.00     0.000 HD 
BRANCH  11  13
HETATM   13  C   UNL     1      -8.782   7.819  68.557  1.00  0.00    -0.128 A  
HETATM   14  C   UNL     1      -9.749   5.593  67.963  1.00  0.00    -0.126 C  
HETATM   15  C   UNL     1      -9.586   6.993  67.746  1.00  0.00    -0.138 A  
HETATM   16  C   UNL     1     -10.240   7.567  66.672  1.00  0.00    -0.190 A  
HETATM   17  N   UNL     1     -10.175   8.876  66.358  1.00  0.00    -0.262 NA 
HETATM   18  N   UNL     1      -9.928   4.457  68.118  1.00  0.00    -0.057 NA 
HETATM   19  C   UNL     1      -9.418   9.670  67.123  1.00  0.00    -0.148 A  
HETATM   20  C   UNL     1      -9.395  11.016  66.801  1.00  0.00    -0.199 A  
HETATM   21  C   UNL     1      -8.672  11.949  67.550  1.00  0.00    -0.163 A  
HETATM   22  C   UNL     1      -8.676   9.203  68.230  1.00  0.00    -0.129 A  
HETATM   23  C   UNL     1      -7.909  11.505  68.630  1.00  0.00    -0.137 A  
HETATM   24  C   UNL     1      -7.900  10.142  68.951  1.00  0.00    -0.100 A  
BRANCH  21  25
HETATM   25  O   UNL     1      -8.623  13.269  67.197  1.00  0.00    -0.201 OA 
BRANCH  25  26
HETATM   26  C   UNL     1      -9.859  13.816  66.719  1.00  0.00    -0.275 C  
BRANCH  26  27
HETATM   27  C   UNL     1      -9.533  15.152  66.069  1.00  0.00    -0.358 C  
BRANCH  27  28
HETATM   28  C   UNL     1     -10.512  16.259  66.462  1.00  0.00    -0.290 C  
BRANCH  28  29
HETATM   29  N   UNL     1     -10.039  17.150  67.535  1.00  0.00    -0.291 NA 
HETATM   30  C   UNL     1      -8.584  17.414  67.474  1.00  0.00    -0.218 C  
HETATM   31  C   UNL     1      -8.145  18.288  66.276  1.00  0.00    -0.223 C  
HETATM   32  N   UNL     1      -8.849  19.582  66.176  1.00  0.00    -0.394 NA 
HETATM   33  C   UNL     1     -10.307  19.368  66.294  1.00  0.00    -0.493 C  
HETATM   34  C   UNL     1      -8.370  20.521  67.190  1.00  0.00    -0.276 C  
HETATM   35  C   UNL     1     -10.746  18.453  67.468  1.00  0.00    -0.365 C  
ENDBRANCH  28  29
ENDBRANCH  27  28
ENDBRANCH  26  27
ENDBRANCH  25  26
ENDBRANCH  21  25
BRANCH  23  36
HETATM   36  O   UNL     1      -7.101  12.277  69.424  1.00  0.00    -0.011 OA 
HETATM   37  C   UNL     1      -6.108  11.564  70.155  1.00  0.00    -0.156 C  
ENDBRANCH  23  36
ENDBRANCH  11  13
ENDBRANCH   5  11
ENDBRANCH   2   3
TORSDOF 9
ENDMDL
MODEL      171
REMARK 921   NORMALIZED FREE ENERGY PREDICTED BY IDOCK:   -4.21 KCAL/MOL
REMARK 922        TOTAL FREE ENERGY PREDICTED BY IDOCK:   -7.76 KCAL/MOL
REMARK 923 INTER-LIGAND FREE ENERGY PREDICTED BY IDOCK:   -6.83 KCAL/MOL
REMARK 924 INTRA-LIGAND FREE ENERGY PREDICTED BY IDOCK:   -0.93 KCAL/MOL
REMARK 927      BINDING AFFINITY PREDICTED BY RF-SCORE:    0.00 PKD
ROOT
HETATM    1  C   UNL     1     -12.541  12.491  64.816  1.00  0.00    -0.413 C  
HETATM    2  O   UNL     1     -12.299  12.797  66.187  1.00  0.00    -0.542 OA 
ENDROOT
BRANCH   2   3
HETATM    3  C   UNL     1     -10.984  12.996  66.526  1.00  0.00    -0.285 A  
HETATM    4  C   UNL     1      -9.970  12.086  66.206  1.00  0.00    -0.249 A  
HETATM    5  C   UNL     1      -8.633  12.308  66.572  1.00  0.00    -0.038 A  
HETATM    6  C   UNL     1      -8.334  13.487  67.279  1.00  0.00    -0.179 A  
HETATM    7  C   UNL     1     -10.659  14.142  67.261  1.00  0.00    -0.277 A  
HETATM    8 CL   UNL     1      -6.706  13.847  67.740  1.00  0.00    -0.172 Cl 
HETATM    9  C   UNL     1      -9.337  14.396  67.627  1.00  0.00    -0.200 A  
HETATM   10 CL   UNL     1     -11.866  15.294  67.714  1.00  0.00    -0.221 Cl 
BRANCH   5  11
HETATM   11  N   UNL     1      -7.632  11.333  66.329  1.00  0.00    -0.330 NA 
HETATM   12  H   UNL     1      -6.790  11.671  65.864  1.00  0.00     0.000 HD 
BRANCH  11  13
HETATM   13  C   UNL     1      -7.642   9.949  66.647  1.00  0.00    -0.103 A  
HETATM   14  C   UNL     1      -8.371   9.305  64.346  1.00  0.00    -0.171 C  
HETATM   15  C   UNL     1      -7.933   8.982  65.664  1.00  0.00    -0.104 A  
HETATM   16  C   UNL     1      -7.805   7.647  65.999  1.00  0.00    -0.101 A  
HETATM   17  N   UNL     1      -7.397   7.206  67.205  1.00  0.00    -0.089 NA 
HETATM   18  N   UNL     1      -8.705   9.525  63.256  1.00  0.00    -0.222 NA 
HETATM   19  C   UNL     1      -7.114   8.115  68.146  1.00  0.00    -0.082 A  
HETATM   20  C   UNL     1      -6.666   7.638  69.365  1.00  0.00    -0.040 A  
HETATM   21  C   UNL     1      -6.301   8.492  70.410  1.00  0.00    -0.035 A  
HETATM   22  C   UNL     1      -7.234   9.507  67.940  1.00  0.00    -0.082 A  
HETATM   23  C   UNL     1      -6.440   9.869  70.239  1.00  0.00    -0.103 A  
HETATM   24  C   UNL     1      -6.919  10.365  69.021  1.00  0.00    -0.071 A  
BRANCH  21  25
HETATM   25  O   UNL     1      -5.900   8.008  71.625  1.00  0.00    -0.035 OA 
BRANCH  25  26
HETATM   26  C   UNL     1      -6.616   8.530  72.752  1.00  0.00    -0.064 C  
BRANCH  26  27
HETATM   27  C   UNL     1      -7.572   7.441  73.215  1.00  0.00    -0.109 C  
BRANCH  27  28
HETATM   28  C   UNL     1      -8.908   7.995  73.711  1.00  0.00    -0.247 C  
BRANCH  28  29
HETATM   29  N   UNL     1     -10.077   7.151  73.408  1.00  0.00    -0.266 NA 
HETATM   30  C   UNL     1     -11.136   7.868  72.664  1.00  0.00    -0.385 C  
HETATM   31  C   UNL     1     -10.760   8.224  71.206  1.00  0.00    -0.227 C  
HETATM   32  N   UNL     1     -10.327   7.074  70.390  1.00  0.00    -0.200 NA 
HETATM   33  C   UNL     1      -9.309   6.293  71.126  1.00  0.00    -0.160 C  
HETATM   34  C   UNL     1     -11.466   6.235  70.016  1.00  0.00    -0.390 C  
HETATM   35  C   UNL     1      -9.665   5.975  72.602  1.00  0.00    -0.156 C  
ENDBRANCH  28  29
ENDBRANCH  27  28
ENDBRANCH  26  27
ENDBRANCH  25  26
ENDBRANCH  21  25
BRANCH  23  36
HETATM   36  O   UNL     1      -6.186  10.833  71.180  1.00  0.00    -0.344 OA 
HETATM   37  C   UNL     1      -5.419  11.942  70.722  1.00  0.00    -0.142 C  
ENDBRANCH  23  36
ENDBRANCH  11  13
ENDBRANCH   5  11
ENDBRANCH   2   3
TORSDOF 9
ENDMDL
MODEL      172
REMARK 921   NORMALIZED FREE ENERGY PREDICTED BY IDOCK:   -4.14 KCAL/MOL
REMARK 922        TOTAL FREE ENERGY PREDICTED BY IDOCK:   -7.66 KCAL/MOL
REMARK 923 INTER-LIGAND FREE ENERGY PREDICTED BY IDOCK:   -5.28 KCAL/MOL
REMARK 924 INTRA-LIGAND FREE ENERGY PREDICTED BY IDOCK:   -2.38 KCAL/MOL
REMARK 927      BINDING AFFINITY PREDICTED BY RF-SCORE:    0.00 PKD
ROOT
HETATM    1  C   UNL     1      -6.589   8.439  68.476  1.00  0.00    -0.059 C  
HETATM    2  O   UNL     1      -6.848   8.086  69.833  1.00  0.00    -0.040 OA 
ENDROOT
BRANCH   2   3
HETATM    3  C   UNL     1      -8.107   7.606  70.090  1.00  0.00    -0.118 A  
HETATM    4  C   UNL     1      -9.271   8.246  69.648  1.00  0.00    -0.158 A  
HETATM    5  C   UNL     1     -10.549   7.739  69.931  1.00  0.00    -0.239 A  
HETATM    6  C   UNL     1     -10.631   6.553  70.683  1.00  0.00    -0.233 A  
HETATM    7  C   UNL     1      -8.225   6.447  70.866  1.00  0.00    -0.125 A  
HETATM    8 CL   UNL     1     -12.169   5.849  71.049  1.00  0.00     0.524 Cl 
HETATM    9  C   UNL     1      -9.482   5.912  71.152  1.00  0.00    -0.183 A  
HETATM   10 CL   UNL     1      -6.831   5.620  71.468  1.00  0.00    -0.064 Cl 
BRANCH   5  11
HETATM   11  N   UNL     1     -11.721   8.449  69.563  1.00  0.00     0.042 NA 
HETATM   12  H   UNL     1     -12.415   7.914  69.043  1.00  0.00     0.000 HD 
BRANCH  11  13
HETATM   13  C   UNL     1     -12.058   9.804  69.822  1.00  0.00     0.301 A  
HETATM   14  C   UNL     1     -12.901   9.278  72.115  1.00  0.00    -0.408 C  
HETATM   15  C   UNL     1     -12.561  10.197  71.079  1.00  0.00    -0.478 A  
HETATM   16  C   UNL     1     -12.753  11.546  71.315  1.00  0.00    -0.364 A  
HETATM   17  N   UNL     1     -12.469  12.517  70.426  1.00  0.00    -0.197 NA 
HETATM   18  N   UNL     1     -13.165   8.567  72.994  1.00  0.00    -0.068 NA 
HETATM   19  C   UNL     1     -11.988  12.156  69.230  1.00  0.00    -0.262 A  
HETATM   20  C   UNL     1     -11.673  13.173  68.347  1.00  0.00    -0.386 A  
HETATM   21  C   UNL     1     -11.126  12.921  67.085  1.00  0.00    -0.275 A  
HETATM   22  C   UNL     1     -11.776  10.811  68.854  1.00  0.00    -0.338 A  
HETATM   23  C   UNL     1     -10.936  11.599  66.681  1.00  0.00    -0.299 A  
HETATM   24  C   UNL     1     -11.276  10.559  67.554  1.00  0.00    -0.299 A  
BRANCH  21  25
HETATM   25  O   UNL     1     -10.858  13.933  66.204  1.00  0.00    -0.288 OA 
BRANCH  25  26
HETATM   26  C   UNL     1     -10.045  14.991  66.725  1.00  0.00    -0.254 C  
BRANCH  26  27
HETATM   27  C   UNL     1      -8.616  14.715  66.281  1.00  0.00     0.261 C  
BRANCH  27  28
HETATM   28  C   UNL     1      -7.610  14.795  67.430  1.00  0.00    -0.202 C  
BRANCH  28  29
HETATM   29  N   UNL     1      -7.838  13.829  68.518  1.00  0.00    -0.135 NA 
HETATM   30  C   UNL     1      -7.442  12.448  68.164  1.00  0.00    -0.118 C  
HETATM   31  C   UNL     1      -5.916  12.239  68.023  1.00  0.00    -0.067 C  
HETATM   32  N   UNL     1      -5.133  12.649  69.205  1.00  0.00    -0.068 NA 
HETATM   33  C   UNL     1      -5.543  14.005  69.630  1.00  0.00    -0.098 C  
HETATM   34  C   UNL     1      -5.284  11.687  70.296  1.00  0.00    -0.095 C  
HETATM   35  C   UNL     1      -7.075  14.230  69.727  1.00  0.00     0.045 C  
ENDBRANCH  28  29
ENDBRANCH  27  28
ENDBRANCH  26  27
ENDBRANCH  25  26
ENDBRANCH  21  25
BRANCH  23  36
HETATM   36  O   UNL     1     -10.470  11.183  65.461  1.00  0.00    -0.262 OA 
HETATM   37  C   UNL     1      -9.958   9.855  65.427  1.00  0.00    -0.279 C  
ENDBRANCH  23  36
ENDBRANCH  11  13
ENDBRANCH   5  11
ENDBRANCH   2   3
TORSDOF 9
ENDMDL
MODEL      173
REMARK 921   NORMALIZED FREE ENERGY PREDICTED BY IDOCK:   -4.13 KCAL/MOL
REMARK 922        TOTAL FREE ENERGY PREDICTED BY IDOCK:   -7.65 KCAL/MOL
REMARK 923 INTER-LIGAND FREE ENERGY PREDICTED BY IDOCK:   -6.51 KCAL/MOL
REMARK 924 INTRA-LIGAND FREE ENERGY PREDICTED BY IDOCK:   -1.14 KCAL/MOL
REMARK 927      BINDING AFFINITY PREDICTED BY RF-SCORE:    0.00 PKD
ROOT
HETATM    1  C   UNL     1     -11.340   7.827  71.587  1.00  0.00    -0.253 C  
HETATM    2  O   UNL     1     -11.183   6.548  70.979  1.00  0.00    -0.276 OA 
ENDROOT
BRANCH   2   3
HETATM    3  C   UNL     1     -10.232   6.473  69.993  1.00  0.00    -0.184 A  
HETATM    4  C   UNL     1      -9.823   7.584  69.245  1.00  0.00    -0.170 A  
HETATM    5  C   UNL     1      -8.854   7.481  68.235  1.00  0.00    -0.125 A  
HETATM    6  C   UNL     1      -8.295   6.213  67.990  1.00  0.00    -0.117 A  
HETATM    7  C   UNL     1      -9.682   5.220  69.700  1.00  0.00    -0.182 A  
HETATM    8 CL   UNL     1      -7.073   6.009  66.782  1.00  0.00    -0.068 Cl 
HETATM    9  C   UNL     1      -8.707   5.090  68.711  1.00  0.00    -0.101 A  
HETATM   10 CL   UNL     1     -10.161   3.802  70.566  1.00  0.00     0.177 Cl 
BRANCH   5  11
HETATM   11  N   UNL     1      -8.520   8.592  67.418  1.00  0.00    -0.126 NA 
HETATM   12  H   UNL     1      -8.628   8.449  66.414  1.00  0.00     0.000 HD 
BRANCH  11  13
HETATM   13  C   UNL     1      -8.057   9.876  67.809  1.00  0.00    -0.109 A  
HETATM   14  C   UNL     1      -5.949   8.949  68.779  1.00  0.00    -0.044 C  
HETATM   15  C   UNL     1      -6.787  10.038  68.401  1.00  0.00    -0.062 A  
HETATM   16  C   UNL     1      -6.337  11.322  68.644  1.00  0.00    -0.045 A  
HETATM   17  N   UNL     1      -7.027  12.437  68.332  1.00  0.00    -0.083 NA 
HETATM   18  N   UNL     1      -5.225   8.092  69.079  1.00  0.00    -0.023 NA 
HETATM   19  C   UNL     1      -8.231  12.296  67.767  1.00  0.00    -0.161 A  
HETATM   20  C   UNL     1      -8.905  13.455  67.425  1.00  0.00    -0.214 A  
HETATM   21  C   UNL     1     -10.151  13.434  66.793  1.00  0.00    -0.260 A  
HETATM   22  C   UNL     1      -8.818  11.040  67.494  1.00  0.00    -0.131 A  
HETATM   23  C   UNL     1     -10.762  12.205  66.541  1.00  0.00    -0.255 A  
HETATM   24  C   UNL     1     -10.105  11.024  66.906  1.00  0.00    -0.248 A  
BRANCH  21  25
HETATM   25  O   UNL     1     -10.827  14.586  66.499  1.00  0.00    -0.303 OA 
BRANCH  25  26
HETATM   26  C   UNL     1     -11.741  15.028  67.511  1.00  0.00    -0.253 C  
BRANCH  26  27
HETATM   27  C   UNL     1     -10.927  15.799  68.539  1.00  0.00    -0.312 C  
BRANCH  27  28
HETATM   28  C   UNL     1     -10.540  17.200  68.062  1.00  0.00    -0.374 C  
BRANCH  28  29
HETATM   29  N   UNL     1      -9.116  17.538  68.230  1.00  0.00    -0.266 NA 
HETATM   30  C   UNL     1      -8.208  16.604  67.530  1.00  0.00    -0.164 C  
HETATM   31  C   UNL     1      -8.259  16.702  65.987  1.00  0.00    -0.111 C  
HETATM   32  N   UNL     1      -8.018  18.057  65.455  1.00  0.00    -0.183 NA 
HETATM   33  C   UNL     1      -8.865  19.034  66.173  1.00  0.00    -0.183 C  
HETATM   34  C   UNL     1      -6.603  18.416  65.550  1.00  0.00    -0.252 C  
HETATM   35  C   UNL     1      -8.851  18.906  67.719  1.00  0.00    -0.292 C  
ENDBRANCH  28  29
ENDBRANCH  27  28
ENDBRANCH  26  27
ENDBRANCH  25  26
ENDBRANCH  21  25
BRANCH  23  36
HETATM   36  O   UNL     1     -12.001  12.013  65.988  1.00  0.00    -0.559 OA 
HETATM   37  C   UNL     1     -12.022  11.901  64.568  1.00  0.00    -0.196 C  
ENDBRANCH  23  36
ENDBRANCH  11  13
ENDBRANCH   5  11
ENDBRANCH   2   3
TORSDOF 9
ENDMDL
MODEL      174
REMARK 921   NORMALIZED FREE ENERGY PREDICTED BY IDOCK:   -4.12 KCAL/MOL
REMARK 922        TOTAL FREE ENERGY PREDICTED BY IDOCK:   -7.63 KCAL/MOL
REMARK 923 INTER-LIGAND FREE ENERGY PREDICTED BY IDOCK:   -6.46 KCAL/MOL
REMARK 924 INTRA-LIGAND FREE ENERGY PREDICTED BY IDOCK:   -1.17 KCAL/MOL
REMARK 927      BINDING AFFINITY PREDICTED BY RF-SCORE:    0.00 PKD
ROOT
HETATM    1  C   UNL     1      -7.369   4.326  74.434  1.00  0.00    -0.072 C  
HETATM    2  O   UNL     1      -7.595   3.541  73.266  1.00  0.00    -0.062 OA 
ENDROOT
BRANCH   2   3
HETATM    3  C   UNL     1      -8.144   4.207  72.200  1.00  0.00    -0.090 A  
HETATM    4  C   UNL     1      -7.383   4.974  71.309  1.00  0.00    -0.073 A  
HETATM    5  C   UNL     1      -7.969   5.653  70.230  1.00  0.00    -0.103 A  
HETATM    6  C   UNL     1      -9.362   5.542  70.064  1.00  0.00    -0.148 A  
HETATM    7  C   UNL     1      -9.531   4.146  72.028  1.00  0.00    -0.136 A  
HETATM    8 CL   UNL     1     -10.156   6.325  68.741  1.00  0.00    -0.174 Cl 
HETATM    9  C   UNL     1     -10.140   4.800  70.956  1.00  0.00    -0.269 A  
HETATM   10 CL   UNL     1     -10.534   3.240  73.107  1.00  0.00    -0.239 Cl 
BRANCH   5  11
HETATM   11  N   UNL     1      -7.204   6.506  69.393  1.00  0.00    -0.083 NA 
HETATM   12  H   UNL     1      -6.346   6.102  69.018  1.00  0.00     0.000 HD 
BRANCH  11  13
HETATM   13  C   UNL     1      -7.471   7.845  69.006  1.00  0.00    -0.097 A  
HETATM   14  C   UNL     1      -7.556   8.636  71.375  1.00  0.00    -0.112 C  
HETATM   15  C   UNL     1      -7.570   8.871  69.968  1.00  0.00    -0.066 A  
HETATM   16  C   UNL     1      -7.705  10.174  69.526  1.00  0.00    -0.155 A  
HETATM   17  N   UNL     1      -7.728  10.533  68.228  1.00  0.00    -0.098 NA 
HETATM   18  N   UNL     1      -7.523   8.492  72.526  1.00  0.00    -0.291 NA 
HETATM   19  C   UNL     1      -7.632   9.568  67.305  1.00  0.00    -0.091 A  
HETATM   20  C   UNL     1      -7.624   9.966  65.979  1.00  0.00    -0.106 A  
HETATM   21  C   UNL     1      -7.488   9.053  64.929  1.00  0.00    -0.105 A  
HETATM   22  C   UNL     1      -7.520   8.197  67.625  1.00  0.00    -0.094 A  
HETATM   23  C   UNL     1      -7.406   7.692  65.222  1.00  0.00    -0.071 A  
HETATM   24  C   UNL     1      -7.441   7.272  66.557  1.00  0.00    -0.088 A  
BRANCH  21  25
HETATM   25  O   UNL     1      -7.524   9.453  63.622  1.00  0.00    -0.106 OA 
BRANCH  25  26
HETATM   26  C   UNL     1      -8.828   9.455  63.025  1.00  0.00    -0.195 C  
BRANCH  26  27
HETATM   27  C   UNL     1      -9.139  10.894  62.640  1.00  0.00    -0.364 C  
BRANCH  27  28
HETATM   28  C   UNL     1     -10.462  11.392  63.223  1.00  0.00    -0.334 C  
BRANCH  28  29
HETATM   29  N   UNL     1     -10.405  12.735  63.826  1.00  0.00    -0.365 NA 
HETATM   30  C   UNL     1     -11.710  13.431  63.825  1.00  0.00    -0.376 C  
HETATM   31  C   UNL     1     -12.757  12.821  64.787  1.00  0.00    -0.393 C  
HETATM   32  N   UNL     1     -12.302  12.705  66.187  1.00  0.00    -0.535 NA 
HETATM   33  C   UNL     1     -10.969  12.068  66.228  1.00  0.00    -0.299 C  
HETATM   34  C   UNL     1     -12.283  14.011  66.844  1.00  0.00    -0.380 C  
HETATM   35  C   UNL     1      -9.931  12.647  65.229  1.00  0.00    -0.197 C  
ENDBRANCH  28  29
ENDBRANCH  27  28
ENDBRANCH  26  27
ENDBRANCH  25  26
ENDBRANCH  21  25
BRANCH  23  36
HETATM   36  O   UNL     1      -7.331   6.670  64.311  1.00  0.00    -0.065 OA 
HETATM   37  C   UNL     1      -6.071   6.009  64.242  1.00  0.00    -0.026 C  
ENDBRANCH  23  36
ENDBRANCH  11  13
ENDBRANCH   5  11
ENDBRANCH   2   3
TORSDOF 9
ENDMDL
MODEL      175
REMARK 921   NORMALIZED FREE ENERGY PREDICTED BY IDOCK:   -4.10 KCAL/MOL
REMARK 922        TOTAL FREE ENERGY PREDICTED BY IDOCK:   -7.61 KCAL/MOL
REMARK 923 INTER-LIGAND FREE ENERGY PREDICTED BY IDOCK:   -6.12 KCAL/MOL
REMARK 924 INTRA-LIGAND FREE ENERGY PREDICTED BY IDOCK:   -1.48 KCAL/MOL
REMARK 927      BINDING AFFINITY PREDICTED BY RF-SCORE:    0.00 PKD
ROOT
HETATM    1  C   UNL     1      -9.284   1.602  68.124  1.00  0.00    -0.174 C  
HETATM    2  O   UNL     1      -9.783   1.989  69.402  1.00  0.00    -0.022 OA 
ENDROOT
BRANCH   2   3
HETATM    3  C   UNL     1      -9.316   3.186  69.883  1.00  0.00    -0.158 A  
HETATM    4  C   UNL     1      -8.628   4.109  69.087  1.00  0.00    -0.112 A  
HETATM    5  C   UNL     1      -8.152   5.324  69.605  1.00  0.00    -0.091 A  
HETATM    6  C   UNL     1      -8.389   5.594  70.965  1.00  0.00    -0.122 A  
HETATM    7  C   UNL     1      -9.504   3.469  71.241  1.00  0.00    -0.159 A  
HETATM    8 CL   UNL     1      -7.861   7.082  71.671  1.00  0.00    -0.097 Cl 
HETATM    9  C   UNL     1      -9.054   4.674  71.780  1.00  0.00    -0.169 A  
HETATM   10 CL   UNL     1     -10.321   2.361  72.287  1.00  0.00    -0.204 Cl 
BRANCH   5  11
HETATM   11  N   UNL     1      -7.371   6.206  68.814  1.00  0.00    -0.084 NA 
HETATM   12  H   UNL     1      -6.444   6.422  69.180  1.00  0.00     0.000 HD 
BRANCH  11  13
HETATM   13  C   UNL     1      -7.705   6.829  67.583  1.00  0.00    -0.111 A  
HETATM   14  C   UNL     1      -6.663   4.999  66.239  1.00  0.00    -0.054 C  
HETATM   15  C   UNL     1      -7.419   6.203  66.353  1.00  0.00    -0.086 A  
HETATM   16  C   UNL     1      -7.879   6.796  65.193  1.00  0.00    -0.119 A  
HETATM   17  N   UNL     1      -8.607   7.930  65.160  1.00  0.00    -0.086 NA 
HETATM   18  N   UNL     1      -6.075   4.007  66.103  1.00  0.00    -0.030 NA 
HETATM   19  C   UNL     1      -8.888   8.532  66.322  1.00  0.00    -0.156 A  
HETATM   20  C   UNL     1      -9.665   9.676  66.264  1.00  0.00    -0.303 A  
HETATM   21  C   UNL     1     -10.057  10.368  67.414  1.00  0.00    -0.196 A  
HETATM   22  C   UNL     1      -8.451   8.045  67.573  1.00  0.00    -0.127 A  
HETATM   23  C   UNL     1      -9.611   9.922  68.658  1.00  0.00    -0.156 A  
HETATM   24  C   UNL     1      -8.802   8.782  68.729  1.00  0.00    -0.134 A  
BRANCH  21  25
HETATM   25  O   UNL     1     -10.789  11.521  67.342  1.00  0.00    -0.219 OA 
BRANCH  25  26
HETATM   26  C   UNL     1     -11.431  11.754  66.082  1.00  0.00    -0.220 C  
BRANCH  26  27
HETATM   27  C   UNL     1     -11.510  13.262  65.894  1.00  0.00    -0.359 C  
BRANCH  27  28
HETATM   28  C   UNL     1     -10.804  14.036  67.007  1.00  0.00    -0.290 C  
BRANCH  28  29
HETATM   29  N   UNL     1      -9.630  14.812  66.572  1.00  0.00    -0.269 NA 
HETATM   30  C   UNL     1      -9.978  15.962  65.708  1.00  0.00    -0.360 C  
HETATM   31  C   UNL     1     -10.718  17.107  66.440  1.00  0.00    -0.072 C  
HETATM   32  N   UNL     1     -10.013  17.625  67.629  1.00  0.00    -0.310 NA 
HETATM   33  C   UNL     1      -9.591  16.500  68.491  1.00  0.00    -0.233 C  
HETATM   34  C   UNL     1      -8.868  18.451  67.243  1.00  0.00    -0.259 C  
HETATM   35  C   UNL     1      -8.891  15.329  67.751  1.00  0.00    -0.173 C  
ENDBRANCH  28  29
ENDBRANCH  27  28
ENDBRANCH  26  27
ENDBRANCH  25  26
ENDBRANCH  21  25
BRANCH  23  36
HETATM   36  O   UNL     1      -9.854  10.518  69.868  1.00  0.00    -0.107 OA 
HETATM   37  C   UNL     1     -10.626   9.746  70.782  1.00  0.00    -0.301 C  
ENDBRANCH  23  36
ENDBRANCH  11  13
ENDBRANCH   5  11
ENDBRANCH   2   3
TORSDOF 9
ENDMDL
MODEL      176
REMARK 921   NORMALIZED FREE ENERGY PREDICTED BY IDOCK:   -4.10 KCAL/MOL
REMARK 922        TOTAL FREE ENERGY PREDICTED BY IDOCK:   -7.60 KCAL/MOL
REMARK 923 INTER-LIGAND FREE ENERGY PREDICTED BY IDOCK:   -7.97 KCAL/MOL
REMARK 924 INTRA-LIGAND FREE ENERGY PREDICTED BY IDOCK:    0.36 KCAL/MOL
REMARK 927      BINDING AFFINITY PREDICTED BY RF-SCORE:    0.00 PKD
ROOT
HETATM    1  C   UNL     1      -6.770  11.018  69.705  1.00  0.00    -0.136 C  
HETATM    2  O   UNL     1      -6.791  11.447  68.347  1.00  0.00    -0.062 OA 
ENDROOT
BRANCH   2   3
HETATM    3  C   UNL     1      -8.035  11.686  67.819  1.00  0.00    -0.131 A  
HETATM    4  C   UNL     1      -9.074  12.269  68.555  1.00  0.00    -0.076 A  
HETATM    5  C   UNL     1     -10.341  12.496  67.996  1.00  0.00    -0.222 A  
HETATM    6  C   UNL     1     -10.543  12.116  66.656  1.00  0.00    -0.235 A  
HETATM    7  C   UNL     1      -8.280  11.287  66.500  1.00  0.00    -0.165 A  
HETATM    8 CL   UNL     1     -12.068  12.389  65.886  1.00  0.00    -0.434 Cl 
HETATM    9  C   UNL     1      -9.526  11.513  65.914  1.00  0.00    -0.251 A  
HETATM   10 CL   UNL     1      -7.051  10.537  65.543  1.00  0.00    -0.129 Cl 
BRANCH   5  11
HETATM   11  N   UNL     1     -11.414  12.995  68.779  1.00  0.00    -0.276 NA 
HETATM   12  H   UNL     1     -11.849  13.851  68.436  1.00  0.00     0.000 HD 
BRANCH  11  13
HETATM   13  C   UNL     1     -11.963  12.465  69.976  1.00  0.00    -0.299 A  
HETATM   14  C   UNL     1     -12.848  14.688  70.694  1.00  0.00    -0.342 C  
HETATM   15  C   UNL     1     -12.709  13.278  70.853  1.00  0.00    -0.332 A  
HETATM   16  C   UNL     1     -13.325  12.680  71.937  1.00  0.00    -0.387 A  
HETATM   17  N   UNL     1     -13.277  11.360  72.201  1.00  0.00    -0.385 NA 
HETATM   18  N   UNL     1     -13.008  15.833  70.587  1.00  0.00    -0.457 NA 
HETATM   19  C   UNL     1     -12.574  10.577  71.373  1.00  0.00    -0.434 A  
HETATM   20  C   UNL     1     -12.568   9.220  71.646  1.00  0.00    -0.446 A  
HETATM   21  C   UNL     1     -11.903   8.300  70.831  1.00  0.00    -0.216 A  
HETATM   22  C   UNL     1     -11.874  11.068  70.249  1.00  0.00    -0.456 A  
HETATM   23  C   UNL     1     -11.180   8.766  69.732  1.00  0.00     0.007 A  
HETATM   24  C   UNL     1     -11.155  10.139  69.460  1.00  0.00    -0.295 A  
BRANCH  21  25
HETATM   25  O   UNL     1     -11.868   6.966  71.135  1.00  0.00    -0.311 OA 
BRANCH  25  26
HETATM   26  C   UNL     1     -11.551   6.664  72.500  1.00  0.00    -0.205 C  
BRANCH  26  27
HETATM   27  C   UNL     1     -10.037   6.737  72.631  1.00  0.00    -0.193 C  
BRANCH  27  28
HETATM   28  C   UNL     1      -9.359   5.378  72.446  1.00  0.00    -0.143 C  
BRANCH  28  29
HETATM   29  N   UNL     1      -7.951   5.444  72.019  1.00  0.00    -0.112 NA 
HETATM   30  C   UNL     1      -7.555   6.779  71.519  1.00  0.00    -0.088 C  
HETATM   31  C   UNL     1      -7.486   7.873  72.611  1.00  0.00    -0.105 C  
HETATM   32  N   UNL     1      -6.617   7.537  73.756  1.00  0.00    -0.076 NA 
HETATM   33  C   UNL     1      -6.940   6.181  74.248  1.00  0.00    -0.087 C  
HETATM   34  C   UNL     1      -5.204   7.644  73.393  1.00  0.00    -0.041 C  
HETATM   35  C   UNL     1      -7.055   5.092  73.149  1.00  0.00    -0.084 C  
ENDBRANCH  28  29
ENDBRANCH  27  28
ENDBRANCH  26  27
ENDBRANCH  25  26
ENDBRANCH  21  25
BRANCH  23  36
HETATM   36  O   UNL     1     -10.429   8.006  68.874  1.00  0.00    -0.217 OA 
HETATM   37  C   UNL     1      -9.023   8.050  69.096  1.00  0.00    -0.145 C  
ENDBRANCH  23  36
ENDBRANCH  11  13
ENDBRANCH   5  11
ENDBRANCH   2   3
TORSDOF 9
ENDMDL
MODEL      177
REMARK 921   NORMALIZED FREE ENERGY PREDICTED BY IDOCK:   -4.09 KCAL/MOL
REMARK 922        TOTAL FREE ENERGY PREDICTED BY IDOCK:   -7.59 KCAL/MOL
REMARK 923 INTER-LIGAND FREE ENERGY PREDICTED BY IDOCK:   -7.58 KCAL/MOL
REMARK 924 INTRA-LIGAND FREE ENERGY PREDICTED BY IDOCK:   -0.01 KCAL/MOL
REMARK 927      BINDING AFFINITY PREDICTED BY RF-SCORE:    0.00 PKD
ROOT
HETATM    1  C   UNL     1     -12.476  12.301  63.584  1.00  0.00    -0.541 C  
HETATM    2  O   UNL     1     -11.180  12.470  64.152  1.00  0.00    -0.330 OA 
ENDROOT
BRANCH   2   3
HETATM    3  C   UNL     1     -10.617  11.341  64.692  1.00  0.00    -0.327 A  
HETATM    4  C   UNL     1     -10.910  10.889  65.985  1.00  0.00    -0.155 A  
HETATM    5  C   UNL     1     -10.315   9.735  66.518  1.00  0.00    -0.192 A  
HETATM    6  C   UNL     1      -9.403   9.033  65.707  1.00  0.00    -0.236 A  
HETATM    7  C   UNL     1      -9.679  10.640  63.925  1.00  0.00    -0.321 A  
HETATM    8 CL   UNL     1      -8.650   7.585  66.282  1.00  0.00    -0.140 Cl 
HETATM    9  C   UNL     1      -9.082   9.482  64.424  1.00  0.00    -0.234 A  
HETATM   10 CL   UNL     1      -9.251  11.158  62.332  1.00  0.00    -0.313 Cl 
BRANCH   5  11
HETATM   11  N   UNL     1     -10.543   9.343  67.862  1.00  0.00    -0.309 NA 
HETATM   12  H   UNL     1     -11.508   9.115  68.097  1.00  0.00     0.000 HD 
BRANCH  11  13
HETATM   13  C   UNL     1      -9.608   9.224  68.925  1.00  0.00    -0.155 A  
HETATM   14  C   UNL     1     -10.491   6.988  69.607  1.00  0.00    -0.223 C  
HETATM   15  C   UNL     1      -9.551   8.056  69.711  1.00  0.00    -0.171 A  
HETATM   16  C   UNL     1      -8.540   7.945  70.647  1.00  0.00    -0.130 A  
HETATM   17  N   UNL     1      -7.587   8.877  70.845  1.00  0.00    -0.098 NA 
HETATM   18  N   UNL     1     -11.219   6.086  69.537  1.00  0.00    -0.403 NA 
HETATM   19  C   UNL     1      -7.629   9.989  70.101  1.00  0.00    -0.155 A  
HETATM   20  C   UNL     1      -6.620  10.915  70.299  1.00  0.00    -0.065 A  
HETATM   21  C   UNL     1      -6.536  12.095  69.554  1.00  0.00    -0.100 A  
HETATM   22  C   UNL     1      -8.627  10.237  69.133  1.00  0.00    -0.167 A  
HETATM   23  C   UNL     1      -7.527  12.374  68.614  1.00  0.00    -0.095 A  
HETATM   24  C   UNL     1      -8.570  11.460  68.422  1.00  0.00    -0.156 A  
BRANCH  21  25
HETATM   25  O   UNL     1      -5.558  13.023  69.788  1.00  0.00    -0.090 OA 
BRANCH  25  26
HETATM   26  C   UNL     1      -5.735  14.273  69.110  1.00  0.00    -0.092 C  
BRANCH  26  27
HETATM   27  C   UNL     1      -5.892  15.342  70.181  1.00  0.00    -0.143 C  
BRANCH  27  28
HETATM   28  C   UNL     1      -6.138  16.735  69.598  1.00  0.00    -0.223 C  
BRANCH  28  29
HETATM   29  N   UNL     1      -6.666  16.744  68.223  1.00  0.00    -0.150 NA 
HETATM   30  C   UNL     1      -8.115  17.036  68.157  1.00  0.00    -0.212 C  
HETATM   31  C   UNL     1      -8.489  18.491  68.528  1.00  0.00    -0.329 C  
HETATM   32  N   UNL     1      -7.780  19.521  67.744  1.00  0.00    -0.278 NA 
HETATM   33  C   UNL     1      -6.330  19.230  67.733  1.00  0.00    -0.209 C  
HETATM   34  C   UNL     1      -8.311  19.605  66.384  1.00  0.00    -0.353 C  
HETATM   35  C   UNL     1      -5.955  17.760  67.407  1.00  0.00    -0.146 C  
ENDBRANCH  28  29
ENDBRANCH  27  28
ENDBRANCH  26  27
ENDBRANCH  25  26
ENDBRANCH  21  25
BRANCH  23  36
HETATM   36  O   UNL     1      -7.624  13.508  67.849  1.00  0.00    -0.119 OA 
HETATM   37  C   UNL     1      -8.793  13.598  67.042  1.00  0.00    -0.223 C  
ENDBRANCH  23  36
ENDBRANCH  11  13
ENDBRANCH   5  11
ENDBRANCH   2   3
TORSDOF 9
ENDMDL
MODEL      178
REMARK 921   NORMALIZED FREE ENERGY PREDICTED BY IDOCK:   -4.06 KCAL/MOL
REMARK 922        TOTAL FREE ENERGY PREDICTED BY IDOCK:   -7.54 KCAL/MOL
REMARK 923 INTER-LIGAND FREE ENERGY PREDICTED BY IDOCK:   -6.76 KCAL/MOL
REMARK 924 INTRA-LIGAND FREE ENERGY PREDICTED BY IDOCK:   -0.79 KCAL/MOL
REMARK 927      BINDING AFFINITY PREDICTED BY RF-SCORE:    0.00 PKD
ROOT
HETATM    1  C   UNL     1     -10.506  20.289  68.736  1.00  0.00     0.081 C  
HETATM    2  O   UNL     1      -9.494  19.605  68.002  1.00  0.00    -0.330 OA 
ENDROOT
BRANCH   2   3
HETATM    3  C   UNL     1      -9.823  18.345  67.569  1.00  0.00    -0.314 A  
HETATM    4  C   UNL     1      -9.547  17.190  68.311  1.00  0.00    -0.280 A  
HETATM    5  C   UNL     1      -9.887  15.911  67.842  1.00  0.00    -0.218 A  
HETATM    6  C   UNL     1     -10.522  15.819  66.590  1.00  0.00    -0.302 A  
HETATM    7  C   UNL     1     -10.423  18.216  66.311  1.00  0.00    -0.361 A  
HETATM    8 CL   UNL     1     -10.999  14.281  65.957  1.00  0.00    -0.307 Cl 
HETATM    9  C   UNL     1     -10.785  16.959  65.826  1.00  0.00    -0.165 A  
HETATM   10 CL   UNL     1     -10.767  19.599  65.332  1.00  0.00    -0.381 Cl 
BRANCH   5  11
HETATM   11  N   UNL     1      -9.514  14.743  68.556  1.00  0.00    -0.208 NA 
HETATM   12  H   UNL     1      -8.518  14.640  68.744  1.00  0.00     0.000 HD 
BRANCH  11  13
HETATM   13  C   UNL     1     -10.342  13.697  69.043  1.00  0.00    -0.031 A  
HETATM   14  C   UNL     1     -11.729  15.268  70.403  1.00  0.00    -0.310 C  
HETATM   15  C   UNL     1     -11.445  13.974  69.876  1.00  0.00    -0.272 A  
HETATM   16  C   UNL     1     -12.287  12.933  70.217  1.00  0.00    -0.223 A  
HETATM   17  N   UNL     1     -12.135  11.665  69.785  1.00  0.00    -0.303 NA 
HETATM   18  N   UNL     1     -12.011  16.310  70.831  1.00  0.00    -0.210 NA 
HETATM   19  C   UNL     1     -11.094  11.390  68.991  1.00  0.00    -0.243 A  
HETATM   20  C   UNL     1     -10.978  10.089  68.534  1.00  0.00    -0.255 A  
HETATM   21  C   UNL     1      -9.956   9.692  67.668  1.00  0.00    -0.174 A  
HETATM   22  C   UNL     1     -10.143  12.358  68.595  1.00  0.00    -0.143 A  
HETATM   23  C   UNL     1      -8.990  10.624  67.288  1.00  0.00    -0.136 A  
HETATM   24  C   UNL     1      -9.078  11.937  67.764  1.00  0.00    -0.180 A  
BRANCH  21  25
HETATM   25  O   UNL     1      -9.827   8.394  67.257  1.00  0.00    -0.170 OA 
BRANCH  25  26
HETATM   26  C   UNL     1     -10.627   7.448  67.979  1.00  0.00    -0.175 C  
BRANCH  26  27
HETATM   27  C   UNL     1      -9.704   6.315  68.401  1.00  0.00    -0.130 C  
BRANCH  27  28
HETATM   28  C   UNL     1      -9.910   5.892  69.856  1.00  0.00    -0.174 C  
BRANCH  28  29
HETATM   29  N   UNL     1      -8.705   5.371  70.524  1.00  0.00    -0.121 NA 
HETATM   30  C   UNL     1      -9.004   4.617  71.762  1.00  0.00    -0.130 C  
HETATM   31  C   UNL     1      -9.707   3.260  71.526  1.00  0.00    -0.163 C  
HETATM   32  N   UNL     1      -8.994   2.356  70.602  1.00  0.00    -0.084 NA 
HETATM   33  C   UNL     1      -8.622   3.090  69.373  1.00  0.00    -0.068 C  
HETATM   34  C   UNL     1      -7.817   1.770  71.243  1.00  0.00    -0.040 C  
HETATM   35  C   UNL     1      -7.958   4.473  69.608  1.00  0.00    -0.061 C  
ENDBRANCH  28  29
ENDBRANCH  27  28
ENDBRANCH  26  27
ENDBRANCH  25  26
ENDBRANCH  21  25
BRANCH  23  36
HETATM   36  O   UNL     1      -7.896  10.383  66.498  1.00  0.00    -0.115 OA 
HETATM   37  C   UNL     1      -6.922  11.421  66.474  1.00  0.00    -0.062 C  
ENDBRANCH  23  36
ENDBRANCH  11  13
ENDBRANCH   5  11
ENDBRANCH   2   3
TORSDOF 9
ENDMDL
MODEL      179
REMARK 921   NORMALIZED FREE ENERGY PREDICTED BY IDOCK:   -4.05 KCAL/MOL
REMARK 922        TOTAL FREE ENERGY PREDICTED BY IDOCK:   -7.52 KCAL/MOL
REMARK 923 INTER-LIGAND FREE ENERGY PREDICTED BY IDOCK:   -6.38 KCAL/MOL
REMARK 924 INTRA-LIGAND FREE ENERGY PREDICTED BY IDOCK:   -1.14 KCAL/MOL
REMARK 927      BINDING AFFINITY PREDICTED BY RF-SCORE:    0.00 PKD
ROOT
HETATM    1  C   UNL     1     -11.433  16.226  64.453  1.00  0.00    -0.111 C  
HETATM    2  O   UNL     1     -11.155  17.609  64.658  1.00  0.00    -0.906 OA 
ENDROOT
BRANCH   2   3
HETATM    3  C   UNL     1     -10.872  17.971  65.951  1.00  0.00     0.036 A  
HETATM    4  C   UNL     1     -10.757  17.043  66.993  1.00  0.00    -0.149 A  
HETATM    5  C   UNL     1     -10.474  17.439  68.309  1.00  0.00    -0.385 A  
HETATM    6  C   UNL     1     -10.306  18.814  68.558  1.00  0.00    -0.259 A  
HETATM    7  C   UNL     1     -10.734  19.334  66.239  1.00  0.00    -0.384 A  
HETATM    8 CL   UNL     1      -9.927  19.379  70.149  1.00  0.00     0.428 Cl 
HETATM    9  C   UNL     1     -10.439  19.756  67.535  1.00  0.00    -0.569 A  
HETATM   10 CL   UNL     1     -10.889  20.535  65.005  1.00  0.00     0.353 Cl 
BRANCH   5  11
HETATM   11  N   UNL     1     -10.459  16.501  69.374  1.00  0.00    -0.312 NA 
HETATM   12  H   UNL     1     -10.369  16.896  70.309  1.00  0.00     0.000 HD 
BRANCH  11  13
HETATM   13  C   UNL     1     -10.553  15.085  69.313  1.00  0.00    -0.247 A  
HETATM   14  C   UNL     1     -12.795  15.069  70.416  1.00  0.00    -0.288 C  
HETATM   15  C   UNL     1     -11.712  14.417  69.756  1.00  0.00    -0.361 A  
HETATM   16  C   UNL     1     -11.798  13.052  69.556  1.00  0.00    -0.323 A  
HETATM   17  N   UNL     1     -10.850  12.316  68.943  1.00  0.00    -0.218 NA 
HETATM   18  N   UNL     1     -13.709  15.565  70.933  1.00  0.00    -0.491 NA 
HETATM   19  C   UNL     1      -9.746  12.940  68.515  1.00  0.00    -0.127 A  
HETATM   20  C   UNL     1      -8.803  12.169  67.860  1.00  0.00    -0.177 A  
HETATM   21  C   UNL     1      -7.630  12.716  67.333  1.00  0.00    -0.150 A  
HETATM   22  C   UNL     1      -9.523  14.325  68.686  1.00  0.00    -0.178 A  
HETATM   23  C   UNL     1      -7.375  14.076  67.516  1.00  0.00    -0.170 A  
HETATM   24  C   UNL     1      -8.307  14.863  68.202  1.00  0.00    -0.144 A  
BRANCH  21  25
HETATM   25  O   UNL     1      -6.684  11.937  66.724  1.00  0.00    -0.112 OA 
BRANCH  25  26
HETATM   26  C   UNL     1      -6.409  10.694  67.383  1.00  0.00    -0.058 C  
BRANCH  26  27
HETATM   27  C   UNL     1      -6.352   9.622  66.304  1.00  0.00    -0.069 C  
BRANCH  27  28
HETATM   28  C   UNL     1      -7.159   8.374  66.664  1.00  0.00    -0.073 C  
BRANCH  28  29
HETATM   29  N   UNL     1      -7.239   8.085  68.106  1.00  0.00    -0.091 NA 
HETATM   30  C   UNL     1      -8.598   7.705  68.551  1.00  0.00    -0.129 C  
HETATM   31  C   UNL     1      -9.072   6.324  68.040  1.00  0.00    -0.112 C  
HETATM   32  N   UNL     1      -8.159   5.210  68.361  1.00  0.00    -0.087 NA 
HETATM   33  C   UNL     1      -6.775   5.574  67.987  1.00  0.00    -0.055 C  
HETATM   34  C   UNL     1      -8.245   4.849  69.776  1.00  0.00    -0.073 C  
HETATM   35  C   UNL     1      -6.314   6.979  68.458  1.00  0.00    -0.035 C  
ENDBRANCH  28  29
ENDBRANCH  27  28
ENDBRANCH  26  27
ENDBRANCH  25  26
ENDBRANCH  21  25
BRANCH  23  36
HETATM   36  O   UNL     1      -6.251  14.751  67.117  1.00  0.00    -0.236 OA 
HETATM   37  C   UNL     1      -6.368  16.170  67.100  1.00  0.00    -0.125 C  
ENDBRANCH  23  36
ENDBRANCH  11  13
ENDBRANCH   5  11
ENDBRANCH   2   3
TORSDOF 9
ENDMDL
MODEL      180
REMARK 921   NORMALIZED FREE ENERGY PREDICTED BY IDOCK:   -4.05 KCAL/MOL
REMARK 922        TOTAL FREE ENERGY PREDICTED BY IDOCK:   -7.52 KCAL/MOL
REMARK 923 INTER-LIGAND FREE ENERGY PREDICTED BY IDOCK:   -6.30 KCAL/MOL
REMARK 924 INTRA-LIGAND FREE ENERGY PREDICTED BY IDOCK:   -1.22 KCAL/MOL
REMARK 927      BINDING AFFINITY PREDICTED BY RF-SCORE:    0.00 PKD
ROOT
HETATM    1  C   UNL     1     -12.352  14.147  65.014  1.00  0.00    -0.440 C  
HETATM    2  O   UNL     1     -11.024  13.768  64.664  1.00  0.00    -0.367 OA 
ENDROOT
BRANCH   2   3
HETATM    3  C   UNL     1     -10.427  12.858  65.500  1.00  0.00    -0.289 A  
HETATM    4  C   UNL     1     -10.553  11.474  65.332  1.00  0.00    -0.336 A  
HETATM    5  C   UNL     1      -9.939  10.563  66.205  1.00  0.00    -0.221 A  
HETATM    6  C   UNL     1      -9.181  11.085  67.270  1.00  0.00    -0.148 A  
HETATM    7  C   UNL     1      -9.696  13.345  66.590  1.00  0.00    -0.275 A  
HETATM    8 CL   UNL     1      -8.369  10.028  68.373  1.00  0.00    -0.109 Cl 
HETATM    9  C   UNL     1      -9.063  12.463  67.466  1.00  0.00    -0.185 A  
HETATM   10 CL   UNL     1      -9.522  15.042  66.872  1.00  0.00    -0.238 Cl 
BRANCH   5  11
HETATM   11  N   UNL     1     -10.155   9.166  66.084  1.00  0.00    -0.318 NA 
HETATM   12  H   UNL     1     -11.130   8.869  66.088  1.00  0.00     0.000 HD 
BRANCH  11  13
HETATM   13  C   UNL     1      -9.196   8.126  65.957  1.00  0.00    -0.147 A  
HETATM   14  C   UNL     1      -8.061   9.246  64.034  1.00  0.00    -0.150 C  
HETATM   15  C   UNL     1      -8.154   8.212  65.012  1.00  0.00    -0.155 A  
HETATM   16  C   UNL     1      -7.180   7.232  65.019  1.00  0.00    -0.070 A  
HETATM   17  N   UNL     1      -7.148   6.204  65.890  1.00  0.00    -0.068 NA 
HETATM   18  N   UNL     1      -7.932  10.084  63.240  1.00  0.00    -0.148 NA 
HETATM   19  C   UNL     1      -8.130   6.114  66.795  1.00  0.00    -0.109 A  
HETATM   20  C   UNL     1      -8.056   5.069  67.699  1.00  0.00    -0.098 A  
HETATM   21  C   UNL     1      -9.001   4.895  68.714  1.00  0.00    -0.104 A  
HETATM   22  C   UNL     1      -9.200   7.032  66.872  1.00  0.00    -0.174 A  
HETATM   23  C   UNL     1     -10.082   5.773  68.791  1.00  0.00    -0.177 A  
HETATM   24  C   UNL     1     -10.185   6.818  67.866  1.00  0.00    -0.207 A  
BRANCH  21  25
HETATM   25  O   UNL     1      -8.941   3.834  69.576  1.00  0.00    -0.084 OA 
BRANCH  25  26
HETATM   26  C   UNL     1      -7.683   3.148  69.606  1.00  0.00    -0.043 C  
BRANCH  26  27
HETATM   27  C   UNL     1      -7.151   3.257  71.027  1.00  0.00    -0.033 C  
BRANCH  27  28
HETATM   28  C   UNL     1      -6.816   4.694  71.428  1.00  0.00    -0.035 C  
BRANCH  28  29
HETATM   29  N   UNL     1      -7.077   5.018  72.841  1.00  0.00    -0.081 NA 
HETATM   30  C   UNL     1      -7.259   6.467  73.083  1.00  0.00    -0.086 C  
HETATM   31  C   UNL     1      -8.566   7.051  72.496  1.00  0.00    -0.120 C  
HETATM   32  N   UNL     1      -9.793   6.358  72.933  1.00  0.00    -0.165 NA 
HETATM   33  C   UNL     1      -9.629   4.898  72.764  1.00  0.00    -0.139 C  
HETATM   34  C   UNL     1     -10.124   6.695  74.317  1.00  0.00    -0.351 C  
HETATM   35  C   UNL     1      -8.298   4.317  73.310  1.00  0.00    -0.090 C  
ENDBRANCH  28  29
ENDBRANCH  27  28
ENDBRANCH  26  27
ENDBRANCH  25  26
ENDBRANCH  21  25
BRANCH  23  36
HETATM   36  O   UNL     1     -11.121   5.705  69.683  1.00  0.00    -0.328 OA 
HETATM   37  C   UNL     1     -11.728   6.952  70.005  1.00  0.00    -0.208 C  
ENDBRANCH  23  36
ENDBRANCH  11  13
ENDBRANCH   5  11
ENDBRANCH   2   3
TORSDOF 9
ENDMDL
MODEL      181
REMARK 921   NORMALIZED FREE ENERGY PREDICTED BY IDOCK:   -4.02 KCAL/MOL
REMARK 922        TOTAL FREE ENERGY PREDICTED BY IDOCK:   -7.48 KCAL/MOL
REMARK 923 INTER-LIGAND FREE ENERGY PREDICTED BY IDOCK:   -6.77 KCAL/MOL
REMARK 924 INTRA-LIGAND FREE ENERGY PREDICTED BY IDOCK:   -0.72 KCAL/MOL
REMARK 927      BINDING AFFINITY PREDICTED BY RF-SCORE:    0.00 PKD
ROOT
HETATM    1  C   UNL     1     -13.517   8.270  71.792  1.00  0.00    -0.352 C  
HETATM    2  O   UNL     1     -13.069   6.976  72.184  1.00  0.00    -0.160 OA 
ENDROOT
BRANCH   2   3
HETATM    3  C   UNL     1     -12.013   6.471  71.467  1.00  0.00    -0.329 A  
HETATM    4  C   UNL     1     -11.911   6.593  70.076  1.00  0.00    -0.301 A  
HETATM    5  C   UNL     1     -10.825   6.061  69.364  1.00  0.00    -0.363 A  
HETATM    6  C   UNL     1      -9.826   5.392  70.096  1.00  0.00    -0.207 A  
HETATM    7  C   UNL     1     -11.021   5.769  72.161  1.00  0.00    -0.257 A  
HETATM    8 CL   UNL     1      -8.441   4.735  69.294  1.00  0.00    -0.083 Cl 
HETATM    9  C   UNL     1      -9.923   5.241  71.481  1.00  0.00    -0.241 A  
HETATM   10 CL   UNL     1     -11.098   5.557  73.875  1.00  0.00    -0.070 Cl 
BRANCH   5  11
HETATM   11  N   UNL     1     -10.781   6.105  67.947  1.00  0.00    -0.270 NA 
HETATM   12  H   UNL     1     -11.537   5.617  67.467  1.00  0.00     0.000 HD 
BRANCH  11  13
HETATM   13  C   UNL     1      -9.827   6.735  67.105  1.00  0.00    -0.161 A  
HETATM   14  C   UNL     1      -9.591   4.711  65.659  1.00  0.00    -0.182 C  
HETATM   15  C   UNL     1      -9.315   6.075  65.969  1.00  0.00    -0.100 A  
HETATM   16  C   UNL     1      -8.487   6.783  65.118  1.00  0.00    -0.028 A  
HETATM   17  N   UNL     1      -8.151   8.077  65.292  1.00  0.00    -0.131 NA 
HETATM   18  N   UNL     1      -9.810   3.612  65.356  1.00  0.00    -0.129 NA 
HETATM   19  C   UNL     1      -8.634   8.714  66.365  1.00  0.00    -0.119 A  
HETATM   20  C   UNL     1      -8.301  10.050  66.504  1.00  0.00    -0.126 A  
HETATM   21  C   UNL     1      -8.778  10.830  67.561  1.00  0.00    -0.125 A  
HETATM   22  C   UNL     1      -9.464   8.096  67.326  1.00  0.00    -0.196 A  
HETATM   23  C   UNL     1      -9.576  10.233  68.538  1.00  0.00    -0.161 A  
HETATM   24  C   UNL     1      -9.897   8.875  68.426  1.00  0.00    -0.191 A  
BRANCH  21  25
HETATM   25  O   UNL     1      -8.409  12.139  67.711  1.00  0.00    -0.140 OA 
BRANCH  25  26
HETATM   26  C   UNL     1      -9.492  13.078  67.714  1.00  0.00    -0.209 C  
BRANCH  26  27
HETATM   27  C   UNL     1      -9.237  14.054  66.575  1.00  0.00    -0.240 C  
BRANCH  27  28
HETATM   28  C   UNL     1      -8.198  15.120  66.927  1.00  0.00    -0.199 C  
BRANCH  28  29
HETATM   29  N   UNL     1      -7.955  15.291  68.370  1.00  0.00    -0.127 NA 
HETATM   30  C   UNL     1      -6.546  15.057  68.756  1.00  0.00    -0.094 C  
HETATM   31  C   UNL     1      -5.560  16.139  68.253  1.00  0.00    -0.107 C  
HETATM   32  N   UNL     1      -5.917  17.517  68.643  1.00  0.00    -0.166 NA 
HETATM   33  C   UNL     1      -7.339  17.772  68.330  1.00  0.00    -0.240 C  
HETATM   34  C   UNL     1      -5.639  17.751  70.060  1.00  0.00    -0.246 C  
HETATM   35  C   UNL     1      -8.325  16.666  68.792  1.00  0.00    -0.252 C  
ENDBRANCH  28  29
ENDBRANCH  27  28
ENDBRANCH  26  27
ENDBRANCH  25  26
ENDBRANCH  21  25
BRANCH  23  36
HETATM   36  O   UNL     1     -10.071  10.839  69.663  1.00  0.00    -0.156 OA 
HETATM   37  C   UNL     1     -11.487  10.797  69.802  1.00  0.00    -0.311 C  
ENDBRANCH  23  36
ENDBRANCH  11  13
ENDBRANCH   5  11
ENDBRANCH   2   3
TORSDOF 9
ENDMDL
MODEL      182
REMARK 921   NORMALIZED FREE ENERGY PREDICTED BY IDOCK:   -3.99 KCAL/MOL
REMARK 922        TOTAL FREE ENERGY PREDICTED BY IDOCK:   -7.44 KCAL/MOL
REMARK 923 INTER-LIGAND FREE ENERGY PREDICTED BY IDOCK:   -5.99 KCAL/MOL
REMARK 924 INTRA-LIGAND FREE ENERGY PREDICTED BY IDOCK:   -1.45 KCAL/MOL
REMARK 927      BINDING AFFINITY PREDICTED BY RF-SCORE:    0.00 PKD
ROOT
HETATM    1  C   UNL     1      -7.914   5.852  63.339  1.00  0.00    -0.110 C  
HETATM    2  O   UNL     1      -6.773   6.324  64.051  1.00  0.00    -0.036 OA 
ENDROOT
BRANCH   2   3
HETATM    3  C   UNL     1      -6.642   5.861  65.336  1.00  0.00    -0.043 A  
HETATM    4  C   UNL     1      -7.152   6.545  66.446  1.00  0.00    -0.068 A  
HETATM    5  C   UNL     1      -6.998   6.056  67.752  1.00  0.00    -0.069 A  
HETATM    6  C   UNL     1      -6.308   4.841  67.920  1.00  0.00    -0.037 A  
HETATM    7  C   UNL     1      -5.930   4.674  65.540  1.00  0.00    -0.023 A  
HETATM    8 CL   UNL     1      -6.103   4.156  69.495  1.00  0.00    -0.026 Cl 
HETATM    9  C   UNL     1      -5.773   4.156  66.826  1.00  0.00    -0.022 A  
HETATM   10 CL   UNL     1      -5.251   3.792  64.217  1.00  0.00    -0.008 Cl 
BRANCH   5  11
HETATM   11  N   UNL     1      -7.431   6.806  68.876  1.00  0.00    -0.094 NA 
HETATM   12  H   UNL     1      -6.725   6.976  69.591  1.00  0.00     0.000 HD 
BRANCH  11  13
HETATM   13  C   UNL     1      -8.715   7.351  69.139  1.00  0.00    -0.136 A  
HETATM   14  C   UNL     1      -9.595   5.174  69.993  1.00  0.00    -0.181 C  
HETATM   15  C   UNL     1      -9.724   6.571  69.740  1.00  0.00    -0.170 A  
HETATM   16  C   UNL     1     -10.910   7.189  70.088  1.00  0.00    -0.257 A  
HETATM   17  N   UNL     1     -11.161   8.501  69.909  1.00  0.00    -0.173 NA 
HETATM   18  N   UNL     1      -9.521   4.042  70.240  1.00  0.00    -0.169 NA 
HETATM   19  C   UNL     1     -10.209   9.253  69.342  1.00  0.00    -0.210 A  
HETATM   20  C   UNL     1     -10.477  10.603  69.200  1.00  0.00    -0.245 A  
HETATM   21  C   UNL     1      -9.545  11.494  68.659  1.00  0.00    -0.152 A  
HETATM   22  C   UNL     1      -8.966   8.737  68.914  1.00  0.00    -0.134 A  
HETATM   23  C   UNL     1      -8.323  11.001  68.203  1.00  0.00    -0.130 A  
HETATM   24  C   UNL     1      -8.049   9.633  68.315  1.00  0.00    -0.105 A  
BRANCH  21  25
HETATM   25  O   UNL     1      -9.837  12.819  68.484  1.00  0.00    -0.213 OA 
BRANCH  25  26
HETATM   26  C   UNL     1     -10.826  13.094  67.483  1.00  0.00    -0.255 C  
BRANCH  26  27
HETATM   27  C   UNL     1     -11.754  14.155  68.054  1.00  0.00    -0.394 C  
BRANCH  27  28
HETATM   28  C   UNL     1     -11.159  15.562  67.989  1.00  0.00    -0.322 C  
BRANCH  28  29
HETATM   29  N   UNL     1     -10.099  15.738  66.981  1.00  0.00    -0.255 NA 
HETATM   30  C   UNL     1     -10.385  16.825  66.018  1.00  0.00    -0.335 C  
HETATM   31  C   UNL     1     -10.324  18.246  66.626  1.00  0.00    -0.381 C  
HETATM   32  N   UNL     1      -9.054  18.563  67.309  1.00  0.00    -0.274 NA 
HETATM   33  C   UNL     1      -8.700  17.468  68.239  1.00  0.00    -0.270 C  
HETATM   34  C   UNL     1      -7.983  18.801  66.343  1.00  0.00    -0.282 C  
HETATM   35  C   UNL     1      -8.806  16.039  67.644  1.00  0.00    -0.185 C  
ENDBRANCH  28  29
ENDBRANCH  27  28
ENDBRANCH  26  27
ENDBRANCH  25  26
ENDBRANCH  21  25
BRANCH  23  36
HETATM   36  O   UNL     1      -7.331  11.727  67.596  1.00  0.00    -0.103 OA 
HETATM   37  C   UNL     1      -6.493  10.990  66.710  1.00  0.00    -0.124 C  
ENDBRANCH  23  36
ENDBRANCH  11  13
ENDBRANCH   5  11
ENDBRANCH   2   3
TORSDOF 9
ENDMDL
MODEL      183
REMARK 921   NORMALIZED FREE ENERGY PREDICTED BY IDOCK:   -3.99 KCAL/MOL
REMARK 922        TOTAL FREE ENERGY PREDICTED BY IDOCK:   -7.44 KCAL/MOL
REMARK 923 INTER-LIGAND FREE ENERGY PREDICTED BY IDOCK:   -6.92 KCAL/MOL
REMARK 924 INTRA-LIGAND FREE ENERGY PREDICTED BY IDOCK:   -0.51 KCAL/MOL
REMARK 927      BINDING AFFINITY PREDICTED BY RF-SCORE:    0.00 PKD
ROOT
HETATM    1  C   UNL     1      -9.839  18.680  68.733  1.00  0.00    -0.379 C  
HETATM    2  O   UNL     1      -8.948  18.036  67.826  1.00  0.00    -0.250 OA 
ENDROOT
BRANCH   2   3
HETATM    3  C   UNL     1      -9.386  16.842  67.312  1.00  0.00    -0.231 A  
HETATM    4  C   UNL     1      -9.037  15.603  67.864  1.00  0.00    -0.185 A  
HETATM    5  C   UNL     1      -9.491  14.394  67.316  1.00  0.00    -0.215 A  
HETATM    6  C   UNL     1     -10.320  14.459  66.181  1.00  0.00    -0.298 A  
HETATM    7  C   UNL     1     -10.183  16.870  66.162  1.00  0.00    -0.341 A  
HETATM    8 CL   UNL     1     -10.945  13.014  65.464  1.00  0.00    -0.291 Cl 
HETATM    9  C   UNL     1     -10.660  15.685  65.603  1.00  0.00    -0.393 A  
HETATM   10 CL   UNL     1     -10.630  18.363  65.414  1.00  0.00    -0.035 Cl 
BRANCH   5  11
HETATM   11  N   UNL     1      -9.050  13.144  67.823  1.00  0.00    -0.190 NA 
HETATM   12  H   UNL     1      -8.040  13.019  67.870  1.00  0.00     0.000 HD 
BRANCH  11  13
HETATM   13  C   UNL     1      -9.827  12.043  68.272  1.00  0.00    -0.204 A  
HETATM   14  C   UNL     1     -11.597  13.529  69.222  1.00  0.00    -0.316 C  
HETATM   15  C   UNL     1     -11.082  12.244  68.883  1.00  0.00    -0.291 A  
HETATM   16  C   UNL     1     -11.848  11.133  69.185  1.00  0.00    -0.350 A  
HETATM   17  N   UNL     1     -11.481   9.865  68.915  1.00  0.00    -0.008 NA 
HETATM   18  N   UNL     1     -12.065  14.557  69.491  1.00  0.00    -0.315 NA 
HETATM   19  C   UNL     1     -10.293   9.663  68.332  1.00  0.00    -0.204 A  
HETATM   20  C   UNL     1      -9.955   8.354  68.035  1.00  0.00    -0.221 A  
HETATM   21  C   UNL     1      -8.759   8.023  67.391  1.00  0.00    -0.124 A  
HETATM   22  C   UNL     1      -9.404  10.709  68.001  1.00  0.00    -0.151 A  
HETATM   23  C   UNL     1      -7.853   9.037  67.081  1.00  0.00    -0.099 A  
HETATM   24  C   UNL     1      -8.170  10.363  67.401  1.00  0.00    -0.117 A  
BRANCH  21  25
HETATM   25  O   UNL     1      -8.416   6.723  67.140  1.00  0.00    -0.119 OA 
BRANCH  25  26
HETATM   26  C   UNL     1      -9.403   5.753  67.514  1.00  0.00    -0.111 C  
BRANCH  26  27
HETATM   27  C   UNL     1      -8.747   4.815  68.517  1.00  0.00    -0.109 C  
BRANCH  27  28
HETATM   28  C   UNL     1      -7.990   5.559  69.618  1.00  0.00    -0.093 C  
BRANCH  28  29
HETATM   29  N   UNL     1      -8.442   5.260  70.988  1.00  0.00    -0.120 NA 
HETATM   30  C   UNL     1      -7.760   6.074  72.018  1.00  0.00    -0.098 C  
HETATM   31  C   UNL     1      -8.142   7.573  72.002  1.00  0.00    -0.098 C  
HETATM   32  N   UNL     1      -9.592   7.833  72.101  1.00  0.00    -0.166 NA 
HETATM   33  C   UNL     1     -10.318   6.990  71.126  1.00  0.00    -0.206 C  
HETATM   34  C   UNL     1     -10.076   7.602  73.461  1.00  0.00    -0.285 C  
HETATM   35  C   UNL     1      -9.902   5.495  71.109  1.00  0.00    -0.181 C  
ENDBRANCH  28  29
ENDBRANCH  27  28
ENDBRANCH  26  27
ENDBRANCH  25  26
ENDBRANCH  21  25
BRANCH  23  36
HETATM   36  O   UNL     1      -6.619   8.875  66.508  1.00  0.00    -0.065 OA 
HETATM   37  C   UNL     1      -6.603   8.885  65.084  1.00  0.00    -0.065 C  
ENDBRANCH  23  36
ENDBRANCH  11  13
ENDBRANCH   5  11
ENDBRANCH   2   3
TORSDOF 9
ENDMDL
MODEL      184
REMARK 921   NORMALIZED FREE ENERGY PREDICTED BY IDOCK:   -3.98 KCAL/MOL
REMARK 922        TOTAL FREE ENERGY PREDICTED BY IDOCK:   -7.41 KCAL/MOL
REMARK 923 INTER-LIGAND FREE ENERGY PREDICTED BY IDOCK:   -6.23 KCAL/MOL
REMARK 924 INTRA-LIGAND FREE ENERGY PREDICTED BY IDOCK:   -1.18 KCAL/MOL
REMARK 927      BINDING AFFINITY PREDICTED BY RF-SCORE:    0.00 PKD
ROOT
HETATM    1  C   UNL     1      -9.946  10.402  65.722  1.00  0.00    -0.270 C  
HETATM    2  O   UNL     1      -9.689  11.430  66.675  1.00  0.00    -0.194 OA 
ENDROOT
BRANCH   2   3
HETATM    3  C   UNL     1     -10.374  11.326  67.859  1.00  0.00    -0.182 A  
HETATM    4  C   UNL     1     -10.013  10.427  68.871  1.00  0.00    -0.208 A  
HETATM    5  C   UNL     1     -10.735  10.334  70.071  1.00  0.00    -0.292 A  
HETATM    6  C   UNL     1     -11.847  11.180  70.234  1.00  0.00    -0.366 A  
HETATM    7  C   UNL     1     -11.506  12.128  68.039  1.00  0.00    -0.319 A  
HETATM    8 CL   UNL     1     -12.771  11.146  71.696  1.00  0.00    -0.494 Cl 
HETATM    9  C   UNL     1     -12.235  12.067  69.227  1.00  0.00    -0.135 A  
HETATM   10 CL   UNL     1     -12.024  13.240  66.820  1.00  0.00    -0.442 Cl 
BRANCH   5  11
HETATM   11  N   UNL     1     -10.420   9.352  71.045  1.00  0.00    -0.307 NA 
HETATM   12  H   UNL     1     -10.298   9.698  71.996  1.00  0.00     0.000 HD 
BRANCH  11  13
HETATM   13  C   UNL     1     -10.252   7.952  70.875  1.00  0.00    -0.198 A  
HETATM   14  C   UNL     1     -12.658   7.486  71.363  1.00  0.00    -0.351 C  
HETATM   15  C   UNL     1     -11.352   7.075  70.964  1.00  0.00    -0.325 A  
HETATM   16  C   UNL     1     -11.152   5.741  70.665  1.00  0.00    -0.202 A  
HETATM   17  N   UNL     1      -9.971   5.222  70.272  1.00  0.00    -0.219 NA 
HETATM   18  N   UNL     1     -13.741   7.783  71.658  1.00  0.00    -0.368 NA 
HETATM   19  C   UNL     1      -8.921   6.046  70.181  1.00  0.00    -0.147 A  
HETATM   20  C   UNL     1      -7.728   5.497  69.743  1.00  0.00    -0.078 A  
HETATM   21  C   UNL     1      -6.574   6.266  69.570  1.00  0.00    -0.048 A  
HETATM   22  C   UNL     1      -8.986   7.424  70.488  1.00  0.00    -0.156 A  
HETATM   23  C   UNL     1      -6.608   7.622  69.895  1.00  0.00    -0.041 A  
HETATM   24  C   UNL     1      -7.800   8.186  70.366  1.00  0.00    -0.090 A  
BRANCH  21  25
HETATM   25  O   UNL     1      -5.390   5.704  69.177  1.00  0.00    -0.003 OA 
BRANCH  25  26
HETATM   26  C   UNL     1      -5.252   5.506  67.764  1.00  0.00    -0.004 C  
BRANCH  26  27
HETATM   27  C   UNL     1      -6.546   5.982  67.120  1.00  0.00    -0.056 C  
BRANCH  27  28
HETATM   28  C   UNL     1      -6.324   6.643  65.759  1.00  0.00    -0.042 C  
BRANCH  28  29
HETATM   29  N   UNL     1      -7.187   7.806  65.489  1.00  0.00    -0.063 NA 
HETATM   30  C   UNL     1      -6.448   9.088  65.469  1.00  0.00    -0.067 C  
HETATM   31  C   UNL     1      -5.497   9.256  64.260  1.00  0.00    -0.060 C  
HETATM   32  N   UNL     1      -6.146   9.082  62.946  1.00  0.00    -0.090 NA 
HETATM   33  C   UNL     1      -6.947   7.839  62.944  1.00  0.00    -0.080 C  
HETATM   34  C   UNL     1      -6.971  10.241  62.609  1.00  0.00    -0.135 C  
HETATM   35  C   UNL     1      -7.866   7.646  64.179  1.00  0.00    -0.133 C  
ENDBRANCH  28  29
ENDBRANCH  27  28
ENDBRANCH  26  27
ENDBRANCH  25  26
ENDBRANCH  21  25
BRANCH  23  36
HETATM   36  O   UNL     1      -5.554   8.496  69.840  1.00  0.00    -0.028 OA 
HETATM   37  C   UNL     1      -5.786   9.683  69.088  1.00  0.00    -0.035 C  
ENDBRANCH  23  36
ENDBRANCH  11  13
ENDBRANCH   5  11
ENDBRANCH   2   3
TORSDOF 9
ENDMDL
MODEL      185
REMARK 921   NORMALIZED FREE ENERGY PREDICTED BY IDOCK:   -3.85 KCAL/MOL
REMARK 922        TOTAL FREE ENERGY PREDICTED BY IDOCK:   -7.22 KCAL/MOL
REMARK 923 INTER-LIGAND FREE ENERGY PREDICTED BY IDOCK:   -6.35 KCAL/MOL
REMARK 924 INTRA-LIGAND FREE ENERGY PREDICTED BY IDOCK:   -0.87 KCAL/MOL
REMARK 927      BINDING AFFINITY PREDICTED BY RF-SCORE:    0.00 PKD
ROOT
HETATM    1  C   UNL     1     -11.799  16.303  72.669  1.00  0.00    -0.497 C  
HETATM    2  O   UNL     1     -12.599  15.910  71.556  1.00  0.00    -0.444 OA 
ENDROOT
BRANCH   2   3
HETATM    3  C   UNL     1     -12.335  14.663  71.047  1.00  0.00    -0.333 A  
HETATM    4  C   UNL     1     -11.350  14.430  70.080  1.00  0.00    -0.253 A  
HETATM    5  C   UNL     1     -11.104  13.146  69.568  1.00  0.00    -0.003 A  
HETATM    6  C   UNL     1     -11.884  12.084  70.061  1.00  0.00    -0.314 A  
HETATM    7  C   UNL     1     -13.117  13.591  71.490  1.00  0.00    -0.344 A  
HETATM    8 CL   UNL     1     -11.622  10.467  69.502  1.00  0.00    -0.325 Cl 
HETATM    9  C   UNL     1     -12.887  12.302  71.010  1.00  0.00    -0.251 A  
HETATM   10 CL   UNL     1     -14.368  13.813  72.663  1.00  0.00    -0.264 Cl 
BRANCH   5  11
HETATM   11  N   UNL     1     -10.173  12.937  68.518  1.00  0.00    -0.302 NA 
HETATM   12  H   UNL     1      -9.222  13.254  68.702  1.00  0.00     0.000 HD 
BRANCH  11  13
HETATM   13  C   UNL     1     -10.387  12.346  67.245  1.00  0.00    -0.215 A  
HETATM   14  C   UNL     1     -11.706  14.304  66.427  1.00  0.00    -0.391 C  
HETATM   15  C   UNL     1     -11.067  13.045  66.227  1.00  0.00    -0.314 A  
HETATM   16  C   UNL     1     -11.135  12.472  64.971  1.00  0.00    -0.299 A  
HETATM   17  N   UNL     1     -10.572  11.291  64.647  1.00  0.00    -0.326 NA 
HETATM   18  N   UNL     1     -12.217  15.341  66.540  1.00  0.00     0.419 NA 
HETATM   19  C   UNL     1      -9.920  10.620  65.604  1.00  0.00    -0.268 A  
HETATM   20  C   UNL     1      -9.322   9.427  65.239  1.00  0.00    -0.303 A  
HETATM   21  C   UNL     1      -8.581   8.659  66.141  1.00  0.00    -0.142 A  
HETATM   22  C   UNL     1      -9.806  11.082  66.934  1.00  0.00    -0.222 A  
HETATM   23  C   UNL     1      -8.480   9.081  67.467  1.00  0.00    -0.116 A  
HETATM   24  C   UNL     1      -9.103  10.272  67.858  1.00  0.00    -0.133 A  
BRANCH  21  25
HETATM   25  O   UNL     1      -8.031   7.460  65.779  1.00  0.00    -0.104 OA 
BRANCH  25  26
HETATM   26  C   UNL     1      -7.007   7.540  64.779  1.00  0.00    -0.055 C  
BRANCH  26  27
HETATM   27  C   UNL     1      -5.833   6.709  65.276  1.00  0.00    -0.030 C  
BRANCH  27  28
HETATM   28  C   UNL     1      -6.196   5.240  65.496  1.00  0.00    -0.034 C  
BRANCH  28  29
HETATM   29  N   UNL     1      -5.612   4.634  66.705  1.00  0.00    -0.013 NA 
HETATM   30  C   UNL     1      -6.134   5.217  67.961  1.00  0.00    -0.027 C  
HETATM   31  C   UNL     1      -7.613   4.872  68.255  1.00  0.00    -0.078 C  
HETATM   32  N   UNL     1      -7.911   3.426  68.264  1.00  0.00    -0.069 NA 
HETATM   33  C   UNL     1      -7.350   2.793  67.051  1.00  0.00    -0.065 C  
HETATM   34  C   UNL     1      -7.397   2.790  69.477  1.00  0.00    -0.044 C  
HETATM   35  C   UNL     1      -5.881   3.175  66.728  1.00  0.00    -0.023 C  
ENDBRANCH  28  29
ENDBRANCH  27  28
ENDBRANCH  26  27
ENDBRANCH  25  26
ENDBRANCH  21  25
BRANCH  23  36
HETATM   36  O   UNL     1      -7.845   8.416  68.483  1.00  0.00    -0.115 OA 
HETATM   37  C   UNL     1      -6.491   8.797  68.706  1.00  0.00    -0.053 C  
ENDBRANCH  23  36
ENDBRANCH  11  13
ENDBRANCH   5  11
ENDBRANCH   2   3
TORSDOF 9
ENDMDL
MODEL      186
REMARK 921   NORMALIZED FREE ENERGY PREDICTED BY IDOCK:   -3.83 KCAL/MOL
REMARK 922        TOTAL FREE ENERGY PREDICTED BY IDOCK:   -7.19 KCAL/MOL
REMARK 923 INTER-LIGAND FREE ENERGY PREDICTED BY IDOCK:   -6.88 KCAL/MOL
REMARK 924 INTRA-LIGAND FREE ENERGY PREDICTED BY IDOCK:   -0.31 KCAL/MOL
REMARK 927      BINDING AFFINITY PREDICTED BY RF-SCORE:    0.00 PKD
ROOT
HETATM    1  C   UNL     1      -9.360   2.719  68.278  1.00  0.00    -0.200 C  
HETATM    2  O   UNL     1      -8.732   3.364  69.383  1.00  0.00    -0.066 OA 
ENDROOT
BRANCH   2   3
HETATM    3  C   UNL     1      -9.116   4.662  69.608  1.00  0.00    -0.109 A  
HETATM    4  C   UNL     1      -8.667   5.734  68.827  1.00  0.00    -0.108 A  
HETATM    5  C   UNL     1      -9.068   7.055  69.082  1.00  0.00    -0.136 A  
HETATM    6  C   UNL     1      -9.946   7.277  70.159  1.00  0.00    -0.184 A  
HETATM    7  C   UNL     1      -9.960   4.921  70.693  1.00  0.00    -0.235 A  
HETATM    8 CL   UNL     1     -10.509   8.872  70.520  1.00  0.00    -0.239 Cl 
HETATM    9  C   UNL     1     -10.386   6.222  70.963  1.00  0.00    -0.258 A  
HETATM   10 CL   UNL     1     -10.530   3.648  71.715  1.00  0.00     0.049 Cl 
BRANCH   5  11
HETATM   11  N   UNL     1      -8.530   8.143  68.347  1.00  0.00    -0.126 NA 
HETATM   12  H   UNL     1      -8.564   8.049  67.332  1.00  0.00     0.000 HD 
BRANCH  11  13
HETATM   13  C   UNL     1      -7.951   9.344  68.833  1.00  0.00    -0.087 A  
HETATM   14  C   UNL     1      -6.492   8.124  70.453  1.00  0.00    -0.036 C  
HETATM   15  C   UNL     1      -6.923   9.314  69.797  1.00  0.00    -0.058 A  
HETATM   16  C   UNL     1      -6.311  10.505  70.139  1.00  0.00    -0.132 A  
HETATM   17  N   UNL     1      -6.619  11.699  69.594  1.00  0.00    -0.118 NA 
HETATM   18  N   UNL     1      -6.093   7.175  70.991  1.00  0.00    -0.036 NA 
HETATM   19  C   UNL     1      -7.591  11.739  68.675  1.00  0.00    -0.125 A  
HETATM   20  C   UNL     1      -7.866  12.970  68.105  1.00  0.00    -0.145 A  
HETATM   21  C   UNL     1      -8.831  13.129  67.107  1.00  0.00    -0.222 A  
HETATM   22  C   UNL     1      -8.314  10.599  68.261  1.00  0.00    -0.122 A  
HETATM   23  C   UNL     1      -9.578  12.022  66.704  1.00  0.00    -0.216 A  
HETATM   24  C   UNL     1      -9.330  10.776  67.291  1.00  0.00    -0.165 A  
BRANCH  21  25
HETATM   25  O   UNL     1      -9.124  14.358  66.582  1.00  0.00    -0.260 OA 
BRANCH  25  26
HETATM   26  C   UNL     1     -10.352  14.937  67.042  1.00  0.00    -0.264 C  
BRANCH  26  27
HETATM   27  C   UNL     1      -9.986  16.173  67.850  1.00  0.00    -0.239 C  
BRANCH  27  28
HETATM   28  C   UNL     1     -10.402  17.475  67.165  1.00  0.00    -0.330 C  
BRANCH  28  29
HETATM   29  N   UNL     1      -9.372  18.073  66.298  1.00  0.00    -0.457 NA 
HETATM   30  C   UNL     1      -9.484  19.544  66.189  1.00  0.00    -0.340 C  
HETATM   31  C   UNL     1      -9.127  20.308  67.486  1.00  0.00    -0.346 C  
HETATM   32  N   UNL     1      -7.793  19.991  68.031  1.00  0.00    -0.275 NA 
HETATM   33  C   UNL     1      -7.616  18.525  68.100  1.00  0.00    -0.274 C  
HETATM   34  C   UNL     1      -6.737  20.613  67.233  1.00  0.00    -0.296 C  
HETATM   35  C   UNL     1      -8.018  17.752  66.816  1.00  0.00    -0.238 C  
ENDBRANCH  28  29
ENDBRANCH  27  28
ENDBRANCH  26  27
ENDBRANCH  25  26
ENDBRANCH  21  25
BRANCH  23  36
HETATM   36  O   UNL     1     -10.596  12.021  65.787  1.00  0.00    -0.247 OA 
HETATM   37  C   UNL     1     -11.907  12.128  66.333  1.00  0.00    -0.246 C  
ENDBRANCH  23  36
ENDBRANCH  11  13
ENDBRANCH   5  11
ENDBRANCH   2   3
TORSDOF 9
ENDMDL
MODEL      187
REMARK 921   NORMALIZED FREE ENERGY PREDICTED BY IDOCK:   -3.76 KCAL/MOL
REMARK 922        TOTAL FREE ENERGY PREDICTED BY IDOCK:   -7.08 KCAL/MOL
REMARK 923 INTER-LIGAND FREE ENERGY PREDICTED BY IDOCK:   -5.64 KCAL/MOL
REMARK 924 INTRA-LIGAND FREE ENERGY PREDICTED BY IDOCK:   -1.44 KCAL/MOL
REMARK 927      BINDING AFFINITY PREDICTED BY RF-SCORE:    0.00 PKD
ROOT
HETATM    1  C   UNL     1     -11.560  14.776  67.072  1.00  0.00    -0.339 C  
HETATM    2  O   UNL     1     -11.199  15.955  67.787  1.00  0.00    -0.326 OA 
ENDROOT
BRANCH   2   3
HETATM    3  C   UNL     1      -9.910  16.388  67.603  1.00  0.00    -0.243 A  
HETATM    4  C   UNL     1      -8.799  15.545  67.730  1.00  0.00    -0.173 A  
HETATM    5  C   UNL     1      -7.489  16.014  67.545  1.00  0.00    -0.160 A  
HETATM    6  C   UNL     1      -7.318  17.373  67.223  1.00  0.00    -0.170 A  
HETATM    7  C   UNL     1      -9.704  17.742  67.317  1.00  0.00    -0.285 A  
HETATM    8 CL   UNL     1      -5.737  18.020  66.950  1.00  0.00    -0.159 Cl 
HETATM    9  C   UNL     1      -8.414  18.233  67.114  1.00  0.00    -0.253 A  
HETATM   10 CL   UNL     1     -11.028  18.844  67.172  1.00  0.00    -0.408 Cl 
BRANCH   5  11
HETATM   11  N   UNL     1      -6.368  15.175  67.773  1.00  0.00    -0.155 NA 
HETATM   12  H   UNL     1      -5.663  15.171  67.036  1.00  0.00     0.000 HD 
BRANCH  11  13
HETATM   13  C   UNL     1      -6.093  14.341  68.889  1.00  0.00    -0.087 A  
HETATM   14  C   UNL     1      -5.731  16.293  70.407  1.00  0.00    -0.102 C  
HETATM   15  C   UNL     1      -5.856  14.893  70.165  1.00  0.00    -0.141 A  
HETATM   16  C   UNL     1      -5.721  14.031  71.236  1.00  0.00    -0.232 A  
HETATM   17  N   UNL     1      -5.821  12.690  71.146  1.00  0.00    -0.295 NA 
HETATM   18  N   UNL     1      -5.647  17.425  70.652  1.00  0.00    -0.175 NA 
HETATM   19  C   UNL     1      -6.049  12.155  69.941  1.00  0.00    -0.146 A  
HETATM   20  C   UNL     1      -6.182  10.779  69.880  1.00  0.00    -0.106 A  
HETATM   21  C   UNL     1      -6.462  10.110  68.685  1.00  0.00    -0.052 A  
HETATM   22  C   UNL     1      -6.177  12.923  68.763  1.00  0.00    -0.076 A  
HETATM   23  C   UNL     1      -6.562  10.846  67.504  1.00  0.00    -0.063 A  
HETATM   24  C   UNL     1      -6.402  12.237  67.546  1.00  0.00    -0.139 A  
BRANCH  21  25
HETATM   25  O   UNL     1      -6.548   8.746  68.629  1.00  0.00    -0.053 OA 
BRANCH  25  26
HETATM   26  C   UNL     1      -7.661   8.180  69.334  1.00  0.00    -0.103 C  
BRANCH  26  27
HETATM   27  C   UNL     1      -7.735   6.712  68.942  1.00  0.00    -0.109 C  
BRANCH  27  28
HETATM   28  C   UNL     1      -8.348   6.497  67.557  1.00  0.00    -0.121 C  
BRANCH  28  29
HETATM   29  N   UNL     1      -7.491   5.760  66.611  1.00  0.00    -0.083 NA 
HETATM   30  C   UNL     1      -7.215   4.370  67.036  1.00  0.00    -0.069 C  
HETATM   31  C   UNL     1      -8.442   3.429  66.974  1.00  0.00    -0.106 C  
HETATM   32  N   UNL     1      -9.106   3.381  65.657  1.00  0.00    -0.146 NA 
HETATM   33  C   UNL     1      -9.345   4.756  65.167  1.00  0.00    -0.127 C  
HETATM   34  C   UNL     1      -8.316   2.610  64.697  1.00  0.00    -0.087 C  
HETATM   35  C   UNL     1      -8.129   5.714  65.272  1.00  0.00    -0.125 C  
ENDBRANCH  28  29
ENDBRANCH  27  28
ENDBRANCH  26  27
ENDBRANCH  25  26
ENDBRANCH  21  25
BRANCH  23  36
HETATM   36  O   UNL     1      -6.770  10.340  66.248  1.00  0.00    -0.091 OA 
HETATM   37  C   UNL     1      -8.133  10.113  65.902  1.00  0.00    -0.136 C  
ENDBRANCH  23  36
ENDBRANCH  11  13
ENDBRANCH   5  11
ENDBRANCH   2   3
TORSDOF 9
ENDMDL
MODEL      188
REMARK 921   NORMALIZED FREE ENERGY PREDICTED BY IDOCK:   -3.76 KCAL/MOL
REMARK 922        TOTAL FREE ENERGY PREDICTED BY IDOCK:   -7.08 KCAL/MOL
REMARK 923 INTER-LIGAND FREE ENERGY PREDICTED BY IDOCK:   -6.36 KCAL/MOL
REMARK 924 INTRA-LIGAND FREE ENERGY PREDICTED BY IDOCK:   -0.72 KCAL/MOL
REMARK 927      BINDING AFFINITY PREDICTED BY RF-SCORE:    0.00 PKD
ROOT
HETATM    1  C   UNL     1      -6.408  15.304  69.911  1.00  0.00    -0.164 C  
HETATM    2  O   UNL     1      -6.890  16.437  69.193  1.00  0.00    -0.185 OA 
ENDROOT
BRANCH   2   3
HETATM    3  C   UNL     1      -7.790  16.166  68.193  1.00  0.00    -0.146 A  
HETATM    4  C   UNL     1      -8.632  15.048  68.211  1.00  0.00    -0.156 A  
HETATM    5  C   UNL     1      -9.540  14.788  67.172  1.00  0.00    -0.227 A  
HETATM    6  C   UNL     1      -9.582  15.694  66.097  1.00  0.00    -0.330 A  
HETATM    7  C   UNL     1      -7.831  17.028  67.092  1.00  0.00    -0.175 A  
HETATM    8 CL   UNL     1     -10.693  15.460  64.792  1.00  0.00    -0.405 Cl 
HETATM    9  C   UNL     1      -8.733  16.803  66.051  1.00  0.00    -0.218 A  
HETATM   10 CL   UNL     1      -6.800  18.413  66.993  1.00  0.00    -0.202 Cl 
BRANCH   5  11
HETATM   11  N   UNL     1     -10.317  13.601  67.153  1.00  0.00    -0.249 NA 
HETATM   12  H   UNL     1     -11.139  13.602  67.756  1.00  0.00     0.000 HD 
BRANCH  11  13
HETATM   13  C   UNL     1     -10.105  12.412  66.406  1.00  0.00    -0.236 A  
HETATM   14  C   UNL     1     -12.251  12.677  65.153  1.00  0.00    -0.481 C  
HETATM   15  C   UNL     1     -11.011  12.018  65.400  1.00  0.00    -0.347 A  
HETATM   16  C   UNL     1     -10.689  10.922  64.622  1.00  0.00    -0.184 A  
HETATM   17  N   UNL     1      -9.550  10.213  64.747  1.00  0.00    -0.294 NA 
HETATM   18  N   UNL     1     -13.257  13.200  64.902  1.00  0.00    -0.590 NA 
HETATM   19  C   UNL     1      -8.681  10.580  65.696  1.00  0.00    -0.180 A  
HETATM   20  C   UNL     1      -7.504   9.858  65.783  1.00  0.00    -0.110 A  
HETATM   21  C   UNL     1      -6.503  10.173  66.708  1.00  0.00    -0.071 A  
HETATM   22  C   UNL     1      -8.905  11.662  66.577  1.00  0.00    -0.188 A  
HETATM   23  C   UNL     1      -6.717  11.218  67.607  1.00  0.00    -0.073 A  
HETATM   24  C   UNL     1      -7.915  11.940  67.549  1.00  0.00    -0.155 A  
BRANCH  21  25
HETATM   25  O   UNL     1      -5.363   9.425  66.813  1.00  0.00    -0.040 OA 
BRANCH  25  26
HETATM   26  C   UNL     1      -5.329   8.525  67.928  1.00  0.00    -0.035 C  
BRANCH  26  27
HETATM   27  C   UNL     1      -6.545   7.618  67.804  1.00  0.00    -0.062 C  
BRANCH  27  28
HETATM   28  C   UNL     1      -6.196   6.225  67.277  1.00  0.00    -0.032 C  
BRANCH  28  29
HETATM   29  N   UNL     1      -7.350   5.330  67.088  1.00  0.00    -0.081 NA 
HETATM   30  C   UNL     1      -8.457   5.957  66.333  1.00  0.00    -0.120 C  
HETATM   31  C   UNL     1      -8.147   6.207  64.838  1.00  0.00    -0.132 C  
HETATM   32  N   UNL     1      -7.711   5.006  64.098  1.00  0.00    -0.078 NA 
HETATM   33  C   UNL     1      -6.644   4.314  64.851  1.00  0.00    -0.044 C  
HETATM   34  C   UNL     1      -8.838   4.111  63.837  1.00  0.00    -0.127 C  
HETATM   35  C   UNL     1      -6.934   4.105  66.361  1.00  0.00    -0.059 C  
ENDBRANCH  28  29
ENDBRANCH  27  28
ENDBRANCH  26  27
ENDBRANCH  25  26
ENDBRANCH  21  25
BRANCH  23  36
HETATM   36  O   UNL     1      -5.868  11.613  68.608  1.00  0.00    -0.046 OA 
HETATM   37  C   UNL     1      -6.350  11.403  69.931  1.00  0.00    -0.141 C  
ENDBRANCH  23  36
ENDBRANCH  11  13
ENDBRANCH   5  11
ENDBRANCH   2   3
TORSDOF 9
ENDMDL
MODEL      189
REMARK 921   NORMALIZED FREE ENERGY PREDICTED BY IDOCK:   -3.76 KCAL/MOL
REMARK 922        TOTAL FREE ENERGY PREDICTED BY IDOCK:   -7.08 KCAL/MOL
REMARK 923 INTER-LIGAND FREE ENERGY PREDICTED BY IDOCK:   -6.11 KCAL/MOL
REMARK 924 INTRA-LIGAND FREE ENERGY PREDICTED BY IDOCK:   -0.97 KCAL/MOL
REMARK 927      BINDING AFFINITY PREDICTED BY RF-SCORE:    0.00 PKD
ROOT
HETATM    1  C   UNL     1      -7.085   3.459  66.805  1.00  0.00    -0.055 C  
HETATM    2  O   UNL     1      -6.576   3.887  68.066  1.00  0.00    -0.040 OA 
ENDROOT
BRANCH   2   3
HETATM    3  C   UNL     1      -7.437   4.633  68.830  1.00  0.00    -0.060 A  
HETATM    4  C   UNL     1      -7.580   6.018  68.683  1.00  0.00    -0.091 A  
HETATM    5  C   UNL     1      -8.462   6.761  69.483  1.00  0.00    -0.133 A  
HETATM    6  C   UNL     1      -9.211   6.067  70.451  1.00  0.00    -0.156 A  
HETATM    7  C   UNL     1      -8.171   3.979  69.826  1.00  0.00    -0.054 A  
HETATM    8 CL   UNL     1     -10.342   6.907  71.456  1.00  0.00    -0.217 Cl 
HETATM    9  C   UNL     1      -9.066   4.689  70.627  1.00  0.00    -0.181 A  
HETATM   10 CL   UNL     1      -8.025   2.275  70.080  1.00  0.00    -0.050 Cl 
BRANCH   5  11
HETATM   11  N   UNL     1      -8.524   8.176  69.393  1.00  0.00    -0.126 NA 
HETATM   12  H   UNL     1      -8.426   8.679  70.274  1.00  0.00     0.000 HD 
BRANCH  11  13
HETATM   13  C   UNL     1      -8.706   8.986  68.241  1.00  0.00    -0.130 A  
HETATM   14  C   UNL     1     -10.560   7.551  67.379  1.00  0.00    -0.294 C  
HETATM   15  C   UNL     1      -9.734   8.711  67.317  1.00  0.00    -0.241 A  
HETATM   16  C   UNL     1      -9.943   9.606  66.284  1.00  0.00    -0.264 A  
HETATM   17  N   UNL     1      -9.238  10.741  66.112  1.00  0.00    -0.174 NA 
HETATM   18  N   UNL     1     -11.271   6.633  67.407  1.00  0.00    -0.310 NA 
HETATM   19  C   UNL     1      -8.261  11.014  66.985  1.00  0.00    -0.138 A  
HETATM   20  C   UNL     1      -7.574  12.202  66.808  1.00  0.00     0.052 A  
HETATM   21  C   UNL     1      -6.561  12.614  67.679  1.00  0.00    -0.143 A  
HETATM   22  C   UNL     1      -7.927  10.168  68.066  1.00  0.00    -0.101 A  
HETATM   23  C   UNL     1      -6.195  11.779  68.735  1.00  0.00    -0.057 A  
HETATM   24  C   UNL     1      -6.862  10.562  68.911  1.00  0.00    -0.063 A  
BRANCH  21  25
HETATM   25  O   UNL     1      -5.860  13.770  67.468  1.00  0.00    -0.328 OA 
BRANCH  25  26
HETATM   26  C   UNL     1      -6.663  14.950  67.332  1.00  0.00    -0.050 C  
BRANCH  26  27
HETATM   27  C   UNL     1      -6.481  15.761  68.606  1.00  0.00    -0.111 C  
BRANCH  27  28
HETATM   28  C   UNL     1      -6.409  17.266  68.347  1.00  0.00    -0.162 C  
BRANCH  28  29
HETATM   29  N   UNL     1      -7.496  18.051  68.958  1.00  0.00    -0.221 NA 
HETATM   30  C   UNL     1      -7.326  19.511  68.791  1.00  0.00    -0.358 C  
HETATM   31  C   UNL     1      -7.506  20.011  67.338  1.00  0.00    -0.279 C  
HETATM   32  N   UNL     1      -8.789  19.627  66.717  1.00  0.00    -0.325 NA 
HETATM   33  C   UNL     1      -9.027  18.181  66.915  1.00  0.00    -0.271 C  
HETATM   34  C   UNL     1      -9.893  20.422  67.254  1.00  0.00    -0.456 C  
HETATM   35  C   UNL     1      -8.801  17.669  68.362  1.00  0.00    -0.281 C  
ENDBRANCH  28  29
ENDBRANCH  27  28
ENDBRANCH  26  27
ENDBRANCH  25  26
ENDBRANCH  21  25
BRANCH  23  36
HETATM   36  O   UNL     1      -5.188  12.006  69.636  1.00  0.00    -0.065 OA 
HETATM   37  C   UNL     1      -5.570  12.724  70.806  1.00  0.00    -0.173 C  
ENDBRANCH  23  36
ENDBRANCH  11  13
ENDBRANCH   5  11
ENDBRANCH   2   3
TORSDOF 9
ENDMDL
MODEL      190
REMARK 921   NORMALIZED FREE ENERGY PREDICTED BY IDOCK:   -3.74 KCAL/MOL
REMARK 922        TOTAL FREE ENERGY PREDICTED BY IDOCK:   -7.05 KCAL/MOL
REMARK 923 INTER-LIGAND FREE ENERGY PREDICTED BY IDOCK:   -5.46 KCAL/MOL
REMARK 924 INTRA-LIGAND FREE ENERGY PREDICTED BY IDOCK:   -1.59 KCAL/MOL
REMARK 927      BINDING AFFINITY PREDICTED BY RF-SCORE:    0.00 PKD
ROOT
HETATM    1  C   UNL     1     -11.350  14.425  66.528  1.00  0.00    -0.350 C  
HETATM    2  O   UNL     1     -11.032  15.499  67.409  1.00  0.00    -0.310 OA 
ENDROOT
BRANCH   2   3
HETATM    3  C   UNL     1      -9.718  15.892  67.416  1.00  0.00    -0.227 A  
HETATM    4  C   UNL     1      -8.653  14.983  67.453  1.00  0.00    -0.208 A  
HETATM    5  C   UNL     1      -7.316  15.409  67.467  1.00  0.00    -0.195 A  
HETATM    6  C   UNL     1      -7.069  16.794  67.442  1.00  0.00    -0.156 A  
HETATM    7  C   UNL     1      -9.439  17.263  67.428  1.00  0.00    -0.245 A  
HETATM    8 CL   UNL     1      -5.448  17.399  67.428  1.00  0.00    -0.140 Cl 
HETATM    9  C   UNL     1      -8.119  17.716  67.428  1.00  0.00    -0.217 A  
HETATM   10 CL   UNL     1     -10.705  18.440  67.410  1.00  0.00    -0.435 Cl 
BRANCH   5  11
HETATM   11  N   UNL     1      -6.249  14.484  67.605  1.00  0.00    -0.305 NA 
HETATM   12  H   UNL     1      -5.492  14.580  66.929  1.00  0.00     0.000 HD 
BRANCH  11  13
HETATM   13  C   UNL     1      -6.093  13.442  68.557  1.00  0.00    -0.085 A  
HETATM   14  C   UNL     1      -5.407  15.032  70.358  1.00  0.00    -0.128 C  
HETATM   15  C   UNL     1      -5.754  13.729  69.895  1.00  0.00    -0.118 A  
HETATM   16  C   UNL     1      -5.740  12.688  70.805  1.00  0.00    -0.113 A  
HETATM   17  N   UNL     1      -6.051  11.413  70.500  1.00  0.00    -0.309 NA 
HETATM   18  N   UNL     1      -5.143  16.080  70.782  1.00  0.00    -0.182 NA 
HETATM   19  C   UNL     1      -6.378  11.129  69.234  1.00  0.00    -0.076 A  
HETATM   20  C   UNL     1      -6.725   9.820  68.953  1.00  0.00    -0.050 A  
HETATM   21  C   UNL     1      -7.124   9.412  67.677  1.00  0.00    -0.082 A  
HETATM   22  C   UNL     1      -6.400  12.095  68.204  1.00  0.00    -0.055 A  
HETATM   23  C   UNL     1      -7.124  10.343  66.638  1.00  0.00    -0.112 A  
HETATM   24  C   UNL     1      -6.748  11.666  66.901  1.00  0.00    -0.124 A  
BRANCH  21  25
HETATM   25  O   UNL     1      -7.424   8.106  67.402  1.00  0.00    -0.090 OA 
BRANCH  25  26
HETATM   26  C   UNL     1      -6.531   7.145  67.979  1.00  0.00    -0.048 C  
BRANCH  26  27
HETATM   27  C   UNL     1      -7.391   6.047  68.587  1.00  0.00    -0.085 C  
BRANCH  27  28
HETATM   28  C   UNL     1      -6.711   5.341  69.761  1.00  0.00    -0.051 C  
BRANCH  28  29
HETATM   29  N   UNL     1      -6.717   6.098  71.024  1.00  0.00    -0.059 NA 
HETATM   30  C   UNL     1      -8.050   6.638  71.374  1.00  0.00    -0.111 C  
HETATM   31  C   UNL     1      -9.086   5.562  71.777  1.00  0.00    -0.139 C  
HETATM   32  N   UNL     1      -8.650   4.676  72.873  1.00  0.00    -0.110 NA 
HETATM   33  C   UNL     1      -7.293   4.163  72.591  1.00  0.00    -0.072 C  
HETATM   34  C   UNL     1      -8.694   5.371  74.160  1.00  0.00    -0.119 C  
HETATM   35  C   UNL     1      -6.263   5.233  72.142  1.00  0.00    -0.031 C  
ENDBRANCH  28  29
ENDBRANCH  27  28
ENDBRANCH  26  27
ENDBRANCH  25  26
ENDBRANCH  21  25
BRANCH  23  36
HETATM   36  O   UNL     1      -7.428  10.093  65.325  1.00  0.00    -0.136 OA 
HETATM   37  C   UNL     1      -8.796  10.272  64.973  1.00  0.00    -0.187 C  
ENDBRANCH  23  36
ENDBRANCH  11  13
ENDBRANCH   5  11
ENDBRANCH   2   3
TORSDOF 9
ENDMDL
MODEL      191
REMARK 921   NORMALIZED FREE ENERGY PREDICTED BY IDOCK:   -3.71 KCAL/MOL
REMARK 922        TOTAL FREE ENERGY PREDICTED BY IDOCK:   -7.01 KCAL/MOL
REMARK 923 INTER-LIGAND FREE ENERGY PREDICTED BY IDOCK:   -5.94 KCAL/MOL
REMARK 924 INTRA-LIGAND FREE ENERGY PREDICTED BY IDOCK:   -1.08 KCAL/MOL
REMARK 927      BINDING AFFINITY PREDICTED BY RF-SCORE:    0.00 PKD
ROOT
HETATM    1  C   UNL     1     -11.099   4.710  65.018  1.00  0.00     0.186 C  
HETATM    2  O   UNL     1      -9.911   3.973  65.297  1.00  0.00    -0.194 OA 
ENDROOT
BRANCH   2   3
HETATM    3  C   UNL     1      -9.241   4.338  66.437  1.00  0.00    -0.147 A  
HETATM    4  C   UNL     1      -9.346   5.613  67.006  1.00  0.00    -0.119 A  
HETATM    5  C   UNL     1      -8.643   5.964  68.169  1.00  0.00    -0.113 A  
HETATM    6  C   UNL     1      -7.819   4.987  68.758  1.00  0.00    -0.078 A  
HETATM    7  C   UNL     1      -8.385   3.400  67.027  1.00  0.00    -0.096 A  
HETATM    8 CL   UNL     1      -6.944   5.334  70.209  1.00  0.00    -0.054 Cl 
HETATM    9  C   UNL     1      -7.685   3.717  68.191  1.00  0.00    -0.065 A  
HETATM   10 CL   UNL     1      -8.188   1.817  66.362  1.00  0.00    -0.080 Cl 
BRANCH   5  11
HETATM   11  N   UNL     1      -8.680   7.287  68.680  1.00  0.00    -0.128 NA 
HETATM   12  H   UNL     1      -8.937   7.374  69.663  1.00  0.00     0.000 HD 
BRANCH  11  13
HETATM   13  C   UNL     1      -8.406   8.508  68.008  1.00  0.00    -0.127 A  
HETATM   14  C   UNL     1      -6.299   7.618  67.002  1.00  0.00    -0.054 C  
HETATM   15  C   UNL     1      -7.294   8.629  67.150  1.00  0.00    -0.088 A  
HETATM   16  C   UNL     1      -7.149   9.797  66.426  1.00  0.00    -0.094 A  
HETATM   17  N   UNL     1      -8.017  10.827  66.470  1.00  0.00    -0.138 NA 
HETATM   18  N   UNL     1      -5.481   6.811  66.833  1.00  0.00    -0.016 NA 
HETATM   19  C   UNL     1      -9.079  10.722  67.278  1.00  0.00    -0.144 A  
HETATM   20  C   UNL     1      -9.973  11.778  67.280  1.00  0.00    -0.208 A  
HETATM   21  C   UNL     1     -11.138  11.765  68.051  1.00  0.00    -0.242 A  
HETATM   22  C   UNL     1      -9.325   9.595  68.092  1.00  0.00    -0.140 A  
HETATM   23  C   UNL     1     -11.387  10.675  68.886  1.00  0.00    -0.274 A  
HETATM   24  C   UNL     1     -10.476   9.612  68.915  1.00  0.00    -0.234 A  
BRANCH  21  25
HETATM   25  O   UNL     1     -11.993  12.833  68.078  1.00  0.00    -0.346 OA 
BRANCH  25  26
HETATM   26  C   UNL     1     -11.868  13.681  69.227  1.00  0.00    -0.346 C  
BRANCH  26  27
HETATM   27  C   UNL     1     -11.964  15.117  68.733  1.00  0.00    -0.280 C  
BRANCH  27  28
HETATM   28  C   UNL     1     -10.658  15.893  68.906  1.00  0.00    -0.244 C  
BRANCH  28  29
HETATM   29  N   UNL     1      -9.815  15.958  67.700  1.00  0.00    -0.232 NA 
HETATM   30  C   UNL     1      -9.455  17.341  67.314  1.00  0.00    -0.250 C  
HETATM   31  C   UNL     1      -8.474  18.039  68.286  1.00  0.00    -0.287 C  
HETATM   32  N   UNL     1      -7.224  17.293  68.529  1.00  0.00    -0.213 NA 
HETATM   33  C   UNL     1      -7.537  15.886  68.859  1.00  0.00    -0.190 C  
HETATM   34  C   UNL     1      -6.329  17.377  67.376  1.00  0.00    -0.143 C  
HETATM   35  C   UNL     1      -8.557  15.199  67.912  1.00  0.00    -0.153 C  
ENDBRANCH  28  29
ENDBRANCH  27  28
ENDBRANCH  26  27
ENDBRANCH  25  26
ENDBRANCH  21  25
BRANCH  23  36
HETATM   36  O   UNL     1     -12.445  10.536  69.745  1.00  0.00    -0.235 OA 
HETATM   37  C   UNL     1     -12.103  10.480  71.127  1.00  0.00    -0.370 C  
ENDBRANCH  23  36
ENDBRANCH  11  13
ENDBRANCH   5  11
ENDBRANCH   2   3
TORSDOF 9
ENDMDL
MODEL      192
REMARK 921   NORMALIZED FREE ENERGY PREDICTED BY IDOCK:   -3.67 KCAL/MOL
REMARK 922        TOTAL FREE ENERGY PREDICTED BY IDOCK:   -6.95 KCAL/MOL
REMARK 923 INTER-LIGAND FREE ENERGY PREDICTED BY IDOCK:   -5.49 KCAL/MOL
REMARK 924 INTRA-LIGAND FREE ENERGY PREDICTED BY IDOCK:   -1.45 KCAL/MOL
REMARK 927      BINDING AFFINITY PREDICTED BY RF-SCORE:    0.00 PKD
ROOT
HETATM    1  C   UNL     1     -11.659  15.441  69.098  1.00  0.00    -0.339 C  
HETATM    2  O   UNL     1     -11.349  16.095  67.871  1.00  0.00    -0.294 OA 
ENDROOT
BRANCH   2   3
HETATM    3  C   UNL     1     -10.028  16.416  67.688  1.00  0.00    -0.252 A  
HETATM    4  C   UNL     1      -9.012  15.454  67.631  1.00  0.00    -0.185 A  
HETATM    5  C   UNL     1      -7.666  15.808  67.451  1.00  0.00    -0.183 A  
HETATM    6  C   UNL     1      -7.359  17.176  67.326  1.00  0.00    -0.155 A  
HETATM    7  C   UNL     1      -9.684  17.770  67.596  1.00  0.00    -0.282 A  
HETATM    8 CL   UNL     1      -5.727  17.691  67.072  1.00  0.00    -0.160 Cl 
HETATM    9  C   UNL     1      -8.356  18.151  67.403  1.00  0.00    -0.239 A  
HETATM   10 CL   UNL     1     -10.885  19.011  67.685  1.00  0.00    -0.486 Cl 
BRANCH   5  11
HETATM   11  N   UNL     1      -6.636  14.834  67.495  1.00  0.00    -0.275 NA 
HETATM   12  H   UNL     1      -5.943  14.891  66.749  1.00  0.00     0.000 HD 
BRANCH  11  13
HETATM   13  C   UNL     1      -6.439  13.789  68.436  1.00  0.00    -0.099 A  
HETATM   14  C   UNL     1      -5.641  15.370  70.199  1.00  0.00    -0.136 C  
HETATM   15  C   UNL     1      -6.025  14.071  69.754  1.00  0.00    -0.122 A  
HETATM   16  C   UNL     1      -5.972  13.030  70.661  1.00  0.00    -0.044 A  
HETATM   17  N   UNL     1      -6.312  11.758  70.373  1.00  0.00    -0.198 NA 
HETATM   18  N   UNL     1      -5.345  16.416  70.609  1.00  0.00    -0.180 NA 
HETATM   19  C   UNL     1      -6.709  11.479  69.126  1.00  0.00    -0.108 A  
HETATM   20  C   UNL     1      -7.084  10.173  68.864  1.00  0.00    -0.069 A  
HETATM   21  C   UNL     1      -7.555   9.770  67.611  1.00  0.00    -0.091 A  
HETATM   22  C   UNL     1      -6.777  12.446  68.099  1.00  0.00    -0.075 A  
HETATM   23  C   UNL     1      -7.602  10.703  66.574  1.00  0.00    -0.134 A  
HETATM   24  C   UNL     1      -7.199  12.021  66.817  1.00  0.00     0.036 A  
BRANCH  21  25
HETATM   25  O   UNL     1      -7.882   8.468  67.351  1.00  0.00    -0.097 OA 
BRANCH  25  26
HETATM   26  C   UNL     1      -9.201   8.081  67.761  1.00  0.00    -0.134 C  
BRANCH  26  27
HETATM   27  C   UNL     1      -9.038   7.013  68.833  1.00  0.00    -0.134 C  
BRANCH  27  28
HETATM   28  C   UNL     1      -8.914   5.604  68.253  1.00  0.00    -0.114 C  
BRANCH  28  29
HETATM   29  N   UNL     1      -9.840   4.615  68.832  1.00  0.00    -0.164 NA 
HETATM   30  C   UNL     1      -9.655   3.253  68.286  1.00  0.00    -0.075 C  
HETATM   31  C   UNL     1      -8.335   2.569  68.714  1.00  0.00    -0.063 C  
HETATM   32  N   UNL     1      -8.126   2.508  70.174  1.00  0.00    -0.042 NA 
HETATM   33  C   UNL     1      -8.363   3.841  70.769  1.00  0.00    -0.069 C  
HETATM   34  C   UNL     1      -8.987   1.497  70.786  1.00  0.00    -0.069 C  
HETATM   35  C   UNL     1      -9.664   4.548  70.304  1.00  0.00    -0.217 C  
ENDBRANCH  28  29
ENDBRANCH  27  28
ENDBRANCH  26  27
ENDBRANCH  25  26
ENDBRANCH  21  25
BRANCH  23  36
HETATM   36  O   UNL     1      -7.979  10.457  65.279  1.00  0.00    -0.150 OA 
HETATM   37  C   UNL     1      -9.138  11.158  64.840  1.00  0.00    -0.095 C  
ENDBRANCH  23  36
ENDBRANCH  11  13
ENDBRANCH   5  11
ENDBRANCH   2   3
TORSDOF 9
ENDMDL
MODEL      193
REMARK 921   NORMALIZED FREE ENERGY PREDICTED BY IDOCK:   -3.67 KCAL/MOL
REMARK 922        TOTAL FREE ENERGY PREDICTED BY IDOCK:   -6.94 KCAL/MOL
REMARK 923 INTER-LIGAND FREE ENERGY PREDICTED BY IDOCK:   -6.57 KCAL/MOL
REMARK 924 INTRA-LIGAND FREE ENERGY PREDICTED BY IDOCK:   -0.37 KCAL/MOL
REMARK 927      BINDING AFFINITY PREDICTED BY RF-SCORE:    0.00 PKD
ROOT
HETATM    1  C   UNL     1      -9.413   4.967  66.268  1.00  0.00    -0.158 C  
HETATM    2  O   UNL     1      -8.609   6.017  66.799  1.00  0.00    -0.109 OA 
ENDROOT
BRANCH   2   3
HETATM    3  C   UNL     1      -9.251   7.214  66.993  1.00  0.00    -0.144 A  
HETATM    4  C   UNL     1      -9.060   8.323  66.160  1.00  0.00    -0.238 A  
HETATM    5  C   UNL     1      -9.722   9.540  66.384  1.00  0.00    -0.232 A  
HETATM    6  C   UNL     1     -10.596   9.618  67.484  1.00  0.00    -0.277 A  
HETATM    7  C   UNL     1     -10.100   7.336  68.099  1.00  0.00    -0.173 A  
HETATM    8 CL   UNL     1     -11.472  11.074  67.810  1.00  0.00    -0.364 Cl 
HETATM    9  C   UNL     1     -10.782   8.529  68.339  1.00  0.00    -0.084 A  
HETATM   10 CL   UNL     1     -10.360   6.015  69.184  1.00  0.00    -0.258 Cl 
BRANCH   5  11
HETATM   11  N   UNL     1      -9.446  10.686  65.594  1.00  0.00    -0.199 NA 
HETATM   12  H   UNL     1      -9.268  10.507  64.606  1.00  0.00     0.000 HD 
BRANCH  11  13
HETATM   13  C   UNL     1      -9.383  12.047  65.992  1.00  0.00    -0.190 A  
HETATM   14  C   UNL     1     -10.995  12.761  64.221  1.00  0.00    -0.379 C  
HETATM   15  C   UNL     1     -10.187  13.022  65.366  1.00  0.00    -0.301 A  
HETATM   16  C   UNL     1     -10.177  14.306  65.878  1.00  0.00    -0.324 A  
HETATM   17  N   UNL     1      -9.463  14.685  66.956  1.00  0.00    -0.231 NA 
HETATM   18  N   UNL     1     -11.687  12.585  63.305  1.00  0.00    -0.457 NA 
HETATM   19  C   UNL     1      -8.699  13.767  67.561  1.00  0.00    -0.194 A  
HETATM   20  C   UNL     1      -8.001  14.172  68.685  1.00  0.00    -0.132 A  
HETATM   21  C   UNL     1      -7.203  13.294  69.423  1.00  0.00     0.230 A  
HETATM   22  C   UNL     1      -8.597  12.430  67.118  1.00  0.00    -0.189 A  
HETATM   23  C   UNL     1      -7.065  11.976  68.987  1.00  0.00    -0.077 A  
HETATM   24  C   UNL     1      -7.742  11.559  67.835  1.00  0.00    -0.120 A  
BRANCH  21  25
HETATM   25  O   UNL     1      -6.485  13.716  70.507  1.00  0.00    -0.001 OA 
BRANCH  25  26
HETATM   26  C   UNL     1      -5.209  14.293  70.201  1.00  0.00    -0.092 C  
BRANCH  26  27
HETATM   27  C   UNL     1      -5.222  15.715  70.743  1.00  0.00    -0.160 C  
BRANCH  27  28
HETATM   28  C   UNL     1      -5.136  16.771  69.640  1.00  0.00    -0.146 C  
BRANCH  28  29
HETATM   29  N   UNL     1      -6.380  16.968  68.876  1.00  0.00    -0.172 NA 
HETATM   30  C   UNL     1      -6.960  18.319  69.044  1.00  0.00    -0.255 C  
HETATM   31  C   UNL     1      -6.136  19.452  68.387  1.00  0.00    -0.228 C  
HETATM   32  N   UNL     1      -5.859  19.249  66.951  1.00  0.00    -0.167 NA 
HETATM   33  C   UNL     1      -5.334  17.885  66.731  1.00  0.00    -0.148 C  
HETATM   34  C   UNL     1      -7.056  19.490  66.145  1.00  0.00    -0.259 C  
HETATM   35  C   UNL     1      -6.132  16.752  67.429  1.00  0.00    -0.160 C  
ENDBRANCH  28  29
ENDBRANCH  27  28
ENDBRANCH  26  27
ENDBRANCH  25  26
ENDBRANCH  21  25
BRANCH  23  36
HETATM   36  O   UNL     1      -6.277  11.011  69.558  1.00  0.00    -0.063 OA 
HETATM   37  C   UNL     1      -6.974   9.871  70.051  1.00  0.00    -0.119 C  
ENDBRANCH  23  36
ENDBRANCH  11  13
ENDBRANCH   5  11
ENDBRANCH   2   3
TORSDOF 9
ENDMDL
MODEL      194
REMARK 921   NORMALIZED FREE ENERGY PREDICTED BY IDOCK:   -3.67 KCAL/MOL
REMARK 922        TOTAL FREE ENERGY PREDICTED BY IDOCK:   -6.94 KCAL/MOL
REMARK 923 INTER-LIGAND FREE ENERGY PREDICTED BY IDOCK:   -5.39 KCAL/MOL
REMARK 924 INTRA-LIGAND FREE ENERGY PREDICTED BY IDOCK:   -1.55 KCAL/MOL
REMARK 927      BINDING AFFINITY PREDICTED BY RF-SCORE:    0.00 PKD
ROOT
HETATM    1  C   UNL     1     -11.609  15.664  64.018  1.00  0.00     0.089 C  
HETATM    2  O   UNL     1     -11.199  16.980  64.379  1.00  0.00    -1.167 OA 
ENDROOT
BRANCH   2   3
HETATM    3  C   UNL     1     -10.455  17.075  65.528  1.00  0.00    -0.166 A  
HETATM    4  C   UNL     1      -9.981  15.955  66.222  1.00  0.00    -0.318 A  
HETATM    5  C   UNL     1      -9.228  16.078  67.400  1.00  0.00    -0.208 A  
HETATM    6  C   UNL     1      -8.959  17.376  67.874  1.00  0.00    -0.251 A  
HETATM    7  C   UNL     1     -10.200  18.351  66.045  1.00  0.00    -0.336 A  
HETATM    8 CL   UNL     1      -8.013  17.611  69.303  1.00  0.00     0.057 Cl 
HETATM    9  C   UNL     1      -9.443  18.504  67.207  1.00  0.00    -0.296 A  
HETATM   10 CL   UNL     1     -10.778  19.775  65.254  1.00  0.00    -0.247 Cl 
BRANCH   5  11
HETATM   11  N   UNL     1      -8.838  14.937  68.148  1.00  0.00    -0.169 NA 
HETATM   12  H   UNL     1      -9.018  14.983  69.150  1.00  0.00     0.000 HD 
BRANCH  11  13
HETATM   13  C   UNL     1      -8.231  13.738  67.688  1.00  0.00    -0.177 A  
HETATM   14  C   UNL     1      -6.016  14.848  67.359  1.00  0.00     0.223 C  
HETATM   15  C   UNL     1      -6.856  13.696  67.379  1.00  0.00    -0.051 A  
HETATM   16  C   UNL     1      -6.295  12.474  67.058  1.00  0.00     0.095 A  
HETATM   17  N   UNL     1      -6.973  11.310  67.043  1.00  0.00    -0.117 NA 
HETATM   18  N   UNL     1      -5.292  15.756  67.357  1.00  0.00    -0.325 NA 
HETATM   19  C   UNL     1      -8.278  11.338  67.339  1.00  0.00    -0.135 A  
HETATM   20  C   UNL     1      -8.946  10.125  67.349  1.00  0.00    -0.142 A  
HETATM   21  C   UNL     1     -10.299  10.023  67.682  1.00  0.00    -0.224 A  
HETATM   22  C   UNL     1      -8.977  12.524  67.653  1.00  0.00    -0.185 A  
HETATM   23  C   UNL     1     -11.016  11.186  67.966  1.00  0.00    -0.252 A  
HETATM   24  C   UNL     1     -10.361  12.423  67.933  1.00  0.00    -0.215 A  
BRANCH  21  25
HETATM   25  O   UNL     1     -10.958   8.825  67.647  1.00  0.00    -0.109 OA 
BRANCH  25  26
HETATM   26  C   UNL     1     -10.156   7.703  67.258  1.00  0.00    -0.237 C  
BRANCH  26  27
HETATM   27  C   UNL     1     -10.651   6.505  68.054  1.00  0.00    -0.310 C  
BRANCH  27  28
HETATM   28  C   UNL     1      -9.514   5.693  68.675  1.00  0.00    -0.126 C  
BRANCH  28  29
HETATM   29  N   UNL     1      -8.431   6.499  69.266  1.00  0.00    -0.126 NA 
HETATM   30  C   UNL     1      -8.473   6.537  70.744  1.00  0.00    -0.134 C  
HETATM   31  C   UNL     1      -8.120   5.194  71.426  1.00  0.00    -0.114 C  
HETATM   32  N   UNL     1      -6.819   4.628  71.020  1.00  0.00    -0.035 NA 
HETATM   33  C   UNL     1      -6.712   4.629  69.545  1.00  0.00    -0.044 C  
HETATM   34  C   UNL     1      -5.712   5.364  71.629  1.00  0.00    -0.020 C  
HETATM   35  C   UNL     1      -7.110   5.961  68.857  1.00  0.00    -0.073 C  
ENDBRANCH  28  29
ENDBRANCH  27  28
ENDBRANCH  26  27
ENDBRANCH  25  26
ENDBRANCH  21  25
BRANCH  23  36
HETATM   36  O   UNL     1     -12.355  11.264  68.250  1.00  0.00    -0.542 OA 
HETATM   37  C   UNL     1     -12.732  12.337  69.108  1.00  0.00     0.996 C  
ENDBRANCH  23  36
ENDBRANCH  11  13
ENDBRANCH   5  11
ENDBRANCH   2   3
TORSDOF 9
ENDMDL
MODEL      195
REMARK 921   NORMALIZED FREE ENERGY PREDICTED BY IDOCK:   -3.65 KCAL/MOL
REMARK 922        TOTAL FREE ENERGY PREDICTED BY IDOCK:   -6.91 KCAL/MOL
REMARK 923 INTER-LIGAND FREE ENERGY PREDICTED BY IDOCK:   -6.27 KCAL/MOL
REMARK 924 INTRA-LIGAND FREE ENERGY PREDICTED BY IDOCK:   -0.64 KCAL/MOL
REMARK 927      BINDING AFFINITY PREDICTED BY RF-SCORE:    0.00 PKD
ROOT
HETATM    1  C   UNL     1      -5.494   3.004  69.922  1.00  0.00    -0.016 C  
HETATM    2  O   UNL     1      -6.842   3.140  70.363  1.00  0.00    -0.033 OA 
ENDROOT
BRANCH   2   3
HETATM    3  C   UNL     1      -7.232   4.413  70.697  1.00  0.00    -0.045 A  
HETATM    4  C   UNL     1      -7.282   5.461  69.769  1.00  0.00    -0.064 A  
HETATM    5  C   UNL     1      -7.676   6.757  70.136  1.00  0.00    -0.101 A  
HETATM    6  C   UNL     1      -8.025   6.979  71.481  1.00  0.00    -0.103 A  
HETATM    7  C   UNL     1      -7.551   4.676  72.034  1.00  0.00    -0.089 A  
HETATM    8 CL   UNL     1      -8.550   8.542  72.006  1.00  0.00    -0.252 Cl 
HETATM    9  C   UNL     1      -7.960   5.951  72.425  1.00  0.00    -0.103 A  
HETATM   10 CL   UNL     1      -7.485   3.436  73.236  1.00  0.00    -0.055 Cl 
BRANCH   5  11
HETATM   11  N   UNL     1      -7.627   7.831  69.211  1.00  0.00    -0.096 NA 
HETATM   12  H   UNL     1      -6.709   8.032  68.816  1.00  0.00     0.000 HD 
BRANCH  11  13
HETATM   13  C   UNL     1      -8.684   8.665  68.760  1.00  0.00    -0.135 A  
HETATM   14  C   UNL     1     -10.280   6.750  68.592  1.00  0.00    -0.175 C  
HETATM   15  C   UNL     1      -9.973   8.141  68.533  1.00  0.00    -0.204 A  
HETATM   16  C   UNL     1     -10.992   9.021  68.218  1.00  0.00     0.082 A  
HETATM   17  N   UNL     1     -10.838  10.357  68.133  1.00  0.00    -0.243 NA 
HETATM   18  N   UNL     1     -10.579   5.630  68.656  1.00  0.00    -0.215 NA 
HETATM   19  C   UNL     1      -9.620  10.866  68.351  1.00  0.00    -0.177 A  
HETATM   20  C   UNL     1      -9.495  12.243  68.291  1.00  0.00    -0.209 A  
HETATM   21  C   UNL     1      -8.282  12.892  68.540  1.00  0.00    -0.065 A  
HETATM   22  C   UNL     1      -8.490  10.073  68.650  1.00  0.00    -0.118 A  
HETATM   23  C   UNL     1      -7.147  12.127  68.808  1.00  0.00    -0.110 A  
HETATM   24  C   UNL     1      -7.252  10.732  68.844  1.00  0.00    -0.088 A  
BRANCH  21  25
HETATM   25  O   UNL     1      -8.161  14.251  68.436  1.00  0.00    -0.133 OA 
BRANCH  25  26
HETATM   26  C   UNL     1      -7.700  14.723  67.164  1.00  0.00    -0.116 C  
BRANCH  26  27
HETATM   27  C   UNL     1      -8.774  15.653  66.618  1.00  0.00    -0.333 C  
BRANCH  27  28
HETATM   28  C   UNL     1     -10.110  14.946  66.387  1.00  0.00    -0.284 C  
BRANCH  28  29
HETATM   29  N   UNL     1     -10.405  14.628  64.979  1.00  0.00    -0.414 NA 
HETATM   30  C   UNL     1     -10.229  13.195  64.656  1.00  0.00    -0.306 C  
HETATM   31  C   UNL     1     -11.283  12.263  65.300  1.00  0.00    -0.328 C  
HETATM   32  N   UNL     1     -12.681  12.629  65.003  1.00  0.00    -0.771 NA 
HETATM   33  C   UNL     1     -12.884  14.072  65.255  1.00  0.00    -0.384 C  
HETATM   34  C   UNL     1     -13.037  12.279  63.628  1.00  0.00     0.006 C  
HETATM   35  C   UNL     1     -11.802  15.005  64.650  1.00  0.00    -0.375 C  
ENDBRANCH  28  29
ENDBRANCH  27  28
ENDBRANCH  26  27
ENDBRANCH  25  26
ENDBRANCH  21  25
BRANCH  23  36
HETATM   36  O   UNL     1      -5.878  12.603  69.013  1.00  0.00    -0.068 OA 
HETATM   37  C   UNL     1      -5.469  12.677  70.375  1.00  0.00    -0.154 C  
ENDBRANCH  23  36
ENDBRANCH  11  13
ENDBRANCH   5  11
ENDBRANCH   2   3
TORSDOF 9
ENDMDL
MODEL      196
REMARK 921   NORMALIZED FREE ENERGY PREDICTED BY IDOCK:   -3.61 KCAL/MOL
REMARK 922        TOTAL FREE ENERGY PREDICTED BY IDOCK:   -6.86 KCAL/MOL
REMARK 923 INTER-LIGAND FREE ENERGY PREDICTED BY IDOCK:   -6.37 KCAL/MOL
REMARK 924 INTRA-LIGAND FREE ENERGY PREDICTED BY IDOCK:   -0.48 KCAL/MOL
REMARK 927      BINDING AFFINITY PREDICTED BY RF-SCORE:    0.00 PKD
ROOT
HETATM    1  C   UNL     1      -5.740   5.499  70.099  1.00  0.00    -0.020 C  
HETATM    2  O   UNL     1      -6.947   5.099  69.454  1.00  0.00    -0.052 OA 
ENDROOT
BRANCH   2   3
HETATM    3  C   UNL     1      -7.150   5.618  68.200  1.00  0.00    -0.071 A  
HETATM    4  C   UNL     1      -7.473   6.961  67.976  1.00  0.00    -0.099 A  
HETATM    5  C   UNL     1      -7.684   7.466  66.683  1.00  0.00    -0.101 A  
HETATM    6  C   UNL     1      -7.559   6.573  65.602  1.00  0.00    -0.086 A  
HETATM    7  C   UNL     1      -7.068   4.748  67.106  1.00  0.00    -0.072 A  
HETATM    8 CL   UNL     1      -7.774   7.125  63.977  1.00  0.00    -0.119 Cl 
HETATM    9  C   UNL     1      -7.259   5.225  65.809  1.00  0.00    -0.069 A  
HETATM   10 CL   UNL     1      -6.699   3.072  67.314  1.00  0.00    -0.044 Cl 
BRANCH   5  11
HETATM   11  N   UNL     1      -8.108   8.804  66.475  1.00  0.00    -0.102 NA 
HETATM   12  H   UNL     1      -7.627   9.308  65.731  1.00  0.00     0.000 HD 
BRANCH  11  13
HETATM   13  C   UNL     1      -9.112   9.536  67.162  1.00  0.00    -0.134 A  
HETATM   14  C   UNL     1     -10.672   7.585  67.202  1.00  0.00    -0.309 C  
HETATM   15  C   UNL     1     -10.312   8.915  67.566  1.00  0.00    -0.328 A  
HETATM   16  C   UNL     1     -11.196   9.642  68.340  1.00  0.00     0.055 A  
HETATM   17  N   UNL     1     -10.977  10.905  68.757  1.00  0.00    -0.217 NA 
HETATM   18  N   UNL     1     -10.992   6.497  66.951  1.00  0.00    -0.384 NA 
HETATM   19  C   UNL     1      -9.839  11.503  68.383  1.00  0.00    -0.204 A  
HETATM   20  C   UNL     1      -9.622  12.787  68.850  1.00  0.00     0.220 A  
HETATM   21  C   UNL     1      -8.453  13.497  68.560  1.00  0.00    -0.092 A  
HETATM   22  C   UNL     1      -8.868  10.881  67.567  1.00  0.00    -0.133 A  
HETATM   23  C   UNL     1      -7.494  12.914  67.732  1.00  0.00    -0.136 A  
HETATM   24  C   UNL     1      -7.713  11.626  67.229  1.00  0.00    -0.154 A  
BRANCH  21  25
HETATM   25  O   UNL     1      -8.268  14.781  68.993  1.00  0.00    -0.157 OA 
BRANCH  25  26
HETATM   26  C   UNL     1      -9.459  15.577  69.055  1.00  0.00    -0.242 C  
BRANCH  26  27
HETATM   27  C   UNL     1      -9.935  15.779  67.624  1.00  0.00    -0.239 C  
BRANCH  27  28
HETATM   28  C   UNL     1     -11.126  14.891  67.263  1.00  0.00    -0.336 C  
BRANCH  28  29
HETATM   29  N   UNL     1     -11.535  14.951  65.849  1.00  0.00    -0.318 NA 
HETATM   30  C   UNL     1     -10.436  14.638  64.910  1.00  0.00    -0.387 C  
HETATM   31  C   UNL     1      -9.986  13.158  64.928  1.00  0.00    -0.130 C  
HETATM   32  N   UNL     1     -11.074  12.188  64.697  1.00  0.00    -0.306 NA 
HETATM   33  C   UNL     1     -12.221  12.504  65.576  1.00  0.00    -0.377 C  
HETATM   34  C   UNL     1     -11.476  12.173  63.291  1.00  0.00    -0.325 C  
HETATM   35  C   UNL     1     -12.643  13.997  65.595  1.00  0.00    -0.512 C  
ENDBRANCH  28  29
ENDBRANCH  27  28
ENDBRANCH  26  27
ENDBRANCH  25  26
ENDBRANCH  21  25
BRANCH  23  36
HETATM   36  O   UNL     1      -6.329  13.496  67.305  1.00  0.00    -0.294 OA 
HETATM   37  C   UNL     1      -5.170  13.163  68.063  1.00  0.00    -0.104 C  
ENDBRANCH  23  36
ENDBRANCH  11  13
ENDBRANCH   5  11
ENDBRANCH   2   3
TORSDOF 9
ENDMDL
MODEL      197
REMARK 921   NORMALIZED FREE ENERGY PREDICTED BY IDOCK:   -3.59 KCAL/MOL
REMARK 922        TOTAL FREE ENERGY PREDICTED BY IDOCK:   -6.82 KCAL/MOL
REMARK 923 INTER-LIGAND FREE ENERGY PREDICTED BY IDOCK:   -6.00 KCAL/MOL
REMARK 924 INTRA-LIGAND FREE ENERGY PREDICTED BY IDOCK:   -0.82 KCAL/MOL
REMARK 927      BINDING AFFINITY PREDICTED BY RF-SCORE:    0.00 PKD
ROOT
HETATM    1  C   UNL     1     -11.133   4.295  64.656  1.00  0.00     0.113 C  
HETATM    2  O   UNL     1      -9.973   3.484  64.491  1.00  0.00    -0.171 OA 
ENDROOT
BRANCH   2   3
HETATM    3  C   UNL     1      -9.081   3.506  65.534  1.00  0.00    -0.147 A  
HETATM    4  C   UNL     1      -9.237   4.335  66.651  1.00  0.00    -0.152 A  
HETATM    5  C   UNL     1      -8.307   4.345  67.701  1.00  0.00    -0.099 A  
HETATM    6  C   UNL     1      -7.197   3.486  67.602  1.00  0.00    -0.058 A  
HETATM    7  C   UNL     1      -7.948   2.689  65.449  1.00  0.00    -0.079 A  
HETATM    8 CL   UNL     1      -6.021   3.419  68.869  1.00  0.00    -0.023 Cl 
HETATM    9  C   UNL     1      -7.013   2.668  66.485  1.00  0.00    -0.049 A  
HETATM   10 CL   UNL     1      -7.679   1.660  64.086  1.00  0.00    -0.059 Cl 
BRANCH   5  11
HETATM   11  N   UNL     1      -8.422   5.261  68.779  1.00  0.00    -0.092 NA 
HETATM   12  H   UNL     1      -8.497   4.843  69.706  1.00  0.00     0.000 HD 
BRANCH  11  13
HETATM   13  C   UNL     1      -8.448   6.680  68.742  1.00  0.00    -0.123 A  
HETATM   14  C   UNL     1      -6.461   6.793  67.231  1.00  0.00    -0.049 C  
HETATM   15  C   UNL     1      -7.541   7.400  67.938  1.00  0.00    -0.114 A  
HETATM   16  C   UNL     1      -7.694   8.770  67.843  1.00  0.00    -0.102 A  
HETATM   17  N   UNL     1      -8.672   9.466  68.456  1.00  0.00    -0.127 NA 
HETATM   18  N   UNL     1      -5.586   6.337  66.620  1.00  0.00    -0.013 NA 
HETATM   19  C   UNL     1      -9.542   8.793  69.218  1.00  0.00    -0.162 A  
HETATM   20  C   UNL     1     -10.557   9.525  69.809  1.00  0.00    -0.257 A  
HETATM   21  C   UNL     1     -11.547   8.926  70.594  1.00  0.00    -0.215 A  
HETATM   22  C   UNL     1      -9.476   7.397  69.422  1.00  0.00    -0.155 A  
HETATM   23  C   UNL     1     -11.484   7.553  70.832  1.00  0.00    -0.281 A  
HETATM   24  C   UNL     1     -10.447   6.804  70.264  1.00  0.00    -0.238 A  
BRANCH  21  25
HETATM   25  O   UNL     1     -12.520   9.666  71.208  1.00  0.00    -0.316 OA 
BRANCH  25  26
HETATM   26  C   UNL     1     -12.096  10.949  71.685  1.00  0.00     0.143 C  
BRANCH  26  27
HETATM   27  C   UNL     1     -13.351  11.786  71.886  1.00  0.00    -0.401 C  
BRANCH  27  28
HETATM   28  C   UNL     1     -13.043  13.248  72.212  1.00  0.00    -0.371 C  
BRANCH  28  29
HETATM   29  N   UNL     1     -13.268  14.189  71.101  1.00  0.00    -0.327 NA 
HETATM   30  C   UNL     1     -13.155  15.608  71.506  1.00  0.00    -0.485 C  
HETATM   31  C   UNL     1     -11.718  16.055  71.864  1.00  0.00    -0.504 C  
HETATM   32  N   UNL     1     -10.720  15.801  70.806  1.00  0.00    -0.198 NA 
HETATM   33  C   UNL     1     -10.841  14.407  70.329  1.00  0.00     0.215 C  
HETATM   34  C   UNL     1     -10.868  16.751  69.704  1.00  0.00    -0.204 C  
HETATM   35  C   UNL     1     -12.287  13.942  70.015  1.00  0.00    -0.316 C  
ENDBRANCH  28  29
ENDBRANCH  27  28
ENDBRANCH  26  27
ENDBRANCH  25  26
ENDBRANCH  21  25
BRANCH  23  36
HETATM   36  O   UNL     1     -12.336   6.828  71.624  1.00  0.00    -0.345 OA 
HETATM   37  C   UNL     1     -11.705   5.945  72.546  1.00  0.00    -0.236 C  
ENDBRANCH  23  36
ENDBRANCH  11  13
ENDBRANCH   5  11
ENDBRANCH   2   3
TORSDOF 9
ENDMDL
MODEL      198
REMARK 921   NORMALIZED FREE ENERGY PREDICTED BY IDOCK:   -3.56 KCAL/MOL
REMARK 922        TOTAL FREE ENERGY PREDICTED BY IDOCK:   -6.77 KCAL/MOL
REMARK 923 INTER-LIGAND FREE ENERGY PREDICTED BY IDOCK:   -5.25 KCAL/MOL
REMARK 924 INTRA-LIGAND FREE ENERGY PREDICTED BY IDOCK:   -1.53 KCAL/MOL
REMARK 927      BINDING AFFINITY PREDICTED BY RF-SCORE:    0.00 PKD
ROOT
HETATM    1  C   UNL     1     -11.748  13.453  63.999  1.00  0.00    -0.416 C  
HETATM    2  O   UNL     1     -10.643  13.306  64.887  1.00  0.00    -0.325 OA 
ENDROOT
BRANCH   2   3
HETATM    3  C   UNL     1     -10.380  12.024  65.299  1.00  0.00    -0.275 A  
HETATM    4  C   UNL     1      -9.592  11.134  64.561  1.00  0.00    -0.288 A  
HETATM    5  C   UNL     1      -9.344   9.824  65.000  1.00  0.00    -0.263 A  
HETATM    6  C   UNL     1      -9.917   9.423  66.221  1.00  0.00    -0.283 A  
HETATM    7  C   UNL     1     -10.965  11.582  66.491  1.00  0.00    -0.293 A  
HETATM    8 CL   UNL     1      -9.635   7.834  66.845  1.00  0.00    -0.234 Cl 
HETATM    9  C   UNL     1     -10.726  10.290  66.960  1.00  0.00    -0.281 A  
HETATM   10 CL   UNL     1     -11.972  12.620  67.439  1.00  0.00    -0.382 Cl 
BRANCH   5  11
HETATM   11  N   UNL     1      -8.626   8.901  64.197  1.00  0.00    -0.354 NA 
HETATM   12  H   UNL     1      -8.972   8.783  63.245  1.00  0.00     0.000 HD 
BRANCH  11  13
HETATM   13  C   UNL     1      -7.491   8.119  64.538  1.00  0.00    -0.102 A  
HETATM   14  C   UNL     1      -6.322  10.063  65.586  1.00  0.00    -0.094 C  
HETATM   15  C   UNL     1      -6.421   8.677  65.267  1.00  0.00    -0.063 A  
HETATM   16  C   UNL     1      -5.402   7.838  65.680  1.00  0.00    -0.029 A  
HETATM   17  N   UNL     1      -5.375   6.511  65.449  1.00  0.00    -0.020 NA 
HETATM   18  N   UNL     1      -6.215  11.179  65.889  1.00  0.00    -0.042 NA 
HETATM   19  C   UNL     1      -6.387   5.970  64.761  1.00  0.00    -0.033 A  
HETATM   20  C   UNL     1      -6.353   4.600  64.565  1.00  0.00    -0.034 A  
HETATM   21  C   UNL     1      -7.373   3.917  63.898  1.00  0.00    -0.055 A  
HETATM   22  C   UNL     1      -7.472   6.722  64.257  1.00  0.00    -0.100 A  
HETATM   23  C   UNL     1      -8.439   4.644  63.366  1.00  0.00    -0.117 A  
HETATM   24  C   UNL     1      -8.474   6.033  63.532  1.00  0.00     0.142 A  
BRANCH  21  25
HETATM   25  O   UNL     1      -7.308   2.570  63.673  1.00  0.00    -0.051 OA 
BRANCH  25  26
HETATM   26  C   UNL     1      -7.133   1.768  64.849  1.00  0.00    -0.048 C  
BRANCH  26  27
HETATM   27  C   UNL     1      -8.366   1.973  65.715  1.00  0.00    -0.094 C  
BRANCH  27  28
HETATM   28  C   UNL     1      -8.037   2.065  67.205  1.00  0.00    -0.067 C  
BRANCH  28  29
HETATM   29  N   UNL     1      -7.657   3.410  67.672  1.00  0.00    -0.068 NA 
HETATM   30  C   UNL     1      -8.631   4.456  67.289  1.00  0.00    -0.104 C  
HETATM   31  C   UNL     1      -9.989   4.362  68.024  1.00  0.00    -0.009 C  
HETATM   32  N   UNL     1      -9.885   4.351  69.497  1.00  0.00    -0.212 NA 
HETATM   33  C   UNL     1      -8.874   3.358  69.920  1.00  0.00    -0.091 C  
HETATM   34  C   UNL     1      -9.564   5.682  70.011  1.00  0.00    -0.166 C  
HETATM   35  C   UNL     1      -7.527   3.421  69.150  1.00  0.00    -0.049 C  
ENDBRANCH  28  29
ENDBRANCH  27  28
ENDBRANCH  26  27
ENDBRANCH  25  26
ENDBRANCH  21  25
BRANCH  23  36
HETATM   36  O   UNL     1      -9.483   4.137  62.636  1.00  0.00    -0.119 OA 
HETATM   37  C   UNL     1     -10.656   3.832  63.384  1.00  0.00    -0.225 C  
ENDBRANCH  23  36
ENDBRANCH  11  13
ENDBRANCH   5  11
ENDBRANCH   2   3
TORSDOF 9
ENDMDL
MODEL      199
REMARK 921   NORMALIZED FREE ENERGY PREDICTED BY IDOCK:   -3.54 KCAL/MOL
REMARK 922        TOTAL FREE ENERGY PREDICTED BY IDOCK:   -6.75 KCAL/MOL
REMARK 923 INTER-LIGAND FREE ENERGY PREDICTED BY IDOCK:   -6.59 KCAL/MOL
REMARK 924 INTRA-LIGAND FREE ENERGY PREDICTED BY IDOCK:   -0.16 KCAL/MOL
REMARK 927      BINDING AFFINITY PREDICTED BY RF-SCORE:    0.00 PKD
ROOT
HETATM    1  C   UNL     1      -8.019  15.329  67.079  1.00  0.00    -0.208 C  
HETATM    2  O   UNL     1      -8.526  16.281  68.010  1.00  0.00    -0.169 OA 
ENDROOT
BRANCH   2   3
HETATM    3  C   UNL     1      -9.682  15.922  68.656  1.00  0.00    -0.207 A  
HETATM    4  C   UNL     1     -10.316  14.691  68.451  1.00  0.00    -0.237 A  
HETATM    5  C   UNL     1     -11.503  14.349  69.118  1.00  0.00    -0.294 A  
HETATM    6  C   UNL     1     -12.047  15.290  70.012  1.00  0.00    -0.352 A  
HETATM    7  C   UNL     1     -10.268  16.850  69.525  1.00  0.00    -0.139 A  
HETATM    8 CL   UNL     1     -13.491  14.932  70.894  1.00  0.00    -0.390 Cl 
HETATM    9  C   UNL     1     -11.440  16.532  70.212  1.00  0.00     0.019 A  
HETATM   10 CL   UNL     1      -9.553  18.399  69.803  1.00  0.00     0.577 Cl 
BRANCH   5  11
HETATM   11  N   UNL     1     -12.189  13.141  68.829  1.00  0.00    -0.171 NA 
HETATM   12  H   UNL     1     -13.105  13.039  69.264  1.00  0.00     0.000 HD 
BRANCH  11  13
HETATM   13  C   UNL     1     -11.773  12.055  68.014  1.00  0.00    -0.331 A  
HETATM   14  C   UNL     1     -11.889  13.424  65.927  1.00  0.00    -0.376 C  
HETATM   15  C   UNL     1     -11.567  12.226  66.629  1.00  0.00    -0.438 A  
HETATM   16  C   UNL     1     -11.042  11.170  65.910  1.00  0.00    -0.035 A  
HETATM   17  N   UNL     1     -10.691   9.986  66.451  1.00  0.00    -0.063 NA 
HETATM   18  N   UNL     1     -12.112  14.390  65.321  1.00  0.00    -0.386 NA 
HETATM   19  C   UNL     1     -10.878   9.814  67.765  1.00  0.00    -0.246 A  
HETATM   20  C   UNL     1     -10.479   8.602  68.302  1.00  0.00    -0.234 A  
HETATM   21  C   UNL     1     -10.588   8.322  69.667  1.00  0.00    -0.222 A  
HETATM   22  C   UNL     1     -11.435  10.803  68.605  1.00  0.00    -0.365 A  
HETATM   23  C   UNL     1     -11.162   9.273  70.511  1.00  0.00    -0.265 A  
HETATM   24  C   UNL     1     -11.596  10.492  69.976  1.00  0.00    -0.392 A  
BRANCH  21  25
HETATM   25  O   UNL     1     -10.230   7.105  70.180  1.00  0.00    -0.191 OA 
BRANCH  25  26
HETATM   26  C   UNL     1      -9.154   6.451  69.494  1.00  0.00    -0.138 C  
BRANCH  26  27
HETATM   27  C   UNL     1      -8.117   7.517  69.174  1.00  0.00    -0.123 C  
BRANCH  27  28
HETATM   28  C   UNL     1      -7.352   7.232  67.881  1.00  0.00    -0.097 C  
BRANCH  28  29
HETATM   29  N   UNL     1      -6.059   7.928  67.762  1.00  0.00    -0.045 NA 
HETATM   30  C   UNL     1      -5.570   8.017  66.368  1.00  0.00    -0.032 C  
HETATM   31  C   UNL     1      -6.395   8.963  65.464  1.00  0.00    -0.063 C  
HETATM   32  N   UNL     1      -6.535  10.336  65.986  1.00  0.00    -0.099 NA 
HETATM   33  C   UNL     1      -6.964  10.291  67.401  1.00  0.00    -0.082 C  
HETATM   34  C   UNL     1      -5.288  11.086  65.837  1.00  0.00    -0.143 C  
HETATM   35  C   UNL     1      -6.169   9.307  68.299  1.00  0.00    -0.053 C  
ENDBRANCH  28  29
ENDBRANCH  27  28
ENDBRANCH  26  27
ENDBRANCH  25  26
ENDBRANCH  21  25
BRANCH  23  36
HETATM   36  O   UNL     1     -11.395   9.131  71.854  1.00  0.00    -0.365 OA 
HETATM   37  C   UNL     1     -12.605   9.716  72.326  1.00  0.00    -0.237 C  
ENDBRANCH  23  36
ENDBRANCH  11  13
ENDBRANCH   5  11
ENDBRANCH   2   3
TORSDOF 9
ENDMDL
MODEL      200
REMARK 921   NORMALIZED FREE ENERGY PREDICTED BY IDOCK:   -3.52 KCAL/MOL
REMARK 922        TOTAL FREE ENERGY PREDICTED BY IDOCK:   -6.72 KCAL/MOL
REMARK 923 INTER-LIGAND FREE ENERGY PREDICTED BY IDOCK:   -6.00 KCAL/MOL
REMARK 924 INTRA-LIGAND FREE ENERGY PREDICTED BY IDOCK:   -0.72 KCAL/MOL
REMARK 927      BINDING AFFINITY PREDICTED BY RF-SCORE:    0.00 PKD
ROOT
HETATM    1  C   UNL     1     -11.093  15.913  65.758  1.00  0.00    -0.076 C  
HETATM    2  O   UNL     1     -12.060  14.875  65.904  1.00  0.00    -0.159 OA 
ENDROOT
BRANCH   2   3
HETATM    3  C   UNL     1     -11.553  13.609  66.053  1.00  0.00    -0.337 A  
HETATM    4  C   UNL     1     -10.933  13.172  67.230  1.00  0.00    -0.288 A  
HETATM    5  C   UNL     1     -10.415  11.874  67.355  1.00  0.00    -0.217 A  
HETATM    6  C   UNL     1     -10.536  11.010  66.251  1.00  0.00    -0.254 A  
HETATM    7  C   UNL     1     -11.625  12.737  64.961  1.00  0.00    -0.337 A  
HETATM    8 CL   UNL     1      -9.948   9.385  66.337  1.00  0.00    -0.334 Cl 
HETATM    9  C   UNL     1     -11.131  11.437  65.061  1.00  0.00    -0.215 A  
HETATM   10 CL   UNL     1     -12.352  13.221  63.469  1.00  0.00    -0.516 Cl 
BRANCH   5  11
HETATM   11  N   UNL     1      -9.703  11.474  68.516  1.00  0.00    -0.194 NA 
HETATM   12  H   UNL     1      -9.981  11.931  69.383  1.00  0.00     0.000 HD 
BRANCH  11  13
HETATM   13  C   UNL     1      -8.655  10.523  68.632  1.00  0.00    -0.139 A  
HETATM   14  C   UNL     1      -7.029  11.992  67.432  1.00  0.00    -0.139 C  
HETATM   15  C   UNL     1      -7.357  10.815  68.166  1.00  0.00    -0.088 A  
HETATM   16  C   UNL     1      -6.349   9.903  68.420  1.00  0.00    -0.050 A  
HETATM   17  N   UNL     1      -6.522   8.756  69.105  1.00  0.00    -0.043 NA 
HETATM   18  N   UNL     1      -6.714  12.948  66.853  1.00  0.00     0.089 NA 
HETATM   19  C   UNL     1      -7.750   8.469  69.555  1.00  0.00    -0.091 A  
HETATM   20  C   UNL     1      -7.895   7.302  70.285  1.00  0.00    -0.096 A  
HETATM   21  C   UNL     1      -9.119   6.919  70.840  1.00  0.00    -0.153 A  
HETATM   22  C   UNL     1      -8.869   9.302  69.337  1.00  0.00    -0.149 A  
HETATM   23  C   UNL     1     -10.244   7.711  70.611  1.00  0.00    -0.199 A  
HETATM   24  C   UNL     1     -10.118   8.880  69.851  1.00  0.00    -0.204 A  
BRANCH  21  25
HETATM   25  O   UNL     1      -9.259   5.742  71.523  1.00  0.00    -0.146 OA 
BRANCH  25  26
HETATM   26  C   UNL     1      -9.927   4.698  70.801  1.00  0.00    -0.214 C  
BRANCH  26  27
HETATM   27  C   UNL     1      -8.985   3.505  70.770  1.00  0.00    -0.161 C  
BRANCH  27  28
HETATM   28  C   UNL     1      -7.850   3.670  69.759  1.00  0.00    -0.050 C  
BRANCH  28  29
HETATM   29  N   UNL     1      -8.042   2.943  68.491  1.00  0.00    -0.060 NA 
HETATM   30  C   UNL     1      -9.166   3.466  67.684  1.00  0.00    -0.190 C  
HETATM   31  C   UNL     1      -8.918   4.868  67.079  1.00  0.00    -0.109 C  
HETATM   32  N   UNL     1      -7.688   4.973  66.270  1.00  0.00    -0.091 NA 
HETATM   33  C   UNL     1      -6.547   4.403  67.019  1.00  0.00    -0.046 C  
HETATM   34  C   UNL     1      -7.851   4.312  64.976  1.00  0.00    -0.089 C  
HETATM   35  C   UNL     1      -6.810   3.018  67.667  1.00  0.00    -0.049 C  
ENDBRANCH  28  29
ENDBRANCH  27  28
ENDBRANCH  26  27
ENDBRANCH  25  26
ENDBRANCH  21  25
BRANCH  23  36
HETATM   36  O   UNL     1     -11.521   7.445  71.031  1.00  0.00    -0.268 OA 
HETATM   37  C   UNL     1     -12.103   8.436  71.873  1.00  0.00    -0.342 C  
ENDBRANCH  23  36
ENDBRANCH  11  13
ENDBRANCH   5  11
ENDBRANCH   2   3
TORSDOF 9
ENDMDL
MODEL      201
REMARK 921   NORMALIZED FREE ENERGY PREDICTED BY IDOCK:   -3.49 KCAL/MOL
REMARK 922        TOTAL FREE ENERGY PREDICTED BY IDOCK:   -6.68 KCAL/MOL
REMARK 923 INTER-LIGAND FREE ENERGY PREDICTED BY IDOCK:   -5.93 KCAL/MOL
REMARK 924 INTRA-LIGAND FREE ENERGY PREDICTED BY IDOCK:   -0.75 KCAL/MOL
REMARK 927      BINDING AFFINITY PREDICTED BY RF-SCORE:    0.00 PKD
ROOT
HETATM    1  C   UNL     1      -6.631   3.444  72.136  1.00  0.00    -0.015 C  
HETATM    2  O   UNL     1      -8.009   3.461  71.775  1.00  0.00    -0.059 OA 
ENDROOT
BRANCH   2   3
HETATM    3  C   UNL     1      -8.516   4.688  71.427  1.00  0.00    -0.107 A  
HETATM    4  C   UNL     1      -7.932   5.502  70.448  1.00  0.00    -0.102 A  
HETATM    5  C   UNL     1      -8.464   6.757  70.116  1.00  0.00    -0.139 A  
HETATM    6  C   UNL     1      -9.617   7.183  70.801  1.00  0.00    -0.168 A  
HETATM    7  C   UNL     1      -9.641   5.157  72.115  1.00  0.00    -0.152 A  
HETATM    8 CL   UNL     1     -10.350   8.705  70.427  1.00  0.00    -0.213 Cl 
HETATM    9  C   UNL     1     -10.200   6.394  71.796  1.00  0.00    -0.222 A  
HETATM   10 CL   UNL     1     -10.396   4.215  73.353  1.00  0.00    -0.212 Cl 
BRANCH   5  11
HETATM   11  N   UNL     1      -7.809   7.615  69.195  1.00  0.00    -0.116 NA 
HETATM   12  H   UNL     1      -6.950   8.049  69.531  1.00  0.00     0.000 HD 
BRANCH  11  13
HETATM   13  C   UNL     1      -8.187   7.950  67.868  1.00  0.00    -0.129 A  
HETATM   14  C   UNL     1      -8.430   5.553  67.206  1.00  0.00    -0.110 C  
HETATM   15  C   UNL     1      -8.549   6.949  66.943  1.00  0.00    -0.116 A  
HETATM   16  C   UNL     1      -9.029   7.342  65.708  1.00  0.00    -0.015 A  
HETATM   17  N   UNL     1      -9.194   8.626  65.333  1.00  0.00    -0.104 NA 
HETATM   18  N   UNL     1      -8.374   4.408  67.388  1.00  0.00    -0.100 NA 
HETATM   19  C   UNL     1      -8.857   9.584  66.204  1.00  0.00    -0.152 A  
HETATM   20  C   UNL     1      -9.067  10.894  65.809  1.00  0.00    -0.214 A  
HETATM   21  C   UNL     1      -8.791  11.978  66.647  1.00  0.00    -0.191 A  
HETATM   22  C   UNL     1      -8.327   9.317  67.485  1.00  0.00    -0.119 A  
HETATM   23  C   UNL     1      -8.240  11.738  67.905  1.00  0.00    -0.147 A  
HETATM   24  C   UNL     1      -7.995  10.420  68.308  1.00  0.00    -0.111 A  
BRANCH  21  25
HETATM   25  O   UNL     1      -8.963  13.269  66.229  1.00  0.00    -0.057 OA 
BRANCH  25  26
HETATM   26  C   UNL     1     -10.177  13.517  65.508  1.00  0.00    -0.295 C  
BRANCH  26  27
HETATM   27  C   UNL     1     -10.230  15.011  65.226  1.00  0.00    -0.409 C  
BRANCH  27  28
HETATM   28  C   UNL     1      -9.948  15.860  66.466  1.00  0.00    -0.272 C  
BRANCH  28  29
HETATM   29  N   UNL     1     -11.140  16.212  67.257  1.00  0.00    -0.168 NA 
HETATM   30  C   UNL     1     -11.682  15.074  68.033  1.00  0.00    -0.298 C  
HETATM   31  C   UNL     1     -10.785  14.621  69.209  1.00  0.00    -0.243 C  
HETATM   32  N   UNL     1     -10.435  15.695  70.158  1.00  0.00    -0.316 NA 
HETATM   33  C   UNL     1      -9.945  16.877  69.416  1.00  0.00    -0.113 C  
HETATM   34  C   UNL     1     -11.576  16.040  71.006  1.00  0.00    -0.431 C  
HETATM   35  C   UNL     1     -10.819  17.305  68.208  1.00  0.00    -0.287 C  
ENDBRANCH  28  29
ENDBRANCH  27  28
ENDBRANCH  26  27
ENDBRANCH  25  26
ENDBRANCH  21  25
BRANCH  23  36
HETATM   36  O   UNL     1      -7.858  12.686  68.818  1.00  0.00    -0.075 OA 
HETATM   37  C   UNL     1      -6.781  12.310  69.671  1.00  0.00     0.052 C  
ENDBRANCH  23  36
ENDBRANCH  11  13
ENDBRANCH   5  11
ENDBRANCH   2   3
TORSDOF 9
ENDMDL
MODEL      202
REMARK 921   NORMALIZED FREE ENERGY PREDICTED BY IDOCK:   -3.49 KCAL/MOL
REMARK 922        TOTAL FREE ENERGY PREDICTED BY IDOCK:   -6.66 KCAL/MOL
REMARK 923 INTER-LIGAND FREE ENERGY PREDICTED BY IDOCK:   -5.65 KCAL/MOL
REMARK 924 INTRA-LIGAND FREE ENERGY PREDICTED BY IDOCK:   -1.02 KCAL/MOL
REMARK 927      BINDING AFFINITY PREDICTED BY RF-SCORE:    0.00 PKD
ROOT
HETATM    1  C   UNL     1     -11.562  16.478  64.542  1.00  0.00     0.163 C  
HETATM    2  O   UNL     1     -10.736  15.321  64.648  1.00  0.00    -0.365 OA 
ENDROOT
BRANCH   2   3
HETATM    3  C   UNL     1     -10.875  14.596  65.805  1.00  0.00    -0.323 A  
HETATM    4  C   UNL     1      -9.866  14.504  66.771  1.00  0.00    -0.271 A  
HETATM    5  C   UNL     1     -10.030  13.750  67.943  1.00  0.00    -0.240 A  
HETATM    6  C   UNL     1     -11.253  13.078  68.125  1.00  0.00    -0.272 A  
HETATM    7  C   UNL     1     -12.066  13.888  65.999  1.00  0.00    -0.437 A  
HETATM    8 CL   UNL     1     -11.543  12.152  69.557  1.00  0.00    -0.376 Cl 
HETATM    9  C   UNL     1     -12.263  13.141  67.161  1.00  0.00    -0.250 A  
HETATM   10 CL   UNL     1     -13.343  13.935  64.834  1.00  0.00     0.317 Cl 
BRANCH   5  11
HETATM   11  N   UNL     1      -8.966  13.584  68.867  1.00  0.00    -0.376 NA 
HETATM   12  H   UNL     1      -9.156  13.895  69.819  1.00  0.00     0.000 HD 
BRANCH  11  13
HETATM   13  C   UNL     1      -7.672  13.042  68.645  1.00  0.00    -0.069 A  
HETATM   14  C   UNL     1      -6.538  15.057  69.592  1.00  0.00    -0.166 C  
HETATM   15  C   UNL     1      -6.516  13.733  69.062  1.00  0.00    -0.105 A  
HETATM   16  C   UNL     1      -5.294  13.102  68.934  1.00  0.00    -0.072 A  
HETATM   17  N   UNL     1      -5.134  11.853  68.453  1.00  0.00    -0.046 NA 
HETATM   18  N   UNL     1      -6.513  16.123  70.052  1.00  0.00    -0.101 NA 
HETATM   19  C   UNL     1      -6.224  11.186  68.058  1.00  0.00    -0.049 A  
HETATM   20  C   UNL     1      -6.038   9.893  67.600  1.00  0.00    -0.054 A  
HETATM   21  C   UNL     1      -7.104   9.084  67.197  1.00  0.00    -0.079 A  
HETATM   22  C   UNL     1      -7.527  11.729  68.107  1.00  0.00    -0.098 A  
HETATM   23  C   UNL     1      -8.396   9.611  67.210  1.00  0.00    -0.114 A  
HETATM   24  C   UNL     1      -8.597  10.927  67.645  1.00  0.00    -0.124 A  
BRANCH  21  25
HETATM   25  O   UNL     1      -6.904   7.824  66.706  1.00  0.00    -0.067 OA 
BRANCH  25  26
HETATM   26  C   UNL     1      -7.608   6.784  67.399  1.00  0.00    -0.105 C  
BRANCH  26  27
HETATM   27  C   UNL     1      -7.060   6.745  68.818  1.00  0.00    -0.086 C  
BRANCH  27  28
HETATM   28  C   UNL     1      -7.930   5.922  69.768  1.00  0.00    -0.101 C  
BRANCH  28  29
HETATM   29  N   UNL     1      -8.116   6.513  71.104  1.00  0.00    -0.115 NA 
HETATM   30  C   UNL     1      -8.665   7.887  71.062  1.00  0.00    -0.133 C  
HETATM   31  C   UNL     1     -10.138   7.971  70.596  1.00  0.00    -0.194 C  
HETATM   32  N   UNL     1     -11.070   7.130  71.372  1.00  0.00    -0.238 NA 
HETATM   33  C   UNL     1     -10.528   5.760  71.490  1.00  0.00    -0.235 C  
HETATM   34  C   UNL     1     -11.330   7.710  72.690  1.00  0.00    -0.370 C  
HETATM   35  C   UNL     1      -9.037   5.675  71.912  1.00  0.00    -0.138 C  
ENDBRANCH  28  29
ENDBRANCH  27  28
ENDBRANCH  26  27
ENDBRANCH  25  26
ENDBRANCH  21  25
BRANCH  23  36
HETATM   36  O   UNL     1      -9.536   8.975  66.793  1.00  0.00    -0.158 OA 
HETATM   37  C   UNL     1     -10.756   9.561  67.236  1.00  0.00    -0.199 C  
ENDBRANCH  23  36
ENDBRANCH  11  13
ENDBRANCH   5  11
ENDBRANCH   2   3
TORSDOF 9
ENDMDL
MODEL      203
REMARK 921   NORMALIZED FREE ENERGY PREDICTED BY IDOCK:   -3.44 KCAL/MOL
REMARK 922        TOTAL FREE ENERGY PREDICTED BY IDOCK:   -6.59 KCAL/MOL
REMARK 923 INTER-LIGAND FREE ENERGY PREDICTED BY IDOCK:   -5.88 KCAL/MOL
REMARK 924 INTRA-LIGAND FREE ENERGY PREDICTED BY IDOCK:   -0.71 KCAL/MOL
REMARK 927      BINDING AFFINITY PREDICTED BY RF-SCORE:    0.00 PKD
ROOT
HETATM    1  C   UNL     1     -12.703  13.763  65.349  1.00  0.00    -0.472 C  
HETATM    2  O   UNL     1     -12.393  14.261  66.648  1.00  0.00    -0.446 OA 
ENDROOT
BRANCH   2   3
HETATM    3  C   UNL     1     -11.099  14.073  67.062  1.00  0.00    -0.304 A  
HETATM    4  C   UNL     1     -10.251  13.114  66.495  1.00  0.00    -0.277 A  
HETATM    5  C   UNL     1      -8.932  12.935  66.941  1.00  0.00    -0.210 A  
HETATM    6  C   UNL     1      -8.477  13.756  67.989  1.00  0.00    -0.176 A  
HETATM    7  C   UNL     1     -10.627  14.850  68.126  1.00  0.00    -0.244 A  
HETATM    8 CL   UNL     1      -6.856  13.617  68.575  1.00  0.00    -0.089 Cl 
HETATM    9  C   UNL     1      -9.316  14.703  68.582  1.00  0.00    -0.206 A  
HETATM   10 CL   UNL     1     -11.629  16.034  68.890  1.00  0.00    -0.374 Cl 
BRANCH   5  11
HETATM   11  N   UNL     1      -8.116  11.894  66.427  1.00  0.00    -0.383 NA 
HETATM   12  H   UNL     1      -7.268  12.195  65.947  1.00  0.00     0.000 HD 
BRANCH  11  13
HETATM   13  C   UNL     1      -8.318  10.490  66.492  1.00  0.00    -0.141 A  
HETATM   14  C   UNL     1      -9.907  10.513  64.563  1.00  0.00    -0.337 C  
HETATM   15  C   UNL     1      -9.129   9.832  65.545  1.00  0.00    -0.242 A  
HETATM   16  C   UNL     1      -9.189   8.451  65.581  1.00  0.00    -0.052 A  
HETATM   17  N   UNL     1      -8.502   7.687  66.453  1.00  0.00    -0.130 NA 
HETATM   18  N   UNL     1     -10.534  11.026  63.732  1.00  0.00    -0.369 NA 
HETATM   19  C   UNL     1      -7.726   8.301  67.354  1.00  0.00    -0.102 A  
HETATM   20  C   UNL     1      -7.005   7.494  68.217  1.00  0.00    -0.068 A  
HETATM   21  C   UNL     1      -6.131   8.019  69.173  1.00  0.00    -0.038 A  
HETATM   22  C   UNL     1      -7.603   9.705  67.443  1.00  0.00    -0.095 A  
HETATM   23  C   UNL     1      -6.017   9.404  69.297  1.00  0.00    -0.037 A  
HETATM   24  C   UNL     1      -6.761  10.233  68.451  1.00  0.00    -0.057 A  
BRANCH  21  25
HETATM   25  O   UNL     1      -5.457   7.213  70.048  1.00  0.00    -0.022 OA 
BRANCH  25  26
HETATM   26  C   UNL     1      -5.875   7.319  71.415  1.00  0.00    -0.036 C  
BRANCH  26  27
HETATM   27  C   UNL     1      -7.126   6.465  71.565  1.00  0.00    -0.078 C  
BRANCH  27  28
HETATM   28  C   UNL     1      -7.467   6.164  73.025  1.00  0.00    -0.097 C  
BRANCH  28  29
HETATM   29  N   UNL     1      -8.906   6.013  73.304  1.00  0.00    -0.130 NA 
HETATM   30  C   UNL     1      -9.670   5.479  72.155  1.00  0.00    -0.158 C  
HETATM   31  C   UNL     1      -9.371   3.997  71.825  1.00  0.00    -0.132 C  
HETATM   32  N   UNL     1      -9.550   3.073  72.961  1.00  0.00    -0.095 NA 
HETATM   33  C   UNL     1      -8.850   3.602  74.151  1.00  0.00    -0.087 C  
HETATM   34  C   UNL     1     -10.968   2.848  73.239  1.00  0.00    -0.158 C  
HETATM   35  C   UNL     1      -9.112   5.101  74.456  1.00  0.00    -0.114 C  
ENDBRANCH  28  29
ENDBRANCH  27  28
ENDBRANCH  26  27
ENDBRANCH  25  26
ENDBRANCH  21  25
BRANCH  23  36
HETATM   36  O   UNL     1      -5.255  10.075  70.218  1.00  0.00    -0.035 OA 
HETATM   37  C   UNL     1      -5.973  10.966  71.067  1.00  0.00     0.117 C  
ENDBRANCH  23  36
ENDBRANCH  11  13
ENDBRANCH   5  11
ENDBRANCH   2   3
TORSDOF 9
ENDMDL
MODEL      204
REMARK 921   NORMALIZED FREE ENERGY PREDICTED BY IDOCK:   -3.40 KCAL/MOL
REMARK 922        TOTAL FREE ENERGY PREDICTED BY IDOCK:   -6.53 KCAL/MOL
REMARK 923 INTER-LIGAND FREE ENERGY PREDICTED BY IDOCK:   -5.99 KCAL/MOL
REMARK 924 INTRA-LIGAND FREE ENERGY PREDICTED BY IDOCK:   -0.54 KCAL/MOL
REMARK 927      BINDING AFFINITY PREDICTED BY RF-SCORE:    0.00 PKD
ROOT
HETATM    1  C   UNL     1     -10.682  15.186  64.737  1.00  0.00    -0.319 C  
HETATM    2  O   UNL     1     -10.032  13.936  64.953  1.00  0.00    -0.311 OA 
ENDROOT
BRANCH   2   3
HETATM    3  C   UNL     1     -10.349  13.297  66.125  1.00  0.00    -0.290 A  
HETATM    4  C   UNL     1      -9.386  12.717  66.960  1.00  0.00    -0.229 A  
HETATM    5  C   UNL     1      -9.737  12.062  68.151  1.00  0.00    -0.199 A  
HETATM    6  C   UNL     1     -11.101  12.003  68.490  1.00  0.00    -0.244 A  
HETATM    7  C   UNL     1     -11.701  13.189  66.473  1.00  0.00    -0.382 A  
HETATM    8 CL   UNL     1     -11.611  11.238  69.956  1.00  0.00    -0.397 Cl 
HETATM    9  C   UNL     1     -12.077  12.556  67.657  1.00  0.00    -0.123 A  
HETATM   10 CL   UNL     1     -12.943  13.858  65.474  1.00  0.00    -0.486 Cl 
BRANCH   5  11
HETATM   11  N   UNL     1      -8.763  11.393  68.938  1.00  0.00    -0.358 NA 
HETATM   12  H   UNL     1      -8.946  11.370  69.940  1.00  0.00     0.000 HD 
BRANCH  11  13
HETATM   13  C   UNL     1      -7.569  10.751  68.517  1.00  0.00    -0.104 A  
HETATM   14  C   UNL     1      -6.201  12.815  68.857  1.00  0.00    -0.085 C  
HETATM   15  C   UNL     1      -6.333  11.429  68.550  1.00  0.00    -0.047 A  
HETATM   16  C   UNL     1      -5.187  10.716  68.250  1.00  0.00    -0.033 A  
HETATM   17  N   UNL     1      -5.170   9.403  67.947  1.00  0.00    -0.037 NA 
HETATM   18  N   UNL     1      -6.047  13.934  69.127  1.00  0.00    -0.091 NA 
HETATM   19  C   UNL     1      -6.337   8.748  67.917  1.00  0.00    -0.056 A  
HETATM   20  C   UNL     1      -6.291   7.394  67.637  1.00  0.00    -0.052 A  
HETATM   21  C   UNL     1      -7.439   6.598  67.617  1.00  0.00    -0.097 A  
HETATM   22  C   UNL     1      -7.581   9.368  68.173  1.00  0.00    -0.083 A  
HETATM   23  C   UNL     1      -8.681   7.194  67.838  1.00  0.00    -0.126 A  
HETATM   24  C   UNL     1      -8.746   8.569  68.095  1.00  0.00    -0.142 A  
BRANCH  21  25
HETATM   25  O   UNL     1      -7.386   5.269  67.297  1.00  0.00    -0.080 OA 
BRANCH  25  26
HETATM   26  C   UNL     1      -7.845   4.379  68.323  1.00  0.00    -0.079 C  
BRANCH  26  27
HETATM   27  C   UNL     1      -7.083   4.733  69.592  1.00  0.00    -0.054 C  
BRANCH  27  28
HETATM   28  C   UNL     1      -7.585   3.968  70.818  1.00  0.00    -0.047 C  
BRANCH  28  29
HETATM   29  N   UNL     1      -7.669   4.768  72.052  1.00  0.00    -0.092 NA 
HETATM   30  C   UNL     1      -8.135   6.153  71.819  1.00  0.00    -0.110 C  
HETATM   31  C   UNL     1      -9.621   6.264  71.403  1.00  0.00    -0.155 C  
HETATM   32  N   UNL     1     -10.564   5.616  72.336  1.00  0.00    -0.214 NA 
HETATM   33  C   UNL     1     -10.100   4.246  72.644  1.00  0.00    -0.164 C  
HETATM   34  C   UNL     1     -10.723   6.406  73.556  1.00  0.00    -0.244 C  
HETATM   35  C   UNL     1      -8.599   4.127  73.016  1.00  0.00    -0.100 C  
ENDBRANCH  28  29
ENDBRANCH  27  28
ENDBRANCH  26  27
ENDBRANCH  25  26
ENDBRANCH  21  25
BRANCH  23  36
HETATM   36  O   UNL     1      -9.900   6.570  67.794  1.00  0.00    -0.120 OA 
HETATM   37  C   UNL     1     -10.843   7.142  66.893  1.00  0.00    -0.237 C  
ENDBRANCH  23  36
ENDBRANCH  11  13
ENDBRANCH   5  11
ENDBRANCH   2   3
TORSDOF 9
ENDMDL
MODEL      205
REMARK 921   NORMALIZED FREE ENERGY PREDICTED BY IDOCK:   -3.38 KCAL/MOL
REMARK 922        TOTAL FREE ENERGY PREDICTED BY IDOCK:   -6.50 KCAL/MOL
REMARK 923 INTER-LIGAND FREE ENERGY PREDICTED BY IDOCK:   -6.11 KCAL/MOL
REMARK 924 INTRA-LIGAND FREE ENERGY PREDICTED BY IDOCK:   -0.39 KCAL/MOL
REMARK 927      BINDING AFFINITY PREDICTED BY RF-SCORE:    0.00 PKD
ROOT
HETATM    1  C   UNL     1      -9.870  19.895  69.059  1.00  0.00    -0.262 C  
HETATM    2  O   UNL     1      -8.816  19.427  68.221  1.00  0.00    -0.317 OA 
ENDROOT
BRANCH   2   3
HETATM    3  C   UNL     1      -9.120  18.345  67.434  1.00  0.00    -0.264 A  
HETATM    4  C   UNL     1      -8.335  17.186  67.398  1.00  0.00    -0.203 A  
HETATM    5  C   UNL     1      -8.663  16.095  66.579  1.00  0.00    -0.302 A  
HETATM    6  C   UNL     1      -9.818  16.198  65.782  1.00  0.00    -0.320 A  
HETATM    7  C   UNL     1     -10.243  18.429  66.603  1.00  0.00    -0.394 A  
HETATM    8 CL   UNL     1     -10.306  14.884  64.766  1.00  0.00    -0.335 Cl 
HETATM    9  C   UNL     1     -10.601  17.355  65.788  1.00  0.00    -0.185 A  
HETATM   10 CL   UNL     1     -11.240  19.841  66.577  1.00  0.00    -0.114 Cl 
BRANCH   5  11
HETATM   11  N   UNL     1      -7.808  14.967  66.476  1.00  0.00    -0.183 NA 
HETATM   12  H   UNL     1      -7.253  14.911  65.623  1.00  0.00     0.000 HD 
BRANCH  11  13
HETATM   13  C   UNL     1      -7.621  13.906  67.401  1.00  0.00    -0.142 A  
HETATM   14  C   UNL     1      -5.902  15.180  68.693  1.00  0.00    -0.089 C  
HETATM   15  C   UNL     1      -6.751  14.050  68.501  1.00  0.00    -0.099 A  
HETATM   16  C   UNL     1      -6.704  13.034  69.437  1.00  0.00    -0.018 A  
HETATM   17  N   UNL     1      -7.456  11.916  69.378  1.00  0.00     0.150 NA 
HETATM   18  N   UNL     1      -5.215  16.092  68.900  1.00  0.00    -0.110 NA 
HETATM   19  C   UNL     1      -8.288  11.771  68.340  1.00  0.00    -0.153 A  
HETATM   20  C   UNL     1      -9.072  10.631  68.320  1.00  0.00    -0.153 A  
HETATM   21  C   UNL     1     -10.007  10.388  67.309  1.00  0.00    -0.188 A  
HETATM   22  C   UNL     1      -8.407  12.721  67.302  1.00  0.00    -0.187 A  
HETATM   23  C   UNL     1     -10.120  11.299  66.258  1.00  0.00    -0.230 A  
HETATM   24  C   UNL     1      -9.312  12.442  66.251  1.00  0.00    -0.189 A  
BRANCH  21  25
HETATM   25  O   UNL     1     -10.746   9.238  67.277  1.00  0.00    -0.268 OA 
BRANCH  25  26
HETATM   26  C   UNL     1     -10.559   8.365  68.399  1.00  0.00    -0.105 C  
BRANCH  26  27
HETATM   27  C   UNL     1     -10.701   6.941  67.883  1.00  0.00    -0.294 C  
BRANCH  27  28
HETATM   28  C   UNL     1      -9.369   6.336  67.436  1.00  0.00    -0.115 C  
BRANCH  28  29
HETATM   29  N   UNL     1      -9.088   4.995  67.976  1.00  0.00    -0.112 NA 
HETATM   30  C   UNL     1      -8.658   4.028  66.943  1.00  0.00    -0.105 C  
HETATM   31  C   UNL     1      -7.255   4.307  66.353  1.00  0.00    -0.075 C  
HETATM   32  N   UNL     1      -6.180   4.408  67.360  1.00  0.00    -0.035 NA 
HETATM   33  C   UNL     1      -6.596   5.321  68.446  1.00  0.00    -0.049 C  
HETATM   34  C   UNL     1      -5.827   3.089  67.886  1.00  0.00    -0.023 C  
HETATM   35  C   UNL     1      -8.022   5.071  69.006  1.00  0.00    -0.080 C  
ENDBRANCH  28  29
ENDBRANCH  27  28
ENDBRANCH  26  27
ENDBRANCH  25  26
ENDBRANCH  21  25
BRANCH  23  36
HETATM   36  O   UNL     1     -10.938  11.179  65.165  1.00  0.00    -0.201 OA 
HETATM   37  C   UNL     1     -10.272  11.148  63.907  1.00  0.00    -0.362 C  
ENDBRANCH  23  36
ENDBRANCH  11  13
ENDBRANCH   5  11
ENDBRANCH   2   3
TORSDOF 9
ENDMDL
MODEL      206
REMARK 921   NORMALIZED FREE ENERGY PREDICTED BY IDOCK:   -3.38 KCAL/MOL
REMARK 922        TOTAL FREE ENERGY PREDICTED BY IDOCK:   -6.50 KCAL/MOL
REMARK 923 INTER-LIGAND FREE ENERGY PREDICTED BY IDOCK:   -5.78 KCAL/MOL
REMARK 924 INTRA-LIGAND FREE ENERGY PREDICTED BY IDOCK:   -0.71 KCAL/MOL
REMARK 927      BINDING AFFINITY PREDICTED BY RF-SCORE:    0.00 PKD
ROOT
HETATM    1  C   UNL     1      -8.996   9.918  62.723  1.00  0.00    -0.262 C  
HETATM    2  O   UNL     1      -9.109   9.342  64.022  1.00  0.00    -0.154 OA 
ENDROOT
BRANCH   2   3
HETATM    3  C   UNL     1      -8.933  10.207  65.072  1.00  0.00    -0.195 A  
HETATM    4  C   UNL     1      -9.995  10.685  65.849  1.00  0.00    -0.312 A  
HETATM    5  C   UNL     1      -9.790  11.576  66.914  1.00  0.00    -0.197 A  
HETATM    6  C   UNL     1      -8.471  11.983  67.185  1.00  0.00    -0.180 A  
HETATM    7  C   UNL     1      -7.637  10.658  65.345  1.00  0.00    -0.038 A  
HETATM    8 CL   UNL     1      -8.133  13.056  68.499  1.00  0.00    -0.122 Cl 
HETATM    9  C   UNL     1      -7.401  11.533  66.406  1.00  0.00     0.059 A  
HETATM   10 CL   UNL     1      -6.283  10.129  64.408  1.00  0.00    -0.131 Cl 
BRANCH   5  11
HETATM   11  N   UNL     1     -10.882  12.131  67.630  1.00  0.00    -0.224 NA 
HETATM   12  H   UNL     1     -11.406  12.858  67.144  1.00  0.00     0.000 HD 
BRANCH  11  13
HETATM   13  C   UNL     1     -11.345  11.811  68.934  1.00  0.00    -0.267 A  
HETATM   14  C   UNL     1     -11.804  14.204  69.487  1.00  0.00    -0.322 C  
HETATM   15  C   UNL     1     -11.850  12.811  69.790  1.00  0.00    -0.380 A  
HETATM   16  C   UNL     1     -12.402  12.424  70.996  1.00  0.00    -0.210 A  
HETATM   17  N   UNL     1     -12.511  11.144  71.402  1.00  0.00    -0.340 NA 
HETATM   18  N   UNL     1     -11.811  15.344  69.268  1.00  0.00    -0.342 NA 
HETATM   19  C   UNL     1     -12.038  10.185  70.597  1.00  0.00    -0.319 A  
HETATM   20  C   UNL     1     -12.192   8.877  71.021  1.00  0.00    -0.248 A  
HETATM   21  C   UNL     1     -11.775   7.790  70.248  1.00  0.00     0.047 A  
HETATM   22  C   UNL     1     -11.424  10.450  69.353  1.00  0.00    -0.292 A  
HETATM   23  C   UNL     1     -11.138   8.029  69.030  1.00  0.00     0.249 A  
HETATM   24  C   UNL     1     -10.951   9.349  68.600  1.00  0.00    -0.075 A  
BRANCH  21  25
HETATM   25  O   UNL     1     -11.893   6.503  70.696  1.00  0.00    -0.384 OA 
BRANCH  25  26
HETATM   26  C   UNL     1     -11.387   6.273  72.018  1.00  0.00    -0.300 C  
BRANCH  26  27
HETATM   27  C   UNL     1     -10.561   4.996  71.963  1.00  0.00    -0.243 C  
BRANCH  27  28
HETATM   28  C   UNL     1      -9.167   5.216  71.375  1.00  0.00    -0.146 C  
BRANCH  28  29
HETATM   29  N   UNL     1      -8.065   4.650  72.171  1.00  0.00    -0.100 NA 
HETATM   30  C   UNL     1      -6.731   5.129  71.746  1.00  0.00    -0.048 C  
HETATM   31  C   UNL     1      -6.462   6.620  72.058  1.00  0.00    -0.054 C  
HETATM   32  N   UNL     1      -6.649   6.990  73.474  1.00  0.00    -0.066 NA 
HETATM   33  C   UNL     1      -7.948   6.474  73.958  1.00  0.00    -0.107 C  
HETATM   34  C   UNL     1      -5.546   6.495  74.297  1.00  0.00    -0.055 C  
HETATM   35  C   UNL     1      -8.240   4.991  73.605  1.00  0.00    -0.106 C  
ENDBRANCH  28  29
ENDBRANCH  27  28
ENDBRANCH  26  27
ENDBRANCH  25  26
ENDBRANCH  21  25
BRANCH  23  36
HETATM   36  O   UNL     1     -10.619   7.083  68.186  1.00  0.00    -0.197 OA 
HETATM   37  C   UNL     1     -11.467   6.698  67.108  1.00  0.00     0.275 C  
ENDBRANCH  23  36
ENDBRANCH  11  13
ENDBRANCH   5  11
ENDBRANCH   2   3
TORSDOF 9
ENDMDL
MODEL      207
REMARK 921   NORMALIZED FREE ENERGY PREDICTED BY IDOCK:   -3.34 KCAL/MOL
REMARK 922        TOTAL FREE ENERGY PREDICTED BY IDOCK:   -6.45 KCAL/MOL
REMARK 923 INTER-LIGAND FREE ENERGY PREDICTED BY IDOCK:   -5.97 KCAL/MOL
REMARK 924 INTRA-LIGAND FREE ENERGY PREDICTED BY IDOCK:   -0.47 KCAL/MOL
REMARK 927      BINDING AFFINITY PREDICTED BY RF-SCORE:    0.00 PKD
ROOT
HETATM    1  C   UNL     1      -9.655   1.501  68.328  1.00  0.00    -0.139 C  
HETATM    2  O   UNL     1      -8.527   2.346  68.117  1.00  0.00    -0.068 OA 
ENDROOT
BRANCH   2   3
HETATM    3  C   UNL     1      -8.674   3.646  68.529  1.00  0.00    -0.103 A  
HETATM    4  C   UNL     1      -9.357   4.609  67.777  1.00  0.00    -0.171 A  
HETATM    5  C   UNL     1      -9.488   5.936  68.217  1.00  0.00    -0.116 A  
HETATM    6  C   UNL     1      -8.905   6.278  69.451  1.00  0.00    -0.127 A  
HETATM    7  C   UNL     1      -8.075   4.027  69.735  1.00  0.00    -0.054 A  
HETATM    8 CL   UNL     1      -9.047   7.885  70.076  1.00  0.00    -0.152 Cl 
HETATM    9  C   UNL     1      -8.200   5.335  70.204  1.00  0.00    -0.091 A  
HETATM   10 CL   UNL     1      -7.193   2.895  70.700  1.00  0.00    -0.033 Cl 
BRANCH   5  11
HETATM   11  N   UNL     1     -10.096   6.925  67.402  1.00  0.00    -0.166 NA 
HETATM   12  H   UNL     1     -11.115   6.901  67.364  1.00  0.00     0.000 HD 
BRANCH  11  13
HETATM   13  C   UNL     1      -9.478   7.946  66.632  1.00  0.00    -0.211 A  
HETATM   14  C   UNL     1      -8.753   6.336  64.864  1.00  0.00     0.155 C  
HETATM   15  C   UNL     1      -8.897   7.657  65.381  1.00  0.00     0.036 A  
HETATM   16  C   UNL     1      -8.424   8.710  64.620  1.00  0.00    -0.132 A  
HETATM   17  N   UNL     1      -8.500  10.004  64.988  1.00  0.00    -0.150 NA 
HETATM   18  N   UNL     1      -8.641   5.280  64.395  1.00  0.00    -0.126 NA 
HETATM   19  C   UNL     1      -9.054  10.290  66.172  1.00  0.00    -0.155 A  
HETATM   20  C   UNL     1      -9.151  11.628  66.513  1.00  0.00    -0.200 A  
HETATM   21  C   UNL     1      -9.746  12.052  67.705  1.00  0.00    -0.187 A  
HETATM   22  C   UNL     1      -9.547   9.305  67.057  1.00  0.00    -0.223 A  
HETATM   23  C   UNL     1     -10.213  11.095  68.606  1.00  0.00    -0.205 A  
HETATM   24  C   UNL     1     -10.096   9.737  68.288  1.00  0.00    -0.189 A  
BRANCH  21  25
HETATM   25  O   UNL     1      -9.798  13.374  68.050  1.00  0.00    -0.216 OA 
BRANCH  25  26
HETATM   26  C   UNL     1     -10.963  14.074  67.592  1.00  0.00    -0.269 C  
BRANCH  26  27
HETATM   27  C   UNL     1     -11.417  14.974  68.732  1.00  0.00    -0.337 C  
BRANCH  27  28
HETATM   28  C   UNL     1     -10.440  16.116  69.014  1.00  0.00    -0.261 C  
BRANCH  28  29
HETATM   29  N   UNL     1      -9.666  16.568  67.845  1.00  0.00    -0.233 NA 
HETATM   30  C   UNL     1      -9.945  17.971  67.467  1.00  0.00    -0.327 C  
HETATM   31  C   UNL     1      -9.419  19.019  68.476  1.00  0.00    -0.383 C  
HETATM   32  N   UNL     1      -7.979  18.905  68.777  1.00  0.00    -0.335 NA 
HETATM   33  C   UNL     1      -7.645  17.501  69.101  1.00  0.00    -0.069 C  
HETATM   34  C   UNL     1      -7.168  19.396  67.664  1.00  0.00    -0.233 C  
HETATM   35  C   UNL     1      -8.212  16.445  68.115  1.00  0.00    -0.170 C  
ENDBRANCH  28  29
ENDBRANCH  27  28
ENDBRANCH  26  27
ENDBRANCH  25  26
ENDBRANCH  21  25
BRANCH  23  36
HETATM   36  O   UNL     1     -10.763  11.340  69.837  1.00  0.00    -0.057 OA 
HETATM   37  C   UNL     1     -12.182  11.465  69.855  1.00  0.00    -0.277 C  
ENDBRANCH  23  36
ENDBRANCH  11  13
ENDBRANCH   5  11
ENDBRANCH   2   3
TORSDOF 9
ENDMDL
MODEL      208
REMARK 921   NORMALIZED FREE ENERGY PREDICTED BY IDOCK:   -3.30 KCAL/MOL
REMARK 922        TOTAL FREE ENERGY PREDICTED BY IDOCK:   -6.38 KCAL/MOL
REMARK 923 INTER-LIGAND FREE ENERGY PREDICTED BY IDOCK:   -6.26 KCAL/MOL
REMARK 924 INTRA-LIGAND FREE ENERGY PREDICTED BY IDOCK:   -0.13 KCAL/MOL
REMARK 927      BINDING AFFINITY PREDICTED BY RF-SCORE:    0.00 PKD
ROOT
HETATM    1  C   UNL     1     -12.766  13.980  72.776  1.00  0.00    -0.210 C  
HETATM    2  O   UNL     1     -11.604  14.768  72.530  1.00  0.00    -0.204 OA 
ENDROOT
BRANCH   2   3
HETATM    3  C   UNL     1     -11.412  15.150  71.226  1.00  0.00    -0.349 A  
HETATM    4  C   UNL     1     -10.142  15.300  70.657  1.00  0.00     0.372 A  
HETATM    5  C   UNL     1      -9.971  15.699  69.323  1.00  0.00    -0.265 A  
HETATM    6  C   UNL     1     -11.127  15.949  68.560  1.00  0.00    -0.340 A  
HETATM    7  C   UNL     1     -12.541  15.441  70.451  1.00  0.00    -0.389 A  
HETATM    8 CL   UNL     1     -11.000  16.417  66.899  1.00  0.00    -0.108 Cl 
HETATM    9  C   UNL     1     -12.402  15.827  69.118  1.00  0.00     0.049 A  
HETATM   10 CL   UNL     1     -14.138  15.303  71.099  1.00  0.00    -0.508 Cl 
BRANCH   5  11
HETATM   11  N   UNL     1      -8.680  15.943  68.786  1.00  0.00    -0.198 NA 
HETATM   12  H   UNL     1      -8.484  16.911  68.533  1.00  0.00     0.000 HD 
BRANCH  11  13
HETATM   13  C   UNL     1      -7.625  15.022  68.554  1.00  0.00    -0.118 A  
HETATM   14  C   UNL     1      -6.007  16.353  69.916  1.00  0.00    -0.195 C  
HETATM   15  C   UNL     1      -6.364  15.198  69.161  1.00  0.00    -0.109 A  
HETATM   16  C   UNL     1      -5.417  14.204  69.001  1.00  0.00    -0.084 A  
HETATM   17  N   UNL     1      -5.626  13.062  68.316  1.00  0.00    -0.073 NA 
HETATM   18  N   UNL     1      -5.683  17.264  70.559  1.00  0.00    -0.137 NA 
HETATM   19  C   UNL     1      -6.820  12.883  67.739  1.00  0.00    -0.138 A  
HETATM   20  C   UNL     1      -7.022  11.688  67.071  1.00  0.00    -0.144 A  
HETATM   21  C   UNL     1      -8.240  11.371  66.464  1.00  0.00    -0.152 A  
HETATM   22  C   UNL     1      -7.862  13.834  67.802  1.00  0.00    -0.174 A  
HETATM   23  C   UNL     1      -9.273  12.308  66.488  1.00  0.00    -0.219 A  
HETATM   24  C   UNL     1      -9.074  13.533  67.136  1.00  0.00    -0.232 A  
BRANCH  21  25
HETATM   25  O   UNL     1      -8.414  10.205  65.770  1.00  0.00    -0.137 OA 
BRANCH  25  26
HETATM   26  C   UNL     1      -7.253   9.367  65.693  1.00  0.00    -0.091 C  
BRANCH  26  27
HETATM   27  C   UNL     1      -7.737   7.928  65.785  1.00  0.00    -0.090 C  
BRANCH  27  28
HETATM   28  C   UNL     1      -9.115   7.805  66.437  1.00  0.00    -0.175 C  
BRANCH  28  29
HETATM   29  N   UNL     1      -9.109   7.860  67.909  1.00  0.00    -0.132 NA 
HETATM   30  C   UNL     1     -10.454   7.703  68.505  1.00  0.00    -0.174 C  
HETATM   31  C   UNL     1     -11.053   6.285  68.357  1.00  0.00    -0.279 C  
HETATM   32  N   UNL     1     -10.194   5.203  68.878  1.00  0.00    -0.178 NA 
HETATM   33  C   UNL     1      -8.821   5.360  68.354  1.00  0.00    -0.100 C  
HETATM   34  C   UNL     1     -10.201   5.184  70.341  1.00  0.00    -0.264 C  
HETATM   35  C   UNL     1      -8.235   6.793  68.458  1.00  0.00    -0.120 C  
ENDBRANCH  28  29
ENDBRANCH  27  28
ENDBRANCH  26  27
ENDBRANCH  25  26
ENDBRANCH  21  25
BRANCH  23  36
HETATM   36  O   UNL     1     -10.500  12.178  65.892  1.00  0.00    -0.240 OA 
HETATM   37  C   UNL     1     -10.621  12.787  64.610  1.00  0.00    -0.349 C  
ENDBRANCH  23  36
ENDBRANCH  11  13
ENDBRANCH   5  11
ENDBRANCH   2   3
TORSDOF 9
ENDMDL
MODEL      209
REMARK 921   NORMALIZED FREE ENERGY PREDICTED BY IDOCK:   -3.29 KCAL/MOL
REMARK 922        TOTAL FREE ENERGY PREDICTED BY IDOCK:   -6.37 KCAL/MOL
REMARK 923 INTER-LIGAND FREE ENERGY PREDICTED BY IDOCK:   -6.11 KCAL/MOL
REMARK 924 INTRA-LIGAND FREE ENERGY PREDICTED BY IDOCK:   -0.26 KCAL/MOL
REMARK 927      BINDING AFFINITY PREDICTED BY RF-SCORE:    0.00 PKD
ROOT
HETATM    1  C   UNL     1      -9.461   1.489  68.332  1.00  0.00    -0.186 C  
HETATM    2  O   UNL     1      -8.630   2.145  69.286  1.00  0.00    -0.053 OA 
ENDROOT
BRANCH   2   3
HETATM    3  C   UNL     1      -8.996   3.428  69.609  1.00  0.00    -0.113 A  
HETATM    4  C   UNL     1      -8.698   4.530  68.799  1.00  0.00    -0.116 A  
HETATM    5  C   UNL     1      -9.076   5.834  69.155  1.00  0.00    -0.117 A  
HETATM    6  C   UNL     1      -9.774   6.007  70.364  1.00  0.00    -0.169 A  
HETATM    7  C   UNL     1      -9.660   3.638  70.822  1.00  0.00    -0.179 A  
HETATM    8 CL   UNL     1     -10.301   7.579  70.858  1.00  0.00    -0.201 Cl 
HETATM    9  C   UNL     1     -10.061   4.922  71.195  1.00  0.00    -0.277 A  
HETATM   10 CL   UNL     1     -10.037   2.326  71.883  1.00  0.00    -0.226 Cl 
BRANCH   5  11
HETATM   11  N   UNL     1      -8.682   6.953  68.376  1.00  0.00    -0.125 NA 
HETATM   12  H   UNL     1      -8.932   6.914  67.389  1.00  0.00     0.000 HD 
BRANCH  11  13
HETATM   13  C   UNL     1      -7.988   8.121  68.787  1.00  0.00    -0.115 A  
HETATM   14  C   UNL     1      -6.519   6.841  70.351  1.00  0.00    -0.043 C  
HETATM   15  C   UNL     1      -6.904   8.041  69.686  1.00  0.00    -0.042 A  
HETATM   16  C   UNL     1      -6.187   9.193  69.951  1.00  0.00    -0.038 A  
HETATM   17  N   UNL     1      -6.443  10.390  69.388  1.00  0.00    -0.051 NA 
HETATM   18  N   UNL     1      -6.156   5.880  70.893  1.00  0.00    -0.032 NA 
HETATM   19  C   UNL     1      -7.467  10.477  68.531  1.00  0.00    -0.091 A  
HETATM   20  C   UNL     1      -7.688  11.710  67.941  1.00  0.00    -0.126 A  
HETATM   21  C   UNL     1      -8.702  11.913  67.000  1.00  0.00    -0.181 A  
HETATM   22  C   UNL     1      -8.296   9.383  68.199  1.00  0.00    -0.119 A  
HETATM   23  C   UNL     1      -9.551  10.853  66.680  1.00  0.00    -0.185 A  
HETATM   24  C   UNL     1      -9.357   9.609  67.290  1.00  0.00    -0.163 A  
BRANCH  21  25
HETATM   25  O   UNL     1      -8.938  13.145  66.455  1.00  0.00    -0.177 OA 
BRANCH  25  26
HETATM   26  C   UNL     1      -9.111  14.205  67.406  1.00  0.00    -0.198 C  
BRANCH  26  27
HETATM   27  C   UNL     1     -10.607  14.359  67.634  1.00  0.00    -0.260 C  
BRANCH  27  28
HETATM   28  C   UNL     1     -11.028  14.019  69.064  1.00  0.00    -0.259 C  
BRANCH  28  29
HETATM   29  N   UNL     1     -12.338  14.560  69.467  1.00  0.00    -0.258 NA 
HETATM   30  C   UNL     1     -13.062  13.686  70.416  1.00  0.00     0.190 C  
HETATM   31  C   UNL     1     -12.429  13.615  71.826  1.00  0.00    -0.109 C  
HETATM   32  N   UNL     1     -12.233  14.927  72.472  1.00  0.00    -0.328 NA 
HETATM   33  C   UNL     1     -11.564  15.852  71.532  1.00  0.00    -0.465 C  
HETATM   34  C   UNL     1     -13.504  15.479  72.941  1.00  0.00    -0.548 C  
HETATM   35  C   UNL     1     -12.169  15.890  70.104  1.00  0.00    -0.218 C  
ENDBRANCH  28  29
ENDBRANCH  27  28
ENDBRANCH  26  27
ENDBRANCH  25  26
ENDBRANCH  21  25
BRANCH  23  36
HETATM   36  O   UNL     1     -10.624  10.903  65.828  1.00  0.00    -0.232 OA 
HETATM   37  C   UNL     1     -10.363  11.486  64.555  1.00  0.00    -0.302 C  
ENDBRANCH  23  36
ENDBRANCH  11  13
ENDBRANCH   5  11
ENDBRANCH   2   3
TORSDOF 9
ENDMDL
MODEL      210
REMARK 921   NORMALIZED FREE ENERGY PREDICTED BY IDOCK:   -3.28 KCAL/MOL
REMARK 922        TOTAL FREE ENERGY PREDICTED BY IDOCK:   -6.35 KCAL/MOL
REMARK 923 INTER-LIGAND FREE ENERGY PREDICTED BY IDOCK:   -7.54 KCAL/MOL
REMARK 924 INTRA-LIGAND FREE ENERGY PREDICTED BY IDOCK:    1.20 KCAL/MOL
REMARK 927      BINDING AFFINITY PREDICTED BY RF-SCORE:    0.00 PKD
ROOT
HETATM    1  C   UNL     1      -9.737   6.280  74.366  1.00  0.00    -0.278 C  
HETATM    2  O   UNL     1      -8.934   5.773  73.302  1.00  0.00    -0.128 OA 
ENDROOT
BRANCH   2   3
HETATM    3  C   UNL     1      -9.450   5.933  72.041  1.00  0.00    -0.150 A  
HETATM    4  C   UNL     1      -9.787   7.185  71.511  1.00  0.00    -0.176 A  
HETATM    5  C   UNL     1     -10.321   7.322  70.220  1.00  0.00    -0.210 A  
HETATM    6  C   UNL     1     -10.513   6.152  69.462  1.00  0.00    -0.254 A  
HETATM    7  C   UNL     1      -9.687   4.787  71.275  1.00  0.00    -0.178 A  
HETATM    8 CL   UNL     1     -11.140   6.241  67.852  1.00  0.00    -0.415 Cl 
HETATM    9  C   UNL     1     -10.204   4.894  69.984  1.00  0.00    -0.313 A  
HETATM   10 CL   UNL     1      -9.320   3.209  71.879  1.00  0.00    -0.182 Cl 
BRANCH   5  11
HETATM   11  N   UNL     1     -10.750   8.583  69.731  1.00  0.00    -0.250 NA 
HETATM   12  H   UNL     1     -10.330   8.881  68.851  1.00  0.00     0.000 HD 
BRANCH  11  13
HETATM   13  C   UNL     1     -11.685   9.487  70.301  1.00  0.00    -0.117 A  
HETATM   14  C   UNL     1     -13.023   7.641  71.324  1.00  0.00    -0.246 C  
HETATM   15  C   UNL     1     -12.733   9.023  71.122  1.00  0.00    -0.242 A  
HETATM   16  C   UNL     1     -13.535   9.956  71.750  1.00  0.00    -0.353 A  
HETATM   17  N   UNL     1     -13.368  11.289  71.647  1.00  0.00    -0.295 NA 
HETATM   18  N   UNL     1     -13.277   6.528  71.537  1.00  0.00     0.031 NA 
HETATM   19  C   UNL     1     -12.374  11.742  70.874  1.00  0.00    -0.320 A  
HETATM   20  C   UNL     1     -12.202  13.114  70.811  1.00  0.00    -0.375 A  
HETATM   21  C   UNL     1     -11.174  13.702  70.069  1.00  0.00     0.117 A  
HETATM   22  C   UNL     1     -11.504  10.894  70.154  1.00  0.00    -0.405 A  
HETATM   23  C   UNL     1     -10.322  12.884  69.326  1.00  0.00     0.326 A  
HETATM   24  C   UNL     1     -10.501  11.496  69.358  1.00  0.00     0.007 A  
BRANCH  21  25
HETATM   25  O   UNL     1     -11.040  15.060  69.979  1.00  0.00    -0.253 OA 
BRANCH  25  26
HETATM   26  C   UNL     1     -12.009  15.711  69.147  1.00  0.00    -0.310 C  
BRANCH  26  27
HETATM   27  C   UNL     1     -12.104  14.904  67.860  1.00  0.00    -0.089 C  
BRANCH  27  28
HETATM   28  C   UNL     1     -11.060  15.318  66.822  1.00  0.00    -0.278 C  
BRANCH  28  29
HETATM   29  N   UNL     1     -10.582  14.224  65.958  1.00  0.00    -0.293 NA 
HETATM   30  C   UNL     1     -11.303  12.951  66.176  1.00  0.00    -0.317 C  
HETATM   31  C   UNL     1     -12.773  12.962  65.695  1.00  0.00    -0.031 C  
HETATM   32  N   UNL     1     -12.949  13.350  64.282  1.00  0.00    -0.423 NA 
HETATM   33  C   UNL     1     -12.191  14.589  64.006  1.00  0.00    -0.229 C  
HETATM   34  C   UNL     1     -12.539  12.270  63.385  1.00  0.00    -0.427 C  
HETATM   35  C   UNL     1     -10.730  14.598  64.530  1.00  0.00    -0.131 C  
ENDBRANCH  28  29
ENDBRANCH  27  28
ENDBRANCH  26  27
ENDBRANCH  25  26
ENDBRANCH  21  25
BRANCH  23  36
HETATM   36  O   UNL     1      -9.308  13.303  68.504  1.00  0.00    -0.182 OA 
HETATM   37  C   UNL     1      -8.312  12.326  68.220  1.00  0.00    -0.174 C  
ENDBRANCH  23  36
ENDBRANCH  11  13
ENDBRANCH   5  11
ENDBRANCH   2   3
TORSDOF 9
ENDMDL
MODEL      211
REMARK 921   NORMALIZED FREE ENERGY PREDICTED BY IDOCK:   -3.24 KCAL/MOL
REMARK 922        TOTAL FREE ENERGY PREDICTED BY IDOCK:   -6.28 KCAL/MOL
REMARK 923 INTER-LIGAND FREE ENERGY PREDICTED BY IDOCK:   -5.40 KCAL/MOL
REMARK 924 INTRA-LIGAND FREE ENERGY PREDICTED BY IDOCK:   -0.88 KCAL/MOL
REMARK 927      BINDING AFFINITY PREDICTED BY RF-SCORE:    0.00 PKD
ROOT
HETATM    1  C   UNL     1      -8.920   3.132  68.659  1.00  0.00    -0.135 C  
HETATM    2  O   UNL     1      -8.616   3.061  67.268  1.00  0.00    -0.093 OA 
ENDROOT
BRANCH   2   3
HETATM    3  C   UNL     1      -8.442   4.266  66.637  1.00  0.00    -0.108 A  
HETATM    4  C   UNL     1      -7.702   5.316  67.194  1.00  0.00    -0.096 A  
HETATM    5  C   UNL     1      -7.544   6.543  66.531  1.00  0.00    -0.090 A  
HETATM    6  C   UNL     1      -8.158   6.693  65.274  1.00  0.00    -0.130 A  
HETATM    7  C   UNL     1      -9.069   4.460  65.401  1.00  0.00    -0.143 A  
HETATM    8 CL   UNL     1      -7.986   8.166  64.382  1.00  0.00    -0.142 Cl 
HETATM    9  C   UNL     1      -8.919   5.664  64.713  1.00  0.00     0.143 A  
HETATM   10 CL   UNL     1     -10.020   3.215  64.669  1.00  0.00    -0.097 Cl 
BRANCH   5  11
HETATM   11  N   UNL     1      -6.877   7.633  67.148  1.00  0.00    -0.067 NA 
HETATM   12  H   UNL     1      -5.868   7.528  67.257  1.00  0.00     0.000 HD 
BRANCH  11  13
HETATM   13  C   UNL     1      -7.422   8.851  67.634  1.00  0.00    -0.092 A  
HETATM   14  C   UNL     1      -6.191  10.215  65.941  1.00  0.00    -0.096 C  
HETATM   15  C   UNL     1      -7.137  10.076  66.999  1.00  0.00    -0.089 A  
HETATM   16  C   UNL     1      -7.795  11.210  67.437  1.00  0.00    -0.121 A  
HETATM   17  N   UNL     1      -8.713  11.218  68.424  1.00  0.00    -0.154 NA 
HETATM   18  N   UNL     1      -5.449  10.366  65.060  1.00  0.00    -0.121 NA 
HETATM   19  C   UNL     1      -8.995  10.060  69.031  1.00  0.00    -0.163 A  
HETATM   20  C   UNL     1      -9.966  10.088  70.017  1.00  0.00    -0.273 A  
HETATM   21  C   UNL     1     -10.374   8.935  70.694  1.00  0.00    -0.215 A  
HETATM   22  C   UNL     1      -8.371   8.837  68.699  1.00  0.00    -0.128 A  
HETATM   23  C   UNL     1      -9.749   7.722  70.402  1.00  0.00    -0.179 A  
HETATM   24  C   UNL     1      -8.746   7.683  69.427  1.00  0.00    -0.136 A  
BRANCH  21  25
HETATM   25  O   UNL     1     -11.303   8.982  71.696  1.00  0.00    -0.310 OA 
BRANCH  25  26
HETATM   26  C   UNL     1     -12.652   8.725  71.285  1.00  0.00    -0.246 C  
BRANCH  26  27
HETATM   27  C   UNL     1     -13.487   9.916  71.731  1.00  0.00    -0.444 C  
BRANCH  27  28
HETATM   28  C   UNL     1     -13.225  11.171  70.898  1.00  0.00     0.114 C  
BRANCH  28  29
HETATM   29  N   UNL     1     -12.319  12.149  71.524  1.00  0.00    -0.011 NA 
HETATM   30  C   UNL     1     -11.731  13.102  70.556  1.00  0.00     0.045 C  
HETATM   31  C   UNL     1     -12.742  14.112  69.963  1.00  0.00    -0.103 C  
HETATM   32  N   UNL     1     -13.489  14.888  70.971  1.00  0.00    -0.387 NA 
HETATM   33  C   UNL     1     -14.043  13.976  71.995  1.00  0.00    -0.509 C  
HETATM   34  C   UNL     1     -12.642  15.913  71.581  1.00  0.00    -0.419 C  
HETATM   35  C   UNL     1     -13.043  12.931  72.556  1.00  0.00    -0.090 C  
ENDBRANCH  28  29
ENDBRANCH  27  28
ENDBRANCH  26  27
ENDBRANCH  25  26
ENDBRANCH  21  25
BRANCH  23  36
HETATM   36  O   UNL     1      -9.988   6.519  71.014  1.00  0.00    -0.183 OA 
HETATM   37  C   UNL     1      -8.837   5.710  71.234  1.00  0.00    -0.135 C  
ENDBRANCH  23  36
ENDBRANCH  11  13
ENDBRANCH   5  11
ENDBRANCH   2   3
TORSDOF 9
ENDMDL
MODEL      212
REMARK 921   NORMALIZED FREE ENERGY PREDICTED BY IDOCK:   -3.23 KCAL/MOL
REMARK 922        TOTAL FREE ENERGY PREDICTED BY IDOCK:   -6.27 KCAL/MOL
REMARK 923 INTER-LIGAND FREE ENERGY PREDICTED BY IDOCK:   -5.32 KCAL/MOL
REMARK 924 INTRA-LIGAND FREE ENERGY PREDICTED BY IDOCK:   -0.96 KCAL/MOL
REMARK 927      BINDING AFFINITY PREDICTED BY RF-SCORE:    0.00 PKD
ROOT
HETATM    1  C   UNL     1      -6.632   3.549  72.075  1.00  0.00    -0.015 C  
HETATM    2  O   UNL     1      -8.040   3.737  71.965  1.00  0.00    -0.070 OA 
ENDROOT
BRANCH   2   3
HETATM    3  C   UNL     1      -8.453   5.033  71.783  1.00  0.00    -0.124 A  
HETATM    4  C   UNL     1      -8.008   5.831  70.722  1.00  0.00    -0.113 A  
HETATM    5  C   UNL     1      -8.439   7.157  70.562  1.00  0.00    -0.139 A  
HETATM    6  C   UNL     1      -9.343   7.672  71.509  1.00  0.00    -0.136 A  
HETATM    7  C   UNL     1      -9.325   5.586  72.728  1.00  0.00    -0.138 A  
HETATM    8 CL   UNL     1      -9.944   9.288  71.365  1.00  0.00    -0.364 Cl 
HETATM    9  C   UNL     1      -9.781   6.897  72.587  1.00  0.00    -0.168 A  
HETATM   10 CL   UNL     1      -9.892   4.666  74.077  1.00  0.00    -0.160 Cl 
BRANCH   5  11
HETATM   11  N   UNL     1      -7.906   7.987  69.542  1.00  0.00    -0.103 NA 
HETATM   12  H   UNL     1      -6.889   8.041  69.504  1.00  0.00     0.000 HD 
BRANCH  11  13
HETATM   13  C   UNL     1      -8.597   8.752  68.566  1.00  0.00    -0.134 A  
HETATM   14  C   UNL     1      -9.872   6.767  67.742  1.00  0.00    -0.126 C  
HETATM   15  C   UNL     1      -9.590   8.165  67.755  1.00  0.00    -0.180 A  
HETATM   16  C   UNL     1     -10.317   8.984  66.912  1.00  0.00    -0.254 A  
HETATM   17  N   UNL     1     -10.154  10.319  66.829  1.00  0.00    -0.208 NA 
HETATM   18  N   UNL     1     -10.151   5.640  67.720  1.00  0.00    -0.157 NA 
HETATM   19  C   UNL     1      -9.217  10.889  67.597  1.00  0.00    -0.152 A  
HETATM   20  C   UNL     1      -9.092  12.265  67.519  1.00  0.00    -0.182 A  
HETATM   21  C   UNL     1      -8.178  12.975  68.302  1.00  0.00    -0.150 A  
HETATM   22  C   UNL     1      -8.387  10.160  68.477  1.00  0.00    -0.116 A  
HETATM   23  C   UNL     1      -7.327  12.272  69.156  1.00  0.00     0.091 A  
HETATM   24  C   UNL     1      -7.423  10.877  69.225  1.00  0.00    -0.124 A  
BRANCH  21  25
HETATM   25  O   UNL     1      -8.033  14.330  68.184  1.00  0.00    -0.121 OA 
BRANCH  25  26
HETATM   26  C   UNL     1      -9.152  15.011  67.600  1.00  0.00    -0.182 C  
BRANCH  26  27
HETATM   27  C   UNL     1      -8.597  15.942  66.532  1.00  0.00    -0.345 C  
BRANCH  27  28
HETATM   28  C   UNL     1      -7.391  16.749  67.016  1.00  0.00    -0.203 C  
BRANCH  28  29
HETATM   29  N   UNL     1      -7.714  18.086  67.544  1.00  0.00    -0.211 NA 
HETATM   30  C   UNL     1      -7.916  18.101  69.009  1.00  0.00    -0.069 C  
HETATM   31  C   UNL     1      -6.628  17.864  69.832  1.00  0.00     0.151 C  
HETATM   32  N   UNL     1      -5.523  18.790  69.514  1.00  0.00    -0.203 NA 
HETATM   33  C   UNL     1      -5.328  18.850  68.049  1.00  0.00    -0.172 C  
HETATM   34  C   UNL     1      -5.774  20.120  70.068  1.00  0.00    -0.306 C  
HETATM   35  C   UNL     1      -6.626  19.041  67.219  1.00  0.00    -0.193 C  
ENDBRANCH  28  29
ENDBRANCH  27  28
ENDBRANCH  26  27
ENDBRANCH  25  26
ENDBRANCH  21  25
BRANCH  23  36
HETATM   36  O   UNL     1      -6.341  12.809  69.940  1.00  0.00    -0.113 OA 
HETATM   37  C   UNL     1      -5.315  11.903  70.333  1.00  0.00    -0.131 C  
ENDBRANCH  23  36
ENDBRANCH  11  13
ENDBRANCH   5  11
ENDBRANCH   2   3
TORSDOF 9
ENDMDL
MODEL      213
REMARK 921   NORMALIZED FREE ENERGY PREDICTED BY IDOCK:   -3.22 KCAL/MOL
REMARK 922        TOTAL FREE ENERGY PREDICTED BY IDOCK:   -6.26 KCAL/MOL
REMARK 923 INTER-LIGAND FREE ENERGY PREDICTED BY IDOCK:   -5.87 KCAL/MOL
REMARK 924 INTRA-LIGAND FREE ENERGY PREDICTED BY IDOCK:   -0.39 KCAL/MOL
REMARK 927      BINDING AFFINITY PREDICTED BY RF-SCORE:    0.00 PKD
ROOT
HETATM    1  C   UNL     1      -8.496   9.331  62.734  1.00  0.00    -0.211 C  
HETATM    2  O   UNL     1      -8.622   8.368  63.777  1.00  0.00    -0.047 OA 
ENDROOT
BRANCH   2   3
HETATM    3  C   UNL     1      -8.605   8.870  65.054  1.00  0.00    -0.176 A  
HETATM    4  C   UNL     1      -9.760   9.004  65.834  1.00  0.00    -0.306 A  
HETATM    5  C   UNL     1      -9.718   9.529  67.135  1.00  0.00    -0.171 A  
HETATM    6  C   UNL     1      -8.467   9.922  67.643  1.00  0.00    -0.114 A  
HETATM    7  C   UNL     1      -7.381   9.304  65.575  1.00  0.00    -0.090 A  
HETATM    8 CL   UNL     1      -8.328  10.551  69.249  1.00  0.00    -0.159 Cl 
HETATM    9  C   UNL     1      -7.307   9.817  66.871  1.00  0.00    -0.091 A  
HETATM   10 CL   UNL     1      -5.920   9.193  64.657  1.00  0.00    -0.065 Cl 
BRANCH   5  11
HETATM   11  N   UNL     1     -10.906   9.752  67.877  1.00  0.00    -0.397 NA 
HETATM   12  H   UNL     1     -11.689  10.139  67.352  1.00  0.00     0.000 HD 
BRANCH  11  13
HETATM   13  C   UNL     1     -11.153   9.508  69.254  1.00  0.00    -0.082 A  
HETATM   14  C   UNL     1     -11.893  11.860  69.659  1.00  0.00    -0.337 C  
HETATM   15  C   UNL     1     -11.693  10.513  70.082  1.00  0.00    -0.410 A  
HETATM   16  C   UNL     1     -12.030  10.181  71.381  1.00  0.00    -0.358 A  
HETATM   17  N   UNL     1     -11.895   8.947  71.906  1.00  0.00    -0.349 NA 
HETATM   18  N   UNL     1     -12.097  12.960  69.347  1.00  0.00    -0.245 NA 
HETATM   19  C   UNL     1     -11.388   7.983  71.128  1.00  0.00    -0.266 A  
HETATM   20  C   UNL     1     -11.291   6.717  71.678  1.00  0.00    -0.305 A  
HETATM   21  C   UNL     1     -10.815   5.623  70.950  1.00  0.00    -0.224 A  
HETATM   22  C   UNL     1     -10.976   8.200  69.794  1.00  0.00    -0.133 A  
HETATM   23  C   UNL     1     -10.375   5.821  69.641  1.00  0.00    -0.260 A  
HETATM   24  C   UNL     1     -10.440   7.101  69.080  1.00  0.00    -0.219 A  
BRANCH  21  25
HETATM   25  O   UNL     1     -10.684   4.386  71.519  1.00  0.00     0.085 OA 
BRANCH  25  26
HETATM   26  C   UNL     1      -9.332   3.961  71.739  1.00  0.00    -0.134 C  
BRANCH  26  27
HETATM   27  C   UNL     1      -8.797   4.771  72.910  1.00  0.00    -0.118 C  
BRANCH  27  28
HETATM   28  C   UNL     1      -7.325   4.482  73.208  1.00  0.00    -0.081 C  
BRANCH  28  29
HETATM   29  N   UNL     1      -6.455   5.671  73.232  1.00  0.00    -0.066 NA 
HETATM   30  C   UNL     1      -5.289   5.558  72.328  1.00  0.00    -0.017 C  
HETATM   31  C   UNL     1      -5.645   5.598  70.823  1.00  0.00    -0.012 C  
HETATM   32  N   UNL     1      -6.429   6.779  70.413  1.00  0.00    -0.042 NA 
HETATM   33  C   UNL     1      -7.573   6.964  71.332  1.00  0.00    -0.087 C  
HETATM   34  C   UNL     1      -5.591   7.977  70.368  1.00  0.00    -0.022 C  
HETATM   35  C   UNL     1      -7.225   6.877  72.841  1.00  0.00    -0.074 C  
ENDBRANCH  28  29
ENDBRANCH  27  28
ENDBRANCH  26  27
ENDBRANCH  25  26
ENDBRANCH  21  25
BRANCH  23  36
HETATM   36  O   UNL     1      -9.827   4.871  68.818  1.00  0.00    -0.159 OA 
HETATM   37  C   UNL     1      -9.520   5.315  67.500  1.00  0.00    -0.125 C  
ENDBRANCH  23  36
ENDBRANCH  11  13
ENDBRANCH   5  11
ENDBRANCH   2   3
TORSDOF 9
ENDMDL
MODEL      214
REMARK 921   NORMALIZED FREE ENERGY PREDICTED BY IDOCK:   -3.21 KCAL/MOL
REMARK 922        TOTAL FREE ENERGY PREDICTED BY IDOCK:   -6.24 KCAL/MOL
REMARK 923 INTER-LIGAND FREE ENERGY PREDICTED BY IDOCK:   -7.18 KCAL/MOL
REMARK 924 INTRA-LIGAND FREE ENERGY PREDICTED BY IDOCK:    0.94 KCAL/MOL
REMARK 927      BINDING AFFINITY PREDICTED BY RF-SCORE:    0.00 PKD
ROOT
HETATM    1  C   UNL     1     -13.143  14.419  73.036  1.00  0.00    -0.481 C  
HETATM    2  O   UNL     1     -11.795  14.719  72.683  1.00  0.00    -0.240 OA 
ENDROOT
BRANCH   2   3
HETATM    3  C   UNL     1     -11.580  15.018  71.361  1.00  0.00    -0.346 A  
HETATM    4  C   UNL     1     -10.301  15.108  70.800  1.00  0.00     0.240 A  
HETATM    5  C   UNL     1     -10.107  15.424  69.446  1.00  0.00    -0.269 A  
HETATM    6  C   UNL     1     -11.248  15.651  68.656  1.00  0.00    -0.338 A  
HETATM    7  C   UNL     1     -12.693  15.284  70.556  1.00  0.00    -0.390 A  
HETATM    8 CL   UNL     1     -11.093  16.016  66.972  1.00  0.00    -0.154 Cl 
HETATM    9  C   UNL     1     -12.532  15.587  69.204  1.00  0.00     0.077 A  
HETATM   10 CL   UNL     1     -14.300  15.217  71.191  1.00  0.00    -0.483 Cl 
BRANCH   5  11
HETATM   11  N   UNL     1      -8.805  15.610  68.912  1.00  0.00    -0.204 NA 
HETATM   12  H   UNL     1      -8.426  16.553  68.991  1.00  0.00     0.000 HD 
BRANCH  11  13
HETATM   13  C   UNL     1      -7.958  14.659  68.283  1.00  0.00    -0.133 A  
HETATM   14  C   UNL     1      -5.967  16.162  68.430  1.00  0.00    -0.107 C  
HETATM   15  C   UNL     1      -6.581  14.913  68.121  1.00  0.00    -0.136 A  
HETATM   16  C   UNL     1      -5.783  13.902  67.617  1.00  0.00     0.003 A  
HETATM   17  N   UNL     1      -6.234  12.676  67.289  1.00  0.00    -0.232 NA 
HETATM   18  N   UNL     1      -5.424  17.154  68.693  1.00  0.00    -0.133 NA 
HETATM   19  C   UNL     1      -7.540  12.422  67.442  1.00  0.00    -0.160 A  
HETATM   20  C   UNL     1      -7.972  11.145  67.130  1.00  0.00    -0.139 A  
HETATM   21  C   UNL     1      -9.304  10.751  67.288  1.00  0.00    -0.151 A  
HETATM   22  C   UNL     1      -8.465  13.378  67.918  1.00  0.00    -0.173 A  
HETATM   23  C   UNL     1     -10.240  11.687  67.728  1.00  0.00    -0.186 A  
HETATM   24  C   UNL     1      -9.822  12.991  68.021  1.00  0.00    -0.224 A  
BRANCH  21  25
HETATM   25  O   UNL     1      -9.728   9.499  66.936  1.00  0.00    -0.162 OA 
BRANCH  25  26
HETATM   26  C   UNL     1      -8.715   8.485  66.968  1.00  0.00    -0.125 C  
BRANCH  26  27
HETATM   27  C   UNL     1      -9.113   7.493  68.051  1.00  0.00    -0.131 C  
BRANCH  27  28
HETATM   28  C   UNL     1     -10.424   7.866  68.745  1.00  0.00    -0.176 C  
BRANCH  28  29
HETATM   29  N   UNL     1     -10.265   8.635  69.992  1.00  0.00    -0.190 NA 
HETATM   30  C   UNL     1     -11.428   8.521  70.899  1.00  0.00    -0.267 C  
HETATM   31  C   UNL     1     -11.598   7.125  71.543  1.00  0.00    -0.278 C  
HETATM   32  N   UNL     1     -10.406   6.637  72.264  1.00  0.00    -0.195 NA 
HETATM   33  C   UNL     1      -9.208   6.791  71.411  1.00  0.00    -0.153 C  
HETATM   34  C   UNL     1     -10.240   7.335  73.538  1.00  0.00    -0.358 C  
HETATM   35  C   UNL     1      -9.061   8.176  70.727  1.00  0.00    -0.146 C  
ENDBRANCH  28  29
ENDBRANCH  27  28
ENDBRANCH  26  27
ENDBRANCH  25  26
ENDBRANCH  21  25
BRANCH  23  36
HETATM   36  O   UNL     1     -11.586  11.480  67.877  1.00  0.00    -0.391 OA 
HETATM   37  C   UNL     1     -12.089  11.674  69.195  1.00  0.00    -0.251 C  
ENDBRANCH  23  36
ENDBRANCH  11  13
ENDBRANCH   5  11
ENDBRANCH   2   3
TORSDOF 9
ENDMDL
MODEL      215
REMARK 921   NORMALIZED FREE ENERGY PREDICTED BY IDOCK:   -3.18 KCAL/MOL
REMARK 922        TOTAL FREE ENERGY PREDICTED BY IDOCK:   -6.19 KCAL/MOL
REMARK 923 INTER-LIGAND FREE ENERGY PREDICTED BY IDOCK:   -5.30 KCAL/MOL
REMARK 924 INTRA-LIGAND FREE ENERGY PREDICTED BY IDOCK:   -0.90 KCAL/MOL
REMARK 927      BINDING AFFINITY PREDICTED BY RF-SCORE:    0.00 PKD
ROOT
HETATM    1  C   UNL     1     -11.982   6.071  72.251  1.00  0.00    -0.204 C  
HETATM    2  O   UNL     1     -11.337   5.952  70.986  1.00  0.00    -0.263 OA 
ENDROOT
BRANCH   2   3
HETATM    3  C   UNL     1      -9.989   5.705  71.028  1.00  0.00    -0.192 A  
HETATM    4  C   UNL     1      -9.039   6.567  70.466  1.00  0.00    -0.152 A  
HETATM    5  C   UNL     1      -7.665   6.288  70.515  1.00  0.00    -0.101 A  
HETATM    6  C   UNL     1      -7.259   5.101  71.154  1.00  0.00    -0.068 A  
HETATM    7  C   UNL     1      -9.555   4.516  71.625  1.00  0.00    -0.159 A  
HETATM    8 CL   UNL     1      -5.581   4.701  71.282  1.00  0.00    -0.011 Cl 
HETATM    9  C   UNL     1      -8.194   4.218  71.701  1.00  0.00    -0.092 A  
HETATM   10 CL   UNL     1     -10.675   3.393  72.315  1.00  0.00     0.065 Cl 
BRANCH   5  11
HETATM   11  N   UNL     1      -6.720   7.117  69.857  1.00  0.00    -0.047 NA 
HETATM   12  H   UNL     1      -5.874   7.326  70.384  1.00  0.00     0.000 HD 
BRANCH  11  13
HETATM   13  C   UNL     1      -6.795   7.695  68.562  1.00  0.00    -0.066 A  
HETATM   14  C   UNL     1      -7.068   5.471  67.456  1.00  0.00    -0.074 C  
HETATM   15  C   UNL     1      -7.031   6.896  67.425  1.00  0.00    -0.079 A  
HETATM   16  C   UNL     1      -7.219   7.526  66.209  1.00  0.00    -0.074 A  
HETATM   17  N   UNL     1      -7.213   8.864  66.041  1.00  0.00    -0.088 NA 
HETATM   18  N   UNL     1      -7.131   4.312  67.442  1.00  0.00    -0.066 NA 
HETATM   19  C   UNL     1      -6.994   9.632  67.114  1.00  0.00    -0.085 A  
HETATM   20  C   UNL     1      -7.026  11.003  66.922  1.00  0.00    -0.125 A  
HETATM   21  C   UNL     1      -6.851  11.906  67.974  1.00  0.00    -0.072 A  
HETATM   22  C   UNL     1      -6.757   9.112  68.406  1.00  0.00    -0.059 A  
HETATM   23  C   UNL     1      -6.586  11.414  69.253  1.00  0.00    -0.106 A  
HETATM   24  C   UNL     1      -6.523  10.031  69.457  1.00  0.00    -0.051 A  
BRANCH  21  25
HETATM   25  O   UNL     1      -6.843  13.258  67.765  1.00  0.00    -0.120 OA 
BRANCH  25  26
HETATM   26  C   UNL     1      -7.995  13.955  68.257  1.00  0.00    -0.148 C  
BRANCH  26  27
HETATM   27  C   UNL     1      -8.534  14.791  67.106  1.00  0.00    -0.247 C  
BRANCH  27  28
HETATM   28  C   UNL     1      -9.974  14.434  66.736  1.00  0.00    -0.263 C  
BRANCH  28  29
HETATM   29  N   UNL     1     -10.168  13.047  66.280  1.00  0.00    -0.281 NA 
HETATM   30  C   UNL     1     -11.511  12.512  66.597  1.00  0.00    -0.359 C  
HETATM   31  C   UNL     1     -12.661  13.155  65.786  1.00  0.00    -0.284 C  
HETATM   32  N   UNL     1     -12.480  13.097  64.323  1.00  0.00    -0.616 NA 
HETATM   33  C   UNL     1     -11.124  13.567  63.967  1.00  0.00    -0.183 C  
HETATM   34  C   UNL     1     -12.719  11.746  63.816  1.00  0.00    -0.255 C  
HETATM   35  C   UNL     1      -9.973  12.958  64.812  1.00  0.00    -0.129 C  
ENDBRANCH  28  29
ENDBRANCH  27  28
ENDBRANCH  26  27
ENDBRANCH  25  26
ENDBRANCH  21  25
BRANCH  23  36
HETATM   36  O   UNL     1      -6.333  12.162  70.373  1.00  0.00    -0.146 OA 
HETATM   37  C   UNL     1      -5.272  11.684  71.195  1.00  0.00    -0.095 C  
ENDBRANCH  23  36
ENDBRANCH  11  13
ENDBRANCH   5  11
ENDBRANCH   2   3
TORSDOF 9
ENDMDL
MODEL      216
REMARK 921   NORMALIZED FREE ENERGY PREDICTED BY IDOCK:   -3.16 KCAL/MOL
REMARK 922        TOTAL FREE ENERGY PREDICTED BY IDOCK:   -6.16 KCAL/MOL
REMARK 923 INTER-LIGAND FREE ENERGY PREDICTED BY IDOCK:   -7.09 KCAL/MOL
REMARK 924 INTRA-LIGAND FREE ENERGY PREDICTED BY IDOCK:    0.93 KCAL/MOL
REMARK 927      BINDING AFFINITY PREDICTED BY RF-SCORE:    0.00 PKD
ROOT
HETATM    1  C   UNL     1     -10.995   6.819  69.372  1.00  0.00    -0.276 C  
HETATM    2  O   UNL     1     -10.326   7.969  69.884  1.00  0.00    -0.210 OA 
ENDROOT
BRANCH   2   3
HETATM    3  C   UNL     1     -10.773   9.176  69.408  1.00  0.00    -0.198 A  
HETATM    4  C   UNL     1     -10.548   9.605  68.094  1.00  0.00    -0.273 A  
HETATM    5  C   UNL     1     -11.008  10.848  67.632  1.00  0.00    -0.293 A  
HETATM    6  C   UNL     1     -11.713  11.663  68.537  1.00  0.00    -0.315 A  
HETATM    7  C   UNL     1     -11.445  10.026  70.292  1.00  0.00    -0.300 A  
HETATM    8 CL   UNL     1     -12.338  13.197  68.036  1.00  0.00    -0.051 Cl 
HETATM    9  C   UNL     1     -11.927  11.261  69.858  1.00  0.00    -0.440 A  
HETATM   10 CL   UNL     1     -11.733   9.570  71.935  1.00  0.00    -0.404 Cl 
BRANCH   5  11
HETATM   11  N   UNL     1     -10.690  11.315  66.331  1.00  0.00    -0.270 NA 
HETATM   12  H   UNL     1     -10.590  10.594  65.616  1.00  0.00     0.000 HD 
BRANCH  11  13
HETATM   13  C   UNL     1     -10.491  12.649  65.888  1.00  0.00    -0.274 A  
HETATM   14  C   UNL     1     -12.529  12.598  64.444  1.00  0.00    -0.428 C  
HETATM   15  C   UNL     1     -11.422  13.275  65.034  1.00  0.00    -0.329 A  
HETATM   16  C   UNL     1     -11.243  14.613  64.739  1.00  0.00    -0.389 A  
HETATM   17  N   UNL     1     -10.243  15.370  65.232  1.00  0.00    -0.366 NA 
HETATM   18  N   UNL     1     -13.457  12.092  63.963  1.00  0.00    -0.432 NA 
HETATM   19  C   UNL     1      -9.355  14.787  66.046  1.00  0.00    -0.214 A  
HETATM   20  C   UNL     1      -8.357  15.593  66.567  1.00  0.00    -0.276 A  
HETATM   21  C   UNL     1      -7.397  15.107  67.459  1.00  0.00    -0.196 A  
HETATM   22  C   UNL     1      -9.408  13.421  66.402  1.00  0.00    -0.185 A  
HETATM   23  C   UNL     1      -7.413  13.754  67.801  1.00  0.00    -0.163 A  
HETATM   24  C   UNL     1      -8.400  12.921  67.260  1.00  0.00    -0.185 A  
BRANCH  21  25
HETATM   25  O   UNL     1      -6.390  15.902  67.933  1.00  0.00    -0.114 OA 
BRANCH  25  26
HETATM   26  C   UNL     1      -5.570  16.507  66.925  1.00  0.00     0.001 C  
BRANCH  26  27
HETATM   27  C   UNL     1      -5.143  17.867  67.456  1.00  0.00    -0.133 C  
BRANCH  27  28
HETATM   28  C   UNL     1      -5.568  19.020  66.545  1.00  0.00    -0.157 C  
BRANCH  28  29
HETATM   29  N   UNL     1      -6.374  20.062  67.203  1.00  0.00    -0.187 NA 
HETATM   30  C   UNL     1      -7.664  19.558  67.725  1.00  0.00    -0.286 C  
HETATM   31  C   UNL     1      -7.532  18.607  68.938  1.00  0.00    -0.270 C  
HETATM   32  N   UNL     1      -6.769  19.166  70.070  1.00  0.00    -0.014 NA 
HETATM   33  C   UNL     1      -5.495  19.737  69.581  1.00  0.00    -0.216 C  
HETATM   34  C   UNL     1      -7.554  20.168  70.791  1.00  0.00     1.213 C  
HETATM   35  C   UNL     1      -5.620  20.654  68.336  1.00  0.00    -0.298 C  
ENDBRANCH  28  29
ENDBRANCH  27  28
ENDBRANCH  26  27
ENDBRANCH  25  26
ENDBRANCH  21  25
BRANCH  23  36
HETATM   36  O   UNL     1      -6.513  13.111  68.609  1.00  0.00    -0.075 OA 
HETATM   37  C   UNL     1      -5.302  12.712  67.974  1.00  0.00    -0.087 C  
ENDBRANCH  23  36
ENDBRANCH  11  13
ENDBRANCH   5  11
ENDBRANCH   2   3
TORSDOF 9
ENDMDL
MODEL      217
REMARK 921   NORMALIZED FREE ENERGY PREDICTED BY IDOCK:   -2.82 KCAL/MOL
REMARK 922        TOTAL FREE ENERGY PREDICTED BY IDOCK:   -5.65 KCAL/MOL
REMARK 923 INTER-LIGAND FREE ENERGY PREDICTED BY IDOCK:   -5.34 KCAL/MOL
REMARK 924 INTRA-LIGAND FREE ENERGY PREDICTED BY IDOCK:   -0.31 KCAL/MOL
REMARK 927      BINDING AFFINITY PREDICTED BY RF-SCORE:    0.00 PKD
ROOT
HETATM    1  C   UNL     1     -11.738   6.410  72.247  1.00  0.00    -0.290 C  
HETATM    2  O   UNL     1     -11.255   5.299  71.496  1.00  0.00    -0.042 OA 
ENDROOT
BRANCH   2   3
HETATM    3  C   UNL     1      -9.915   5.034  71.623  1.00  0.00    -0.187 A  
HETATM    4  C   UNL     1      -8.944   5.610  70.794  1.00  0.00    -0.154 A  
HETATM    5  C   UNL     1      -7.580   5.317  70.939  1.00  0.00    -0.088 A  
HETATM    6  C   UNL     1      -7.206   4.416  71.954  1.00  0.00    -0.063 A  
HETATM    7  C   UNL     1      -9.514   4.116  72.599  1.00  0.00    -0.128 A  
HETATM    8 CL   UNL     1      -5.541   4.027  72.214  1.00  0.00    -0.003 Cl 
HETATM    9  C   UNL     1      -8.163   3.816  72.775  1.00  0.00    -0.090 A  
HETATM   10 CL   UNL     1     -10.663   3.348  73.639  1.00  0.00    -0.280 Cl 
BRANCH   5  11
HETATM   11  N   UNL     1      -6.616   5.828  70.031  1.00  0.00    -0.041 NA 
HETATM   12  H   UNL     1      -5.817   6.298  70.455  1.00  0.00     0.000 HD 
BRANCH  11  13
HETATM   13  C   UNL     1      -6.614   5.773  68.612  1.00  0.00    -0.048 A  
HETATM   14  C   UNL     1      -5.895   3.380  68.589  1.00  0.00    -0.023 C  
HETATM   15  C   UNL     1      -6.332   4.569  67.935  1.00  0.00    -0.037 A  
HETATM   16  C   UNL     1      -6.468   4.544  66.559  1.00  0.00    -0.041 A  
HETATM   17  N   UNL     1      -6.875   5.595  65.820  1.00  0.00    -0.056 NA 
HETATM   18  N   UNL     1      -5.563   2.384  69.084  1.00  0.00    -0.020 NA 
HETATM   19  C   UNL     1      -7.150   6.742  66.453  1.00  0.00    -0.071 A  
HETATM   20  C   UNL     1      -7.598   7.796  65.676  1.00  0.00    -0.085 A  
HETATM   21  C   UNL     1      -7.954   9.029  66.229  1.00  0.00    -0.103 A  
HETATM   22  C   UNL     1      -7.021   6.907  67.850  1.00  0.00    -0.083 A  
HETATM   23  C   UNL     1      -7.807   9.224  67.602  1.00  0.00    -0.096 A  
HETATM   24  C   UNL     1      -7.328   8.176  68.397  1.00  0.00    -0.094 A  
BRANCH  21  25
HETATM   25  O   UNL     1      -8.356  10.077  65.446  1.00  0.00    -0.138 OA 
BRANCH  25  26
HETATM   26  C   UNL     1      -9.716  10.489  65.636  1.00  0.00    -0.234 C  
BRANCH  26  27
HETATM   27  C   UNL     1     -10.352  10.573  64.256  1.00  0.00    -0.208 C  
BRANCH  27  28
HETATM   28  C   UNL     1     -11.368  11.709  64.139  1.00  0.00    -0.317 C  
BRANCH  28  29
HETATM   29  N   UNL     1     -11.607  12.455  65.387  1.00  0.00    -0.366 NA 
HETATM   30  C   UNL     1     -10.379  13.064  65.946  1.00  0.00    -0.288 C  
HETATM   31  C   UNL     1      -9.814  14.238  65.113  1.00  0.00    -0.106 C  
HETATM   32  N   UNL     1     -10.782  15.321  64.851  1.00  0.00    -0.427 NA 
HETATM   33  C   UNL     1     -12.048  14.748  64.347  1.00  0.00    -0.440 C  
HETATM   34  C   UNL     1     -11.008  16.125  66.051  1.00  0.00    -0.056 C  
HETATM   35  C   UNL     1     -12.593  13.540  65.155  1.00  0.00    -0.436 C  
ENDBRANCH  28  29
ENDBRANCH  27  28
ENDBRANCH  26  27
ENDBRANCH  25  26
ENDBRANCH  21  25
BRANCH  23  36
HETATM   36  O   UNL     1      -8.052  10.385  68.288  1.00  0.00    -0.107 OA 
HETATM   37  C   UNL     1      -7.027  10.785  69.192  1.00  0.00    -0.091 C  
ENDBRANCH  23  36
ENDBRANCH  11  13
ENDBRANCH   5  11
ENDBRANCH   2   3
TORSDOF 9
ENDMDL
MODEL      218
REMARK 921   NORMALIZED FREE ENERGY PREDICTED BY IDOCK:   -2.79 KCAL/MOL
REMARK 922        TOTAL FREE ENERGY PREDICTED BY IDOCK:   -5.61 KCAL/MOL
REMARK 923 INTER-LIGAND FREE ENERGY PREDICTED BY IDOCK:   -4.31 KCAL/MOL
REMARK 924 INTRA-LIGAND FREE ENERGY PREDICTED BY IDOCK:   -1.29 KCAL/MOL
REMARK 927      BINDING AFFINITY PREDICTED BY RF-SCORE:    0.00 PKD
ROOT
HETATM    1  C   UNL     1      -9.852   2.006  68.157  1.00  0.00     0.379 C  
HETATM    2  O   UNL     1      -9.799   2.347  69.540  1.00  0.00     0.076 OA 
ENDROOT
BRANCH   2   3
HETATM    3  C   UNL     1      -8.760   3.163  69.910  1.00  0.00    -0.075 A  
HETATM    4  C   UNL     1      -8.111   4.021  69.015  1.00  0.00    -0.075 A  
HETATM    5  C   UNL     1      -7.044   4.841  69.416  1.00  0.00    -0.051 A  
HETATM    6  C   UNL     1      -6.639   4.777  70.762  1.00  0.00    -0.031 A  
HETATM    7  C   UNL     1      -8.308   3.097  71.233  1.00  0.00    -0.063 A  
HETATM    8 CL   UNL     1      -5.351   5.777  71.340  1.00  0.00    -0.016 Cl 
HETATM    9  C   UNL     1      -7.260   3.910  71.664  1.00  0.00    -0.046 A  
HETATM   10 CL   UNL     1      -9.047   2.039  72.385  1.00  0.00    -0.103 Cl 
BRANCH   5  11
HETATM   11  N   UNL     1      -6.331   5.632  68.479  1.00  0.00    -0.039 NA 
HETATM   12  H   UNL     1      -5.318   5.513  68.481  1.00  0.00     0.000 HD 
BRANCH  11  13
HETATM   13  C   UNL     1      -6.836   6.568  67.538  1.00  0.00    -0.076 A  
HETATM   14  C   UNL     1      -6.071   5.201  65.591  1.00  0.00    -0.033 C  
HETATM   15  C   UNL     1      -6.764   6.313  66.153  1.00  0.00    -0.056 A  
HETATM   16  C   UNL     1      -7.383   7.198  65.291  1.00  0.00    -0.080 A  
HETATM   17  N   UNL     1      -8.074   8.285  65.690  1.00  0.00    -0.116 NA 
HETATM   18  N   UNL     1      -5.540   4.295  65.094  1.00  0.00    -0.013 NA 
HETATM   19  C   UNL     1      -8.152   8.535  67.002  1.00  0.00    -0.103 A  
HETATM   20  C   UNL     1      -8.895   9.637  67.389  1.00  0.00    -0.134 A  
HETATM   21  C   UNL     1      -9.081   9.976  68.732  1.00  0.00    -0.148 A  
HETATM   22  C   UNL     1      -7.538   7.726  67.984  1.00  0.00    -0.120 A  
HETATM   23  C   UNL     1      -8.459   9.208  69.717  1.00  0.00    -0.139 A  
HETATM   24  C   UNL     1      -7.682   8.106  69.340  1.00  0.00    -0.103 A  
BRANCH  21  25
HETATM   25  O   UNL     1      -9.781  11.092  69.100  1.00  0.00    -0.173 OA 
BRANCH  25  26
HETATM   26  C   UNL     1     -11.202  10.917  69.177  1.00  0.00    -0.256 C  
BRANCH  26  27
HETATM   27  C   UNL     1     -11.827  12.299  69.054  1.00  0.00    -0.358 C  
BRANCH  27  28
HETATM   28  C   UNL     1     -11.104  13.190  68.042  1.00  0.00    -0.263 C  
BRANCH  28  29
HETATM   29  N   UNL     1     -10.836  12.554  66.741  1.00  0.00    -0.243 NA 
HETATM   30  C   UNL     1     -12.058  12.049  66.076  1.00  0.00     0.146 C  
HETATM   31  C   UNL     1     -13.011  13.157  65.568  1.00  0.00     0.063 C  
HETATM   32  N   UNL     1     -12.376  14.142  64.671  1.00  0.00    -0.580 NA 
HETATM   33  C   UNL     1     -11.116  14.627  65.272  1.00  0.00    -0.360 C  
HETATM   34  C   UNL     1     -12.142  13.571  63.345  1.00  0.00    -0.289 C  
HETATM   35  C   UNL     1     -10.180  13.520  65.824  1.00  0.00    -0.297 C  
ENDBRANCH  28  29
ENDBRANCH  27  28
ENDBRANCH  26  27
ENDBRANCH  25  26
ENDBRANCH  21  25
BRANCH  23  36
HETATM   36  O   UNL     1      -8.491   9.440  71.067  1.00  0.00    -0.285 OA 
HETATM   37  C   UNL     1      -9.341   8.574  71.812  1.00  0.00    -0.253 C  
ENDBRANCH  23  36
ENDBRANCH  11  13
ENDBRANCH   5  11
ENDBRANCH   2   3
TORSDOF 9
ENDMDL
MODEL      219
REMARK 921   NORMALIZED FREE ENERGY PREDICTED BY IDOCK:   -2.77 KCAL/MOL
REMARK 922        TOTAL FREE ENERGY PREDICTED BY IDOCK:   -5.57 KCAL/MOL
REMARK 923 INTER-LIGAND FREE ENERGY PREDICTED BY IDOCK:   -5.99 KCAL/MOL
REMARK 924 INTRA-LIGAND FREE ENERGY PREDICTED BY IDOCK:    0.42 KCAL/MOL
REMARK 927      BINDING AFFINITY PREDICTED BY RF-SCORE:    0.00 PKD
ROOT
HETATM    1  C   UNL     1      -8.278   4.052  67.093  1.00  0.00    -0.099 C  
HETATM    2  O   UNL     1      -7.594   4.625  68.205  1.00  0.00    -0.075 OA 
ENDROOT
BRANCH   2   3
HETATM    3  C   UNL     1      -8.232   5.674  68.817  1.00  0.00    -0.103 A  
HETATM    4  C   UNL     1      -7.898   7.012  68.577  1.00  0.00    -0.122 A  
HETATM    5  C   UNL     1      -8.560   8.068  69.222  1.00  0.00    -0.137 A  
HETATM    6  C   UNL     1      -9.584   7.742  70.131  1.00  0.00    -0.168 A  
HETATM    7  C   UNL     1      -9.230   5.382  69.753  1.00  0.00    -0.132 A  
HETATM    8 CL   UNL     1     -10.468   8.987  70.944  1.00  0.00    -0.294 Cl 
HETATM    9  C   UNL     1      -9.915   6.411  70.400  1.00  0.00    -0.213 A  
HETATM   10 CL   UNL     1      -9.674   3.751  70.118  1.00  0.00    -0.259 Cl 
BRANCH   5  11
HETATM   11  N   UNL     1      -8.148   9.414  69.046  1.00  0.00    -0.103 NA 
HETATM   12  H   UNL     1      -7.441   9.748  69.700  1.00  0.00     0.000 HD 
BRANCH  11  13
HETATM   13  C   UNL     1      -8.586  10.359  68.081  1.00  0.00    -0.125 A  
HETATM   14  C   UNL     1     -10.286   8.788  67.141  1.00  0.00    -0.293 C  
HETATM   15  C   UNL     1      -9.662  10.067  67.218  1.00  0.00    -0.206 A  
HETATM   16  C   UNL     1     -10.126  11.070  66.388  1.00  0.00    -0.229 A  
HETATM   17  N   UNL     1      -9.629  12.322  66.363  1.00  0.00    -0.233 NA 
HETATM   18  N   UNL     1     -10.839   7.769  67.066  1.00  0.00    -0.246 NA 
HETATM   19  C   UNL     1      -8.610  12.612  67.180  1.00  0.00    -0.199 A  
HETATM   20  C   UNL     1      -8.140  13.914  67.161  1.00  0.00    -0.103 A  
HETATM   21  C   UNL     1      -7.107  14.345  67.998  1.00  0.00    -0.138 A  
HETATM   22  C   UNL     1      -8.025  11.670  68.055  1.00  0.00    -0.132 A  
HETATM   23  C   UNL     1      -6.495  13.423  68.848  1.00  0.00    -0.103 A  
HETATM   24  C   UNL     1      -6.941  12.097  68.859  1.00  0.00    -0.102 A  
BRANCH  21  25
HETATM   25  O   UNL     1      -6.622  15.622  67.939  1.00  0.00    -0.126 OA 
BRANCH  25  26
HETATM   26  C   UNL     1      -7.025  16.474  69.020  1.00  0.00    -0.208 C  
BRANCH  26  27
HETATM   27  C   UNL     1      -7.846  17.602  68.415  1.00  0.00    -0.268 C  
BRANCH  27  28
HETATM   28  C   UNL     1      -9.084  17.102  67.670  1.00  0.00    -0.227 C  
BRANCH  28  29
HETATM   29  N   UNL     1     -10.348  17.233  68.416  1.00  0.00    -0.344 NA 
HETATM   30  C   UNL     1     -11.505  16.636  67.713  1.00  0.00     0.198 C  
HETATM   31  C   UNL     1     -11.475  15.091  67.635  1.00  0.00    -0.333 C  
HETATM   32  N   UNL     1     -11.337  14.419  68.942  1.00  0.00    -0.258 NA 
HETATM   33  C   UNL     1     -10.227  15.029  69.704  1.00  0.00    -0.157 C  
HETATM   34  C   UNL     1     -12.589  14.475  69.697  1.00  0.00    -0.070 C  
HETATM   35  C   UNL     1     -10.230  16.580  69.743  1.00  0.00    -0.090 C  
ENDBRANCH  28  29
ENDBRANCH  27  28
ENDBRANCH  26  27
ENDBRANCH  25  26
ENDBRANCH  21  25
BRANCH  23  36
HETATM   36  O   UNL     1      -5.436  13.669  69.682  1.00  0.00    -0.085 OA 
HETATM   37  C   UNL     1      -5.759  13.748  71.067  1.00  0.00    -0.210 C  
ENDBRANCH  23  36
ENDBRANCH  11  13
ENDBRANCH   5  11
ENDBRANCH   2   3
TORSDOF 9
ENDMDL
MODEL      220
REMARK 921   NORMALIZED FREE ENERGY PREDICTED BY IDOCK:   -2.73 KCAL/MOL
REMARK 922        TOTAL FREE ENERGY PREDICTED BY IDOCK:   -5.51 KCAL/MOL
REMARK 923 INTER-LIGAND FREE ENERGY PREDICTED BY IDOCK:   -4.85 KCAL/MOL
REMARK 924 INTRA-LIGAND FREE ENERGY PREDICTED BY IDOCK:   -0.65 KCAL/MOL
REMARK 927      BINDING AFFINITY PREDICTED BY RF-SCORE:    0.00 PKD
ROOT
HETATM    1  C   UNL     1     -11.875  15.947  68.894  1.00  0.00    -0.304 C  
HETATM    2  O   UNL     1     -10.520  15.517  68.794  1.00  0.00    -0.222 OA 
ENDROOT
BRANCH   2   3
HETATM    3  C   UNL     1     -10.290  14.476  67.931  1.00  0.00    -0.231 A  
HETATM    4  C   UNL     1      -9.786  13.238  68.350  1.00  0.00    -0.218 A  
HETATM    5  C   UNL     1      -9.552  12.190  67.446  1.00  0.00    -0.177 A  
HETATM    6  C   UNL     1      -9.841  12.418  66.088  1.00  0.00    -0.252 A  
HETATM    7  C   UNL     1     -10.533  14.682  66.568  1.00  0.00    -0.290 A  
HETATM    8 CL   UNL     1      -9.608  11.167  64.917  1.00  0.00    -0.264 Cl 
HETATM    9  C   UNL     1     -10.323  13.654  65.649  1.00  0.00    -0.309 A  
HETATM   10 CL   UNL     1     -11.130  16.194  65.979  1.00  0.00    -0.035 Cl 
BRANCH   5  11
HETATM   11  N   UNL     1      -8.949  10.976  67.866  1.00  0.00    -0.140 NA 
HETATM   12  H   UNL     1      -7.981  11.049  68.177  1.00  0.00     0.000 HD 
BRANCH  11  13
HETATM   13  C   UNL     1      -9.512   9.673  67.913  1.00  0.00    -0.131 A  
HETATM   14  C   UNL     1     -11.220  10.345  69.608  1.00  0.00    -0.277 C  
HETATM   15  C   UNL     1     -10.647   9.403  68.705  1.00  0.00    -0.230 A  
HETATM   16  C   UNL     1     -11.226   8.151  68.613  1.00  0.00     0.553 A  
HETATM   17  N   UNL     1     -10.787   7.172  67.798  1.00  0.00    -0.205 NA 
HETATM   18  N   UNL     1     -11.734  11.090  70.336  1.00  0.00    -0.335 NA 
HETATM   19  C   UNL     1      -9.712   7.419  67.039  1.00  0.00    -0.191 A  
HETATM   20  C   UNL     1      -9.302   6.410  66.185  1.00  0.00    -0.110 A  
HETATM   21  C   UNL     1      -8.218   6.565  65.317  1.00  0.00    -0.135 A  
HETATM   22  C   UNL     1      -9.012   8.645  67.062  1.00  0.00    -0.152 A  
HETATM   23  C   UNL     1      -7.493   7.757  65.344  1.00  0.00    -0.081 A  
HETATM   24  C   UNL     1      -7.880   8.776  66.222  1.00  0.00    -0.102 A  
BRANCH  21  25
HETATM   25  O   UNL     1      -7.794   5.546  64.508  1.00  0.00    -0.095 OA 
BRANCH  25  26
HETATM   26  C   UNL     1      -8.506   4.312  64.666  1.00  0.00    -0.117 C  
BRANCH  26  27
HETATM   27  C   UNL     1      -7.467   3.229  64.917  1.00  0.00    -0.072 C  
BRANCH  27  28
HETATM   28  C   UNL     1      -7.656   2.525  66.262  1.00  0.00    -0.072 C  
BRANCH  28  29
HETATM   29  N   UNL     1      -8.486   3.259  67.232  1.00  0.00    -0.095 NA 
HETATM   30  C   UNL     1      -9.374   2.379  68.023  1.00  0.00    -0.202 C  
HETATM   31  C   UNL     1      -8.635   1.472  69.035  1.00  0.00    -0.057 C  
HETATM   32  N   UNL     1      -7.756   2.197  69.973  1.00  0.00    -0.043 NA 
HETATM   33  C   UNL     1      -6.892   3.135  69.225  1.00  0.00    -0.041 C  
HETATM   34  C   UNL     1      -8.538   2.898  70.992  1.00  0.00    -0.064 C  
HETATM   35  C   UNL     1      -7.625   4.013  68.177  1.00  0.00    -0.067 C  
ENDBRANCH  28  29
ENDBRANCH  27  28
ENDBRANCH  26  27
ENDBRANCH  25  26
ENDBRANCH  21  25
BRANCH  23  36
HETATM   36  O   UNL     1      -6.375   8.044  64.604  1.00  0.00    -0.052 OA 
HETATM   37  C   UNL     1      -5.508   9.022  65.169  1.00  0.00    -0.042 C  
ENDBRANCH  23  36
ENDBRANCH  11  13
ENDBRANCH   5  11
ENDBRANCH   2   3
TORSDOF 9
ENDMDL
MODEL      221
REMARK 921   NORMALIZED FREE ENERGY PREDICTED BY IDOCK:   -2.62 KCAL/MOL
REMARK 922        TOTAL FREE ENERGY PREDICTED BY IDOCK:   -5.34 KCAL/MOL
REMARK 923 INTER-LIGAND FREE ENERGY PREDICTED BY IDOCK:   -4.28 KCAL/MOL
REMARK 924 INTRA-LIGAND FREE ENERGY PREDICTED BY IDOCK:   -1.06 KCAL/MOL
REMARK 927      BINDING AFFINITY PREDICTED BY RF-SCORE:    0.00 PKD
ROOT
HETATM    1  C   UNL     1     -11.967  14.437  71.145  1.00  0.00    -0.316 C  
HETATM    2  O   UNL     1     -11.919  14.499  69.722  1.00  0.00    -0.294 OA 
ENDROOT
BRANCH   2   3
HETATM    3  C   UNL     1     -10.691  14.784  69.182  1.00  0.00    -0.254 A  
HETATM    4  C   UNL     1      -9.845  13.799  68.655  1.00  0.00    -0.158 A  
HETATM    5  C   UNL     1      -8.589  14.114  68.114  1.00  0.00    -0.175 A  
HETATM    6  C   UNL     1      -8.195  15.465  68.115  1.00  0.00    -0.144 A  
HETATM    7  C   UNL     1     -10.254  16.113  69.200  1.00  0.00    -0.255 A  
HETATM    8 CL   UNL     1      -6.674  15.938  67.440  1.00  0.00    -0.212 Cl 
HETATM    9  C   UNL     1      -9.016  16.457  68.657  1.00  0.00    -0.233 A  
HETATM   10 CL   UNL     1     -11.235  17.374  69.860  1.00  0.00     0.869 Cl 
BRANCH   5  11
HETATM   11  N   UNL     1      -7.701  13.099  67.674  1.00  0.00    -0.153 NA 
HETATM   12  H   UNL     1      -7.323  13.221  66.735  1.00  0.00     0.000 HD 
BRANCH  11  13
HETATM   13  C   UNL     1      -7.268  11.936  68.364  1.00  0.00    -0.091 A  
HETATM   14  C   UNL     1      -6.064  13.272  70.100  1.00  0.00    -0.107 C  
HETATM   15  C   UNL     1      -6.539  12.038  69.567  1.00  0.00    -0.079 A  
HETATM   16  C   UNL     1      -6.254  10.876  70.260  1.00  0.00    -0.141 A  
HETATM   17  N   UNL     1      -6.646   9.647  69.871  1.00  0.00    -0.057 NA 
HETATM   18  N   UNL     1      -5.682  14.257  70.581  1.00  0.00    -0.158 NA 
HETATM   19  C   UNL     1      -7.341   9.539  68.732  1.00  0.00    -0.074 A  
HETATM   20  C   UNL     1      -7.762   8.271  68.371  1.00  0.00    -0.105 A  
HETATM   21  C   UNL     1      -8.528   8.039  67.226  1.00  0.00    -0.125 A  
HETATM   22  C   UNL     1      -7.671  10.644  67.917  1.00  0.00    -0.100 A  
HETATM   23  C   UNL     1      -8.840   9.111  66.390  1.00  0.00    -0.141 A  
HETATM   24  C   UNL     1      -8.398  10.396  66.728  1.00  0.00    -0.126 A  
BRANCH  21  25
HETATM   25  O   UNL     1      -8.901   6.775  66.856  1.00  0.00    -0.114 OA 
BRANCH  25  26
HETATM   26  C   UNL     1     -10.195   6.366  67.319  1.00  0.00    -0.187 C  
BRANCH  26  27
HETATM   27  C   UNL     1     -10.046   6.004  68.789  1.00  0.00    -0.210 C  
BRANCH  27  28
HETATM   28  C   UNL     1      -9.724   4.525  69.007  1.00  0.00    -0.165 C  
BRANCH  28  29
HETATM   29  N   UNL     1      -9.931   4.044  70.384  1.00  0.00    -0.128 NA 
HETATM   30  C   UNL     1      -9.444   2.663  70.599  1.00  0.00    -0.135 C  
HETATM   31  C   UNL     1      -7.905   2.518  70.563  1.00  0.00    -0.042 C  
HETATM   32  N   UNL     1      -7.187   3.407  71.498  1.00  0.00    -0.035 NA 
HETATM   33  C   UNL     1      -7.689   4.790  71.358  1.00  0.00    -0.090 C  
HETATM   34  C   UNL     1      -7.318   2.935  72.877  1.00  0.00    -0.045 C  
HETATM   35  C   UNL     1      -9.234   4.932  71.347  1.00  0.00    -0.145 C  
ENDBRANCH  28  29
ENDBRANCH  27  28
ENDBRANCH  26  27
ENDBRANCH  25  26
ENDBRANCH  21  25
BRANCH  23  36
HETATM   36  O   UNL     1      -9.527   9.044  65.206  1.00  0.00    -0.186 OA 
HETATM   37  C   UNL     1      -8.741   9.245  64.035  1.00  0.00    -0.171 C  
ENDBRANCH  23  36
ENDBRANCH  11  13
ENDBRANCH   5  11
ENDBRANCH   2   3
TORSDOF 9
ENDMDL
MODEL      222
REMARK 921   NORMALIZED FREE ENERGY PREDICTED BY IDOCK:   -2.62 KCAL/MOL
REMARK 922        TOTAL FREE ENERGY PREDICTED BY IDOCK:   -5.34 KCAL/MOL
REMARK 923 INTER-LIGAND FREE ENERGY PREDICTED BY IDOCK:   -4.96 KCAL/MOL
REMARK 924 INTRA-LIGAND FREE ENERGY PREDICTED BY IDOCK:   -0.38 KCAL/MOL
REMARK 927      BINDING AFFINITY PREDICTED BY RF-SCORE:    0.00 PKD
ROOT
HETATM    1  C   UNL     1      -7.660   4.319  66.629  1.00  0.00    -0.085 C  
HETATM    2  O   UNL     1      -6.548   4.099  67.493  1.00  0.00    -0.044 OA 
ENDROOT
BRANCH   2   3
HETATM    3  C   UNL     1      -6.606   4.734  68.707  1.00  0.00    -0.045 A  
HETATM    4  C   UNL     1      -7.194   5.993  68.880  1.00  0.00    -0.083 A  
HETATM    5  C   UNL     1      -7.233   6.626  70.132  1.00  0.00    -0.080 A  
HETATM    6  C   UNL     1      -6.659   5.953  71.226  1.00  0.00    -0.050 A  
HETATM    7  C   UNL     1      -6.012   4.107  69.808  1.00  0.00    -0.018 A  
HETATM    8 CL   UNL     1      -6.693   6.654  72.807  1.00  0.00    -0.067 Cl 
HETATM    9  C   UNL     1      -6.048   4.706  71.068  1.00  0.00    -0.018 A  
HETATM   10 CL   UNL     1      -5.245   2.564  69.661  1.00  0.00    -0.011 Cl 
BRANCH   5  11
HETATM   11  N   UNL     1      -7.742   7.943  70.276  1.00  0.00    -0.086 NA 
HETATM   12  H   UNL     1      -7.309   8.506  71.006  1.00  0.00     0.000 HD 
BRANCH  11  13
HETATM   13  C   UNL     1      -8.774   8.582  69.539  1.00  0.00    -0.136 A  
HETATM   14  C   UNL     1     -10.264   6.580  69.661  1.00  0.00    -0.187 C  
HETATM   15  C   UNL     1     -10.007   7.938  69.311  1.00  0.00    -0.190 A  
HETATM   16  C   UNL     1     -11.018   8.656  68.699  1.00  0.00     0.163 A  
HETATM   17  N   UNL     1     -10.909   9.945  68.322  1.00  0.00    -0.242 NA 
HETATM   18  N   UNL     1     -10.523   5.487  69.954  1.00  0.00    -0.296 NA 
HETATM   19  C   UNL     1      -9.744  10.568  68.537  1.00  0.00    -0.165 A  
HETATM   20  C   UNL     1      -9.668  11.901  68.171  1.00  0.00    -0.194 A  
HETATM   21  C   UNL     1      -8.518  12.666  68.383  1.00  0.00    -0.121 A  
HETATM   22  C   UNL     1      -8.625   9.938  69.125  1.00  0.00    -0.157 A  
HETATM   23  C   UNL     1      -7.391  12.057  68.935  1.00  0.00    -0.067 A  
HETATM   24  C   UNL     1      -7.444  10.702  69.284  1.00  0.00    -0.130 A  
BRANCH  21  25
HETATM   25  O   UNL     1      -8.440  13.971  67.979  1.00  0.00    -0.150 OA 
BRANCH  25  26
HETATM   26  C   UNL     1      -8.664  14.186  66.580  1.00  0.00     0.052 C  
BRANCH  26  27
HETATM   27  C   UNL     1      -9.815  15.174  66.461  1.00  0.00    -0.278 C  
BRANCH  27  28
HETATM   28  C   UNL     1      -9.344  16.625  66.360  1.00  0.00    -0.281 C  
BRANCH  28  29
HETATM   29  N   UNL     1      -8.067  16.909  67.039  1.00  0.00    -0.184 NA 
HETATM   30  C   UNL     1      -7.082  17.587  66.168  1.00  0.00    -0.306 C  
HETATM   31  C   UNL     1      -7.448  19.046  65.808  1.00  0.00    -0.152 C  
HETATM   32  N   UNL     1      -7.703  19.915  66.973  1.00  0.00    -0.266 NA 
HETATM   33  C   UNL     1      -8.639  19.246  67.902  1.00  0.00    -0.312 C  
HETATM   34  C   UNL     1      -6.454  20.270  67.648  1.00  0.00    -0.244 C  
HETATM   35  C   UNL     1      -8.299  17.767  68.227  1.00  0.00    -0.276 C  
ENDBRANCH  28  29
ENDBRANCH  27  28
ENDBRANCH  26  27
ENDBRANCH  25  26
ENDBRANCH  21  25
BRANCH  23  36
HETATM   36  O   UNL     1      -6.173  12.647  69.150  1.00  0.00    -0.084 OA 
HETATM   37  C   UNL     1      -5.668  12.534  70.477  1.00  0.00    -0.170 C  
ENDBRANCH  23  36
ENDBRANCH  11  13
ENDBRANCH   5  11
ENDBRANCH   2   3
TORSDOF 9
ENDMDL
MODEL      223
REMARK 921   NORMALIZED FREE ENERGY PREDICTED BY IDOCK:   -2.58 KCAL/MOL
REMARK 922        TOTAL FREE ENERGY PREDICTED BY IDOCK:   -5.28 KCAL/MOL
REMARK 923 INTER-LIGAND FREE ENERGY PREDICTED BY IDOCK:   -4.72 KCAL/MOL
REMARK 924 INTRA-LIGAND FREE ENERGY PREDICTED BY IDOCK:   -0.57 KCAL/MOL
REMARK 927      BINDING AFFINITY PREDICTED BY RF-SCORE:    0.00 PKD
ROOT
HETATM    1  C   UNL     1      -7.785   2.332  70.405  1.00  0.00    -0.042 C  
HETATM    2  O   UNL     1      -7.610   2.581  71.797  1.00  0.00    -0.040 OA 
ENDROOT
BRANCH   2   3
HETATM    3  C   UNL     1      -8.369   3.599  72.317  1.00  0.00    -0.084 A  
HETATM    4  C   UNL     1      -8.092   4.951  72.081  1.00  0.00    -0.111 A  
HETATM    5  C   UNL     1      -8.879   5.975  72.631  1.00  0.00    -0.124 A  
HETATM    6  C   UNL     1      -9.969   5.602  73.438  1.00  0.00    -0.175 A  
HETATM    7  C   UNL     1      -9.439   3.263  73.154  1.00  0.00    -0.098 A  
HETATM    8 CL   UNL     1     -11.004   6.805  74.129  1.00  0.00     0.359 Cl 
HETATM    9  C   UNL     1     -10.247   4.259  73.703  1.00  0.00    -0.214 A  
HETATM   10 CL   UNL     1      -9.821   1.614  73.509  1.00  0.00    -0.107 Cl 
BRANCH   5  11
HETATM   11  N   UNL     1      -8.530   7.341  72.466  1.00  0.00    -0.107 NA 
HETATM   12  H   UNL     1      -8.256   7.832  73.317  1.00  0.00     0.000 HD 
BRANCH  11  13
HETATM   13  C   UNL     1      -8.512   8.117  71.277  1.00  0.00    -0.132 A  
HETATM   14  C   UNL     1      -6.346   7.126  70.524  1.00  0.00    -0.039 C  
HETATM   15  C   UNL     1      -7.490   7.952  70.320  1.00  0.00    -0.077 A  
HETATM   16  C   UNL     1      -7.593   8.642  69.127  1.00  0.00    -0.089 A  
HETATM   17  N   UNL     1      -8.622   9.450  68.807  1.00  0.00    -0.125 NA 
HETATM   18  N   UNL     1      -5.413   6.445  70.638  1.00  0.00    -0.018 NA 
HETATM   19  C   UNL     1      -9.600   9.612  69.706  1.00  0.00    -0.219 A  
HETATM   20  C   UNL     1     -10.662  10.421  69.340  1.00  0.00    -0.277 A  
HETATM   21  C   UNL     1     -11.760  10.632  70.179  1.00  0.00    -0.332 A  
HETATM   22  C   UNL     1      -9.599   8.988  70.973  1.00  0.00    -0.348 A  
HETATM   23  C   UNL     1     -11.766  10.050  71.447  1.00  0.00    -0.334 A  
HETATM   24  C   UNL     1     -10.685   9.252  71.841  1.00  0.00    -0.209 A  
BRANCH  21  25
HETATM   25  O   UNL     1     -12.783  11.467  69.824  1.00  0.00    -0.012 OA 
BRANCH  25  26
HETATM   26  C   UNL     1     -12.483  12.372  68.753  1.00  0.00     0.586 C  
BRANCH  26  27
HETATM   27  C   UNL     1     -12.517  13.777  69.335  1.00  0.00    -0.062 C  
BRANCH  27  28
HETATM   28  C   UNL     1     -11.261  14.117  70.138  1.00  0.00    -0.004 C  
BRANCH  28  29
HETATM   29  N   UNL     1     -10.805  15.512  70.010  1.00  0.00    -0.294 NA 
HETATM   30  C   UNL     1      -9.359  15.628  69.716  1.00  0.00    -0.116 C  
HETATM   31  C   UNL     1      -8.957  15.153  68.300  1.00  0.00    -0.175 C  
HETATM   32  N   UNL     1      -9.700  15.805  67.204  1.00  0.00    -0.222 NA 
HETATM   33  C   UNL     1     -11.150  15.765  67.490  1.00  0.00    -0.258 C  
HETATM   34  C   UNL     1      -9.241  17.179  67.002  1.00  0.00    -0.241 C  
HETATM   35  C   UNL     1     -11.551  16.197  68.925  1.00  0.00    -0.298 C  
ENDBRANCH  28  29
ENDBRANCH  27  28
ENDBRANCH  26  27
ENDBRANCH  25  26
ENDBRANCH  21  25
BRANCH  23  36
HETATM   36  O   UNL     1     -12.732  10.206  72.406  1.00  0.00    -0.229 OA 
HETATM   37  C   UNL     1     -13.766   9.228  72.393  1.00  0.00    -0.452 C  
ENDBRANCH  23  36
ENDBRANCH  11  13
ENDBRANCH   5  11
ENDBRANCH   2   3
TORSDOF 9
ENDMDL
MODEL      224
REMARK 921   NORMALIZED FREE ENERGY PREDICTED BY IDOCK:   -2.54 KCAL/MOL
REMARK 922        TOTAL FREE ENERGY PREDICTED BY IDOCK:   -5.22 KCAL/MOL
REMARK 923 INTER-LIGAND FREE ENERGY PREDICTED BY IDOCK:   -5.67 KCAL/MOL
REMARK 924 INTRA-LIGAND FREE ENERGY PREDICTED BY IDOCK:    0.45 KCAL/MOL
REMARK 927      BINDING AFFINITY PREDICTED BY RF-SCORE:    0.00 PKD
ROOT
HETATM    1  C   UNL     1      -6.220  15.713  67.604  1.00  0.00    -0.154 C  
HETATM    2  O   UNL     1      -6.683  14.379  67.795  1.00  0.00    -0.150 OA 
ENDROOT
BRANCH   2   3
HETATM    3  C   UNL     1      -8.007  14.164  67.504  1.00  0.00    -0.188 A  
HETATM    4  C   UNL     1      -8.527  12.895  67.222  1.00  0.00    -0.197 A  
HETATM    5  C   UNL     1      -9.884  12.701  66.919  1.00  0.00    -0.234 A  
HETATM    6  C   UNL     1     -10.720  13.832  66.907  1.00  0.00    -0.280 A  
HETATM    7  C   UNL     1      -8.858  15.273  67.448  1.00  0.00    -0.179 A  
HETATM    8 CL   UNL     1     -12.410  13.673  66.571  1.00  0.00    -0.443 Cl 
HETATM    9  C   UNL     1     -10.214  15.109  67.163  1.00  0.00    -0.247 A  
HETATM   10 CL   UNL     1      -8.277  16.872  67.758  1.00  0.00    -0.189 Cl 
BRANCH   5  11
HETATM   11  N   UNL     1     -10.379  11.427  66.539  1.00  0.00    -0.228 NA 
HETATM   12  H   UNL     1     -10.873  11.394  65.648  1.00  0.00     0.000 HD 
BRANCH  11  13
HETATM   13  C   UNL     1     -10.279  10.191  67.231  1.00  0.00    -0.222 A  
HETATM   14  C   UNL     1     -11.494  11.076  69.227  1.00  0.00    -0.300 C  
HETATM   15  C   UNL     1     -10.880  10.018  68.494  1.00  0.00    -0.270 A  
HETATM   16  C   UNL     1     -10.859   8.758  69.063  1.00  0.00    -0.027 A  
HETATM   17  N   UNL     1     -10.316   7.673  68.477  1.00  0.00    -0.200 NA 
HETATM   18  N   UNL     1     -12.027  11.903  69.844  1.00  0.00    -0.329 NA 
HETATM   19  C   UNL     1      -9.745   7.825  67.276  1.00  0.00    -0.171 A  
HETATM   20  C   UNL     1      -9.224   6.689  66.680  1.00  0.00    -0.179 A  
HETATM   21  C   UNL     1      -8.640   6.716  65.410  1.00  0.00    -0.056 A  
HETATM   22  C   UNL     1      -9.673   9.064  66.602  1.00  0.00    -0.295 A  
HETATM   23  C   UNL     1      -8.532   7.934  64.740  1.00  0.00     0.007 A  
HETATM   24  C   UNL     1      -9.029   9.096  65.342  1.00  0.00    -0.255 A  
BRANCH  21  25
HETATM   25  O   UNL     1      -8.091   5.595  64.850  1.00  0.00    -0.114 OA 
BRANCH  25  26
HETATM   26  C   UNL     1      -6.658   5.555  64.856  1.00  0.00    -0.039 C  
BRANCH  26  27
HETATM   27  C   UNL     1      -6.223   5.415  66.307  1.00  0.00    -0.034 C  
BRANCH  27  28
HETATM   28  C   UNL     1      -6.675   4.097  66.937  1.00  0.00    -0.047 C  
BRANCH  28  29
HETATM   29  N   UNL     1      -7.396   4.238  68.214  1.00  0.00    -0.063 NA 
HETATM   30  C   UNL     1      -8.414   3.186  68.428  1.00  0.00    -0.080 C  
HETATM   31  C   UNL     1      -7.829   1.776  68.681  1.00  0.00    -0.046 C  
HETATM   32  N   UNL     1      -6.861   1.709  69.793  1.00  0.00    -0.032 NA 
HETATM   33  C   UNL     1      -5.859   2.786  69.650  1.00  0.00    -0.023 C  
HETATM   34  C   UNL     1      -7.540   1.789  71.086  1.00  0.00    -0.032 C  
HETATM   35  C   UNL     1      -6.442   4.192  69.349  1.00  0.00    -0.033 C  
ENDBRANCH  28  29
ENDBRANCH  27  28
ENDBRANCH  26  27
ENDBRANCH  25  26
ENDBRANCH  21  25
BRANCH  23  36
HETATM   36  O   UNL     1      -7.937   8.140  63.523  1.00  0.00    -0.149 OA 
HETATM   37  C   UNL     1      -8.386   9.291  62.813  1.00  0.00    -0.188 C  
ENDBRANCH  23  36
ENDBRANCH  11  13
ENDBRANCH   5  11
ENDBRANCH   2   3
TORSDOF 9
ENDMDL
MODEL      225
REMARK 921   NORMALIZED FREE ENERGY PREDICTED BY IDOCK:   -2.53 KCAL/MOL
REMARK 922        TOTAL FREE ENERGY PREDICTED BY IDOCK:   -5.20 KCAL/MOL
REMARK 923 INTER-LIGAND FREE ENERGY PREDICTED BY IDOCK:   -5.05 KCAL/MOL
REMARK 924 INTRA-LIGAND FREE ENERGY PREDICTED BY IDOCK:   -0.15 KCAL/MOL
REMARK 927      BINDING AFFINITY PREDICTED BY RF-SCORE:    0.00 PKD
ROOT
HETATM    1  C   UNL     1      -7.606   5.050  64.555  1.00  0.00    -0.078 C  
HETATM    2  O   UNL     1      -7.368   5.644  65.828  1.00  0.00    -0.071 OA 
ENDROOT
BRANCH   2   3
HETATM    3  C   UNL     1      -8.154   6.725  66.135  1.00  0.00    -0.115 A  
HETATM    4  C   UNL     1      -7.831   8.033  65.755  1.00  0.00    -0.097 A  
HETATM    5  C   UNL     1      -8.648   9.124  66.087  1.00  0.00    -0.136 A  
HETATM    6  C   UNL     1      -9.819   8.866  66.824  1.00  0.00    -0.241 A  
HETATM    7  C   UNL     1      -9.307   6.507  66.898  1.00  0.00    -0.146 A  
HETATM    8 CL   UNL     1     -10.894  10.154  67.248  1.00  0.00    -0.321 Cl 
HETATM    9  C   UNL     1     -10.146   7.570  67.231  1.00  0.00    -0.300 A  
HETATM   10 CL   UNL     1      -9.752   4.921  67.424  1.00  0.00    -0.177 Cl 
BRANCH   5  11
HETATM   11  N   UNL     1      -8.261  10.455  65.783  1.00  0.00    -0.151 NA 
HETATM   12  H   UNL     1      -7.347  10.739  66.134  1.00  0.00     0.000 HD 
BRANCH  11  13
HETATM   13  C   UNL     1      -8.973  11.444  65.054  1.00  0.00     0.068 A  
HETATM   14  C   UNL     1      -9.189   9.976  63.044  1.00  0.00    -0.286 C  
HETATM   15  C   UNL     1      -9.472  11.173  63.764  1.00  0.00    -0.258 A  
HETATM   16  C   UNL     1     -10.265  12.128  63.155  1.00  0.00    -0.147 A  
HETATM   17  N   UNL     1     -10.611  13.299  63.724  1.00  0.00    -0.136 NA 
HETATM   18  N   UNL     1      -9.005   9.005  62.434  1.00  0.00    -0.175 NA 
HETATM   19  C   UNL     1     -10.146  13.565  64.951  1.00  0.00    -0.254 A  
HETATM   20  C   UNL     1     -10.544  14.759  65.528  1.00  0.00    -0.374 A  
HETATM   21  C   UNL     1     -10.155  15.127  66.819  1.00  0.00    -0.258 A  
HETATM   22  C   UNL     1      -9.303  12.688  65.668  1.00  0.00     0.116 A  
HETATM   23  C   UNL     1      -9.299  14.289  67.533  1.00  0.00    -0.199 A  
HETATM   24  C   UNL     1      -8.866  13.092  66.952  1.00  0.00    -0.184 A  
BRANCH  21  25
HETATM   25  O   UNL     1     -10.519  16.329  67.362  1.00  0.00    -0.295 OA 
BRANCH  25  26
HETATM   26  C   UNL     1     -10.457  17.444  66.463  1.00  0.00    -0.264 C  
BRANCH  26  27
HETATM   27  C   UNL     1      -9.656  18.533  67.161  1.00  0.00    -0.302 C  
BRANCH  27  28
HETATM   28  C   UNL     1      -8.150  18.404  66.927  1.00  0.00    -0.245 C  
BRANCH  28  29
HETATM   29  N   UNL     1      -7.518  17.252  67.593  1.00  0.00    -0.171 NA 
HETATM   30  C   UNL     1      -6.040  17.307  67.575  1.00  0.00    -0.145 C  
HETATM   31  C   UNL     1      -5.433  18.415  68.468  1.00  0.00    -0.180 C  
HETATM   32  N   UNL     1      -5.871  18.370  69.877  1.00  0.00    -0.240 NA 
HETATM   33  C   UNL     1      -7.344  18.252  69.938  1.00  0.00     0.801 C  
HETATM   34  C   UNL     1      -5.224  17.272  70.594  1.00  0.00    -0.260 C  
HETATM   35  C   UNL     1      -7.958  17.173  69.008  1.00  0.00    -0.136 C  
ENDBRANCH  28  29
ENDBRANCH  27  28
ENDBRANCH  26  27
ENDBRANCH  25  26
ENDBRANCH  21  25
BRANCH  23  36
HETATM   36  O   UNL     1      -8.780  14.532  68.778  1.00  0.00    -0.174 OA 
HETATM   37  C   UNL     1      -7.954  13.497  69.305  1.00  0.00     0.478 C  
ENDBRANCH  23  36
ENDBRANCH  11  13
ENDBRANCH   5  11
ENDBRANCH   2   3
TORSDOF 9
ENDMDL
MODEL      226
REMARK 921   NORMALIZED FREE ENERGY PREDICTED BY IDOCK:   -2.52 KCAL/MOL
REMARK 922        TOTAL FREE ENERGY PREDICTED BY IDOCK:   -5.19 KCAL/MOL
REMARK 923 INTER-LIGAND FREE ENERGY PREDICTED BY IDOCK:   -5.44 KCAL/MOL
REMARK 924 INTRA-LIGAND FREE ENERGY PREDICTED BY IDOCK:    0.25 KCAL/MOL
REMARK 927      BINDING AFFINITY PREDICTED BY RF-SCORE:    0.00 PKD
ROOT
HETATM    1  C   UNL     1     -11.477   6.078  72.431  1.00  0.00    -0.308 C  
HETATM    2  O   UNL     1     -10.984   6.373  71.127  1.00  0.00    -0.251 OA 
ENDROOT
BRANCH   2   3
HETATM    3  C   UNL     1      -9.711   6.883  71.075  1.00  0.00    -0.174 A  
HETATM    4  C   UNL     1      -9.443   8.237  70.843  1.00  0.00    -0.192 A  
HETATM    5  C   UNL     1      -8.132   8.733  70.786  1.00  0.00    -0.138 A  
HETATM    6  C   UNL     1      -7.077   7.821  70.971  1.00  0.00    -0.053 A  
HETATM    7  C   UNL     1      -8.639   5.995  71.219  1.00  0.00    -0.129 A  
HETATM    8 CL   UNL     1      -5.433   8.359  70.944  1.00  0.00    -0.028 Cl 
HETATM    9  C   UNL     1      -7.325   6.462  71.181  1.00  0.00    -0.080 A  
HETATM   10 CL   UNL     1      -8.897   4.306  71.481  1.00  0.00    -0.138 Cl 
BRANCH   5  11
HETATM   11  N   UNL     1      -7.870  10.087  70.452  1.00  0.00    -0.399 NA 
HETATM   12  H   UNL     1      -7.972  10.757  71.214  1.00  0.00     0.000 HD 
BRANCH  11  13
HETATM   13  C   UNL     1      -7.486  10.637  69.200  1.00  0.00    -0.123 A  
HETATM   14  C   UNL     1      -8.430   8.703  67.930  1.00  0.00    -0.129 C  
HETATM   15  C   UNL     1      -7.823   9.992  67.993  1.00  0.00    -0.089 A  
HETATM   16  C   UNL     1      -7.534  10.635  66.804  1.00  0.00    -0.120 A  
HETATM   17  N   UNL     1      -6.967  11.855  66.722  1.00  0.00    -0.065 NA 
HETATM   18  N   UNL     1      -8.947   7.668  67.834  1.00  0.00    -0.129 NA 
HETATM   19  C   UNL     1      -6.646  12.478  67.862  1.00  0.00    -0.104 A  
HETATM   20  C   UNL     1      -6.096  13.743  67.753  1.00  0.00    -0.140 A  
HETATM   21  C   UNL     1      -5.758  14.508  68.873  1.00  0.00    -0.086 A  
HETATM   22  C   UNL     1      -6.860  11.916  69.140  1.00  0.00    -0.099 A  
HETATM   23  C   UNL     1      -5.933  13.960  70.144  1.00  0.00    -0.152 A  
HETATM   24  C   UNL     1      -6.462  12.671  70.270  1.00  0.00     0.297 A  
BRANCH  21  25
HETATM   25  O   UNL     1      -5.175  15.739  68.752  1.00  0.00    -0.101 OA 
BRANCH  25  26
HETATM   26  C   UNL     1      -6.058  16.850  68.958  1.00  0.00    -0.179 C  
BRANCH  26  27
HETATM   27  C   UNL     1      -6.832  17.048  67.663  1.00  0.00    -0.158 C  
BRANCH  27  28
HETATM   28  C   UNL     1      -8.347  16.964  67.859  1.00  0.00    -0.198 C  
BRANCH  28  29
HETATM   29  N   UNL     1      -8.872  15.599  68.038  1.00  0.00    -0.168 NA 
HETATM   30  C   UNL     1      -9.198  15.280  69.445  1.00  0.00    -0.233 C  
HETATM   31  C   UNL     1     -10.422  16.043  70.004  1.00  0.00    -0.258 C  
HETATM   32  N   UNL     1     -11.652  15.889  69.204  1.00  0.00    -0.380 NA 
HETATM   33  C   UNL     1     -11.356  16.141  67.777  1.00  0.00    -0.126 C  
HETATM   34  C   UNL     1     -12.242  14.564  69.394  1.00  0.00    -0.247 C  
HETATM   35  C   UNL     1     -10.101  15.413  67.227  1.00  0.00    -0.238 C  
ENDBRANCH  28  29
ENDBRANCH  27  28
ENDBRANCH  26  27
ENDBRANCH  25  26
ENDBRANCH  21  25
BRANCH  23  36
HETATM   36  O   UNL     1      -5.597  14.551  71.335  1.00  0.00    -0.159 OA 
HETATM   37  C   UNL     1      -5.130  13.661  72.344  1.00  0.00    -0.165 C  
ENDBRANCH  23  36
ENDBRANCH  11  13
ENDBRANCH   5  11
ENDBRANCH   2   3
TORSDOF 9
ENDMDL
MODEL      227
REMARK 921   NORMALIZED FREE ENERGY PREDICTED BY IDOCK:   -2.52 KCAL/MOL
REMARK 922        TOTAL FREE ENERGY PREDICTED BY IDOCK:   -5.19 KCAL/MOL
REMARK 923 INTER-LIGAND FREE ENERGY PREDICTED BY IDOCK:   -6.62 KCAL/MOL
REMARK 924 INTRA-LIGAND FREE ENERGY PREDICTED BY IDOCK:    1.43 KCAL/MOL
REMARK 927      BINDING AFFINITY PREDICTED BY RF-SCORE:    0.00 PKD
ROOT
HETATM    1  C   UNL     1      -7.680   8.252  71.706  1.00  0.00    -0.111 C  
HETATM    2  O   UNL     1      -6.871   8.932  70.750  1.00  0.00    -0.051 OA 
ENDROOT
BRANCH   2   3
HETATM    3  C   UNL     1      -7.551   9.560  69.737  1.00  0.00    -0.110 A  
HETATM    4  C   UNL     1      -8.706  10.321  69.954  1.00  0.00     0.010 A  
HETATM    5  C   UNL     1      -9.388  10.948  68.900  1.00  0.00    -0.160 A  
HETATM    6  C   UNL     1      -8.874  10.790  67.600  1.00  0.00    -0.132 A  
HETATM    7  C   UNL     1      -7.085   9.394  68.428  1.00  0.00    -0.072 A  
HETATM    8 CL   UNL     1      -9.641  11.556  66.252  1.00  0.00    -0.229 Cl 
HETATM    9  C   UNL     1      -7.735  10.016  67.362  1.00  0.00    -0.095 A  
HETATM   10 CL   UNL     1      -5.680   8.446  68.085  1.00  0.00    -0.034 Cl 
BRANCH   5  11
HETATM   11  N   UNL     1     -10.612  11.632  69.119  1.00  0.00    -0.388 NA 
HETATM   12  H   UNL     1     -10.850  12.342  68.427  1.00  0.00     0.000 HD 
BRANCH  11  13
HETATM   13  C   UNL     1     -11.550  11.463  70.171  1.00  0.00    -0.280 A  
HETATM   14  C   UNL     1     -11.989  13.917  70.333  1.00  0.00    -0.323 C  
HETATM   15  C   UNL     1     -12.255  12.565  70.697  1.00  0.00    -0.365 A  
HETATM   16  C   UNL     1     -13.245  12.324  71.631  1.00  0.00    -0.257 A  
HETATM   17  N   UNL     1     -13.598  11.096  72.059  1.00  0.00    -0.177 NA 
HETATM   18  N   UNL     1     -11.823  15.030  70.045  1.00  0.00    -0.298 NA 
HETATM   19  C   UNL     1     -12.939  10.042  71.564  1.00  0.00    -0.434 A  
HETATM   20  C   UNL     1     -13.342   8.790  71.994  1.00  0.00    -0.455 A  
HETATM   21  C   UNL     1     -12.756   7.614  71.517  1.00  0.00    -0.345 A  
HETATM   22  C   UNL     1     -11.887  10.155  70.628  1.00  0.00    -0.431 A  
HETATM   23  C   UNL     1     -11.696   7.704  70.615  1.00  0.00    -0.193 A  
HETATM   24  C   UNL     1     -11.258   8.964  70.192  1.00  0.00    -0.175 A  
BRANCH  21  25
HETATM   25  O   UNL     1     -13.134   6.384  71.981  1.00  0.00    -0.156 OA 
BRANCH  25  26
HETATM   26  C   UNL     1     -12.223   5.779  72.907  1.00  0.00     0.312 C  
BRANCH  26  27
HETATM   27  C   UNL     1     -11.027   6.712  73.028  1.00  0.00    -0.279 C  
BRANCH  27  28
HETATM   28  C   UNL     1      -9.947   6.175  73.968  1.00  0.00    -0.246 C  
BRANCH  28  29
HETATM   29  N   UNL     1      -9.662   4.737  73.823  1.00  0.00    -0.131 NA 
HETATM   30  C   UNL     1      -9.495   4.314  72.415  1.00  0.00    -0.129 C  
HETATM   31  C   UNL     1      -8.208   4.845  71.739  1.00  0.00    -0.114 C  
HETATM   32  N   UNL     1      -6.963   4.523  72.464  1.00  0.00    -0.059 NA 
HETATM   33  C   UNL     1      -7.111   4.874  73.893  1.00  0.00    -0.081 C  
HETATM   34  C   UNL     1      -6.609   3.113  72.301  1.00  0.00    -0.015 C  
HETATM   35  C   UNL     1      -8.423   4.383  74.559  1.00  0.00    -0.092 C  
ENDBRANCH  28  29
ENDBRANCH  27  28
ENDBRANCH  26  27
ENDBRANCH  25  26
ENDBRANCH  21  25
BRANCH  23  36
HETATM   36  O   UNL     1     -10.977   6.656  70.101  1.00  0.00    -0.257 OA 
HETATM   37  C   UNL     1     -10.878   6.625  68.681  1.00  0.00    -0.262 C  
ENDBRANCH  23  36
ENDBRANCH  11  13
ENDBRANCH   5  11
ENDBRANCH   2   3
TORSDOF 9
ENDMDL
MODEL      228
REMARK 921   NORMALIZED FREE ENERGY PREDICTED BY IDOCK:   -2.48 KCAL/MOL
REMARK 922        TOTAL FREE ENERGY PREDICTED BY IDOCK:   -5.13 KCAL/MOL
REMARK 923 INTER-LIGAND FREE ENERGY PREDICTED BY IDOCK:   -4.66 KCAL/MOL
REMARK 924 INTRA-LIGAND FREE ENERGY PREDICTED BY IDOCK:   -0.48 KCAL/MOL
REMARK 927      BINDING AFFINITY PREDICTED BY RF-SCORE:    0.00 PKD
ROOT
HETATM    1  C   UNL     1     -12.932  15.074  70.589  1.00  0.00    -0.345 C  
HETATM    2  O   UNL     1     -11.594  14.671  70.310  1.00  0.00    -0.268 OA 
ENDROOT
BRANCH   2   3
HETATM    3  C   UNL     1     -11.462  13.530  69.560  1.00  0.00    -0.255 A  
HETATM    4  C   UNL     1     -10.913  12.346  70.068  1.00  0.00     0.594 A  
HETATM    5  C   UNL     1     -10.782  11.193  69.279  1.00  0.00    -0.199 A  
HETATM    6  C   UNL     1     -11.222  11.258  67.944  1.00  0.00    -0.290 A  
HETATM    7  C   UNL     1     -11.858  13.572  68.219  1.00  0.00    -0.366 A  
HETATM    8 CL   UNL     1     -11.121   9.871  66.915  1.00  0.00    -0.048 Cl 
HETATM    9  C   UNL     1     -11.752  12.438  67.414  1.00  0.00    -0.417 A  
HETATM   10 CL   UNL     1     -12.519  15.009  67.520  1.00  0.00     0.432 Cl 
BRANCH   5  11
HETATM   11  N   UNL     1     -10.134  10.031  69.774  1.00  0.00    -0.239 NA 
HETATM   12  H   UNL     1      -9.133  10.122  69.941  1.00  0.00     0.000 HD 
BRANCH  11  13
HETATM   13  C   UNL     1     -10.692   8.759  70.068  1.00  0.00    -0.228 A  
HETATM   14  C   UNL     1     -12.357   9.727  71.660  1.00  0.00    -0.408 C  
HETATM   15  C   UNL     1     -11.805   8.638  70.925  1.00  0.00    -0.257 A  
HETATM   16  C   UNL     1     -12.383   7.391  71.075  1.00  0.00    -0.268 A  
HETATM   17  N   UNL     1     -11.964   6.281  70.436  1.00  0.00    -0.151 NA 
HETATM   18  N   UNL     1     -12.853  10.592  72.256  1.00  0.00    -0.184 NA 
HETATM   19  C   UNL     1     -10.911   6.385  69.617  1.00  0.00    -0.320 A  
HETATM   20  C   UNL     1     -10.520   5.239  68.947  1.00  0.00    -0.190 A  
HETATM   21  C   UNL     1      -9.460   5.233  68.037  1.00  0.00    -0.122 A  
HETATM   22  C   UNL     1     -10.213   7.594  69.401  1.00  0.00    -0.206 A  
HETATM   23  C   UNL     1      -8.738   6.409  67.830  1.00  0.00    -0.115 A  
HETATM   24  C   UNL     1      -9.104   7.570  68.522  1.00  0.00    -0.134 A  
BRANCH  21  25
HETATM   25  O   UNL     1      -9.056   4.085  67.413  1.00  0.00    -0.127 OA 
BRANCH  25  26
HETATM   26  C   UNL     1      -9.724   2.892  67.846  1.00  0.00     0.138 C  
BRANCH  26  27
HETATM   27  C   UNL     1      -8.647   1.848  68.101  1.00  0.00    -0.100 C  
BRANCH  27  28
HETATM   28  C   UNL     1      -8.237   1.765  69.572  1.00  0.00    -0.044 C  
BRANCH  28  29
HETATM   29  N   UNL     1      -8.543   2.967  70.367  1.00  0.00    -0.060 NA 
HETATM   30  C   UNL     1      -9.108   2.657  71.699  1.00  0.00    -0.092 C  
HETATM   31  C   UNL     1      -8.104   2.013  72.683  1.00  0.00    -0.054 C  
HETATM   32  N   UNL     1      -6.864   2.789  72.883  1.00  0.00    -0.026 NA 
HETATM   33  C   UNL     1      -6.298   3.172  71.572  1.00  0.00    -0.015 C  
HETATM   34  C   UNL     1      -7.109   3.965  73.716  1.00  0.00    -0.060 C  
HETATM   35  C   UNL     1      -7.314   3.775  70.567  1.00  0.00    -0.041 C  
ENDBRANCH  28  29
ENDBRANCH  27  28
ENDBRANCH  26  27
ENDBRANCH  25  26
ENDBRANCH  21  25
BRANCH  23  36
HETATM   36  O   UNL     1      -7.641   6.556  67.022  1.00  0.00    -0.092 OA 
HETATM   37  C   UNL     1      -7.879   6.358  65.632  1.00  0.00    -0.099 C  
ENDBRANCH  23  36
ENDBRANCH  11  13
ENDBRANCH   5  11
ENDBRANCH   2   3
TORSDOF 9
ENDMDL
MODEL      229
REMARK 921   NORMALIZED FREE ENERGY PREDICTED BY IDOCK:   -2.35 KCAL/MOL
REMARK 922        TOTAL FREE ENERGY PREDICTED BY IDOCK:   -4.93 KCAL/MOL
REMARK 923 INTER-LIGAND FREE ENERGY PREDICTED BY IDOCK:   -7.44 KCAL/MOL
REMARK 924 INTRA-LIGAND FREE ENERGY PREDICTED BY IDOCK:    2.50 KCAL/MOL
REMARK 927      BINDING AFFINITY PREDICTED BY RF-SCORE:    0.00 PKD
ROOT
HETATM    1  C   UNL     1      -5.247   9.415  67.057  1.00  0.00    -0.035 C  
HETATM    2  O   UNL     1      -5.825   9.314  68.356  1.00  0.00    -0.041 OA 
ENDROOT
BRANCH   2   3
HETATM    3  C   UNL     1      -6.700   8.272  68.536  1.00  0.00    -0.063 A  
HETATM    4  C   UNL     1      -7.773   8.327  69.434  1.00  0.00    -0.102 A  
HETATM    5  C   UNL     1      -8.650   7.245  69.606  1.00  0.00    -0.137 A  
HETATM    6  C   UNL     1      -8.420   6.087  68.842  1.00  0.00    -0.116 A  
HETATM    7  C   UNL     1      -6.478   7.092  67.817  1.00  0.00    -0.048 A  
HETATM    8 CL   UNL     1      -9.474   4.721  68.975  1.00  0.00    -0.194 Cl 
HETATM    9  C   UNL     1      -7.341   6.006  67.958  1.00  0.00    -0.084 A  
HETATM   10 CL   UNL     1      -5.156   6.947  66.712  1.00  0.00    -0.016 Cl 
BRANCH   5  11
HETATM   11  N   UNL     1      -9.673   7.276  70.589  1.00  0.00    -0.176 NA 
HETATM   12  H   UNL     1      -9.726   6.458  71.196  1.00  0.00     0.000 HD 
BRANCH  11  13
HETATM   13  C   UNL     1     -10.633   8.291  70.843  1.00  0.00    -0.207 A  
HETATM   14  C   UNL     1     -10.925   7.583  73.221  1.00  0.00    -0.309 C  
HETATM   15  C   UNL     1     -11.175   8.469  72.132  1.00  0.00    -0.432 A  
HETATM   16  C   UNL     1     -12.007   9.550  72.349  1.00  0.00     0.298 A  
HETATM   17  N   UNL     1     -12.321  10.464  71.409  1.00  0.00    -0.390 NA 
HETATM   18  N   UNL     1     -10.728   6.903  74.141  1.00  0.00    -0.098 NA 
HETATM   19  C   UNL     1     -11.810  10.307  70.182  1.00  0.00    -0.263 A  
HETATM   20  C   UNL     1     -12.120  11.276  69.244  1.00  0.00    -0.372 A  
HETATM   21  C   UNL     1     -11.612  11.241  67.942  1.00  0.00    -0.256 A  
HETATM   22  C   UNL     1     -10.971   9.228  69.824  1.00  0.00    -0.213 A  
HETATM   23  C   UNL     1     -10.806  10.169  67.558  1.00  0.00    -0.290 A  
HETATM   24  C   UNL     1     -10.507   9.167  68.488  1.00  0.00    -0.238 A  
BRANCH  21  25
HETATM   25  O   UNL     1     -11.959  12.181  67.011  1.00  0.00    -0.593 OA 
BRANCH  25  26
HETATM   26  C   UNL     1     -11.869  13.540  67.459  1.00  0.00    -0.368 C  
BRANCH  26  27
HETATM   27  C   UNL     1     -10.558  13.672  68.219  1.00  0.00    -0.261 C  
BRANCH  27  28
HETATM   28  C   UNL     1     -10.660  14.611  69.421  1.00  0.00    -0.196 C  
BRANCH  28  29
HETATM   29  N   UNL     1      -9.739  15.760  69.387  1.00  0.00    -0.272 NA 
HETATM   30  C   UNL     1      -8.412  15.428  68.822  1.00  0.00    -0.188 C  
HETATM   31  C   UNL     1      -8.423  15.131  67.304  1.00  0.00    -0.198 C  
HETATM   32  N   UNL     1      -9.016  16.201  66.478  1.00  0.00    -0.257 NA 
HETATM   33  C   UNL     1     -10.319  16.606  67.046  1.00  0.00    -0.301 C  
HETATM   34  C   UNL     1      -8.110  17.344  66.369  1.00  0.00    -0.280 C  
HETATM   35  C   UNL     1     -10.321  16.859  68.577  1.00  0.00    -0.336 C  
ENDBRANCH  28  29
ENDBRANCH  27  28
ENDBRANCH  26  27
ENDBRANCH  25  26
ENDBRANCH  21  25
BRANCH  23  36
HETATM   36  O   UNL     1     -10.281   9.955  66.310  1.00  0.00    -0.243 OA 
HETATM   37  C   UNL     1      -8.985  10.504  66.093  1.00  0.00    -0.160 C  
ENDBRANCH  23  36
ENDBRANCH  11  13
ENDBRANCH   5  11
ENDBRANCH   2   3
TORSDOF 9
ENDMDL
MODEL      230
REMARK 921   NORMALIZED FREE ENERGY PREDICTED BY IDOCK:   -2.25 KCAL/MOL
REMARK 922        TOTAL FREE ENERGY PREDICTED BY IDOCK:   -4.78 KCAL/MOL
REMARK 923 INTER-LIGAND FREE ENERGY PREDICTED BY IDOCK:   -4.43 KCAL/MOL
REMARK 924 INTRA-LIGAND FREE ENERGY PREDICTED BY IDOCK:   -0.36 KCAL/MOL
REMARK 927      BINDING AFFINITY PREDICTED BY RF-SCORE:    0.00 PKD
ROOT
HETATM    1  C   UNL     1     -11.345   4.176  63.506  1.00  0.00     0.759 C  
HETATM    2  O   UNL     1     -10.167   3.559  62.995  1.00  0.00    -0.147 OA 
ENDROOT
BRANCH   2   3
HETATM    3  C   UNL     1      -9.072   3.596  63.820  1.00  0.00    -0.107 A  
HETATM    4  C   UNL     1      -8.921   4.543  64.841  1.00  0.00    -0.151 A  
HETATM    5  C   UNL     1      -7.787   4.566  65.667  1.00  0.00    -0.094 A  
HETATM    6  C   UNL     1      -6.790   3.599  65.440  1.00  0.00    -0.049 A  
HETATM    7  C   UNL     1      -8.045   2.671  63.597  1.00  0.00    -0.081 A  
HETATM    8 CL   UNL     1      -5.375   3.544  66.434  1.00  0.00    -0.012 Cl 
HETATM    9  C   UNL     1      -6.913   2.662  64.411  1.00  0.00    -0.048 A  
HETATM   10 CL   UNL     1      -8.154   1.493  62.336  1.00  0.00    -0.054 Cl 
BRANCH   5  11
HETATM   11  N   UNL     1      -7.600   5.589  66.632  1.00  0.00    -0.087 NA 
HETATM   12  H   UNL     1      -7.374   5.271  67.574  1.00  0.00     0.000 HD 
BRANCH  11  13
HETATM   13  C   UNL     1      -7.684   6.996  66.464  1.00  0.00    -0.104 A  
HETATM   14  C   UNL     1      -6.202   6.963  64.453  1.00  0.00    -0.036 C  
HETATM   15  C   UNL     1      -7.062   7.634  65.371  1.00  0.00    -0.063 A  
HETATM   16  C   UNL     1      -7.283   8.986  65.189  1.00  0.00    -0.088 A  
HETATM   17  N   UNL     1      -8.076   9.736  65.980  1.00  0.00    -0.112 NA 
HETATM   18  N   UNL     1      -5.516   6.451  63.669  1.00  0.00    -0.018 NA 
HETATM   19  C   UNL     1      -8.675   9.141  67.018  1.00  0.00    -0.123 A  
HETATM   20  C   UNL     1      -9.510   9.925  67.795  1.00  0.00    -0.158 A  
HETATM   21  C   UNL     1     -10.220   9.406  68.881  1.00  0.00    -0.200 A  
HETATM   22  C   UNL     1      -8.506   7.774  67.332  1.00  0.00    -0.119 A  
HETATM   23  C   UNL     1     -10.046   8.065  69.227  1.00  0.00    -0.198 A  
HETATM   24  C   UNL     1      -9.183   7.267  68.467  1.00  0.00    -0.138 A  
BRANCH  21  25
HETATM   25  O   UNL     1     -11.009  10.199  69.668  1.00  0.00    -0.232 OA 
BRANCH  25  26
HETATM   26  C   UNL     1     -10.802  11.609  69.507  1.00  0.00    -0.029 C  
BRANCH  26  27
HETATM   27  C   UNL     1     -12.176  12.262  69.498  1.00  0.00    -0.153 C  
BRANCH  27  28
HETATM   28  C   UNL     1     -12.205  13.595  70.247  1.00  0.00    -0.353 C  
BRANCH  28  29
HETATM   29  N   UNL     1     -12.252  14.788  69.384  1.00  0.00    -0.256 NA 
HETATM   30  C   UNL     1     -11.562  15.959  69.969  1.00  0.00    -0.344 C  
HETATM   31  C   UNL     1     -10.023  15.820  70.041  1.00  0.00    -0.108 C  
HETATM   32  N   UNL     1      -9.378  15.509  68.751  1.00  0.00    -0.196 NA 
HETATM   33  C   UNL     1     -10.079  14.379  68.102  1.00  0.00    -0.226 C  
HETATM   34  C   UNL     1      -9.351  16.683  67.879  1.00  0.00    -0.221 C  
HETATM   35  C   UNL     1     -11.626  14.494  68.071  1.00  0.00    -0.336 C  
ENDBRANCH  28  29
ENDBRANCH  27  28
ENDBRANCH  26  27
ENDBRANCH  25  26
ENDBRANCH  21  25
BRANCH  23  36
HETATM   36  O   UNL     1     -10.618   7.421  70.293  1.00  0.00    -0.220 OA 
HETATM   37  C   UNL     1     -11.718   6.575  69.973  1.00  0.00    -0.322 C  
ENDBRANCH  23  36
ENDBRANCH  11  13
ENDBRANCH   5  11
ENDBRANCH   2   3
TORSDOF 9
ENDMDL
MODEL      231
REMARK 921   NORMALIZED FREE ENERGY PREDICTED BY IDOCK:   -2.24 KCAL/MOL
REMARK 922        TOTAL FREE ENERGY PREDICTED BY IDOCK:   -4.76 KCAL/MOL
REMARK 923 INTER-LIGAND FREE ENERGY PREDICTED BY IDOCK:   -3.39 KCAL/MOL
REMARK 924 INTRA-LIGAND FREE ENERGY PREDICTED BY IDOCK:   -1.37 KCAL/MOL
REMARK 927      BINDING AFFINITY PREDICTED BY RF-SCORE:    0.00 PKD
ROOT
HETATM    1  C   UNL     1     -11.542  14.208  66.825  1.00  0.00    -0.391 C  
HETATM    2  O   UNL     1     -11.173  15.561  66.567  1.00  0.00    -0.243 OA 
ENDROOT
BRANCH   2   3
HETATM    3  C   UNL     1      -9.828  15.829  66.618  1.00  0.00    -0.252 A  
HETATM    4  C   UNL     1      -8.861  14.834  66.803  1.00  0.00    -0.281 A  
HETATM    5  C   UNL     1      -7.491  15.134  66.860  1.00  0.00     0.120 A  
HETATM    6  C   UNL     1      -7.110  16.482  66.724  1.00  0.00    -0.218 A  
HETATM    7  C   UNL     1      -9.418  17.163  66.522  1.00  0.00    -0.273 A  
HETATM    8 CL   UNL     1      -5.439  16.930  66.754  1.00  0.00    -0.186 Cl 
HETATM    9  C   UNL     1      -8.062  17.490  66.561  1.00  0.00    -0.305 A  
HETATM   10 CL   UNL     1     -10.561  18.445  66.320  1.00  0.00    -0.396 Cl 
BRANCH   5  11
HETATM   11  N   UNL     1      -6.529  14.132  67.146  1.00  0.00    -0.340 NA 
HETATM   12  H   UNL     1      -5.605  14.278  66.739  1.00  0.00     0.000 HD 
BRANCH  11  13
HETATM   13  C   UNL     1      -6.677  12.953  67.923  1.00  0.00    -0.123 A  
HETATM   14  C   UNL     1      -6.543  14.214  70.076  1.00  0.00    -0.059 C  
HETATM   15  C   UNL     1      -6.751  13.017  69.330  1.00  0.00    -0.062 A  
HETATM   16  C   UNL     1      -7.021  11.854  70.025  1.00  0.00     0.565 A  
HETATM   17  N   UNL     1      -7.241  10.658  69.443  1.00  0.00    -0.113 NA 
HETATM   18  N   UNL     1      -6.407  15.171  70.720  1.00  0.00     0.113 NA 
HETATM   19  C   UNL     1      -7.177  10.586  68.109  1.00  0.00    -0.087 A  
HETATM   20  C   UNL     1      -7.440   9.355  67.533  1.00  0.00    -0.091 A  
HETATM   21  C   UNL     1      -7.442   9.166  66.148  1.00  0.00    -0.095 A  
HETATM   22  C   UNL     1      -6.879  11.694  67.285  1.00  0.00    -0.129 A  
HETATM   23  C   UNL     1      -7.121  10.239  65.317  1.00  0.00    -0.130 A  
HETATM   24  C   UNL     1      -6.825  11.484  65.887  1.00  0.00     0.511 A  
BRANCH  21  25
HETATM   25  O   UNL     1      -7.661   7.935  65.593  1.00  0.00    -0.078 OA 
BRANCH  25  26
HETATM   26  C   UNL     1      -7.213   6.825  66.382  1.00  0.00    -0.072 C  
BRANCH  26  27
HETATM   27  C   UNL     1      -8.416   5.921  66.602  1.00  0.00    -0.111 C  
BRANCH  27  28
HETATM   28  C   UNL     1      -8.396   4.679  65.710  1.00  0.00    -0.115 C  
BRANCH  28  29
HETATM   29  N   UNL     1      -7.175   4.519  64.901  1.00  0.00    -0.066 NA 
HETATM   30  C   UNL     1      -6.295   3.431  65.381  1.00  0.00    -0.031 C  
HETATM   31  C   UNL     1      -6.867   2.010  65.169  1.00  0.00    -0.039 C  
HETATM   32  N   UNL     1      -7.247   1.708  63.775  1.00  0.00    -0.042 NA 
HETATM   33  C   UNL     1      -8.079   2.804  63.235  1.00  0.00    -0.074 C  
HETATM   34  C   UNL     1      -6.064   1.486  62.944  1.00  0.00    -0.009 C  
HETATM   35  C   UNL     1      -7.531   4.234  63.489  1.00  0.00    -0.055 C  
ENDBRANCH  28  29
ENDBRANCH  27  28
ENDBRANCH  26  27
ENDBRANCH  25  26
ENDBRANCH  21  25
BRANCH  23  36
HETATM   36  O   UNL     1      -7.020  10.206  63.951  1.00  0.00    -0.130 OA 
HETATM   37  C   UNL     1      -8.227  10.479  63.246  1.00  0.00    -0.111 C  
ENDBRANCH  23  36
ENDBRANCH  11  13
ENDBRANCH   5  11
ENDBRANCH   2   3
TORSDOF 9
ENDMDL
MODEL      232
REMARK 921   NORMALIZED FREE ENERGY PREDICTED BY IDOCK:   -2.24 KCAL/MOL
REMARK 922        TOTAL FREE ENERGY PREDICTED BY IDOCK:   -4.75 KCAL/MOL
REMARK 923 INTER-LIGAND FREE ENERGY PREDICTED BY IDOCK:   -5.20 KCAL/MOL
REMARK 924 INTRA-LIGAND FREE ENERGY PREDICTED BY IDOCK:    0.45 KCAL/MOL
REMARK 927      BINDING AFFINITY PREDICTED BY RF-SCORE:    0.00 PKD
ROOT
HETATM    1  C   UNL     1      -5.134   6.124  68.901  1.00  0.00    -0.004 C  
HETATM    2  O   UNL     1      -6.499   5.975  68.519  1.00  0.00    -0.044 OA 
ENDROOT
BRANCH   2   3
HETATM    3  C   UNL     1      -6.876   6.656  67.390  1.00  0.00    -0.073 A  
HETATM    4  C   UNL     1      -7.186   8.022  67.393  1.00  0.00    -0.088 A  
HETATM    5  C   UNL     1      -7.578   8.695  66.226  1.00  0.00    -0.094 A  
HETATM    6  C   UNL     1      -7.652   7.951  65.034  1.00  0.00    -0.098 A  
HETATM    7  C   UNL     1      -6.995   5.937  66.194  1.00  0.00    -0.062 A  
HETATM    8 CL   UNL     1      -8.099   8.715  63.547  1.00  0.00    -0.165 Cl 
HETATM    9  C   UNL     1      -7.369   6.583  65.016  1.00  0.00    -0.078 A  
HETATM   10 CL   UNL     1      -6.654   4.244  66.124  1.00  0.00    -0.041 Cl 
BRANCH   5  11
HETATM   11  N   UNL     1      -7.984  10.054  66.260  1.00  0.00    -0.108 NA 
HETATM   12  H   UNL     1      -7.495  10.677  65.618  1.00  0.00     0.000 HD 
BRANCH  11  13
HETATM   13  C   UNL     1      -8.980  10.664  67.068  1.00  0.00    -0.137 A  
HETATM   14  C   UNL     1     -10.399   8.607  67.078  1.00  0.00    -0.298 C  
HETATM   15  C   UNL     1     -10.102   9.933  67.510  1.00  0.00    -0.244 A  
HETATM   16  C   UNL     1     -10.972  10.541  68.396  1.00  0.00    -0.261 A  
HETATM   17  N   UNL     1     -10.806  11.785  68.885  1.00  0.00    -0.223 NA 
HETATM   18  N   UNL     1     -10.663   7.519  66.773  1.00  0.00    -0.247 NA 
HETATM   19  C   UNL     1      -9.743  12.487  68.476  1.00  0.00    -0.129 A  
HETATM   20  C   UNL     1      -9.577  13.750  69.018  1.00  0.00     0.174 A  
HETATM   21  C   UNL     1      -8.484  14.560  68.697  1.00  0.00    -0.161 A  
HETATM   22  C   UNL     1      -8.797  11.993  67.550  1.00  0.00    -0.172 A  
HETATM   23  C   UNL     1      -7.554  14.104  67.763  1.00  0.00    -0.166 A  
HETATM   24  C   UNL     1      -7.724  12.840  67.185  1.00  0.00    -0.072 A  
BRANCH  21  25
HETATM   25  O   UNL     1      -8.354  15.823  69.207  1.00  0.00    -0.231 OA 
BRANCH  25  26
HETATM   26  C   UNL     1      -9.287  16.783  68.694  1.00  0.00    -0.252 C  
BRANCH  26  27
HETATM   27  C   UNL     1     -10.676  16.312  69.098  1.00  0.00    -0.305 C  
BRANCH  27  28
HETATM   28  C   UNL     1     -10.955  16.497  70.590  1.00  0.00     0.021 C  
BRANCH  28  29
HETATM   29  N   UNL     1     -12.378  16.431  70.965  1.00  0.00     0.197 NA 
HETATM   30  C   UNL     1     -13.118  15.362  70.260  1.00  0.00    -0.071 C  
HETATM   31  C   UNL     1     -12.728  13.927  70.689  1.00  0.00    -0.281 C  
HETATM   32  N   UNL     1     -12.835  13.676  72.140  1.00  0.00    -0.284 NA 
HETATM   33  C   UNL     1     -12.159  14.759  72.886  1.00  0.00    -0.183 C  
HETATM   34  C   UNL     1     -14.233  13.547  72.550  1.00  0.00    -0.237 C  
HETATM   35  C   UNL     1     -12.513  16.198  72.424  1.00  0.00    -0.424 C  
ENDBRANCH  28  29
ENDBRANCH  27  28
ENDBRANCH  26  27
ENDBRANCH  25  26
ENDBRANCH  21  25
BRANCH  23  36
HETATM   36  O   UNL     1      -6.466  14.796  67.297  1.00  0.00    -0.300 OA 
HETATM   37  C   UNL     1      -5.228  14.474  67.923  1.00  0.00    -0.061 C  
ENDBRANCH  23  36
ENDBRANCH  11  13
ENDBRANCH   5  11
ENDBRANCH   2   3
TORSDOF 9
ENDMDL
MODEL      233
REMARK 921   NORMALIZED FREE ENERGY PREDICTED BY IDOCK:   -2.17 KCAL/MOL
REMARK 922        TOTAL FREE ENERGY PREDICTED BY IDOCK:   -4.65 KCAL/MOL
REMARK 923 INTER-LIGAND FREE ENERGY PREDICTED BY IDOCK:   -3.51 KCAL/MOL
REMARK 924 INTRA-LIGAND FREE ENERGY PREDICTED BY IDOCK:   -1.14 KCAL/MOL
REMARK 927      BINDING AFFINITY PREDICTED BY RF-SCORE:    0.00 PKD
ROOT
HETATM    1  C   UNL     1     -10.816  12.606  66.887  1.00  0.00    -0.254 C  
HETATM    2  O   UNL     1      -9.433  12.863  67.118  1.00  0.00    -0.214 OA 
ENDROOT
BRANCH   2   3
HETATM    3  C   UNL     1      -8.616  11.761  67.110  1.00  0.00    -0.168 A  
HETATM    4  C   UNL     1      -9.105  10.451  67.186  1.00  0.00    -0.152 A  
HETATM    5  C   UNL     1      -8.248   9.339  67.184  1.00  0.00    -0.117 A  
HETATM    6  C   UNL     1      -6.864   9.579  67.103  1.00  0.00    -0.084 A  
HETATM    7  C   UNL     1      -7.232  11.966  67.067  1.00  0.00    -0.118 A  
HETATM    8 CL   UNL     1      -5.744   8.261  67.066  1.00  0.00    -0.041 Cl 
HETATM    9  C   UNL     1      -6.357  10.880  67.050  1.00  0.00    -0.080 A  
HETATM   10 CL   UNL     1      -6.559  13.557  66.999  1.00  0.00     0.473 Cl 
BRANCH   5  11
HETATM   11  N   UNL     1      -8.748   8.023  67.361  1.00  0.00    -0.124 NA 
HETATM   12  H   UNL     1      -8.591   7.384  66.583  1.00  0.00     0.000 HD 
BRANCH  11  13
HETATM   13  C   UNL     1      -9.437   7.476  68.475  1.00  0.00    -0.146 A  
HETATM   14  C   UNL     1     -10.966   6.138  67.021  1.00  0.00    -0.330 C  
HETATM   15  C   UNL     1     -10.456   6.518  68.297  1.00  0.00    -0.263 A  
HETATM   16  C   UNL     1     -11.004   5.928  69.421  1.00  0.00    -0.350 A  
HETATM   17  N   UNL     1     -10.611   6.194  70.682  1.00  0.00    -0.234 NA 
HETATM   18  N   UNL     1     -11.392   5.781  66.002  1.00  0.00     0.685 NA 
HETATM   19  C   UNL     1      -9.642   7.099  70.863  1.00  0.00    -0.167 A  
HETATM   20  C   UNL     1      -9.234   7.329  72.165  1.00  0.00    -0.151 A  
HETATM   21  C   UNL     1      -8.203   8.221  72.475  1.00  0.00    -0.164 A  
HETATM   22  C   UNL     1      -9.023   7.795  69.802  1.00  0.00    -0.146 A  
HETATM   23  C   UNL     1      -7.598   8.941  71.445  1.00  0.00    -0.084 A  
HETATM   24  C   UNL     1      -8.020   8.739  70.126  1.00  0.00    -0.107 A  
BRANCH  21  25
HETATM   25  O   UNL     1      -7.837   8.473  73.769  1.00  0.00    -0.365 OA 
BRANCH  25  26
HETATM   26  C   UNL     1      -7.466   7.315  74.530  1.00  0.00    -0.124 C  
BRANCH  26  27
HETATM   27  C   UNL     1      -6.231   6.724  73.866  1.00  0.00    -0.064 C  
BRANCH  27  28
HETATM   28  C   UNL     1      -6.529   5.434  73.100  1.00  0.00    -0.065 C  
BRANCH  28  29
HETATM   29  N   UNL     1      -5.452   4.988  72.199  1.00  0.00    -0.008 NA 
HETATM   30  C   UNL     1      -5.335   3.516  72.114  1.00  0.00     0.000 C  
HETATM   31  C   UNL     1      -6.510   2.825  71.383  1.00  0.00    -0.019 C  
HETATM   32  N   UNL     1      -6.771   3.342  70.025  1.00  0.00    -0.033 NA 
HETATM   33  C   UNL     1      -6.834   4.819  70.056  1.00  0.00    -0.044 C  
HETATM   34  C   UNL     1      -5.754   2.877  69.082  1.00  0.00    -0.022 C  
HETATM   35  C   UNL     1      -5.681   5.511  70.830  1.00  0.00    -0.016 C  
ENDBRANCH  28  29
ENDBRANCH  27  28
ENDBRANCH  26  27
ENDBRANCH  25  26
ENDBRANCH  21  25
BRANCH  23  36
HETATM   36  O   UNL     1      -6.621   9.892  71.586  1.00  0.00    -0.296 OA 
HETATM   37  C   UNL     1      -6.315  10.628  70.405  1.00  0.00    -0.117 C  
ENDBRANCH  23  36
ENDBRANCH  11  13
ENDBRANCH   5  11
ENDBRANCH   2   3
TORSDOF 9
ENDMDL
MODEL      234
REMARK 921   NORMALIZED FREE ENERGY PREDICTED BY IDOCK:   -2.15 KCAL/MOL
REMARK 922        TOTAL FREE ENERGY PREDICTED BY IDOCK:   -4.63 KCAL/MOL
REMARK 923 INTER-LIGAND FREE ENERGY PREDICTED BY IDOCK:   -5.38 KCAL/MOL
REMARK 924 INTRA-LIGAND FREE ENERGY PREDICTED BY IDOCK:    0.75 KCAL/MOL
REMARK 927      BINDING AFFINITY PREDICTED BY RF-SCORE:    0.00 PKD
ROOT
HETATM    1  C   UNL     1     -11.467  16.955  64.439  1.00  0.00     0.695 C  
HETATM    2  O   UNL     1     -10.195  17.087  65.069  1.00  0.00    -0.402 OA 
ENDROOT
BRANCH   2   3
HETATM    3  C   UNL     1     -10.222  17.492  66.380  1.00  0.00    -0.354 A  
HETATM    4  C   UNL     1     -10.337  16.596  67.450  1.00  0.00    -0.292 A  
HETATM    5  C   UNL     1     -10.371  17.036  68.783  1.00  0.00    -0.336 A  
HETATM    6  C   UNL     1     -10.285  18.420  69.019  1.00  0.00    -0.167 A  
HETATM    7  C   UNL     1     -10.175  18.865  66.647  1.00  0.00    -0.405 A  
HETATM    8 CL   UNL     1     -10.290  19.039  70.635  1.00  0.00     1.448 Cl 
HETATM    9  C   UNL     1     -10.193  19.330  67.962  1.00  0.00    -0.507 A  
HETATM   10 CL   UNL     1     -10.061  20.027  65.372  1.00  0.00    -0.180 Cl 
BRANCH   5  11
HETATM   11  N   UNL     1     -10.586  16.129  69.852  1.00  0.00    -0.311 NA 
HETATM   12  H   UNL     1     -10.550  16.533  70.787  1.00  0.00     0.000 HD 
BRANCH  11  13
HETATM   13  C   UNL     1     -10.846  14.734  69.797  1.00  0.00    -0.198 A  
HETATM   14  C   UNL     1     -13.077  14.986  70.893  1.00  0.00    -0.406 C  
HETATM   15  C   UNL     1     -12.077  14.208  70.239  1.00  0.00    -0.412 A  
HETATM   16  C   UNL     1     -12.322  12.862  70.044  1.00  0.00    -0.129 A  
HETATM   17  N   UNL     1     -11.466  12.017  69.437  1.00  0.00    -0.291 NA 
HETATM   18  N   UNL     1     -13.927  15.588  71.406  1.00  0.00    -0.559 NA 
HETATM   19  C   UNL     1     -10.295  12.506  69.010  1.00  0.00     0.060 A  
HETATM   20  C   UNL     1      -9.447  11.626  68.359  1.00  0.00    -0.193 A  
HETATM   21  C   UNL     1      -8.217  12.029  67.834  1.00  0.00    -0.153 A  
HETATM   22  C   UNL     1      -9.911  13.855  69.175  1.00  0.00     0.111 A  
HETATM   23  C   UNL     1      -7.804  13.350  68.012  1.00  0.00    -0.148 A  
HETATM   24  C   UNL     1      -8.639  14.244  68.692  1.00  0.00    -0.149 A  
BRANCH  21  25
HETATM   25  O   UNL     1      -7.368  11.142  67.231  1.00  0.00    -0.104 OA 
BRANCH  25  26
HETATM   26  C   UNL     1      -7.869  10.548  66.026  1.00  0.00    -0.147 C  
BRANCH  26  27
HETATM   27  C   UNL     1      -9.074  11.369  65.593  1.00  0.00    -0.173 C  
BRANCH  27  28
HETATM   28  C   UNL     1      -9.596  10.974  64.211  1.00  0.00    -0.262 C  
BRANCH  28  29
HETATM   29  N   UNL     1     -10.669  11.837  63.686  1.00  0.00    -0.399 NA 
HETATM   30  C   UNL     1     -11.999  11.526  64.257  1.00  0.00     0.042 C  
HETATM   31  C   UNL     1     -12.152  11.897  65.751  1.00  0.00     0.268 C  
HETATM   32  N   UNL     1     -11.838  13.304  66.065  1.00  0.00    -0.375 NA 
HETATM   33  C   UNL     1     -10.541  13.674  65.459  1.00  0.00    -0.296 C  
HETATM   34  C   UNL     1     -12.906  14.195  65.612  1.00  0.00    -0.371 C  
HETATM   35  C   UNL     1     -10.367  13.261  63.973  1.00  0.00    -0.028 C  
ENDBRANCH  28  29
ENDBRANCH  27  28
ENDBRANCH  26  27
ENDBRANCH  25  26
ENDBRANCH  21  25
BRANCH  23  36
HETATM   36  O   UNL     1      -6.608  13.887  67.614  1.00  0.00    -0.170 OA 
HETATM   37  C   UNL     1      -5.913  14.629  68.611  1.00  0.00    -0.089 C  
ENDBRANCH  23  36
ENDBRANCH  11  13
ENDBRANCH   5  11
ENDBRANCH   2   3
TORSDOF 9
ENDMDL
MODEL      235
REMARK 921   NORMALIZED FREE ENERGY PREDICTED BY IDOCK:   -2.00 KCAL/MOL
REMARK 922        TOTAL FREE ENERGY PREDICTED BY IDOCK:   -4.39 KCAL/MOL
REMARK 923 INTER-LIGAND FREE ENERGY PREDICTED BY IDOCK:   -5.07 KCAL/MOL
REMARK 924 INTRA-LIGAND FREE ENERGY PREDICTED BY IDOCK:    0.67 KCAL/MOL
REMARK 927      BINDING AFFINITY PREDICTED BY RF-SCORE:    0.00 PKD
ROOT
HETATM    1  C   UNL     1     -11.170  17.863  72.808  1.00  0.00     2.345 C  
HETATM    2  O   UNL     1     -12.202  16.880  72.803  1.00  0.00    -0.062 OA 
ENDROOT
BRANCH   2   3
HETATM    3  C   UNL     1     -12.071  15.888  71.864  1.00  0.00    -0.498 A  
HETATM    4  C   UNL     1     -11.091  15.911  70.865  1.00  0.00    -0.317 A  
HETATM    5  C   UNL     1     -10.983  14.889  69.910  1.00  0.00    -0.232 A  
HETATM    6  C   UNL     1     -11.899  13.824  69.983  1.00  0.00    -0.307 A  
HETATM    7  C   UNL     1     -12.990  14.833  71.887  1.00  0.00    -0.327 A  
HETATM    8 CL   UNL     1     -11.813  12.510  68.860  1.00  0.00    -0.352 Cl 
HETATM    9  C   UNL     1     -12.898  13.795  70.959  1.00  0.00    -0.376 A  
HETATM   10 CL   UNL     1     -14.243  14.755  73.077  1.00  0.00     0.323 Cl 
BRANCH   5  11
HETATM   11  N   UNL     1     -10.050  14.972  68.844  1.00  0.00    -0.228 NA 
HETATM   12  H   UNL     1      -9.067  14.970  69.116  1.00  0.00     0.000 HD 
BRANCH  11  13
HETATM   13  C   UNL     1     -10.299  15.058  67.449  1.00  0.00    -0.238 A  
HETATM   14  C   UNL     1     -10.567  17.540  67.530  1.00  0.00    -0.333 C  
HETATM   15  C   UNL     1     -10.478  16.307  66.820  1.00  0.00    -0.287 A  
HETATM   16  C   UNL     1     -10.591  16.337  65.443  1.00  0.00    -0.352 A  
HETATM   17  N   UNL     1     -10.520  15.247  64.654  1.00  0.00    -0.196 NA 
HETATM   18  N   UNL     1     -10.618  18.569  68.066  1.00  0.00    -0.353 NA 
HETATM   19  C   UNL     1     -10.347  14.056  65.239  1.00  0.00    -0.383 A  
HETATM   20  C   UNL     1     -10.244  12.956  64.405  1.00  0.00    -0.342 A  
HETATM   21  C   UNL     1     -10.022  11.667  64.898  1.00  0.00    -0.255 A  
HETATM   22  C   UNL     1     -10.248  13.886  66.638  1.00  0.00    -0.276 A  
HETATM   23  C   UNL     1      -9.951  11.472  66.277  1.00  0.00    -0.220 A  
HETATM   24  C   UNL     1     -10.081  12.571  67.134  1.00  0.00    -0.219 A  
BRANCH  21  25
HETATM   25  O   UNL     1      -9.964  10.582  64.067  1.00  0.00    -0.320 OA 
BRANCH  25  26
HETATM   26  C   UNL     1      -9.147  10.753  62.902  1.00  0.00    -0.297 C  
BRANCH  26  27
HETATM   27  C   UNL     1      -8.000   9.759  63.013  1.00  0.00    -0.138 C  
BRANCH  27  28
HETATM   28  C   UNL     1      -7.545   9.536  64.456  1.00  0.00    -0.114 C  
BRANCH  28  29
HETATM   29  N   UNL     1      -6.745   8.317  64.670  1.00  0.00    -0.067 NA 
HETATM   30  C   UNL     1      -6.158   8.235  66.025  1.00  0.00    -0.045 C  
HETATM   31  C   UNL     1      -7.190   8.001  67.153  1.00  0.00    -0.087 C  
HETATM   32  N   UNL     1      -8.050   6.818  66.956  1.00  0.00    -0.109 NA 
HETATM   33  C   UNL     1      -8.610   6.829  65.588  1.00  0.00    -0.117 C  
HETATM   34  C   UNL     1      -7.311   5.582  67.213  1.00  0.00    -0.080 C  
HETATM   35  C   UNL     1      -7.584   7.111  64.459  1.00  0.00    -0.107 C  
ENDBRANCH  28  29
ENDBRANCH  27  28
ENDBRANCH  26  27
ENDBRANCH  25  26
ENDBRANCH  21  25
BRANCH  23  36
HETATM   36  O   UNL     1      -9.799  10.271  66.920  1.00  0.00    -0.182 OA 
HETATM   37  C   UNL     1     -10.851   9.334  66.713  1.00  0.00     0.082 C  
ENDBRANCH  23  36
ENDBRANCH  11  13
ENDBRANCH   5  11
ENDBRANCH   2   3
TORSDOF 9
ENDMDL
MODEL      236
REMARK 921   NORMALIZED FREE ENERGY PREDICTED BY IDOCK:   -1.65 KCAL/MOL
REMARK 922        TOTAL FREE ENERGY PREDICTED BY IDOCK:   -3.87 KCAL/MOL
REMARK 923 INTER-LIGAND FREE ENERGY PREDICTED BY IDOCK:   -5.23 KCAL/MOL
REMARK 924 INTRA-LIGAND FREE ENERGY PREDICTED BY IDOCK:    1.36 KCAL/MOL
REMARK 927      BINDING AFFINITY PREDICTED BY RF-SCORE:    0.00 PKD
ROOT
HETATM    1  C   UNL     1     -13.934   6.595  72.372  1.00  0.00     0.410 C  
HETATM    2  O   UNL     1     -13.274   6.990  71.172  1.00  0.00    -0.324 OA 
ENDROOT
BRANCH   2   3
HETATM    3  C   UNL     1     -11.961   7.361  71.313  1.00  0.00    -0.313 A  
HETATM    4  C   UNL     1     -11.431   8.520  70.731  1.00  0.00    -0.281 A  
HETATM    5  C   UNL     1     -10.082   8.874  70.882  1.00  0.00    -0.241 A  
HETATM    6  C   UNL     1      -9.262   8.022  71.646  1.00  0.00    -0.150 A  
HETATM    7  C   UNL     1     -11.111   6.517  72.036  1.00  0.00    -0.258 A  
HETATM    8 CL   UNL     1      -7.595   8.405  71.903  1.00  0.00    -0.134 Cl 
HETATM    9  C   UNL     1      -9.768   6.851  72.215  1.00  0.00    -0.159 A  
HETATM   10 CL   UNL     1     -11.692   5.058  72.759  1.00  0.00    -0.223 Cl 
BRANCH   5  11
HETATM   11  N   UNL     1      -9.534   9.995  70.207  1.00  0.00    -0.384 NA 
HETATM   12  H   UNL     1      -9.705  10.900  70.645  1.00  0.00     0.000 HD 
BRANCH  11  13
HETATM   13  C   UNL     1      -8.781  10.028  69.003  1.00  0.00    -0.158 A  
HETATM   14  C   UNL     1      -9.578   7.766  68.304  1.00  0.00    -0.155 C  
HETATM   15  C   UNL     1      -8.867   8.978  68.067  1.00  0.00    -0.129 A  
HETATM   16  C   UNL     1      -8.211   9.123  66.859  1.00  0.00    -0.116 A  
HETATM   17  N   UNL     1      -7.508  10.217  66.506  1.00  0.00    -0.105 NA 
HETATM   18  N   UNL     1     -10.167   6.775  68.447  1.00  0.00    -0.169 NA 
HETATM   19  C   UNL     1      -7.422  11.222  67.386  1.00  0.00    -0.116 A  
HETATM   20  C   UNL     1      -6.723  12.348  66.987  1.00  0.00    -0.005 A  
HETATM   21  C   UNL     1      -6.601  13.476  67.804  1.00  0.00    -0.170 A  
HETATM   22  C   UNL     1      -8.021  11.186  68.665  1.00  0.00    -0.145 A  
HETATM   23  C   UNL     1      -7.158  13.450  69.082  1.00  0.00    -0.007 A  
HETATM   24  C   UNL     1      -7.844  12.307  69.510  1.00  0.00     0.879 A  
BRANCH  21  25
HETATM   25  O   UNL     1      -5.871  14.566  67.416  1.00  0.00    -0.342 OA 
BRANCH  25  26
HETATM   26  C   UNL     1      -6.557  15.821  67.518  1.00  0.00    -0.183 C  
BRANCH  26  27
HETATM   27  C   UNL     1      -7.673  15.803  66.484  1.00  0.00    -0.018 C  
BRANCH  27  28
HETATM   28  C   UNL     1      -9.066  15.782  67.115  1.00  0.00    -0.212 C  
BRANCH  28  29
HETATM   29  N   UNL     1      -9.682  14.447  67.206  1.00  0.00    -0.229 NA 
HETATM   30  C   UNL     1     -11.107  14.487  67.602  1.00  0.00    -0.304 C  
HETATM   31  C   UNL     1     -12.050  15.073  66.524  1.00  0.00     0.146 C  
HETATM   32  N   UNL     1     -11.960  14.407  65.210  1.00  0.00    -0.378 NA 
HETATM   33  C   UNL     1     -10.543  14.291  64.805  1.00  0.00    -0.412 C  
HETATM   34  C   UNL     1     -12.610  13.097  65.237  1.00  0.00    -0.472 C  
HETATM   35  C   UNL     1      -9.587  13.748  65.900  1.00  0.00    -0.128 C  
ENDBRANCH  28  29
ENDBRANCH  27  28
ENDBRANCH  26  27
ENDBRANCH  25  26
ENDBRANCH  21  25
BRANCH  23  36
HETATM   36  O   UNL     1      -7.076  14.443  70.023  1.00  0.00    -0.048 OA 
HETATM   37  C   UNL     1      -6.001  14.316  70.949  1.00  0.00    -0.200 C  
ENDBRANCH  23  36
ENDBRANCH  11  13
ENDBRANCH   5  11
ENDBRANCH   2   3
TORSDOF 9
ENDMDL
MODEL      237
REMARK 921   NORMALIZED FREE ENERGY PREDICTED BY IDOCK:   -1.60 KCAL/MOL
REMARK 922        TOTAL FREE ENERGY PREDICTED BY IDOCK:   -3.78 KCAL/MOL
REMARK 923 INTER-LIGAND FREE ENERGY PREDICTED BY IDOCK:   -3.28 KCAL/MOL
REMARK 924 INTRA-LIGAND FREE ENERGY PREDICTED BY IDOCK:   -0.51 KCAL/MOL
REMARK 927      BINDING AFFINITY PREDICTED BY RF-SCORE:    0.00 PKD
ROOT
HETATM    1  C   UNL     1     -11.870  14.769  66.772  1.00  0.00    -0.257 C  
HETATM    2  O   UNL     1     -11.570  16.163  66.760  1.00  0.00     0.327 OA 
ENDROOT
BRANCH   2   3
HETATM    3  C   UNL     1     -10.242  16.484  66.883  1.00  0.00    -0.296 A  
HETATM    4  C   UNL     1      -9.245  15.527  67.105  1.00  0.00    -0.228 A  
HETATM    5  C   UNL     1      -7.893  15.882  67.235  1.00  0.00    -0.187 A  
HETATM    6  C   UNL     1      -7.561  17.245  67.135  1.00  0.00    -0.190 A  
HETATM    7  C   UNL     1      -9.882  17.836  66.824  1.00  0.00    -0.320 A  
HETATM    8 CL   UNL     1      -5.914  17.760  67.255  1.00  0.00    -0.151 Cl 
HETATM    9  C   UNL     1      -8.545  18.217  66.936  1.00  0.00    -0.268 A  
HETATM   10 CL   UNL     1     -11.066  19.072  66.579  1.00  0.00    -0.083 Cl 
BRANCH   5  11
HETATM   11  N   UNL     1      -6.906  14.916  67.558  1.00  0.00    -0.187 NA 
HETATM   12  H   UNL     1      -5.958  15.135  67.254  1.00  0.00     0.000 HD 
BRANCH  11  13
HETATM   13  C   UNL     1      -7.059  13.684  68.248  1.00  0.00    -0.110 A  
HETATM   14  C   UNL     1      -5.850  14.528  70.265  1.00  0.00    -0.148 C  
HETATM   15  C   UNL     1      -6.606  13.536  69.575  1.00  0.00    -0.054 A  
HETATM   16  C   UNL     1      -6.894  12.358  70.238  1.00  0.00     0.985 A  
HETATM   17  N   UNL     1      -7.602  11.343  69.704  1.00  0.00     0.200 NA 
HETATM   18  N   UNL     1      -5.255  15.320  70.872  1.00  0.00    -0.138 NA 
HETATM   19  C   UNL     1      -8.041  11.474  68.446  1.00  0.00    -0.149 A  
HETATM   20  C   UNL     1      -8.794  10.433  67.932  1.00  0.00    -0.125 A  
HETATM   21  C   UNL     1      -9.339  10.473  66.646  1.00  0.00    -0.161 A  
HETATM   22  C   UNL     1      -7.787  12.613  67.651  1.00  0.00    -0.162 A  
HETATM   23  C   UNL     1      -9.077  11.576  65.833  1.00  0.00    -0.177 A  
HETATM   24  C   UNL     1      -8.293  12.624  66.329  1.00  0.00     0.471 A  
BRANCH  21  25
HETATM   25  O   UNL     1     -10.046   9.420  66.133  1.00  0.00    -0.292 OA 
BRANCH  25  26
HETATM   26  C   UNL     1      -9.477   8.128  66.385  1.00  0.00    -0.218 C  
BRANCH  26  27
HETATM   27  C   UNL     1     -10.312   7.480  67.479  1.00  0.00    -0.321 C  
BRANCH  27  28
HETATM   28  C   UNL     1      -9.522   6.465  68.306  1.00  0.00    -0.121 C  
BRANCH  28  29
HETATM   29  N   UNL     1      -8.230   6.063  67.721  1.00  0.00    -0.112 NA 
HETATM   30  C   UNL     1      -7.077   6.778  68.311  1.00  0.00    -0.086 C  
HETATM   31  C   UNL     1      -6.767   6.387  69.775  1.00  0.00    -0.053 C  
HETATM   32  N   UNL     1      -6.567   4.941  69.991  1.00  0.00    -0.035 NA 
HETATM   33  C   UNL     1      -7.670   4.184  69.361  1.00  0.00    -0.053 C  
HETATM   34  C   UNL     1      -5.269   4.507  69.475  1.00  0.00    -0.004 C  
HETATM   35  C   UNL     1      -8.014   4.607  67.908  1.00  0.00    -0.089 C  
ENDBRANCH  28  29
ENDBRANCH  27  28
ENDBRANCH  26  27
ENDBRANCH  25  26
ENDBRANCH  21  25
BRANCH  23  36
HETATM   36  O   UNL     1      -9.483  11.741  64.535  1.00  0.00    -0.116 OA 
HETATM   37  C   UNL     1     -10.299  12.884  64.294  1.00  0.00    -0.372 C  
ENDBRANCH  23  36
ENDBRANCH  11  13
ENDBRANCH   5  11
ENDBRANCH   2   3
TORSDOF 9
ENDMDL
MODEL      238
REMARK 921   NORMALIZED FREE ENERGY PREDICTED BY IDOCK:   -1.55 KCAL/MOL
REMARK 922        TOTAL FREE ENERGY PREDICTED BY IDOCK:   -3.71 KCAL/MOL
REMARK 923 INTER-LIGAND FREE ENERGY PREDICTED BY IDOCK:   -3.16 KCAL/MOL
REMARK 924 INTRA-LIGAND FREE ENERGY PREDICTED BY IDOCK:   -0.55 KCAL/MOL
REMARK 927      BINDING AFFINITY PREDICTED BY RF-SCORE:    0.00 PKD
ROOT
HETATM    1  C   UNL     1     -11.870  14.769  66.772  1.00  0.00    -0.257 C  
HETATM    2  O   UNL     1     -11.570  16.163  66.760  1.00  0.00     0.327 OA 
ENDROOT
BRANCH   2   3
HETATM    3  C   UNL     1     -10.242  16.484  66.883  1.00  0.00    -0.296 A  
HETATM    4  C   UNL     1      -9.245  15.527  67.105  1.00  0.00    -0.228 A  
HETATM    5  C   UNL     1      -7.893  15.882  67.235  1.00  0.00    -0.187 A  
HETATM    6  C   UNL     1      -7.561  17.245  67.135  1.00  0.00    -0.190 A  
HETATM    7  C   UNL     1      -9.882  17.836  66.824  1.00  0.00    -0.320 A  
HETATM    8 CL   UNL     1      -5.914  17.760  67.255  1.00  0.00    -0.151 Cl 
HETATM    9  C   UNL     1      -8.545  18.217  66.936  1.00  0.00    -0.268 A  
HETATM   10 CL   UNL     1     -11.066  19.072  66.579  1.00  0.00    -0.083 Cl 
BRANCH   5  11
HETATM   11  N   UNL     1      -6.906  14.916  67.558  1.00  0.00    -0.187 NA 
HETATM   12  H   UNL     1      -5.958  15.135  67.254  1.00  0.00     0.000 HD 
BRANCH  11  13
HETATM   13  C   UNL     1      -7.059  13.684  68.248  1.00  0.00    -0.110 A  
HETATM   14  C   UNL     1      -5.850  14.528  70.265  1.00  0.00    -0.148 C  
HETATM   15  C   UNL     1      -6.606  13.536  69.575  1.00  0.00    -0.054 A  
HETATM   16  C   UNL     1      -6.894  12.358  70.238  1.00  0.00     0.985 A  
HETATM   17  N   UNL     1      -7.602  11.343  69.704  1.00  0.00     0.200 NA 
HETATM   18  N   UNL     1      -5.255  15.320  70.872  1.00  0.00    -0.138 NA 
HETATM   19  C   UNL     1      -8.041  11.474  68.446  1.00  0.00    -0.149 A  
HETATM   20  C   UNL     1      -8.794  10.433  67.932  1.00  0.00    -0.125 A  
HETATM   21  C   UNL     1      -9.339  10.473  66.646  1.00  0.00    -0.161 A  
HETATM   22  C   UNL     1      -7.787  12.613  67.651  1.00  0.00    -0.162 A  
HETATM   23  C   UNL     1      -9.077  11.576  65.833  1.00  0.00    -0.177 A  
HETATM   24  C   UNL     1      -8.293  12.624  66.329  1.00  0.00     0.471 A  
BRANCH  21  25
HETATM   25  O   UNL     1     -10.046   9.420  66.133  1.00  0.00    -0.292 OA 
BRANCH  25  26
HETATM   26  C   UNL     1      -9.477   8.128  66.385  1.00  0.00    -0.218 C  
BRANCH  26  27
HETATM   27  C   UNL     1      -8.340   7.942  65.391  1.00  0.00    -0.146 C  
BRANCH  27  28
HETATM   28  C   UNL     1      -8.071   6.473  65.064  1.00  0.00    -0.127 C  
BRANCH  28  29
HETATM   29  N   UNL     1      -8.714   5.510  65.975  1.00  0.00    -0.136 NA 
HETATM   30  C   UNL     1      -9.969   4.943  65.433  1.00  0.00    -0.024 C  
HETATM   31  C   UNL     1      -9.769   3.985  64.235  1.00  0.00    -0.169 C  
HETATM   32  N   UNL     1      -8.838   2.870  64.495  1.00  0.00    -0.105 NA 
HETATM   33  C   UNL     1      -7.591   3.389  65.096  1.00  0.00    -0.080 C  
HETATM   34  C   UNL     1      -9.455   1.859  65.353  1.00  0.00     0.121 C  
HETATM   35  C   UNL     1      -7.790   4.386  66.269  1.00  0.00    -0.095 C  
ENDBRANCH  28  29
ENDBRANCH  27  28
ENDBRANCH  26  27
ENDBRANCH  25  26
ENDBRANCH  21  25
BRANCH  23  36
HETATM   36  O   UNL     1      -9.483  11.741  64.535  1.00  0.00    -0.116 OA 
HETATM   37  C   UNL     1     -10.299  12.884  64.294  1.00  0.00    -0.372 C  
ENDBRANCH  23  36
ENDBRANCH  11  13
ENDBRANCH   5  11
ENDBRANCH   2   3
TORSDOF 9
ENDMDL
MODEL      239
REMARK 921   NORMALIZED FREE ENERGY PREDICTED BY IDOCK:   -1.55 KCAL/MOL
REMARK 922        TOTAL FREE ENERGY PREDICTED BY IDOCK:   -3.71 KCAL/MOL
REMARK 923 INTER-LIGAND FREE ENERGY PREDICTED BY IDOCK:   -4.06 KCAL/MOL
REMARK 924 INTRA-LIGAND FREE ENERGY PREDICTED BY IDOCK:    0.35 KCAL/MOL
REMARK 927      BINDING AFFINITY PREDICTED BY RF-SCORE:    0.00 PKD
ROOT
HETATM    1  C   UNL     1     -11.496  12.169  66.158  1.00  0.00    -0.371 C  
HETATM    2  O   UNL     1     -10.500  12.920  66.846  1.00  0.00    -0.244 OA 
ENDROOT
BRANCH   2   3
HETATM    3  C   UNL     1      -9.278  12.310  66.972  1.00  0.00    -0.205 A  
HETATM    4  C   UNL     1      -8.932  11.149  66.269  1.00  0.00    -0.202 A  
HETATM    5  C   UNL     1      -7.677  10.538  66.420  1.00  0.00    -0.135 A  
HETATM    6  C   UNL     1      -6.762  11.131  67.310  1.00  0.00    -0.091 A  
HETATM    7  C   UNL     1      -8.358  12.854  67.875  1.00  0.00    -0.170 A  
HETATM    8 CL   UNL     1      -5.185  10.455  67.530  1.00  0.00    -0.040 Cl 
HETATM    9  C   UNL     1      -7.099  12.276  68.036  1.00  0.00    -0.099 A  
HETATM   10 CL   UNL     1      -8.730  14.270  68.796  1.00  0.00    -0.141 Cl 
BRANCH   5  11
HETATM   11  N   UNL     1      -7.374   9.309  65.779  1.00  0.00    -0.093 NA 
HETATM   12  H   UNL     1      -6.777   9.377  64.956  1.00  0.00     0.000 HD 
BRANCH  11  13
HETATM   13  C   UNL     1      -7.790   7.997  66.130  1.00  0.00    -0.093 A  
HETATM   14  C   UNL     1      -8.431   7.446  63.778  1.00  0.00     0.328 C  
HETATM   15  C   UNL     1      -8.231   7.091  65.144  1.00  0.00    -0.113 A  
HETATM   16  C   UNL     1      -8.503   5.790  65.526  1.00  0.00    -0.150 A  
HETATM   17  N   UNL     1      -8.353   5.323  66.781  1.00  0.00    -0.108 NA 
HETATM   18  N   UNL     1      -8.581   7.687  62.652  1.00  0.00     0.106 NA 
HETATM   19  C   UNL     1      -7.931   6.174  67.724  1.00  0.00    -0.106 A  
HETATM   20  C   UNL     1      -7.753   5.662  68.997  1.00  0.00    -0.089 A  
HETATM   21  C   UNL     1      -7.278   6.444  70.054  1.00  0.00    -0.080 A  
HETATM   22  C   UNL     1      -7.649   7.534  67.471  1.00  0.00    -0.113 A  
HETATM   23  C   UNL     1      -7.022   7.797  69.834  1.00  0.00    -0.050 A  
HETATM   24  C   UNL     1      -7.224   8.335  68.557  1.00  0.00    -0.088 A  
BRANCH  21  25
HETATM   25  O   UNL     1      -7.147   5.938  71.318  1.00  0.00    -0.069 OA 
BRANCH  25  26
HETATM   26  C   UNL     1      -7.834   6.672  72.340  1.00  0.00    -0.099 C  
BRANCH  26  27
HETATM   27  C   UNL     1      -9.304   6.708  71.949  1.00  0.00    -0.147 C  
BRANCH  27  28
HETATM   28  C   UNL     1      -9.806   8.122  71.655  1.00  0.00    -0.182 C  
BRANCH  28  29
HETATM   29  N   UNL     1     -10.811   8.210  70.581  1.00  0.00    -0.229 NA 
HETATM   30  C   UNL     1     -12.114   8.737  71.043  1.00  0.00    -0.225 C  
HETATM   31  C   UNL     1     -12.094  10.236  71.426  1.00  0.00    -0.362 C  
HETATM   32  N   UNL     1     -11.591  11.129  70.363  1.00  0.00    -0.300 NA 
HETATM   33  C   UNL     1     -10.317  10.602  69.830  1.00  0.00    -0.100 C  
HETATM   34  C   UNL     1     -12.582  11.291  69.299  1.00  0.00     0.278 C  
HETATM   35  C   UNL     1     -10.321   9.088  69.490  1.00  0.00    -0.209 C  
ENDBRANCH  28  29
ENDBRANCH  27  28
ENDBRANCH  26  27
ENDBRANCH  25  26
ENDBRANCH  21  25
BRANCH  23  36
HETATM   36  O   UNL     1      -6.613   8.709  70.772  1.00  0.00    -0.038 OA 
HETATM   37  C   UNL     1      -5.383   8.403  71.420  1.00  0.00    -0.033 C  
ENDBRANCH  23  36
ENDBRANCH  11  13
ENDBRANCH   5  11
ENDBRANCH   2   3
TORSDOF 9
ENDMDL
MODEL      240
REMARK 921   NORMALIZED FREE ENERGY PREDICTED BY IDOCK:   -1.43 KCAL/MOL
REMARK 922        TOTAL FREE ENERGY PREDICTED BY IDOCK:   -3.53 KCAL/MOL
REMARK 923 INTER-LIGAND FREE ENERGY PREDICTED BY IDOCK:   -3.31 KCAL/MOL
REMARK 924 INTRA-LIGAND FREE ENERGY PREDICTED BY IDOCK:   -0.22 KCAL/MOL
REMARK 927      BINDING AFFINITY PREDICTED BY RF-SCORE:    0.00 PKD
ROOT
HETATM    1  C   UNL     1     -10.102  14.674  64.523  1.00  0.00     0.487 C  
HETATM    2  O   UNL     1      -9.699  14.994  65.852  1.00  0.00    -0.306 OA 
ENDROOT
BRANCH   2   3
HETATM    3  C   UNL     1      -9.550  13.926  66.700  1.00  0.00    -0.289 A  
HETATM    4  C   UNL     1      -8.363  13.189  66.794  1.00  0.00     0.064 A  
HETATM    5  C   UNL     1      -8.238  12.095  67.664  1.00  0.00    -0.163 A  
HETATM    6  C   UNL     1      -9.352  11.753  68.452  1.00  0.00    -0.185 A  
HETATM    7  C   UNL     1     -10.651  13.538  67.472  1.00  0.00    -0.244 A  
HETATM    8 CL   UNL     1      -9.267  10.436  69.570  1.00  0.00    -0.186 Cl 
HETATM    9  C   UNL     1     -10.551  12.463  68.356  1.00  0.00    -0.251 A  
HETATM   10 CL   UNL     1     -12.155  14.387  67.387  1.00  0.00    -0.408 Cl 
BRANCH   5  11
HETATM   11  N   UNL     1      -7.065  11.296  67.677  1.00  0.00    -0.086 NA 
HETATM   12  H   UNL     1      -6.474  11.366  66.850  1.00  0.00     0.000 HD 
BRANCH  11  13
HETATM   13  C   UNL     1      -6.604  10.411  68.687  1.00  0.00    -0.052 A  
HETATM   14  C   UNL     1      -6.037  12.287  70.237  1.00  0.00    -0.075 C  
HETATM   15  C   UNL     1      -6.177  10.900  69.939  1.00  0.00    -0.117 A  
HETATM   16  C   UNL     1      -5.859   9.985  70.925  1.00  0.00    -0.088 A  
HETATM   17  N   UNL     1      -5.951   8.649  70.777  1.00  0.00    -0.032 NA 
HETATM   18  N   UNL     1      -5.934  13.406  70.530  1.00  0.00    -0.155 NA 
HETATM   19  C   UNL     1      -6.359   8.173  69.594  1.00  0.00    -0.033 A  
HETATM   20  C   UNL     1      -6.477   6.799  69.477  1.00  0.00    -0.044 A  
HETATM   21  C   UNL     1      -6.932   6.189  68.305  1.00  0.00    -0.080 A  
HETATM   22  C   UNL     1      -6.684   9.000  68.496  1.00  0.00    -0.059 A  
HETATM   23  C   UNL     1      -7.230   6.984  67.198  1.00  0.00    -0.089 A  
HETATM   24  C   UNL     1      -7.088   8.373  67.293  1.00  0.00    -0.079 A  
BRANCH  21  25
HETATM   25  O   UNL     1      -7.004   4.828  68.187  1.00  0.00    -0.055 OA 
BRANCH  25  26
HETATM   26  C   UNL     1      -8.318   4.310  67.940  1.00  0.00    -0.094 C  
BRANCH  26  27
HETATM   27  C   UNL     1      -9.048   4.295  69.275  1.00  0.00    -0.182 C  
BRANCH  27  28
HETATM   28  C   UNL     1      -8.888   2.972  70.025  1.00  0.00    -0.089 C  
BRANCH  28  29
HETATM   29  N   UNL     1      -7.608   2.818  70.740  1.00  0.00    -0.036 NA 
HETATM   30  C   UNL     1      -7.284   3.971  71.609  1.00  0.00    -0.053 C  
HETATM   31  C   UNL     1      -8.195   4.108  72.851  1.00  0.00    -0.093 C  
HETATM   32  N   UNL     1      -8.256   2.901  73.698  1.00  0.00    -0.071 NA 
HETATM   33  C   UNL     1      -8.518   1.713  72.857  1.00  0.00    -0.057 C  
HETATM   34  C   UNL     1      -7.025   2.738  74.471  1.00  0.00    -0.040 C  
HETATM   35  C   UNL     1      -7.637   1.599  71.585  1.00  0.00    -0.040 C  
ENDBRANCH  28  29
ENDBRANCH  27  28
ENDBRANCH  26  27
ENDBRANCH  25  26
ENDBRANCH  21  25
BRANCH  23  36
HETATM   36  O   UNL     1      -7.627   6.540  65.964  1.00  0.00    -0.083 OA 
HETATM   37  C   UNL     1      -8.954   6.894  65.589  1.00  0.00     0.056 C  
ENDBRANCH  23  36
ENDBRANCH  11  13
ENDBRANCH   5  11
ENDBRANCH   2   3
TORSDOF 9
ENDMDL
MODEL      241
REMARK 921   NORMALIZED FREE ENERGY PREDICTED BY IDOCK:   -1.35 KCAL/MOL
REMARK 922        TOTAL FREE ENERGY PREDICTED BY IDOCK:   -3.41 KCAL/MOL
REMARK 923 INTER-LIGAND FREE ENERGY PREDICTED BY IDOCK:   -7.17 KCAL/MOL
REMARK 924 INTRA-LIGAND FREE ENERGY PREDICTED BY IDOCK:    3.76 KCAL/MOL
REMARK 927      BINDING AFFINITY PREDICTED BY RF-SCORE:    0.00 PKD
ROOT
HETATM    1  C   UNL     1      -6.866   7.444  68.161  1.00  0.00    -0.063 C  
HETATM    2  O   UNL     1      -7.117   6.797  69.406  1.00  0.00    -0.074 OA 
ENDROOT
BRANCH   2   3
HETATM    3  C   UNL     1      -8.215   7.244  70.096  1.00  0.00    -0.134 A  
HETATM    4  C   UNL     1      -9.271   7.929  69.484  1.00  0.00    -0.152 A  
HETATM    5  C   UNL     1     -10.380   8.384  70.213  1.00  0.00    -0.205 A  
HETATM    6  C   UNL     1     -10.405   8.128  71.596  1.00  0.00    -0.224 A  
HETATM    7  C   UNL     1      -8.253   7.037  71.480  1.00  0.00    -0.108 A  
HETATM    8 CL   UNL     1     -11.751   8.631  72.560  1.00  0.00    -0.399 Cl 
HETATM    9  C   UNL     1      -9.349   7.465  72.228  1.00  0.00    -0.174 A  
HETATM   10 CL   UNL     1      -6.970   6.222  72.304  1.00  0.00    -0.073 Cl 
BRANCH   5  11
HETATM   11  N   UNL     1     -11.396   9.163  69.600  1.00  0.00    -0.437 NA 
HETATM   12  H   UNL     1     -11.774   8.789  68.731  1.00  0.00     0.000 HD 
BRANCH  11  13
HETATM   13  C   UNL     1     -11.956  10.393  70.035  1.00  0.00    -0.247 A  
HETATM   14  C   UNL     1     -13.765   9.249  71.324  1.00  0.00    -0.189 C  
HETATM   15  C   UNL     1     -13.054  10.417  70.919  1.00  0.00    -0.412 A  
HETATM   16  C   UNL     1     -13.477  11.639  71.406  1.00  0.00     0.280 A  
HETATM   17  N   UNL     1     -12.892  12.816  71.107  1.00  0.00    -0.288 NA 
HETATM   18  N   UNL     1     -14.354   8.322  71.700  1.00  0.00    -0.457 NA 
HETATM   19  C   UNL     1     -11.847  12.806  70.271  1.00  0.00    -0.212 A  
HETATM   20  C   UNL     1     -11.243  14.022  70.005  1.00  0.00    -0.074 A  
HETATM   21  C   UNL     1     -10.120  14.132  69.181  1.00  0.00    -0.010 A  
HETATM   22  C   UNL     1     -11.337  11.628  69.681  1.00  0.00    -0.308 A  
HETATM   23  C   UNL     1      -9.618  12.986  68.564  1.00  0.00    -0.111 A  
HETATM   24  C   UNL     1     -10.236  11.752  68.801  1.00  0.00    -0.175 A  
BRANCH  21  25
HETATM   25  O   UNL     1      -9.558  15.345  68.891  1.00  0.00    -0.196 OA 
BRANCH  25  26
HETATM   26  C   UNL     1      -8.303  15.600  69.535  1.00  0.00    -0.176 C  
BRANCH  26  27
HETATM   27  C   UNL     1      -7.652  16.760  68.795  1.00  0.00    -0.240 C  
BRANCH  27  28
HETATM   28  C   UNL     1      -7.427  16.466  67.311  1.00  0.00    -0.169 C  
BRANCH  28  29
HETATM   29  N   UNL     1      -8.403  17.095  66.404  1.00  0.00    -0.286 NA 
HETATM   30  C   UNL     1      -9.714  17.347  67.041  1.00  0.00    -0.276 C  
HETATM   31  C   UNL     1      -9.695  18.457  68.118  1.00  0.00    -0.331 C  
HETATM   32  N   UNL     1      -9.158  19.750  67.651  1.00  0.00    -0.325 NA 
HETATM   33  C   UNL     1      -7.873  19.534  66.952  1.00  0.00    -0.266 C  
HETATM   34  C   UNL     1     -10.118  20.438  66.789  1.00  0.00    -0.339 C  
HETATM   35  C   UNL     1      -7.878  18.390  65.904  1.00  0.00    -0.045 C  
ENDBRANCH  28  29
ENDBRANCH  27  28
ENDBRANCH  26  27
ENDBRANCH  25  26
ENDBRANCH  21  25
BRANCH  23  36
HETATM   36  O   UNL     1      -8.568  12.931  67.684  1.00  0.00    -0.159 OA 
HETATM   37  C   UNL     1      -7.311  12.588  68.259  1.00  0.00    -0.115 C  
ENDBRANCH  23  36
ENDBRANCH  11  13
ENDBRANCH   5  11
ENDBRANCH   2   3
TORSDOF 9
ENDMDL
MODEL      242
REMARK 921   NORMALIZED FREE ENERGY PREDICTED BY IDOCK:   -1.27 KCAL/MOL
REMARK 922        TOTAL FREE ENERGY PREDICTED BY IDOCK:   -3.29 KCAL/MOL
REMARK 923 INTER-LIGAND FREE ENERGY PREDICTED BY IDOCK:   -4.56 KCAL/MOL
REMARK 924 INTRA-LIGAND FREE ENERGY PREDICTED BY IDOCK:    1.27 KCAL/MOL
REMARK 927      BINDING AFFINITY PREDICTED BY RF-SCORE:    0.00 PKD
ROOT
HETATM    1  C   UNL     1     -13.298  12.618  72.281  1.00  0.00    -0.422 C  
HETATM    2  O   UNL     1     -13.057  11.245  71.985  1.00  0.00    -0.495 OA 
ENDROOT
BRANCH   2   3
HETATM    3  C   UNL     1     -12.423  10.998  70.793  1.00  0.00    -0.396 A  
HETATM    4  C   UNL     1     -12.626  11.779  69.648  1.00  0.00     0.146 A  
HETATM    5  C   UNL     1     -11.972  11.501  68.438  1.00  0.00    -0.198 A  
HETATM    6  C   UNL     1     -11.093  10.403  68.404  1.00  0.00    -0.268 A  
HETATM    7  C   UNL     1     -11.570   9.891  70.716  1.00  0.00    -0.349 A  
HETATM    8 CL   UNL     1     -10.227  10.013  66.958  1.00  0.00    -0.279 Cl 
HETATM    9  C   UNL     1     -10.896   9.600  69.530  1.00  0.00    -0.253 A  
HETATM   10 CL   UNL     1     -11.295   8.870  72.084  1.00  0.00    -0.416 Cl 
BRANCH   5  11
HETATM   11  N   UNL     1     -12.260  12.237  67.259  1.00  0.00    -0.396 NA 
HETATM   12  H   UNL     1     -13.249  12.374  67.056  1.00  0.00     0.000 HD 
BRANCH  11  13
HETATM   13  C   UNL     1     -11.357  12.809  66.325  1.00  0.00    -0.320 A  
HETATM   14  C   UNL     1     -12.713  12.046  64.370  1.00  0.00    -0.115 C  
HETATM   15  C   UNL     1     -11.624  12.768  64.941  1.00  0.00    -0.369 A  
HETATM   16  C   UNL     1     -10.775  13.449  64.089  1.00  0.00    -0.264 A  
HETATM   17  N   UNL     1      -9.714  14.172  64.497  1.00  0.00     0.306 NA 
HETATM   18  N   UNL     1     -13.602  11.494  63.866  1.00  0.00     0.214 NA 
HETATM   19  C   UNL     1      -9.452  14.221  65.809  1.00  0.00    -0.063 A  
HETATM   20  C   UNL     1      -8.377  14.997  66.206  1.00  0.00     0.345 A  
HETATM   21  C   UNL     1      -8.031  15.157  67.551  1.00  0.00    -0.174 A  
HETATM   22  C   UNL     1     -10.223  13.544  66.780  1.00  0.00    -0.264 A  
HETATM   23  C   UNL     1      -8.761  14.474  68.524  1.00  0.00    -0.177 A  
HETATM   24  C   UNL     1      -9.834  13.663  68.135  1.00  0.00    -0.236 A  
BRANCH  21  25
HETATM   25  O   UNL     1      -6.941  15.892  67.928  1.00  0.00    -0.120 OA 
BRANCH  25  26
HETATM   26  C   UNL     1      -7.031  16.486  69.230  1.00  0.00    -0.227 C  
BRANCH  26  27
HETATM   27  C   UNL     1      -7.904  17.725  69.094  1.00  0.00     0.011 C  
BRANCH  27  28
HETATM   28  C   UNL     1      -7.283  18.791  68.190  1.00  0.00    -0.252 C  
BRANCH  28  29
HETATM   29  N   UNL     1      -7.704  18.727  66.780  1.00  0.00    -0.234 NA 
HETATM   30  C   UNL     1      -8.963  17.976  66.581  1.00  0.00    -0.273 C  
HETATM   31  C   UNL     1     -10.222  18.683  67.137  1.00  0.00    -0.379 C  
HETATM   32  N   UNL     1     -10.423  20.055  66.629  1.00  0.00    -0.439 NA 
HETATM   33  C   UNL     1      -9.167  20.824  66.754  1.00  0.00    -0.020 C  
HETATM   34  C   UNL     1     -10.897  20.039  65.246  1.00  0.00     0.170 C  
HETATM   35  C   UNL     1      -7.896  20.096  66.240  1.00  0.00    -0.248 C  
ENDBRANCH  28  29
ENDBRANCH  27  28
ENDBRANCH  26  27
ENDBRANCH  25  26
ENDBRANCH  21  25
BRANCH  23  36
HETATM   36  O   UNL     1      -8.515  14.475  69.872  1.00  0.00     0.378 OA 
HETATM   37  C   UNL     1      -9.639  14.771  70.695  1.00  0.00     1.513 C  
ENDBRANCH  23  36
ENDBRANCH  11  13
ENDBRANCH   5  11
ENDBRANCH   2   3
TORSDOF 9
ENDMDL
MODEL      243
REMARK 921   NORMALIZED FREE ENERGY PREDICTED BY IDOCK:   -1.13 KCAL/MOL
REMARK 922        TOTAL FREE ENERGY PREDICTED BY IDOCK:   -3.06 KCAL/MOL
REMARK 923 INTER-LIGAND FREE ENERGY PREDICTED BY IDOCK:   -5.02 KCAL/MOL
REMARK 924 INTRA-LIGAND FREE ENERGY PREDICTED BY IDOCK:    1.96 KCAL/MOL
REMARK 927      BINDING AFFINITY PREDICTED BY RF-SCORE:    0.00 PKD
ROOT
HETATM    1  C   UNL     1      -7.381   6.180  65.004  1.00  0.00    -0.073 C  
HETATM    2  O   UNL     1      -8.640   6.723  65.392  1.00  0.00    -0.132 OA 
ENDROOT
BRANCH   2   3
HETATM    3  C   UNL     1      -8.690   8.091  65.492  1.00  0.00    -0.102 A  
HETATM    4  C   UNL     1      -8.801   8.760  66.717  1.00  0.00    -0.147 A  
HETATM    5  C   UNL     1      -8.859  10.160  66.793  1.00  0.00    -0.132 A  
HETATM    6  C   UNL     1      -8.800  10.885  65.589  1.00  0.00    -0.190 A  
HETATM    7  C   UNL     1      -8.670   8.840  64.310  1.00  0.00    -0.004 A  
HETATM    8 CL   UNL     1      -8.836  12.615  65.601  1.00  0.00     0.504 Cl 
HETATM    9  C   UNL     1      -8.712  10.233  64.356  1.00  0.00    -0.209 A  
HETATM   10 CL   UNL     1      -8.561   8.077  62.763  1.00  0.00     0.038 Cl 
BRANCH   5  11
HETATM   11  N   UNL     1      -9.071  10.822  68.030  1.00  0.00    -0.146 NA 
HETATM   12  H   UNL     1      -9.795  10.422  68.626  1.00  0.00     0.000 HD 
BRANCH  11  13
HETATM   13  C   UNL     1      -8.412  11.967  68.551  1.00  0.00    -0.113 A  
HETATM   14  C   UNL     1      -6.432  10.634  69.292  1.00  0.00    -0.062 C  
HETATM   15  C   UNL     1      -7.114  11.871  69.092  1.00  0.00    -0.053 A  
HETATM   16  C   UNL     1      -6.472  13.036  69.468  1.00  0.00    -0.075 A  
HETATM   17  N   UNL     1      -7.001  14.268  69.330  1.00  0.00    -0.122 NA 
HETATM   18  N   UNL     1      -5.832   9.652  69.447  1.00  0.00    -0.034 NA 
HETATM   19  C   UNL     1      -8.231  14.372  68.813  1.00  0.00    -0.126 A  
HETATM   20  C   UNL     1      -8.738  15.650  68.651  1.00  0.00    -0.193 A  
HETATM   21  C   UNL     1      -9.994  15.886  68.085  1.00  0.00    -0.222 A  
HETATM   22  C   UNL     1      -9.003  13.257  68.420  1.00  0.00    -0.124 A  
HETATM   23  C   UNL     1     -10.786  14.798  67.717  1.00  0.00    -0.278 A  
HETATM   24  C   UNL     1     -10.298  13.499  67.901  1.00  0.00    -0.249 A  
BRANCH  21  25
HETATM   25  O   UNL     1     -10.502  17.150  67.969  1.00  0.00    -0.336 OA 
BRANCH  25  26
HETATM   26  C   UNL     1     -10.680  17.611  66.623  1.00  0.00    -0.117 C  
BRANCH  26  27
HETATM   27  C   UNL     1      -9.331  17.490  65.929  1.00  0.00     0.028 C  
BRANCH  27  28
HETATM   28  C   UNL     1      -8.153  17.691  66.883  1.00  0.00    -0.224 C  
BRANCH  28  29
HETATM   29  N   UNL     1      -7.864  19.096  67.219  1.00  0.00    -0.251 NA 
HETATM   30  C   UNL     1      -6.495  19.300  67.744  1.00  0.00    -0.220 C  
HETATM   31  C   UNL     1      -5.376  19.107  66.694  1.00  0.00    -0.155 C  
HETATM   32  N   UNL     1      -5.528  19.936  65.482  1.00  0.00    -0.159 NA 
HETATM   33  C   UNL     1      -6.906  19.808  64.959  1.00  0.00    -0.115 C  
HETATM   34  C   UNL     1      -5.196  21.334  65.755  1.00  0.00    -0.194 C  
HETATM   35  C   UNL     1      -8.029  19.954  66.020  1.00  0.00    -0.314 C  
ENDBRANCH  28  29
ENDBRANCH  27  28
ENDBRANCH  26  27
ENDBRANCH  25  26
ENDBRANCH  21  25
BRANCH  23  36
HETATM   36  O   UNL     1     -12.057  14.856  67.208  1.00  0.00    -0.246 OA 
HETATM   37  C   UNL     1     -12.290  14.046  66.060  1.00  0.00    -0.473 C  
ENDBRANCH  23  36
ENDBRANCH  11  13
ENDBRANCH   5  11
ENDBRANCH   2   3
TORSDOF 9
ENDMDL
MODEL      244
REMARK 921   NORMALIZED FREE ENERGY PREDICTED BY IDOCK:   -1.09 KCAL/MOL
REMARK 922        TOTAL FREE ENERGY PREDICTED BY IDOCK:   -3.01 KCAL/MOL
REMARK 923 INTER-LIGAND FREE ENERGY PREDICTED BY IDOCK:   -3.94 KCAL/MOL
REMARK 924 INTRA-LIGAND FREE ENERGY PREDICTED BY IDOCK:    0.93 KCAL/MOL
REMARK 927      BINDING AFFINITY PREDICTED BY RF-SCORE:    0.00 PKD
ROOT
HETATM    1  C   UNL     1     -13.305  14.993  72.766  1.00  0.00    -0.481 C  
HETATM    2  O   UNL     1     -11.914  15.103  72.475  1.00  0.00    -0.376 OA 
ENDROOT
BRANCH   2   3
HETATM    3  C   UNL     1     -11.567  14.920  71.161  1.00  0.00    -0.298 A  
HETATM    4  C   UNL     1     -10.272  14.575  70.757  1.00  0.00     1.314 A  
HETATM    5  C   UNL     1      -9.939  14.402  69.404  1.00  0.00     0.110 A  
HETATM    6  C   UNL     1     -10.957  14.586  68.450  1.00  0.00    -0.245 A  
HETATM    7  C   UNL     1     -12.548  15.131  70.184  1.00  0.00    -0.279 A  
HETATM    8 CL   UNL     1     -10.634  14.361  66.766  1.00  0.00    -0.279 Cl 
HETATM    9  C   UNL     1     -12.250  14.952  68.833  1.00  0.00    -0.143 A  
HETATM   10 CL   UNL     1     -14.161  15.585  70.611  1.00  0.00     0.149 Cl 
BRANCH   5  11
HETATM   11  N   UNL     1      -8.603  14.150  69.001  1.00  0.00    -0.364 NA 
HETATM   12  H   UNL     1      -7.927  14.877  69.234  1.00  0.00     0.000 HD 
BRANCH  11  13
HETATM   13  C   UNL     1      -8.078  13.022  68.317  1.00  0.00    -0.151 A  
HETATM   14  C   UNL     1      -6.112  14.307  67.464  1.00  0.00     0.071 C  
HETATM   15  C   UNL     1      -6.843  13.096  67.639  1.00  0.00    -0.160 A  
HETATM   16  C   UNL     1      -6.322  11.935  67.100  1.00  0.00    -0.151 A  
HETATM   17  N   UNL     1      -6.908  10.725  67.197  1.00  0.00    -0.081 NA 
HETATM   18  N   UNL     1      -5.472  15.265  67.321  1.00  0.00    -0.295 NA 
HETATM   19  C   UNL     1      -8.078  10.642  67.841  1.00  0.00    -0.111 A  
HETATM   20  C   UNL     1      -8.644   9.385  67.957  1.00  0.00    -0.120 A  
HETATM   21  C   UNL     1      -9.843   9.167  68.642  1.00  0.00    -0.164 A  
HETATM   22  C   UNL     1      -8.731  11.758  68.410  1.00  0.00    -0.155 A  
HETATM   23  C   UNL     1     -10.519  10.259  69.186  1.00  0.00    -0.224 A  
HETATM   24  C   UNL     1      -9.974  11.541  69.053  1.00  0.00    -0.040 A  
BRANCH  21  25
HETATM   25  O   UNL     1     -10.413   7.926  68.713  1.00  0.00    -0.207 OA 
BRANCH  25  26
HETATM   26  C   UNL     1      -9.497   6.830  68.595  1.00  0.00    -0.132 C  
BRANCH  26  27
HETATM   27  C   UNL     1      -9.494   6.108  69.935  1.00  0.00    -0.170 C  
BRANCH  27  28
HETATM   28  C   UNL     1      -8.150   6.205  70.658  1.00  0.00    -0.116 C  
BRANCH  28  29
HETATM   29  N   UNL     1      -7.187   5.144  70.316  1.00  0.00    -0.057 NA 
HETATM   30  C   UNL     1      -6.057   5.054  71.267  1.00  0.00    -0.022 C  
HETATM   31  C   UNL     1      -6.445   4.531  72.670  1.00  0.00    -0.040 C  
HETATM   32  N   UNL     1      -7.141   3.230  72.664  1.00  0.00    -0.042 NA 
HETATM   33  C   UNL     1      -8.243   3.257  71.678  1.00  0.00    -0.061 C  
HETATM   34  C   UNL     1      -6.210   2.137  72.383  1.00  0.00    -0.013 C  
HETATM   35  C   UNL     1      -7.867   3.825  70.285  1.00  0.00    -0.047 C  
ENDBRANCH  28  29
ENDBRANCH  27  28
ENDBRANCH  26  27
ENDBRANCH  25  26
ENDBRANCH  21  25
BRANCH  23  36
HETATM   36  O   UNL     1     -11.728  10.225  69.831  1.00  0.00    -0.252 OA 
HETATM   37  C   UNL     1     -12.268  11.496  70.179  1.00  0.00    -0.308 C  
ENDBRANCH  23  36
ENDBRANCH  11  13
ENDBRANCH   5  11
ENDBRANCH   2   3
TORSDOF 9
ENDMDL
MODEL      245
REMARK 921   NORMALIZED FREE ENERGY PREDICTED BY IDOCK:   -1.09 KCAL/MOL
REMARK 922        TOTAL FREE ENERGY PREDICTED BY IDOCK:   -3.00 KCAL/MOL
REMARK 923 INTER-LIGAND FREE ENERGY PREDICTED BY IDOCK:   -5.72 KCAL/MOL
REMARK 924 INTRA-LIGAND FREE ENERGY PREDICTED BY IDOCK:    2.72 KCAL/MOL
REMARK 927      BINDING AFFINITY PREDICTED BY RF-SCORE:    0.00 PKD
ROOT
HETATM    1  C   UNL     1     -14.371   6.392  71.943  1.00  0.00     0.250 C  
HETATM    2  O   UNL     1     -14.106   7.570  71.185  1.00  0.00    -0.332 OA 
ENDROOT
BRANCH   2   3
HETATM    3  C   UNL     1     -12.810   8.017  71.217  1.00  0.00    -0.199 A  
HETATM    4  C   UNL     1     -12.414   9.242  70.666  1.00  0.00     0.004 A  
HETATM    5  C   UNL     1     -11.080   9.675  70.704  1.00  0.00    -0.319 A  
HETATM    6  C   UNL     1     -10.135   8.832  71.319  1.00  0.00    -0.266 A  
HETATM    7  C   UNL     1     -11.840   7.187  71.789  1.00  0.00    -0.303 A  
HETATM    8 CL   UNL     1      -8.475   9.307  71.432  1.00  0.00    -0.032 Cl 
HETATM    9  C   UNL     1     -10.508   7.596  71.853  1.00  0.00    -0.256 A  
HETATM   10 CL   UNL     1     -12.254   5.649  72.463  1.00  0.00    -0.112 Cl 
BRANCH   5  11
HETATM   11  N   UNL     1     -10.674  10.871  70.057  1.00  0.00    -0.463 NA 
HETATM   12  H   UNL     1      -9.699  10.903  69.761  1.00  0.00     0.000 HD 
BRANCH  11  13
HETATM   13  C   UNL     1     -11.443  12.028  69.766  1.00  0.00    -0.210 A  
HETATM   14  C   UNL     1     -12.761  11.829  71.879  1.00  0.00    -0.110 C  
HETATM   15  C   UNL     1     -12.395  12.516  70.684  1.00  0.00    -0.369 A  
HETATM   16  C   UNL     1     -13.021  13.715  70.403  1.00  0.00     0.062 A  
HETATM   17  N   UNL     1     -12.766  14.466  69.313  1.00  0.00     0.147 NA 
HETATM   18  N   UNL     1     -13.069  11.317  72.874  1.00  0.00     1.481 NA 
HETATM   19  C   UNL     1     -11.861  14.015  68.436  1.00  0.00    -0.362 A  
HETATM   20  C   UNL     1     -11.592  14.819  67.343  1.00  0.00    -0.377 A  
HETATM   21  C   UNL     1     -10.638  14.473  66.381  1.00  0.00    -0.302 A  
HETATM   22  C   UNL     1     -11.174  12.790  68.591  1.00  0.00    -0.322 A  
HETATM   23  C   UNL     1      -9.969  13.254  66.498  1.00  0.00    -0.280 A  
HETATM   24  C   UNL     1     -10.251  12.418  67.584  1.00  0.00    -0.210 A  
BRANCH  21  25
HETATM   25  O   UNL     1     -10.411  15.255  65.282  1.00  0.00    -0.358 OA 
BRANCH  25  26
HETATM   26  C   UNL     1      -9.472  16.320  65.479  1.00  0.00     0.111 C  
BRANCH  26  27
HETATM   27  C   UNL     1     -10.166  17.373  66.330  1.00  0.00    -0.344 C  
BRANCH  27  28
HETATM   28  C   UNL     1      -9.472  17.604  67.673  1.00  0.00    -0.258 C  
BRANCH  28  29
HETATM   29  N   UNL     1      -9.345  19.018  68.068  1.00  0.00    -0.306 NA 
HETATM   30  C   UNL     1      -8.225  19.264  69.002  1.00  0.00    -0.239 C  
HETATM   31  C   UNL     1      -6.822  19.103  68.370  1.00  0.00    -0.265 C  
HETATM   32  N   UNL     1      -6.599  19.924  67.164  1.00  0.00    -0.203 NA 
HETATM   33  C   UNL     1      -7.731  19.753  66.227  1.00  0.00    -0.319 C  
HETATM   34  C   UNL     1      -6.411  21.332  67.512  1.00  0.00    -0.323 C  
HETATM   35  C   UNL     1      -9.139  19.868  66.869  1.00  0.00    -0.356 C  
ENDBRANCH  28  29
ENDBRANCH  27  28
ENDBRANCH  26  27
ENDBRANCH  25  26
ENDBRANCH  21  25
BRANCH  23  36
HETATM   36  O   UNL     1      -9.055  12.743  65.614  1.00  0.00     0.174 OA 
HETATM   37  C   UNL     1      -9.437  11.525  64.983  1.00  0.00    -0.152 C  
ENDBRANCH  23  36
ENDBRANCH  11  13
ENDBRANCH   5  11
ENDBRANCH   2   3
TORSDOF 9
ENDMDL
MODEL      246
REMARK 921   NORMALIZED FREE ENERGY PREDICTED BY IDOCK:   -0.74 KCAL/MOL
REMARK 922        TOTAL FREE ENERGY PREDICTED BY IDOCK:   -2.47 KCAL/MOL
REMARK 923 INTER-LIGAND FREE ENERGY PREDICTED BY IDOCK:   -3.35 KCAL/MOL
REMARK 924 INTRA-LIGAND FREE ENERGY PREDICTED BY IDOCK:    0.89 KCAL/MOL
REMARK 927      BINDING AFFINITY PREDICTED BY RF-SCORE:    0.00 PKD
ROOT
HETATM    1  C   UNL     1      -6.362  11.911  67.605  1.00  0.00    -0.086 C  
HETATM    2  O   UNL     1      -6.126  13.241  67.151  1.00  0.00    -0.288 OA 
ENDROOT
BRANCH   2   3
HETATM    3  C   UNL     1      -7.148  14.132  67.367  1.00  0.00    -0.077 A  
HETATM    4  C   UNL     1      -8.478  13.860  67.026  1.00  0.00    -0.153 A  
HETATM    5  C   UNL     1      -9.505  14.790  67.249  1.00  0.00    -0.214 A  
HETATM    6  C   UNL     1      -9.157  16.022  67.833  1.00  0.00    -0.187 A  
HETATM    7  C   UNL     1      -6.830  15.380  67.914  1.00  0.00    -0.149 A  
HETATM    8 CL   UNL     1     -10.370  17.210  68.168  1.00  0.00    -0.331 Cl 
HETATM    9  C   UNL     1      -7.832  16.319  68.160  1.00  0.00    -0.156 A  
HETATM   10 CL   UNL     1      -5.204  15.792  68.334  1.00  0.00    -0.096 Cl 
BRANCH   5  11
HETATM   11  N   UNL     1     -10.831  14.543  66.809  1.00  0.00    -0.299 NA 
HETATM   12  H   UNL     1     -11.533  15.209  67.130  1.00  0.00     0.000 HD 
BRANCH  11  13
HETATM   13  C   UNL     1     -11.313  13.495  65.982  1.00  0.00    -0.312 A  
HETATM   14  C   UNL     1     -12.156  15.088  64.252  1.00  0.00    -0.306 C  
HETATM   15  C   UNL     1     -11.886  13.770  64.723  1.00  0.00    -0.413 A  
HETATM   16  C   UNL     1     -12.222  12.705  63.909  1.00  0.00    -0.481 A  
HETATM   17  N   UNL     1     -12.016  11.412  64.231  1.00  0.00     0.072 NA 
HETATM   18  N   UNL     1     -12.369  16.145  63.819  1.00  0.00    -0.541 NA 
HETATM   19  C   UNL     1     -11.469  11.139  65.422  1.00  0.00     0.333 A  
HETATM   20  C   UNL     1     -11.238   9.806  65.715  1.00  0.00     1.820 A  
HETATM   21  C   UNL     1     -10.635   9.401  66.909  1.00  0.00    -0.167 A  
HETATM   22  C   UNL     1     -11.110  12.134  66.357  1.00  0.00    -0.358 A  
HETATM   23  C   UNL     1     -10.300  10.365  67.860  1.00  0.00    -0.190 A  
HETATM   24  C   UNL     1     -10.554  11.715  67.589  1.00  0.00    -0.237 A  
BRANCH  21  25
HETATM   25  O   UNL     1     -10.450   8.078  67.206  1.00  0.00    -0.274 OA 
BRANCH  25  26
HETATM   26  C   UNL     1      -9.081   7.659  67.279  1.00  0.00    -0.127 C  
BRANCH  26  27
HETATM   27  C   UNL     1      -9.079   6.138  67.229  1.00  0.00    -0.115 C  
BRANCH  27  28
HETATM   28  C   UNL     1      -7.681   5.541  67.396  1.00  0.00    -0.100 C  
BRANCH  28  29
HETATM   29  N   UNL     1      -7.251   4.659  66.298  1.00  0.00    -0.075 NA 
HETATM   30  C   UNL     1      -7.531   3.229  66.554  1.00  0.00    -0.076 C  
HETATM   31  C   UNL     1      -9.034   2.861  66.533  1.00  0.00    -0.152 C  
HETATM   32  N   UNL     1      -9.739   3.250  65.296  1.00  0.00    -0.089 NA 
HETATM   33  C   UNL     1      -9.435   4.660  64.970  1.00  0.00    -0.121 C  
HETATM   34  C   UNL     1      -9.385   2.364  64.188  1.00  0.00    -0.128 C  
HETATM   35  C   UNL     1      -7.933   5.042  65.036  1.00  0.00    -0.101 C  
ENDBRANCH  28  29
ENDBRANCH  27  28
ENDBRANCH  26  27
ENDBRANCH  25  26
ENDBRANCH  21  25
BRANCH  23  36
HETATM   36  O   UNL     1      -9.761  10.130  69.098  1.00  0.00    -0.192 OA 
HETATM   37  C   UNL     1      -9.956  11.168  70.053  1.00  0.00     1.014 C  
ENDBRANCH  23  36
ENDBRANCH  11  13
ENDBRANCH   5  11
ENDBRANCH   2   3
TORSDOF 9
ENDMDL
MODEL      247
REMARK 921   NORMALIZED FREE ENERGY PREDICTED BY IDOCK:   -0.69 KCAL/MOL
REMARK 922        TOTAL FREE ENERGY PREDICTED BY IDOCK:   -2.40 KCAL/MOL
REMARK 923 INTER-LIGAND FREE ENERGY PREDICTED BY IDOCK:   -3.82 KCAL/MOL
REMARK 924 INTRA-LIGAND FREE ENERGY PREDICTED BY IDOCK:    1.43 KCAL/MOL
REMARK 927      BINDING AFFINITY PREDICTED BY RF-SCORE:    0.00 PKD
ROOT
HETATM    1  C   UNL     1     -14.019   6.597  71.961  1.00  0.00     0.121 C  
HETATM    2  O   UNL     1     -13.603   7.572  71.008  1.00  0.00    -0.207 OA 
ENDROOT
BRANCH   2   3
HETATM    3  C   UNL     1     -12.292   7.966  71.097  1.00  0.00    -0.230 A  
HETATM    4  C   UNL     1     -11.812   9.149  70.520  1.00  0.00    -0.137 A  
HETATM    5  C   UNL     1     -10.464   9.526  70.618  1.00  0.00    -0.308 A  
HETATM    6  C   UNL     1      -9.594   8.673  71.321  1.00  0.00    -0.225 A  
HETATM    7  C   UNL     1     -11.393   7.122  71.759  1.00  0.00    -0.252 A  
HETATM    8 CL   UNL     1      -7.923   9.083  71.511  1.00  0.00    -0.113 Cl 
HETATM    9  C   UNL     1     -10.050   7.478  71.883  1.00  0.00    -0.205 A  
HETATM   10 CL   UNL     1     -11.912   5.634  72.470  1.00  0.00    -0.237 Cl 
BRANCH   5  11
HETATM   11  N   UNL     1      -9.970  10.674  69.947  1.00  0.00    -0.409 NA 
HETATM   12  H   UNL     1     -10.225  11.571  70.360  1.00  0.00     0.000 HD 
BRANCH  11  13
HETATM   13  C   UNL     1      -9.168  10.744  68.777  1.00  0.00    -0.189 A  
HETATM   14  C   UNL     1     -10.423   8.892  67.664  1.00  0.00    -0.255 C  
HETATM   15  C   UNL     1      -9.443   9.927  67.661  1.00  0.00    -0.167 A  
HETATM   16  C   UNL     1      -8.710  10.127  66.506  1.00  0.00    -0.129 A  
HETATM   17  N   UNL     1      -7.759  11.072  66.368  1.00  0.00    -0.153 NA 
HETATM   18  N   UNL     1     -11.228   8.057  67.616  1.00  0.00     0.375 NA 
HETATM   19  C   UNL     1      -7.492  11.856  67.420  1.00  0.00    -0.148 A  
HETATM   20  C   UNL     1      -6.535  12.840  67.242  1.00  0.00    -0.073 A  
HETATM   21  C   UNL     1      -6.201  13.745  68.255  1.00  0.00    -0.110 A  
HETATM   22  C   UNL     1      -8.148  11.734  68.665  1.00  0.00    -0.104 A  
HETATM   23  C   UNL     1      -6.815  13.623  69.502  1.00  0.00     0.027 A  
HETATM   24  C   UNL     1      -7.764  12.614  69.704  1.00  0.00     1.094 A  
BRANCH  21  25
HETATM   25  O   UNL     1      -5.224  14.686  68.082  1.00  0.00    -0.108 OA 
BRANCH  25  26
HETATM   26  C   UNL     1      -5.696  16.033  67.952  1.00  0.00    -0.136 C  
BRANCH  26  27
HETATM   27  C   UNL     1      -6.566  16.082  66.705  1.00  0.00     0.187 C  
BRANCH  27  28
HETATM   28  C   UNL     1      -8.056  16.212  67.025  1.00  0.00    -0.210 C  
BRANCH  28  29
HETATM   29  N   UNL     1      -8.844  16.936  66.013  1.00  0.00    -0.515 NA 
HETATM   30  C   UNL     1     -10.227  17.227  66.449  1.00  0.00    -0.331 C  
HETATM   31  C   UNL     1     -10.331  18.280  67.578  1.00  0.00    -0.398 C  
HETATM   32  N   UNL     1      -9.667  19.563  67.276  1.00  0.00    -0.327 NA 
HETATM   33  C   UNL     1      -8.298  19.314  66.777  1.00  0.00    -0.296 C  
HETATM   34  C   UNL     1     -10.445  20.344  66.314  1.00  0.00    -0.043 C  
HETATM   35  C   UNL     1      -8.187  18.224  65.677  1.00  0.00     0.519 C  
ENDBRANCH  28  29
ENDBRANCH  27  28
ENDBRANCH  26  27
ENDBRANCH  25  26
ENDBRANCH  21  25
BRANCH  23  36
HETATM   36  O   UNL     1      -6.557  14.386  70.611  1.00  0.00    -0.099 OA 
HETATM   37  C   UNL     1      -5.861  13.718  71.659  1.00  0.00    -0.033 C  
ENDBRANCH  23  36
ENDBRANCH  11  13
ENDBRANCH   5  11
ENDBRANCH   2   3
TORSDOF 9
ENDMDL
MODEL      248
REMARK 921   NORMALIZED FREE ENERGY PREDICTED BY IDOCK:   -0.66 KCAL/MOL
REMARK 922        TOTAL FREE ENERGY PREDICTED BY IDOCK:   -2.35 KCAL/MOL
REMARK 923 INTER-LIGAND FREE ENERGY PREDICTED BY IDOCK:   -2.94 KCAL/MOL
REMARK 924 INTRA-LIGAND FREE ENERGY PREDICTED BY IDOCK:    0.60 KCAL/MOL
REMARK 927      BINDING AFFINITY PREDICTED BY RF-SCORE:    0.00 PKD
ROOT
HETATM    1  C   UNL     1     -11.920   6.842  67.729  1.00  0.00     2.165 C  
HETATM    2  O   UNL     1     -11.599   6.964  69.113  1.00  0.00    -0.034 OA 
ENDROOT
BRANCH   2   3
HETATM    3  C   UNL     1     -10.483   7.708  69.400  1.00  0.00    -0.220 A  
HETATM    4  C   UNL     1      -9.938   8.638  68.506  1.00  0.00    -0.201 A  
HETATM    5  C   UNL     1      -8.790   9.381  68.819  1.00  0.00    -0.132 A  
HETATM    6  C   UNL     1      -8.191   9.165  70.074  1.00  0.00    -0.143 A  
HETATM    7  C   UNL     1      -9.843   7.491  70.625  1.00  0.00    -0.179 A  
HETATM    8 CL   UNL     1      -6.790  10.063  70.547  1.00  0.00    -0.133 Cl 
HETATM    9  C   UNL     1      -8.708   8.225  70.970  1.00  0.00    -0.169 A  
HETATM   10 CL   UNL     1     -10.446   6.339  71.765  1.00  0.00    -0.238 Cl 
BRANCH   5  11
HETATM   11  N   UNL     1      -8.190  10.247  67.868  1.00  0.00    -0.109 NA 
HETATM   12  H   UNL     1      -7.501   9.816  67.253  1.00  0.00     0.000 HD 
BRANCH  11  13
HETATM   13  C   UNL     1      -8.420  11.632  67.657  1.00  0.00    -0.142 A  
HETATM   14  C   UNL     1     -10.157  11.198  65.914  1.00  0.00    -0.247 C  
HETATM   15  C   UNL     1      -9.417  12.073  66.764  1.00  0.00    -0.212 A  
HETATM   16  C   UNL     1      -9.681  13.427  66.694  1.00  0.00    -0.275 A  
HETATM   17  N   UNL     1      -9.059  14.359  67.443  1.00  0.00    -0.190 NA 
HETATM   18  N   UNL     1     -10.799  10.520  65.225  1.00  0.00     0.054 NA 
HETATM   19  C   UNL     1      -8.113  13.952  68.297  1.00  0.00    -0.150 A  
HETATM   20  C   UNL     1      -7.513  14.924  69.079  1.00  0.00    -0.144 A  
HETATM   21  C   UNL     1      -6.541  14.615  70.034  1.00  0.00    -0.161 A  
HETATM   22  C   UNL     1      -7.728  12.601  68.442  1.00  0.00    -0.133 A  
HETATM   23  C   UNL     1      -6.124  13.291  70.173  1.00  0.00    -0.107 A  
HETATM   24  C   UNL     1      -6.702  12.301  69.369  1.00  0.00    -0.043 A  
BRANCH  21  25
HETATM   25  O   UNL     1      -5.924  15.588  70.771  1.00  0.00    -0.018 OA 
BRANCH  25  26
HETATM   26  C   UNL     1      -5.412  16.691  70.011  1.00  0.00    -0.201 C  
BRANCH  26  27
HETATM   27  C   UNL     1      -6.484  17.771  70.018  1.00  0.00     0.198 C  
BRANCH  27  28
HETATM   28  C   UNL     1      -7.196  17.910  68.671  1.00  0.00    -0.272 C  
BRANCH  28  29
HETATM   29  N   UNL     1      -8.399  18.761  68.694  1.00  0.00    -0.337 NA 
HETATM   30  C   UNL     1      -8.241  20.013  67.921  1.00  0.00    -0.254 C  
HETATM   31  C   UNL     1      -8.164  19.811  66.390  1.00  0.00    -0.347 C  
HETATM   32  N   UNL     1      -9.299  19.060  65.817  1.00  0.00    -0.316 NA 
HETATM   33  C   UNL     1      -9.529  17.827  66.600  1.00  0.00    -0.292 C  
HETATM   34  C   UNL     1     -10.505  19.886  65.767  1.00  0.00    -0.414 C  
HETATM   35  C   UNL     1      -9.560  18.021  68.139  1.00  0.00    -0.301 C  
ENDBRANCH  28  29
ENDBRANCH  27  28
ENDBRANCH  26  27
ENDBRANCH  25  26
ENDBRANCH  21  25
BRANCH  23  36
HETATM   36  O   UNL     1      -5.144  12.833  71.015  1.00  0.00    -0.124 OA 
HETATM   37  C   UNL     1      -5.549  12.632  72.366  1.00  0.00     0.874 C  
ENDBRANCH  23  36
ENDBRANCH  11  13
ENDBRANCH   5  11
ENDBRANCH   2   3
TORSDOF 9
ENDMDL
MODEL      249
REMARK 921   NORMALIZED FREE ENERGY PREDICTED BY IDOCK:   -0.66 KCAL/MOL
REMARK 922        TOTAL FREE ENERGY PREDICTED BY IDOCK:   -2.34 KCAL/MOL
REMARK 923 INTER-LIGAND FREE ENERGY PREDICTED BY IDOCK:   -4.28 KCAL/MOL
REMARK 924 INTRA-LIGAND FREE ENERGY PREDICTED BY IDOCK:    1.94 KCAL/MOL
REMARK 927      BINDING AFFINITY PREDICTED BY RF-SCORE:    0.00 PKD
ROOT
HETATM    1  C   UNL     1     -11.632  16.054  68.961  1.00  0.00    -0.349 C  
HETATM    2  O   UNL     1     -10.316  15.553  68.737  1.00  0.00    -0.207 OA 
ENDROOT
BRANCH   2   3
HETATM    3  C   UNL     1     -10.209  14.575  67.781  1.00  0.00    -0.226 A  
HETATM    4  C   UNL     1      -9.727  13.290  68.058  1.00  0.00    -0.223 A  
HETATM    5  C   UNL     1      -9.619  12.308  67.061  1.00  0.00    -0.208 A  
HETATM    6  C   UNL     1     -10.014  12.654  65.755  1.00  0.00    -0.256 A  
HETATM    7  C   UNL     1     -10.560  14.897  66.465  1.00  0.00    -0.306 A  
HETATM    8 CL   UNL     1      -9.939  11.490  64.477  1.00  0.00    -0.288 Cl 
HETATM    9  C   UNL     1     -10.477  13.938  65.456  1.00  0.00    -0.333 A  
HETATM   10 CL   UNL     1     -11.138  16.472  66.047  1.00  0.00     0.093 Cl 
BRANCH   5  11
HETATM   11  N   UNL     1      -9.036  11.043  67.332  1.00  0.00    -0.141 NA 
HETATM   12  H   UNL     1      -8.108  10.891  66.939  1.00  0.00     0.000 HD 
BRANCH  11  13
HETATM   13  C   UNL     1      -9.571   9.960  68.078  1.00  0.00    -0.138 A  
HETATM   14  C   UNL     1     -11.710  11.171  68.527  1.00  0.00    -0.298 C  
HETATM   15  C   UNL     1     -10.885  10.010  68.588  1.00  0.00    -0.265 A  
HETATM   16  C   UNL     1     -11.395   8.878  69.195  1.00  0.00     0.411 A  
HETATM   17  N   UNL     1     -10.724   7.716  69.315  1.00  0.00    -0.200 NA 
HETATM   18  N   UNL     1     -12.424  12.085  68.475  1.00  0.00     0.079 NA 
HETATM   19  C   UNL     1      -9.478   7.655  68.832  1.00  0.00    -0.149 A  
HETATM   20  C   UNL     1      -8.822   6.441  68.937  1.00  0.00    -0.125 A  
HETATM   21  C   UNL     1      -7.533   6.245  68.433  1.00  0.00    -0.088 A  
HETATM   22  C   UNL     1      -8.830   8.749  68.217  1.00  0.00    -0.141 A  
HETATM   23  C   UNL     1      -6.864   7.320  67.848  1.00  0.00    -0.070 A  
HETATM   24  C   UNL     1      -7.504   8.562  67.760  1.00  0.00    -0.097 A  
BRANCH  21  25
HETATM   25  O   UNL     1      -6.878   5.053  68.581  1.00  0.00    -0.049 OA 
BRANCH  25  26
HETATM   26  C   UNL     1      -7.707   3.952  68.978  1.00  0.00    -0.053 C  
BRANCH  26  27
HETATM   27  C   UNL     1      -6.907   3.132  69.979  1.00  0.00    -0.034 C  
BRANCH  27  28
HETATM   28  C   UNL     1      -7.153   3.558  71.427  1.00  0.00    -0.032 C  
BRANCH  28  29
HETATM   29  N   UNL     1      -7.628   4.942  71.591  1.00  0.00    -0.092 NA 
HETATM   30  C   UNL     1      -8.420   5.145  72.824  1.00  0.00    -0.113 C  
HETATM   31  C   UNL     1      -7.596   5.057  74.131  1.00  0.00    -0.094 C  
HETATM   32  N   UNL     1      -6.433   5.965  74.180  1.00  0.00    -0.073 NA 
HETATM   33  C   UNL     1      -5.647   5.838  72.934  1.00  0.00    -0.031 C  
HETATM   34  C   UNL     1      -6.855   7.349  74.398  1.00  0.00    -0.096 C  
HETATM   35  C   UNL     1      -6.477   5.878  71.624  1.00  0.00    -0.050 C  
ENDBRANCH  28  29
ENDBRANCH  27  28
ENDBRANCH  26  27
ENDBRANCH  25  26
ENDBRANCH  21  25
BRANCH  23  36
HETATM   36  O   UNL     1      -5.582   7.311  67.363  1.00  0.00    -0.026 OA 
HETATM   37  C   UNL     1      -5.359   6.448  66.252  1.00  0.00    -0.013 C  
ENDBRANCH  23  36
ENDBRANCH  11  13
ENDBRANCH   5  11
ENDBRANCH   2   3
TORSDOF 9
ENDMDL
MODEL      250
REMARK 921   NORMALIZED FREE ENERGY PREDICTED BY IDOCK:   -0.59 KCAL/MOL
REMARK 922        TOTAL FREE ENERGY PREDICTED BY IDOCK:   -2.24 KCAL/MOL
REMARK 923 INTER-LIGAND FREE ENERGY PREDICTED BY IDOCK:   -6.04 KCAL/MOL
REMARK 924 INTRA-LIGAND FREE ENERGY PREDICTED BY IDOCK:    3.80 KCAL/MOL
REMARK 927      BINDING AFFINITY PREDICTED BY RF-SCORE:    0.00 PKD
ROOT
HETATM    1  C   UNL     1      -8.917   9.223  68.943  1.00  0.00    -0.136 C  
HETATM    2  O   UNL     1     -10.281   9.282  68.534  1.00  0.00    -0.187 OA 
ENDROOT
BRANCH   2   3
HETATM    3  C   UNL     1     -11.180   9.625  69.513  1.00  0.00    -0.109 A  
HETATM    4  C   UNL     1     -11.579  10.946  69.749  1.00  0.00    -0.399 A  
HETATM    5  C   UNL     1     -12.494  11.273  70.762  1.00  0.00    -0.376 A  
HETATM    6  C   UNL     1     -13.007  10.223  71.545  1.00  0.00    -0.453 A  
HETATM    7  C   UNL     1     -11.682   8.609  70.333  1.00  0.00    -0.007 A  
HETATM    8 CL   UNL     1     -14.162  10.541  72.794  1.00  0.00     0.965 Cl 
HETATM    9  C   UNL     1     -12.603   8.902  71.338  1.00  0.00    -0.351 A  
HETATM   10 CL   UNL     1     -11.211   6.960  70.114  1.00  0.00    -0.341 Cl 
BRANCH   5  11
HETATM   11  N   UNL     1     -12.815  12.624  71.057  1.00  0.00    -0.230 NA 
HETATM   12  H   UNL     1     -13.577  12.761  71.720  1.00  0.00     0.000 HD 
BRANCH  11  13
HETATM   13  C   UNL     1     -12.218  13.810  70.554  1.00  0.00    -0.369 A  
HETATM   14  C   UNL     1     -12.253  14.917  72.794  1.00  0.00    -0.296 C  
HETATM   15  C   UNL     1     -11.892  14.877  71.415  1.00  0.00    -0.404 A  
HETATM   16  C   UNL     1     -11.199  15.953  70.892  1.00  0.00    -0.351 A  
HETATM   17  N   UNL     1     -10.794  16.040  69.609  1.00  0.00    -0.301 NA 
HETATM   18  N   UNL     1     -12.505  14.977  73.926  1.00  0.00    -0.562 NA 
HETATM   19  C   UNL     1     -11.095  15.031  68.783  1.00  0.00    -0.261 A  
HETATM   20  C   UNL     1     -10.639  15.129  67.480  1.00  0.00    -0.269 A  
HETATM   21  C   UNL     1     -10.857  14.120  66.538  1.00  0.00    -0.298 A  
HETATM   22  C   UNL     1     -11.825  13.890  69.186  1.00  0.00    -0.401 A  
HETATM   23  C   UNL     1     -11.601  12.998  66.906  1.00  0.00    -0.366 A  
HETATM   24  C   UNL     1     -12.092  12.898  68.212  1.00  0.00    -0.173 A  
BRANCH  21  25
HETATM   25  O   UNL     1     -10.439  14.246  65.241  1.00  0.00    -0.340 OA 
BRANCH  25  26
HETATM   26  C   UNL     1     -11.456  14.038  64.253  1.00  0.00    -0.297 C  
BRANCH  26  27
HETATM   27  C   UNL     1     -10.931  12.983  63.290  1.00  0.00     0.287 C  
BRANCH  27  28
HETATM   28  C   UNL     1     -10.279  11.799  64.004  1.00  0.00    -0.348 C  
BRANCH  28  29
HETATM   29  N   UNL     1      -8.833  11.652  63.763  1.00  0.00     0.352 NA 
HETATM   30  C   UNL     1      -8.081  11.237  64.967  1.00  0.00     0.528 C  
HETATM   31  C   UNL     1      -8.359   9.785  65.423  1.00  0.00    -0.139 C  
HETATM   32  N   UNL     1      -8.143   8.767  64.376  1.00  0.00    -0.148 NA 
HETATM   33  C   UNL     1      -8.831   9.175  63.132  1.00  0.00    -0.082 C  
HETATM   34  C   UNL     1      -6.716   8.546  64.142  1.00  0.00    -0.075 C  
HETATM   35  C   UNL     1      -8.590  10.646  62.700  1.00  0.00    -0.230 C  
ENDBRANCH  28  29
ENDBRANCH  27  28
ENDBRANCH  26  27
ENDBRANCH  25  26
ENDBRANCH  21  25
BRANCH  23  36
HETATM   36  O   UNL     1     -11.953  11.955  66.089  1.00  0.00    -0.537 OA 
HETATM   37  C   UNL     1     -11.533  10.668  66.532  1.00  0.00     0.658 C  
ENDBRANCH  23  36
ENDBRANCH  11  13
ENDBRANCH   5  11
ENDBRANCH   2   3
TORSDOF 9
ENDMDL
MODEL      251
REMARK 921   NORMALIZED FREE ENERGY PREDICTED BY IDOCK:   -0.39 KCAL/MOL
REMARK 922        TOTAL FREE ENERGY PREDICTED BY IDOCK:   -1.94 KCAL/MOL
REMARK 923 INTER-LIGAND FREE ENERGY PREDICTED BY IDOCK:   -3.93 KCAL/MOL
REMARK 924 INTRA-LIGAND FREE ENERGY PREDICTED BY IDOCK:    1.99 KCAL/MOL
REMARK 927      BINDING AFFINITY PREDICTED BY RF-SCORE:    0.00 PKD
ROOT
HETATM    1  C   UNL     1      -5.514   7.634  69.386  1.00  0.00    -0.023 C  
HETATM    2  O   UNL     1      -6.856   7.524  68.919  1.00  0.00    -0.063 OA 
ENDROOT
BRANCH   2   3
HETATM    3  C   UNL     1      -7.141   8.210  67.766  1.00  0.00    -0.087 A  
HETATM    4  C   UNL     1      -7.280   9.603  67.724  1.00  0.00    -0.085 A  
HETATM    5  C   UNL     1      -7.580  10.281  66.533  1.00  0.00    -0.113 A  
HETATM    6  C   UNL     1      -7.739   9.515  65.364  1.00  0.00    -0.109 A  
HETATM    7  C   UNL     1      -7.340   7.474  66.593  1.00  0.00    -0.091 A  
HETATM    8 CL   UNL     1      -8.080  10.280  63.850  1.00  0.00    -0.154 Cl 
HETATM    9  C   UNL     1      -7.626   8.122  65.391  1.00  0.00    -0.089 A  
HETATM   10 CL   UNL     1      -7.210   5.750  66.578  1.00  0.00    -0.072 Cl 
BRANCH   5  11
HETATM   11  N   UNL     1      -7.816  11.681  66.521  1.00  0.00    -0.337 NA 
HETATM   12  H   UNL     1      -7.327  12.205  65.797  1.00  0.00     0.000 HD 
BRANCH  11  13
HETATM   13  C   UNL     1      -8.643  12.450  67.382  1.00  0.00    -0.181 A  
HETATM   14  C   UNL     1     -10.488  10.767  67.308  1.00  0.00    -0.237 C  
HETATM   15  C   UNL     1      -9.897  11.965  67.806  1.00  0.00    -0.187 A  
HETATM   16  C   UNL     1     -10.601  12.699  68.742  1.00  0.00    -0.186 A  
HETATM   17  N   UNL     1     -10.156  13.844  69.296  1.00  0.00     0.090 NA 
HETATM   18  N   UNL     1     -10.993   9.785  66.948  1.00  0.00    -0.046 NA 
HETATM   19  C   UNL     1      -8.965  14.312  68.904  1.00  0.00    -0.025 A  
HETATM   20  C   UNL     1      -8.515  15.471  69.512  1.00  0.00    -0.211 A  
HETATM   21  C   UNL     1      -7.270  16.033  69.214  1.00  0.00    -0.226 A  
HETATM   22  C   UNL     1      -8.162  13.674  67.933  1.00  0.00    -0.171 A  
HETATM   23  C   UNL     1      -6.474  15.436  68.237  1.00  0.00    -0.116 A  
HETATM   24  C   UNL     1      -6.928  14.278  67.594  1.00  0.00    -0.202 A  
BRANCH  21  25
HETATM   25  O   UNL     1      -6.854  17.202  69.790  1.00  0.00    -0.085 OA 
BRANCH  25  26
HETATM   26  C   UNL     1      -7.739  18.316  69.606  1.00  0.00     0.617 C  
BRANCH  26  27
HETATM   27  C   UNL     1      -8.458  18.099  68.283  1.00  0.00    -0.294 C  
BRANCH  27  28
HETATM   28  C   UNL     1      -9.869  17.537  68.459  1.00  0.00    -0.330 C  
BRANCH  28  29
HETATM   29  N   UNL     1     -10.743  17.683  67.282  1.00  0.00    -0.288 NA 
HETATM   30  C   UNL     1     -10.036  17.466  66.000  1.00  0.00    -0.215 C  
HETATM   31  C   UNL     1      -9.603  16.001  65.752  1.00  0.00    -0.276 C  
HETATM   32  N   UNL     1     -10.701  15.019  65.840  1.00  0.00    -0.318 NA 
HETATM   33  C   UNL     1     -11.473  15.241  67.081  1.00  0.00    -0.200 C  
HETATM   34  C   UNL     1     -11.565  15.088  64.662  1.00  0.00    -0.386 C  
HETATM   35  C   UNL     1     -11.867  16.717  67.356  1.00  0.00     1.045 C  
ENDBRANCH  28  29
ENDBRANCH  27  28
ENDBRANCH  26  27
ENDBRANCH  25  26
ENDBRANCH  21  25
BRANCH  23  36
HETATM   36  O   UNL     1      -5.262  15.892  67.788  1.00  0.00    -0.119 OA 
HETATM   37  C   UNL     1      -5.315  17.062  66.978  1.00  0.00    -0.155 C  
ENDBRANCH  23  36
ENDBRANCH  11  13
ENDBRANCH   5  11
ENDBRANCH   2   3
TORSDOF 9
ENDMDL
MODEL      252
REMARK 921   NORMALIZED FREE ENERGY PREDICTED BY IDOCK:   -0.35 KCAL/MOL
REMARK 922        TOTAL FREE ENERGY PREDICTED BY IDOCK:   -1.88 KCAL/MOL
REMARK 923 INTER-LIGAND FREE ENERGY PREDICTED BY IDOCK:   -6.13 KCAL/MOL
REMARK 924 INTRA-LIGAND FREE ENERGY PREDICTED BY IDOCK:    4.25 KCAL/MOL
REMARK 927      BINDING AFFINITY PREDICTED BY RF-SCORE:    0.00 PKD
ROOT
HETATM    1  C   UNL     1     -14.341   7.464  70.707  1.00  0.00     0.664 C  
HETATM    2  O   UNL     1     -13.068   7.482  71.346  1.00  0.00    -0.351 OA 
ENDROOT
BRANCH   2   3
HETATM    3  C   UNL     1     -12.137   8.324  70.791  1.00  0.00    -0.058 A  
HETATM    4  C   UNL     1     -11.154   7.887  69.895  1.00  0.00    -0.123 A  
HETATM    5  C   UNL     1     -10.208   8.767  69.347  1.00  0.00    -0.210 A  
HETATM    6  C   UNL     1     -10.274  10.120  69.727  1.00  0.00    -0.247 A  
HETATM    7  C   UNL     1     -12.153   9.669  71.176  1.00  0.00    -0.362 A  
HETATM    8 CL   UNL     1      -9.162  11.272  69.073  1.00  0.00    -0.066 Cl 
HETATM    9  C   UNL     1     -11.234  10.570  70.637  1.00  0.00    -0.283 A  
HETATM   10 CL   UNL     1     -13.323  10.271  72.299  1.00  0.00    -0.425 Cl 
BRANCH   5  11
HETATM   11  N   UNL     1      -9.157   8.295  68.519  1.00  0.00    -0.137 NA 
HETATM   12  H   UNL     1      -8.831   7.350  68.716  1.00  0.00     0.000 HD 
BRANCH  11  13
HETATM   13  C   UNL     1      -8.497   8.962  67.453  1.00  0.00    -0.115 A  
HETATM   14  C   UNL     1      -6.454   7.541  67.672  1.00  0.00    -0.057 C  
HETATM   15  C   UNL     1      -7.225   8.542  67.013  1.00  0.00    -0.079 A  
HETATM   16  C   UNL     1      -6.688   9.146  65.892  1.00  0.00    -0.079 A  
HETATM   17  N   UNL     1      -7.312  10.101  65.174  1.00  0.00    -0.139 NA 
HETATM   18  N   UNL     1      -5.805   6.713  68.163  1.00  0.00    -0.019 NA 
HETATM   19  C   UNL     1      -8.522  10.505  65.580  1.00  0.00    -0.176 A  
HETATM   20  C   UNL     1      -9.157  11.462  64.808  1.00  0.00     0.036 A  
HETATM   21  C   UNL     1     -10.438  11.932  65.109  1.00  0.00    -0.287 A  
HETATM   22  C   UNL     1      -9.167   9.990  66.727  1.00  0.00    -0.173 A  
HETATM   23  C   UNL     1     -11.081  11.459  66.253  1.00  0.00    -0.221 A  
HETATM   24  C   UNL     1     -10.440  10.511  67.060  1.00  0.00    -0.304 A  
BRANCH  21  25
HETATM   25  O   UNL     1     -11.038  12.909  64.363  1.00  0.00    -0.324 OA 
BRANCH  25  26
HETATM   26  C   UNL     1     -10.865  14.242  64.860  1.00  0.00    -0.416 C  
BRANCH  26  27
HETATM   27  C   UNL     1     -10.105  14.133  66.173  1.00  0.00    -0.324 C  
BRANCH  27  28
HETATM   28  C   UNL     1      -8.881  15.048  66.228  1.00  0.00    -0.124 C  
BRANCH  28  29
HETATM   29  N   UNL     1      -9.170  16.444  66.600  1.00  0.00    -0.236 NA 
HETATM   30  C   UNL     1      -9.279  16.648  68.061  1.00  0.00    -0.223 C  
HETATM   31  C   UNL     1      -7.942  16.507  68.826  1.00  0.00    -0.236 C  
HETATM   32  N   UNL     1      -6.859  17.375  68.323  1.00  0.00    -0.184 NA 
HETATM   33  C   UNL     1      -6.756  17.247  66.854  1.00  0.00    -0.195 C  
HETATM   34  C   UNL     1      -7.075  18.767  68.717  1.00  0.00    -0.308 C  
HETATM   35  C   UNL     1      -8.103  17.341  66.089  1.00  0.00    -0.237 C  
ENDBRANCH  28  29
ENDBRANCH  27  28
ENDBRANCH  26  27
ENDBRANCH  25  26
ENDBRANCH  21  25
BRANCH  23  36
HETATM   36  O   UNL     1     -12.306  11.860  66.720  1.00  0.00    -0.229 OA 
HETATM   37  C   UNL     1     -12.279  12.621  67.923  1.00  0.00     0.115 C  
ENDBRANCH  23  36
ENDBRANCH  11  13
ENDBRANCH   5  11
ENDBRANCH   2   3
TORSDOF 9
ENDMDL
MODEL      253
REMARK 921   NORMALIZED FREE ENERGY PREDICTED BY IDOCK:    0.91 KCAL/MOL
REMARK 922        TOTAL FREE ENERGY PREDICTED BY IDOCK:    0.05 KCAL/MOL
REMARK 923 INTER-LIGAND FREE ENERGY PREDICTED BY IDOCK:   -1.87 KCAL/MOL
REMARK 924 INTRA-LIGAND FREE ENERGY PREDICTED BY IDOCK:    1.92 KCAL/MOL
REMARK 927      BINDING AFFINITY PREDICTED BY RF-SCORE:    0.00 PKD
ROOT
HETATM    1  C   UNL     1      -8.077  20.103  70.410  1.00  0.00     1.370 C  
HETATM    2  O   UNL     1      -7.108  19.123  70.045  1.00  0.00     0.092 OA 
ENDROOT
BRANCH   2   3
HETATM    3  C   UNL     1      -7.544  18.149  69.183  1.00  0.00    -0.047 A  
HETATM    4  C   UNL     1      -6.899  16.915  69.039  1.00  0.00    -0.224 A  
HETATM    5  C   UNL     1      -7.360  15.938  68.144  1.00  0.00    -0.127 A  
HETATM    6  C   UNL     1      -8.506  16.234  67.384  1.00  0.00    -0.172 A  
HETATM    7  C   UNL     1      -8.661  18.426  68.386  1.00  0.00    -0.325 A  
HETATM    8 CL   UNL     1      -9.154  15.070  66.280  1.00  0.00    -0.315 Cl 
HETATM    9  C   UNL     1      -9.150  17.469  67.497  1.00  0.00    -0.234 A  
HETATM   10 CL   UNL     1      -9.490  19.940  68.492  1.00  0.00    -0.371 Cl 
BRANCH   5  11
HETATM   11  N   UNL     1      -6.641  14.732  67.936  1.00  0.00    -0.147 NA 
HETATM   12  H   UNL     1      -6.165  14.652  67.038  1.00  0.00     0.000 HD 
BRANCH  11  13
HETATM   13  C   UNL     1      -6.495  13.622  68.808  1.00  0.00    -0.097 A  
HETATM   14  C   UNL     1      -5.529  15.032  70.631  1.00  0.00    -0.137 C  
HETATM   15  C   UNL     1      -6.022  13.793  70.125  1.00  0.00    -0.151 A  
HETATM   16  C   UNL     1      -6.020  12.698  70.968  1.00  0.00     0.357 A  
HETATM   17  N   UNL     1      -6.462  11.473  70.619  1.00  0.00    -0.083 NA 
HETATM   18  N   UNL     1      -5.144  16.026  71.090  1.00  0.00    -0.173 NA 
HETATM   19  C   UNL     1      -6.916  11.300  69.372  1.00  0.00    -0.109 A  
HETATM   20  C   UNL     1      -7.395  10.042  69.048  1.00  0.00    -0.083 A  
HETATM   21  C   UNL     1      -7.931   9.751  67.790  1.00  0.00    -0.101 A  
HETATM   22  C   UNL     1      -6.942  12.329  68.406  1.00  0.00    -0.082 A  
HETATM   23  C   UNL     1      -7.940  10.745  66.811  1.00  0.00    -0.138 A  
HETATM   24  C   UNL     1      -7.433  12.014  67.116  1.00  0.00    -0.138 A  
BRANCH  21  25
HETATM   25  O   UNL     1      -8.362   8.494  67.468  1.00  0.00    -0.125 OA 
BRANCH  25  26
HETATM   26  C   UNL     1      -9.680   8.168  67.929  1.00  0.00    -0.161 C  
BRANCH  26  27
HETATM   27  C   UNL     1      -9.536   7.636  69.347  1.00  0.00    -0.152 C  
BRANCH  27  28
HETATM   28  C   UNL     1      -8.647   6.394  69.428  1.00  0.00    -0.130 C  
BRANCH  28  29
HETATM   29  N   UNL     1      -7.573   6.467  70.433  1.00  0.00    -0.094 NA 
HETATM   30  C   UNL     1      -8.073   6.719  71.803  1.00  0.00    -0.102 C  
HETATM   31  C   UNL     1      -8.852   5.535  72.424  1.00  0.00    -0.135 C  
HETATM   32  N   UNL     1      -8.112   4.259  72.436  1.00  0.00    -0.094 NA 
HETATM   33  C   UNL     1      -7.542   3.999  71.096  1.00  0.00    -0.051 C  
HETATM   34  C   UNL     1      -7.068   4.264  73.460  1.00  0.00    -0.069 C  
HETATM   35  C   UNL     1      -6.801   5.200  70.451  1.00  0.00    -0.044 C  
ENDBRANCH  28  29
ENDBRANCH  27  28
ENDBRANCH  26  27
ENDBRANCH  25  26
ENDBRANCH  21  25
BRANCH  23  36
HETATM   36  O   UNL     1      -8.371  10.606  65.518  1.00  0.00    -0.165 OA 
HETATM   37  C   UNL     1      -8.601  11.825  64.819  1.00  0.00     0.892 C  
ENDBRANCH  23  36
ENDBRANCH  11  13
ENDBRANCH   5  11
ENDBRANCH   2   3
TORSDOF 9
ENDMDL
MODEL      254
REMARK 921   NORMALIZED FREE ENERGY PREDICTED BY IDOCK:    1.06 KCAL/MOL
REMARK 922        TOTAL FREE ENERGY PREDICTED BY IDOCK:    0.27 KCAL/MOL
REMARK 923 INTER-LIGAND FREE ENERGY PREDICTED BY IDOCK:   -2.42 KCAL/MOL
REMARK 924 INTRA-LIGAND FREE ENERGY PREDICTED BY IDOCK:    2.69 KCAL/MOL
REMARK 927      BINDING AFFINITY PREDICTED BY RF-SCORE:    0.00 PKD
ROOT
HETATM    1  C   UNL     1      -8.080  20.113  70.421  1.00  0.00     1.370 C  
HETATM    2  O   UNL     1      -7.052  19.185  70.085  1.00  0.00     0.207 OA 
ENDROOT
BRANCH   2   3
HETATM    3  C   UNL     1      -7.396  18.223  69.169  1.00  0.00    -0.122 A  
HETATM    4  C   UNL     1      -6.693  17.021  69.028  1.00  0.00    -0.221 A  
HETATM    5  C   UNL     1      -7.060  16.055  68.078  1.00  0.00    -0.132 A  
HETATM    6  C   UNL     1      -8.170  16.331  67.259  1.00  0.00    -0.172 A  
HETATM    7  C   UNL     1      -8.474  18.482  68.315  1.00  0.00    -0.318 A  
HETATM    8 CL   UNL     1      -8.704  15.179  66.083  1.00  0.00    -0.135 Cl 
HETATM    9  C   UNL     1      -8.870  17.535  67.370  1.00  0.00    -0.230 A  
HETATM   10 CL   UNL     1      -9.369  19.958  68.416  1.00  0.00    -0.371 Cl 
BRANCH   5  11
HETATM   11  N   UNL     1      -6.282  14.886  67.877  1.00  0.00    -0.151 NA 
HETATM   12  H   UNL     1      -5.729  14.866  67.020  1.00  0.00     0.000 HD 
BRANCH  11  13
HETATM   13  C   UNL     1      -6.168  13.740  68.707  1.00  0.00    -0.089 A  
HETATM   14  C   UNL     1      -5.540  15.104  70.704  1.00  0.00    -0.122 C  
HETATM   15  C   UNL     1      -5.877  13.867  70.081  1.00  0.00    -0.143 A  
HETATM   16  C   UNL     1      -5.903  12.729  70.864  1.00  0.00     0.026 A  
HETATM   17  N   UNL     1      -6.210  11.500  70.403  1.00  0.00    -0.272 NA 
HETATM   18  N   UNL     1      -5.287  16.094  71.256  1.00  0.00    -0.018 NA 
HETATM   19  C   UNL     1      -6.490  11.368  69.101  1.00  0.00    -0.085 A  
HETATM   20  C   UNL     1      -6.835  10.103  68.658  1.00  0.00    -0.057 A  
HETATM   21  C   UNL     1      -7.187   9.849  67.329  1.00  0.00    -0.086 A  
HETATM   22  C   UNL     1      -6.468  12.446  68.189  1.00  0.00    -0.072 A  
HETATM   23  C   UNL     1      -7.143  10.894  66.406  1.00  0.00    -0.133 A  
HETATM   24  C   UNL     1      -6.770  12.173  66.833  1.00  0.00     0.002 A  
BRANCH  21  25
HETATM   25  O   UNL     1      -7.484   8.587  66.894  1.00  0.00    -0.082 OA 
BRANCH  25  26
HETATM   26  C   UNL     1      -8.821   8.150  67.170  1.00  0.00    -0.131 C  
BRANCH  26  27
HETATM   27  C   UNL     1      -8.814   7.550  68.569  1.00  0.00    -0.126 C  
BRANCH  27  28
HETATM   28  C   UNL     1      -7.918   6.316  68.681  1.00  0.00    -0.105 C  
BRANCH  28  29
HETATM   29  N   UNL     1      -8.605   5.094  69.134  1.00  0.00    -0.092 NA 
HETATM   30  C   UNL     1      -9.325   4.392  68.047  1.00  0.00    -0.146 C  
HETATM   31  C   UNL     1      -8.402   3.729  66.997  1.00  0.00    -0.099 C  
HETATM   32  N   UNL     1      -7.408   2.797  67.563  1.00  0.00    -0.057 NA 
HETATM   33  C   UNL     1      -6.707   3.439  68.695  1.00  0.00    -0.045 C  
HETATM   34  C   UNL     1      -8.037   1.543  67.976  1.00  0.00    -0.058 C  
HETATM   35  C   UNL     1      -7.628   4.146  69.725  1.00  0.00    -0.053 C  
ENDBRANCH  28  29
ENDBRANCH  27  28
ENDBRANCH  26  27
ENDBRANCH  25  26
ENDBRANCH  21  25
BRANCH  23  36
HETATM   36  O   UNL     1      -7.399  10.800  65.062  1.00  0.00     0.022 OA 
HETATM   37  C   UNL     1      -6.742   9.729  64.392  1.00  0.00    -0.119 C  
ENDBRANCH  23  36
ENDBRANCH  11  13
ENDBRANCH   5  11
ENDBRANCH   2   3
TORSDOF 9
ENDMDL
MODEL      255
REMARK 921   NORMALIZED FREE ENERGY PREDICTED BY IDOCK:    1.29 KCAL/MOL
REMARK 922        TOTAL FREE ENERGY PREDICTED BY IDOCK:    0.63 KCAL/MOL
REMARK 923 INTER-LIGAND FREE ENERGY PREDICTED BY IDOCK:   -2.10 KCAL/MOL
REMARK 924 INTRA-LIGAND FREE ENERGY PREDICTED BY IDOCK:    2.72 KCAL/MOL
REMARK 927      BINDING AFFINITY PREDICTED BY RF-SCORE:    0.00 PKD
ROOT
HETATM    1  C   UNL     1      -9.041   6.695  63.040  1.00  0.00     1.289 C  
HETATM    2  O   UNL     1      -8.656   8.059  63.194  1.00  0.00     0.034 OA 
ENDROOT
BRANCH   2   3
HETATM    3  C   UNL     1      -8.777   8.569  64.462  1.00  0.00     0.051 A  
HETATM    4  C   UNL     1      -8.537   9.914  64.767  1.00  0.00    -0.191 A  
HETATM    5  C   UNL     1      -8.660  10.411  66.074  1.00  0.00    -0.151 A  
HETATM    6  C   UNL     1      -9.037   9.508  67.085  1.00  0.00    -0.134 A  
HETATM    7  C   UNL     1      -9.116   7.690  65.497  1.00  0.00     0.172 A  
HETATM    8 CL   UNL     1      -9.238  10.049  68.717  1.00  0.00    -0.152 Cl 
HETATM    9  C   UNL     1      -9.259   8.158  66.804  1.00  0.00    -0.206 A  
HETATM   10 CL   UNL     1      -9.400   6.011  65.196  1.00  0.00     0.318 Cl 
BRANCH   5  11
HETATM   11  N   UNL     1      -8.318  11.752  66.388  1.00  0.00    -0.354 NA 
HETATM   12  H   UNL     1      -7.320  11.954  66.430  1.00  0.00     0.000 HD 
BRANCH  11  13
HETATM   13  C   UNL     1      -9.178  12.850  66.651  1.00  0.00    -0.221 A  
HETATM   14  C   UNL     1     -11.146  11.708  65.619  1.00  0.00    -0.249 C  
HETATM   15  C   UNL     1     -10.551  12.787  66.337  1.00  0.00    -0.273 A  
HETATM   16  C   UNL     1     -11.363  13.834  66.731  1.00  0.00    -0.330 A  
HETATM   17  N   UNL     1     -10.930  14.910  67.418  1.00  0.00    -0.305 NA 
HETATM   18  N   UNL     1     -11.675  10.839  65.059  1.00  0.00     0.988 NA 
HETATM   19  C   UNL     1      -9.629  14.979  67.725  1.00  0.00    -0.203 A  
HETATM   20  C   UNL     1      -9.215  16.077  68.460  1.00  0.00    -0.206 A  
HETATM   21  C   UNL     1      -7.890  16.238  68.874  1.00  0.00    -0.224 A  
HETATM   22  C   UNL     1      -8.691  13.991  67.354  1.00  0.00    -0.212 A  
HETATM   23  C   UNL     1      -6.941  15.290  68.493  1.00  0.00    -0.113 A  
HETATM   24  C   UNL     1      -7.339  14.189  67.726  1.00  0.00    -0.177 A  
BRANCH  21  25
HETATM   25  O   UNL     1      -7.484  17.348  69.563  1.00  0.00     0.005 OA 
BRANCH  25  26
HETATM   26  C   UNL     1      -8.367  18.474  69.473  1.00  0.00     0.586 C  
BRANCH  26  27
HETATM   27  C   UNL     1      -7.498  19.707  69.275  1.00  0.00    -0.250 C  
BRANCH  27  28
HETATM   28  C   UNL     1      -6.063  19.363  68.871  1.00  0.00    -0.241 C  
BRANCH  28  29
HETATM   29  N   UNL     1      -5.534  20.149  67.744  1.00  0.00    -0.185 NA 
HETATM   30  C   UNL     1      -5.161  19.319  66.577  1.00  0.00    -0.158 C  
HETATM   31  C   UNL     1      -6.363  18.686  65.837  1.00  0.00    -0.233 C  
HETATM   32  N   UNL     1      -7.387  19.654  65.399  1.00  0.00    -0.409 NA 
HETATM   33  C   UNL     1      -7.744  20.547  66.523  1.00  0.00    -0.130 C  
HETATM   34  C   UNL     1      -6.926  20.422  64.243  1.00  0.00     0.339 C  
HETATM   35  C   UNL     1      -6.539  21.145  67.297  1.00  0.00    -0.359 C  
ENDBRANCH  28  29
ENDBRANCH  27  28
ENDBRANCH  26  27
ENDBRANCH  25  26
ENDBRANCH  21  25
BRANCH  23  36
HETATM   36  O   UNL     1      -5.598  15.332  68.764  1.00  0.00    -0.087 OA 
HETATM   37  C   UNL     1      -5.253  15.833  70.051  1.00  0.00    -0.128 C  
ENDBRANCH  23  36
ENDBRANCH  11  13
ENDBRANCH   5  11
ENDBRANCH   2   3
TORSDOF 9
ENDMDL
MODEL      256
REMARK 921   NORMALIZED FREE ENERGY PREDICTED BY IDOCK:    3.46 KCAL/MOL
REMARK 922        TOTAL FREE ENERGY PREDICTED BY IDOCK:    3.94 KCAL/MOL
REMARK 923 INTER-LIGAND FREE ENERGY PREDICTED BY IDOCK:   -4.06 KCAL/MOL
REMARK 924 INTRA-LIGAND FREE ENERGY PREDICTED BY IDOCK:    8.00 KCAL/MOL
REMARK 927      BINDING AFFINITY PREDICTED BY RF-SCORE:    0.00 PKD
ROOT
HETATM    1  C   UNL     1      -5.576   9.109  67.478  1.00  0.00    -0.042 C  
HETATM    2  O   UNL     1      -6.463   9.677  68.438  1.00  0.00    -0.052 OA 
ENDROOT
BRANCH   2   3
HETATM    3  C   UNL     1      -7.541   8.900  68.782  1.00  0.00    -0.091 A  
HETATM    4  C   UNL     1      -8.736   9.435  69.278  1.00  0.00    -0.145 A  
HETATM    5  C   UNL     1      -9.823   8.619  69.630  1.00  0.00    -0.186 A  
HETATM    6  C   UNL     1      -9.677   7.229  69.470  1.00  0.00    -0.158 A  
HETATM    7  C   UNL     1      -7.416   7.511  68.669  1.00  0.00    -0.101 A  
HETATM    8 CL   UNL     1     -10.981   6.158  69.855  1.00  0.00    -0.419 Cl 
HETATM    9  C   UNL     1      -8.484   6.676  68.998  1.00  0.00    -0.130 A  
HETATM   10 CL   UNL     1      -5.959   6.782  68.090  1.00  0.00    -0.030 Cl 
BRANCH   5  11
HETATM   11  N   UNL     1     -10.991   9.164  70.223  1.00  0.00    -0.239 NA 
HETATM   12  H   UNL     1     -11.357   8.653  71.026  1.00  0.00     0.000 HD 
BRANCH  11  13
HETATM   13  C   UNL     1     -11.719  10.324  69.851  1.00  0.00    -0.225 A  
HETATM   14  C   UNL     1     -13.389  10.007  71.682  1.00  0.00    -0.373 C  
HETATM   15  C   UNL     1     -12.830  10.755  70.604  1.00  0.00    -0.377 A  
HETATM   16  C   UNL     1     -13.422  11.958  70.270  1.00  0.00     1.761 A  
HETATM   17  N   UNL     1     -12.992  12.763  69.278  1.00  0.00     1.209 NA 
HETATM   18  N   UNL     1     -13.859   9.444  72.582  1.00  0.00    -0.353 NA 
HETATM   19  C   UNL     1     -11.936  12.366  68.558  1.00  0.00    -0.223 A  
HETATM   20  C   UNL     1     -11.493  13.225  67.567  1.00  0.00    -0.361 A  
HETATM   21  C   UNL     1     -10.376  12.938  66.778  1.00  0.00    -0.245 A  
HETATM   22  C   UNL     1     -11.262  11.145  68.778  1.00  0.00    -0.314 A  
HETATM   23  C   UNL     1      -9.713  11.724  66.958  1.00  0.00    -0.185 A  
HETATM   24  C   UNL     1     -10.167  10.832  67.938  1.00  0.00    -0.203 A  
BRANCH  21  25
HETATM   25  O   UNL     1      -9.973  13.774  65.773  1.00  0.00    -0.298 OA 
BRANCH  25  26
HETATM   26  C   UNL     1      -9.515  15.062  66.204  1.00  0.00    -0.313 C  
BRANCH  26  27
HETATM   27  C   UNL     1      -9.555  15.062  67.725  1.00  0.00    -0.203 C  
BRANCH  27  28
HETATM   28  C   UNL     1      -8.225  15.481  68.355  1.00  0.00    -0.145 C  
BRANCH  28  29
HETATM   29  N   UNL     1      -7.843  16.883  68.115  1.00  0.00    -0.183 NA 
HETATM   30  C   UNL     1      -8.014  17.302  66.706  1.00  0.00    -0.241 C  
HETATM   31  C   UNL     1      -9.487  17.412  66.249  1.00  0.00    -0.226 C  
HETATM   32  N   UNL     1     -10.322  18.291  67.090  1.00  0.00    -0.368 NA 
HETATM   33  C   UNL     1     -10.134  17.945  68.515  1.00  0.00    -0.391 C  
HETATM   34  C   UNL     1     -10.016  19.700  66.845  1.00  0.00    -0.400 C  
HETATM   35  C   UNL     1      -8.657  17.788  68.965  1.00  0.00    -0.008 C  
ENDBRANCH  28  29
ENDBRANCH  27  28
ENDBRANCH  26  27
ENDBRANCH  25  26
ENDBRANCH  21  25
BRANCH  23  36
HETATM   36  O   UNL     1      -8.645  11.266  66.231  1.00  0.00    -0.175 OA 
HETATM   37  C   UNL     1      -7.437  12.003  66.396  1.00  0.00     0.371 C  
ENDBRANCH  23  36
ENDBRANCH  11  13
ENDBRANCH   5  11
ENDBRANCH   2   3
TORSDOF 9
ENDMDL
MODEL      257
REMARK 921   NORMALIZED FREE ENERGY PREDICTED BY IDOCK:    3.63 KCAL/MOL
REMARK 922        TOTAL FREE ENERGY PREDICTED BY IDOCK:    4.20 KCAL/MOL
REMARK 923 INTER-LIGAND FREE ENERGY PREDICTED BY IDOCK:    2.93 KCAL/MOL
REMARK 924 INTRA-LIGAND FREE ENERGY PREDICTED BY IDOCK:    1.27 KCAL/MOL
REMARK 927      BINDING AFFINITY PREDICTED BY RF-SCORE:    0.00 PKD
ROOT
HETATM    1  C   UNL     1     -12.449  15.067  67.673  1.00  0.00     0.697 C  
HETATM    2  O   UNL     1     -11.912  16.312  68.113  1.00  0.00     0.035 OA 
ENDROOT
BRANCH   2   3
HETATM    3  C   UNL     1     -10.620  16.271  68.572  1.00  0.00    -0.294 A  
HETATM    4  C   UNL     1      -9.722  15.253  68.228  1.00  0.00    -0.210 A  
HETATM    5  C   UNL     1      -8.407  15.229  68.716  1.00  0.00    -0.179 A  
HETATM    6  C   UNL     1      -8.007  16.271  69.573  1.00  0.00     0.073 A  
HETATM    7  C   UNL     1     -10.201  17.273  69.454  1.00  0.00    -0.139 A  
HETATM    8 CL   UNL     1      -6.393  16.328  70.193  1.00  0.00    -0.062 Cl 
HETATM    9  C   UNL     1      -8.895  17.283  69.945  1.00  0.00     1.564 A  
HETATM   10 CL   UNL     1     -11.265  18.546  69.942  1.00  0.00     2.728 Cl 
BRANCH   5  11
HETATM   11  N   UNL     1      -7.539  14.141  68.441  1.00  0.00    -0.121 NA 
HETATM   12  H   UNL     1      -6.766  14.343  67.807  1.00  0.00     0.000 HD 
BRANCH  11  13
HETATM   13  C   UNL     1      -7.600  12.809  68.929  1.00  0.00     0.057 A  
HETATM   14  C   UNL     1      -5.902  13.257  70.706  1.00  0.00    -0.132 C  
HETATM   15  C   UNL     1      -6.858  12.418  70.062  1.00  0.00     0.515 A  
HETATM   16  C   UNL     1      -7.053  11.146  70.566  1.00  0.00     1.196 A  
HETATM   17  N   UNL     1      -7.927  10.256  70.056  1.00  0.00    -0.096 NA 
HETATM   18  N   UNL     1      -5.134  13.917  71.276  1.00  0.00    -0.126 NA 
HETATM   19  C   UNL     1      -8.640  10.617  68.983  1.00  0.00    -0.146 A  
HETATM   20  C   UNL     1      -9.555   9.699  68.498  1.00  0.00    -0.152 A  
HETATM   21  C   UNL     1     -10.384   9.978  67.408  1.00  0.00    -0.238 A  
HETATM   22  C   UNL     1      -8.512  11.876  68.354  1.00  0.00    -0.155 A  
HETATM   23  C   UNL     1     -10.253  11.203  66.753  1.00  0.00    -0.232 A  
HETATM   24  C   UNL     1      -9.312  12.131  67.215  1.00  0.00    -0.183 A  
BRANCH  21  25
HETATM   25  O   UNL     1     -11.254   9.046  66.911  1.00  0.00     0.307 OA 
BRANCH  25  26
HETATM   26  C   UNL     1     -10.701   7.736  66.732  1.00  0.00    -0.045 C  
BRANCH  26  27
HETATM   27  C   UNL     1      -9.192   7.865  66.883  1.00  0.00    -0.191 C  
BRANCH  27  28
HETATM   28  C   UNL     1      -8.549   6.621  67.498  1.00  0.00    -0.120 C  
BRANCH  28  29
HETATM   29  N   UNL     1      -9.493   5.691  68.141  1.00  0.00    -0.108 NA 
HETATM   30  C   UNL     1     -10.016   4.660  67.217  1.00  0.00    -0.159 C  
HETATM   31  C   UNL     1      -8.968   3.612  66.774  1.00  0.00    -0.142 C  
HETATM   32  N   UNL     1      -8.286   2.924  67.888  1.00  0.00    -0.078 NA 
HETATM   33  C   UNL     1      -7.800   3.919  68.868  1.00  0.00    -0.056 C  
HETATM   34  C   UNL     1      -9.170   1.947  68.523  1.00  0.00    -0.175 C  
HETATM   35  C   UNL     1      -8.836   4.999  69.278  1.00  0.00    -0.091 C  
ENDBRANCH  28  29
ENDBRANCH  27  28
ENDBRANCH  26  27
ENDBRANCH  25  26
ENDBRANCH  21  25
BRANCH  23  36
HETATM   36  O   UNL     1     -10.943  11.605  65.639  1.00  0.00    -0.290 OA 
HETATM   37  C   UNL     1     -10.549  10.979  64.422  1.00  0.00    -0.325 C  
ENDBRANCH  23  36
ENDBRANCH  11  13
ENDBRANCH   5  11
ENDBRANCH   2   3
TORSDOF 9
ENDMDL
MODEL      258
REMARK 921   NORMALIZED FREE ENERGY PREDICTED BY IDOCK:    3.65 KCAL/MOL
REMARK 922        TOTAL FREE ENERGY PREDICTED BY IDOCK:    4.23 KCAL/MOL
REMARK 923 INTER-LIGAND FREE ENERGY PREDICTED BY IDOCK:    0.15 KCAL/MOL
REMARK 924 INTRA-LIGAND FREE ENERGY PREDICTED BY IDOCK:    4.08 KCAL/MOL
REMARK 927      BINDING AFFINITY PREDICTED BY RF-SCORE:    0.00 PKD
ROOT
HETATM    1  C   UNL     1      -8.978   2.268  64.031  1.00  0.00    -0.100 C  
HETATM    2  O   UNL     1      -9.299   3.040  65.186  1.00  0.00    -0.148 OA 
ENDROOT
BRANCH   2   3
HETATM    3  C   UNL     1      -8.385   4.005  65.526  1.00  0.00    -0.109 A  
HETATM    4  C   UNL     1      -8.716   5.128  66.293  1.00  0.00    -0.119 A  
HETATM    5  C   UNL     1      -7.765   6.107  66.622  1.00  0.00    -0.103 A  
HETATM    6  C   UNL     1      -6.450   5.926  66.154  1.00  0.00    -0.046 A  
HETATM    7  C   UNL     1      -7.077   3.873  65.046  1.00  0.00    -0.066 A  
HETATM    8 CL   UNL     1      -5.213   7.073  66.542  1.00  0.00    -0.021 Cl 
HETATM    9  C   UNL     1      -6.107   4.823  65.369  1.00  0.00    -0.033 A  
HETATM   10 CL   UNL     1      -6.606   2.525  64.072  1.00  0.00    -0.030 Cl 
BRANCH   5  11
HETATM   11  N   UNL     1      -8.133   7.289  67.315  1.00  0.00    -0.111 NA 
HETATM   12  H   UNL     1      -7.541   7.539  68.107  1.00  0.00     0.000 HD 
BRANCH  11  13
HETATM   13  C   UNL     1      -9.214   8.172  67.054  1.00  0.00    -0.153 A  
HETATM   14  C   UNL     1      -9.114   7.757  64.592  1.00  0.00     0.933 C  
HETATM   15  C   UNL     1      -9.718   8.333  65.748  1.00  0.00     0.159 A  
HETATM   16  C   UNL     1     -10.850   9.107  65.573  1.00  0.00     2.539 A  
HETATM   17  N   UNL     1     -11.521   9.704  66.579  1.00  0.00     1.143 NA 
HETATM   18  N   UNL     1      -8.668   7.285  63.629  1.00  0.00     0.555 NA 
HETATM   19  C   UNL     1     -11.053   9.555  67.824  1.00  0.00     0.034 A  
HETATM   20  C   UNL     1     -11.778  10.149  68.842  1.00  0.00     0.036 A  
HETATM   21  C   UNL     1     -11.411  10.029  70.185  1.00  0.00    -0.277 A  
HETATM   22  C   UNL     1      -9.890   8.816  68.132  1.00  0.00    -0.194 A  
HETATM   23  C   UNL     1     -10.249   9.329  70.510  1.00  0.00    -0.251 A  
HETATM   24  C   UNL     1      -9.491   8.745  69.488  1.00  0.00    -0.165 A  
BRANCH  21  25
HETATM   25  O   UNL     1     -12.111  10.657  71.179  1.00  0.00    -0.349 OA 
BRANCH  25  26
HETATM   26  C   UNL     1     -12.845  11.816  70.764  1.00  0.00    -0.077 C  
BRANCH  26  27
HETATM   27  C   UNL     1     -12.049  12.470  69.645  1.00  0.00    -0.272 C  
BRANCH  27  28
HETATM   28  C   UNL     1     -11.627  13.902  69.975  1.00  0.00    -0.212 C  
BRANCH  28  29
HETATM   29  N   UNL     1     -10.495  14.411  69.180  1.00  0.00    -0.223 NA 
HETATM   30  C   UNL     1      -9.728  13.340  68.506  1.00  0.00    -0.145 C  
HETATM   31  C   UNL     1     -10.488  12.642  67.353  1.00  0.00    -0.224 C  
HETATM   32  N   UNL     1     -10.999  13.559  66.317  1.00  0.00    -0.288 NA 
HETATM   33  C   UNL     1     -11.722  14.681  66.954  1.00  0.00    -0.350 C  
HETATM   34  C   UNL     1      -9.914  14.048  65.465  1.00  0.00    -0.276 C  
HETATM   35  C   UNL     1     -10.981  15.352  68.141  1.00  0.00    -0.297 C  
ENDBRANCH  28  29
ENDBRANCH  27  28
ENDBRANCH  26  27
ENDBRANCH  25  26
ENDBRANCH  21  25
BRANCH  23  36
HETATM   36  O   UNL     1      -9.721   9.171  71.765  1.00  0.00    -0.283 OA 
HETATM   37  C   UNL     1     -10.383   8.214  72.586  1.00  0.00    -0.328 C  
ENDBRANCH  23  36
ENDBRANCH  11  13
ENDBRANCH   5  11
ENDBRANCH   2   3
TORSDOF 9
ENDMDL
MODEL      259
REMARK 921   NORMALIZED FREE ENERGY PREDICTED BY IDOCK:    4.22 KCAL/MOL
REMARK 922        TOTAL FREE ENERGY PREDICTED BY IDOCK:    5.09 KCAL/MOL
REMARK 923 INTER-LIGAND FREE ENERGY PREDICTED BY IDOCK:    2.15 KCAL/MOL
REMARK 924 INTRA-LIGAND FREE ENERGY PREDICTED BY IDOCK:    2.95 KCAL/MOL
REMARK 927      BINDING AFFINITY PREDICTED BY RF-SCORE:    0.00 PKD
ROOT
HETATM    1  C   UNL     1      -6.759  20.350  72.112  1.00  0.00     0.956 C  
HETATM    2  O   UNL     1      -5.817  19.347  71.740  1.00  0.00    -0.201 OA 
ENDROOT
BRANCH   2   3
HETATM    3  C   UNL     1      -6.212  18.509  70.728  1.00  0.00     0.590 A  
HETATM    4  C   UNL     1      -5.681  17.226  70.552  1.00  0.00    -0.038 A  
HETATM    5  C   UNL     1      -6.095  16.390  69.504  1.00  0.00    -0.188 A  
HETATM    6  C   UNL     1      -7.073  16.882  68.620  1.00  0.00    -0.203 A  
HETATM    7  C   UNL     1      -7.157  18.982  69.810  1.00  0.00     0.127 A  
HETATM    8 CL   UNL     1      -7.658  15.902  67.320  1.00  0.00    -0.212 Cl 
HETATM    9  C   UNL     1      -7.598  18.169  68.766  1.00  0.00    -0.285 A  
HETATM   10 CL   UNL     1      -7.834  20.567  69.952  1.00  0.00     1.012 Cl 
BRANCH   5  11
HETATM   11  N   UNL     1      -5.479  15.132  69.278  1.00  0.00    -0.095 NA 
HETATM   12  H   UNL     1      -4.824  15.095  68.498  1.00  0.00     0.000 HD 
BRANCH  11  13
HETATM   13  C   UNL     1      -5.653  13.916  69.990  1.00  0.00    -0.114 A  
HETATM   14  C   UNL     1      -5.350  15.034  72.204  1.00  0.00     0.074 C  
HETATM   15  C   UNL     1      -5.656  13.897  71.400  1.00  0.00    -0.231 A  
HETATM   16  C   UNL     1      -5.955  12.708  72.038  1.00  0.00     1.657 A  
HETATM   17  N   UNL     1      -6.266  11.563  71.399  1.00  0.00     0.517 NA 
HETATM   18  N   UNL     1      -5.133  15.940  72.896  1.00  0.00     0.678 NA 
HETATM   19  C   UNL     1      -6.269  11.570  70.060  1.00  0.00    -0.142 A  
HETATM   20  C   UNL     1      -6.624  10.391  69.427  1.00  0.00    -0.063 A  
HETATM   21  C   UNL     1      -6.702  10.288  68.035  1.00  0.00    -0.066 A  
HETATM   22  C   UNL     1      -5.952  12.710  69.290  1.00  0.00    -0.093 A  
HETATM   23  C   UNL     1      -6.364  11.394  67.254  1.00  0.00    -0.097 A  
HETATM   24  C   UNL     1      -5.976  12.584  67.880  1.00  0.00    -0.101 A  
BRANCH  21  25
HETATM   25  O   UNL     1      -7.012   9.107  67.420  1.00  0.00    -0.076 OA 
BRANCH  25  26
HETATM   26  C   UNL     1      -8.407   8.776  67.411  1.00  0.00    -0.109 C  
BRANCH  26  27
HETATM   27  C   UNL     1      -8.634   7.772  68.530  1.00  0.00    -0.128 C  
BRANCH  27  28
HETATM   28  C   UNL     1     -10.081   7.749  69.024  1.00  0.00    -0.196 C  
BRANCH  28  29
HETATM   29  N   UNL     1     -10.238   7.891  70.482  1.00  0.00    -0.197 NA 
HETATM   30  C   UNL     1     -11.624   7.660  70.945  1.00  0.00    -0.280 C  
HETATM   31  C   UNL     1     -12.097   6.191  70.832  1.00  0.00     0.249 C  
HETATM   32  N   UNL     1     -11.221   5.216  71.510  1.00  0.00     0.132 NA 
HETATM   33  C   UNL     1      -9.814   5.453  71.121  1.00  0.00    -0.185 C  
HETATM   34  C   UNL     1     -11.385   5.282  72.962  1.00  0.00    -0.309 C  
HETATM   35  C   UNL     1      -9.352   6.932  71.189  1.00  0.00    -0.162 C  
ENDBRANCH  28  29
ENDBRANCH  27  28
ENDBRANCH  26  27
ENDBRANCH  25  26
ENDBRANCH  21  25
BRANCH  23  36
HETATM   36  O   UNL     1      -6.330  11.440  65.885  1.00  0.00     0.049 OA 
HETATM   37  C   UNL     1      -5.838  10.264  65.250  1.00  0.00    -0.125 C  
ENDBRANCH  23  36
ENDBRANCH  11  13
ENDBRANCH   5  11
ENDBRANCH   2   3
TORSDOF 9
ENDMDL
MODEL      260
REMARK 921   NORMALIZED FREE ENERGY PREDICTED BY IDOCK:    8.91 KCAL/MOL
REMARK 922        TOTAL FREE ENERGY PREDICTED BY IDOCK:   12.26 KCAL/MOL
REMARK 923 INTER-LIGAND FREE ENERGY PREDICTED BY IDOCK:    2.56 KCAL/MOL
REMARK 924 INTRA-LIGAND FREE ENERGY PREDICTED BY IDOCK:    9.70 KCAL/MOL
REMARK 927      BINDING AFFINITY PREDICTED BY RF-SCORE:    0.00 PKD
ROOT
HETATM    1  C   UNL     1      -6.785   7.718  68.436  1.00  0.00    -0.062 C  
HETATM    2  O   UNL     1      -8.122   8.163  68.647  1.00  0.00    -0.120 OA 
ENDROOT
BRANCH   2   3
HETATM    3  C   UNL     1      -8.483   9.298  67.966  1.00  0.00    -0.120 A  
HETATM    4  C   UNL     1      -9.657  10.010  68.243  1.00  0.00    -0.151 A  
HETATM    5  C   UNL     1     -10.009  11.165  67.527  1.00  0.00    -0.181 A  
HETATM    6  C   UNL     1      -9.138  11.596  66.509  1.00  0.00    -0.197 A  
HETATM    7  C   UNL     1      -7.657   9.734  66.924  1.00  0.00    -0.095 A  
HETATM    8 CL   UNL     1      -9.486  13.027  65.602  1.00  0.00    -0.012 Cl 
HETATM    9  C   UNL     1      -7.974  10.886  66.205  1.00  0.00    -0.155 A  
HETATM   10 CL   UNL     1      -6.207   8.887  66.511  1.00  0.00    -0.060 Cl 
BRANCH   5  11
HETATM   11  N   UNL     1     -11.247  11.820  67.749  1.00  0.00    -0.245 NA 
HETATM   12  H   UNL     1     -11.865  11.881  66.940  1.00  0.00     0.000 HD 
BRANCH  11  13
HETATM   13  C   UNL     1     -11.744  12.402  68.945  1.00  0.00    -0.324 A  
HETATM   14  C   UNL     1     -12.249  10.174  69.958  1.00  0.00    -0.051 C  
HETATM   15  C   UNL     1     -12.158  11.595  70.025  1.00  0.00    -0.395 A  
HETATM   16  C   UNL     1     -12.513  12.216  71.208  1.00  0.00    -0.185 A  
HETATM   17  N   UNL     1     -12.469  13.548  71.406  1.00  0.00    -0.305 NA 
HETATM   18  N   UNL     1     -12.312   9.014  69.954  1.00  0.00     0.817 NA 
HETATM   19  C   UNL     1     -12.074  14.324  70.389  1.00  0.00    -0.339 A  
HETATM   20  C   UNL     1     -12.005  15.685  70.628  1.00  0.00    -0.438 A  
HETATM   21  C   UNL     1     -11.568  16.590  69.657  1.00  0.00     0.147 A  
HETATM   22  C   UNL     1     -11.715  13.816  69.121  1.00  0.00    -0.379 A  
HETATM   23  C   UNL     1     -11.237  16.114  68.388  1.00  0.00    -0.358 A  
HETATM   24  C   UNL     1     -11.329  14.742  68.123  1.00  0.00    -0.324 A  
BRANCH  21  25
HETATM   25  O   UNL     1     -11.545  17.938  69.890  1.00  0.00     2.531 OA 
BRANCH  25  26
HETATM   26  C   UNL     1     -10.551  18.663  69.154  1.00  0.00     0.529 C  
BRANCH  26  27
HETATM   27  C   UNL     1      -9.229  17.936  69.356  1.00  0.00     0.376 C  
BRANCH  27  28
HETATM   28  C   UNL     1      -9.394  16.588  70.058  1.00  0.00     1.002 C  
BRANCH  28  29
HETATM   29  N   UNL     1      -8.477  15.533  69.593  1.00  0.00    -0.208 NA 
HETATM   30  C   UNL     1      -8.230  15.576  68.135  1.00  0.00    -0.144 C  
HETATM   31  C   UNL     1      -7.397  16.792  67.665  1.00  0.00    -0.146 C  
HETATM   32  N   UNL     1      -6.100  16.943  68.352  1.00  0.00    -0.136 NA 
HETATM   33  C   UNL     1      -6.294  16.845  69.814  1.00  0.00    -0.157 C  
HETATM   34  C   UNL     1      -5.136  15.949  67.880  1.00  0.00    -0.125 C  
HETATM   35  C   UNL     1      -7.168  15.652  70.284  1.00  0.00     0.499 C  
ENDBRANCH  28  29
ENDBRANCH  27  28
ENDBRANCH  26  27
ENDBRANCH  25  26
ENDBRANCH  21  25
BRANCH  23  36
HETATM   36  O   UNL     1     -10.852  16.871  67.312  1.00  0.00    -0.257 OA 
HETATM   37  C   UNL     1     -11.847  17.053  66.310  1.00  0.00     2.327 C  
ENDBRANCH  23  36
ENDBRANCH  11  13
ENDBRANCH   5  11
ENDBRANCH   2   3
TORSDOF 9
ENDMDL
MODEL      261
REMARK 921   NORMALIZED FREE ENERGY PREDICTED BY IDOCK:    9.25 KCAL/MOL
REMARK 922        TOTAL FREE ENERGY PREDICTED BY IDOCK:   12.78 KCAL/MOL
REMARK 923 INTER-LIGAND FREE ENERGY PREDICTED BY IDOCK:   11.90 KCAL/MOL
REMARK 924 INTRA-LIGAND FREE ENERGY PREDICTED BY IDOCK:    0.88 KCAL/MOL
REMARK 927      BINDING AFFINITY PREDICTED BY RF-SCORE:    0.00 PKD
ROOT
HETATM    1  C   UNL     1      -6.183  11.462  67.861  1.00  0.00    -0.051 C  
HETATM    2  O   UNL     1      -6.172  12.788  67.338  1.00  0.00    -0.156 OA 
ENDROOT
BRANCH   2   3
HETATM    3  C   UNL     1      -7.370  13.455  67.387  1.00  0.00    -0.112 A  
HETATM    4  C   UNL     1      -8.589  12.856  67.045  1.00  0.00    -0.171 A  
HETATM    5  C   UNL     1      -9.800  13.562  67.096  1.00  0.00    -0.245 A  
HETATM    6  C   UNL     1      -9.758  14.908  67.505  1.00  0.00    -0.212 A  
HETATM    7  C   UNL     1      -7.358  14.805  67.755  1.00  0.00    -0.170 A  
HETATM    8 CL   UNL     1     -11.213  15.837  67.621  1.00  0.00    -0.290 Cl 
HETATM    9  C   UNL     1      -8.549  15.529  67.827  1.00  0.00    -0.158 A  
HETATM   10 CL   UNL     1      -5.886  15.615  68.163  1.00  0.00    -0.123 Cl 
BRANCH   5  11
HETATM   11  N   UNL     1     -11.014  12.975  66.654  1.00  0.00    -0.275 NA 
HETATM   12  H   UNL     1     -11.809  13.609  66.581  1.00  0.00     0.000 HD 
BRANCH  11  13
HETATM   13  C   UNL     1     -11.271  11.625  66.299  1.00  0.00    -0.271 A  
HETATM   14  C   UNL     1     -11.956  12.243  63.976  1.00  0.00    -0.462 C  
HETATM   15  C   UNL     1     -11.657  11.282  64.987  1.00  0.00     0.204 A  
HETATM   16  C   UNL     1     -11.770   9.942  64.666  1.00  0.00     6.164 A  
HETATM   17  N   UNL     1     -11.514   8.935  65.524  1.00  0.00     5.408 NA 
HETATM   18  N   UNL     1     -12.182  12.991  63.118  1.00  0.00    -0.577 NA 
HETATM   19  C   UNL     1     -11.143   9.248  66.771  1.00  0.00     0.563 A  
HETATM   20  C   UNL     1     -10.853   8.196  67.623  1.00  0.00    -0.093 A  
HETATM   21  C   UNL     1     -10.417   8.400  68.935  1.00  0.00    -0.189 A  
HETATM   22  C   UNL     1     -11.020  10.577  67.233  1.00  0.00    -0.325 A  
HETATM   23  C   UNL     1     -10.317   9.704  69.421  1.00  0.00    -0.213 A  
HETATM   24  C   UNL     1     -10.634  10.777  68.580  1.00  0.00    -0.223 A  
BRANCH  21  25
HETATM   25  O   UNL     1     -10.175   7.352  69.781  1.00  0.00    -0.199 OA 
BRANCH  25  26
HETATM   26  C   UNL     1      -8.825   7.256  70.255  1.00  0.00    -0.147 C  
BRANCH  26  27
HETATM   27  C   UNL     1      -8.658   5.861  70.839  1.00  0.00    -0.131 C  
BRANCH  27  28
HETATM   28  C   UNL     1      -7.237   5.594  71.339  1.00  0.00    -0.077 C  
BRANCH  28  29
HETATM   29  N   UNL     1      -6.554   4.467  70.682  1.00  0.00    -0.034 NA 
HETATM   30  C   UNL     1      -6.918   3.151  71.251  1.00  0.00    -0.032 C  
HETATM   31  C   UNL     1      -8.371   2.709  70.953  1.00  0.00    -0.053 C  
HETATM   32  N   UNL     1      -8.722   2.700  69.519  1.00  0.00    -0.069 NA 
HETATM   33  C   UNL     1      -8.317   3.978  68.897  1.00  0.00    -0.077 C  
HETATM   34  C   UNL     1      -8.109   1.562  68.834  1.00  0.00    -0.048 C  
HETATM   35  C   UNL     1      -6.876   4.447  69.233  1.00  0.00    -0.046 C  
ENDBRANCH  28  29
ENDBRANCH  27  28
ENDBRANCH  26  27
ENDBRANCH  25  26
ENDBRANCH  21  25
BRANCH  23  36
HETATM   36  O   UNL     1      -9.966  10.070  70.694  1.00  0.00    -0.131 OA 
HETATM   37  C   UNL     1     -10.372  11.378  71.084  1.00  0.00     4.925 C  
ENDBRANCH  23  36
ENDBRANCH  11  13
ENDBRANCH   5  11
ENDBRANCH   2   3
TORSDOF 9
ENDMDL
MODEL      262
REMARK 921   NORMALIZED FREE ENERGY PREDICTED BY IDOCK:    9.36 KCAL/MOL
REMARK 922        TOTAL FREE ENERGY PREDICTED BY IDOCK:   12.94 KCAL/MOL
REMARK 923 INTER-LIGAND FREE ENERGY PREDICTED BY IDOCK:    4.96 KCAL/MOL
REMARK 924 INTRA-LIGAND FREE ENERGY PREDICTED BY IDOCK:    7.97 KCAL/MOL
REMARK 927      BINDING AFFINITY PREDICTED BY RF-SCORE:    0.00 PKD
ROOT
HETATM    1  C   UNL     1      -9.216  14.441  64.327  1.00  0.00     4.412 C  
HETATM    2  O   UNL     1      -8.562  14.995  65.466  1.00  0.00     1.025 OA 
ENDROOT
BRANCH   2   3
HETATM    3  C   UNL     1      -8.410  14.147  66.533  1.00  0.00     0.422 A  
HETATM    4  C   UNL     1      -7.245  14.101  67.308  1.00  0.00     0.011 A  
HETATM    5  C   UNL     1      -7.110  13.219  68.391  1.00  0.00    -0.107 A  
HETATM    6  C   UNL     1      -8.192  12.368  68.682  1.00  0.00    -0.002 A  
HETATM    7  C   UNL     1      -9.454  13.263  66.827  1.00  0.00    -0.257 A  
HETATM    8 CL   UNL     1      -8.114  11.272  70.019  1.00  0.00     1.094 Cl 
HETATM    9  C   UNL     1      -9.354  12.384  67.906  1.00  0.00    -0.195 A  
HETATM   10 CL   UNL     1     -10.910  13.247  65.895  1.00  0.00    -0.284 Cl 
BRANCH   5  11
HETATM   11  N   UNL     1      -5.889  13.112  69.106  1.00  0.00    -0.076 NA 
HETATM   12  H   UNL     1      -5.103  13.633  68.718  1.00  0.00     0.000 HD 
BRANCH  11  13
HETATM   13  C   UNL     1      -5.613  12.377  70.289  1.00  0.00    -0.156 A  
HETATM   14  C   UNL     1      -5.292  14.453  71.643  1.00  0.00    -0.174 C  
HETATM   15  C   UNL     1      -5.396  13.036  71.517  1.00  0.00    -0.117 A  
HETATM   16  C   UNL     1      -5.258  12.268  72.657  1.00  0.00     0.478 A  
HETATM   17  N   UNL     1      -5.338  10.923  72.678  1.00  0.00    -0.147 NA 
HETATM   18  N   UNL     1      -5.228  15.602  71.795  1.00  0.00    -0.024 NA 
HETATM   19  C   UNL     1      -5.548  10.287  71.519  1.00  0.00     0.060 A  
HETATM   20  C   UNL     1      -5.660   8.908  71.571  1.00  0.00    -0.050 A  
HETATM   21  C   UNL     1      -5.919   8.139  70.433  1.00  0.00    -0.028 A  
HETATM   22  C   UNL     1      -5.675  10.953  70.280  1.00  0.00    -0.105 A  
HETATM   23  C   UNL     1      -6.019   8.773  69.195  1.00  0.00    -0.042 A  
HETATM   24  C   UNL     1      -5.880  10.164  69.123  1.00  0.00    -0.037 A  
BRANCH  21  25
HETATM   25  O   UNL     1      -5.986   6.774  70.490  1.00  0.00    -0.023 OA 
BRANCH  25  26
HETATM   26  C   UNL     1      -5.137   6.086  69.561  1.00  0.00    -0.005 C  
BRANCH  26  27
HETATM   27  C   UNL     1      -5.698   6.347  68.171  1.00  0.00    -0.012 C  
BRANCH  27  28
HETATM   28  C   UNL     1      -6.541   5.185  67.643  1.00  0.00    -0.053 C  
BRANCH  28  29
HETATM   29  N   UNL     1      -7.754   4.896  68.427  1.00  0.00    -0.081 NA 
HETATM   30  C   UNL     1      -8.929   4.574  67.588  1.00  0.00    -0.115 C  
HETATM   31  C   UNL     1      -8.833   3.216  66.853  1.00  0.00    -0.143 C  
HETATM   32  N   UNL     1      -8.574   2.063  67.737  1.00  0.00    -0.080 NA 
HETATM   33  C   UNL     1      -7.442   2.368  68.638  1.00  0.00    -0.047 C  
HETATM   34  C   UNL     1      -9.771   1.703  68.497  1.00  0.00    -0.014 C  
HETATM   35  C   UNL     1      -7.513   3.750  69.339  1.00  0.00    -0.053 C  
ENDBRANCH  28  29
ENDBRANCH  27  28
ENDBRANCH  26  27
ENDBRANCH  25  26
ENDBRANCH  21  25
BRANCH  23  36
HETATM   36  O   UNL     1      -6.209   8.162  67.983  1.00  0.00    -0.045 OA 
HETATM   37  C   UNL     1      -6.618   9.023  66.925  1.00  0.00    -0.064 C  
ENDBRANCH  23  36
ENDBRANCH  11  13
ENDBRANCH   5  11
ENDBRANCH   2   3
TORSDOF 9
ENDMDL
MODEL      263
REMARK 921   NORMALIZED FREE ENERGY PREDICTED BY IDOCK:    9.36 KCAL/MOL
REMARK 922        TOTAL FREE ENERGY PREDICTED BY IDOCK:   12.95 KCAL/MOL
REMARK 923 INTER-LIGAND FREE ENERGY PREDICTED BY IDOCK:   11.37 KCAL/MOL
REMARK 924 INTRA-LIGAND FREE ENERGY PREDICTED BY IDOCK:    1.58 KCAL/MOL
REMARK 927      BINDING AFFINITY PREDICTED BY RF-SCORE:    0.00 PKD
ROOT
HETATM    1  C   UNL     1     -12.774  17.771  67.010  1.00  0.00     6.457 C  
HETATM    2  O   UNL     1     -11.788  17.207  67.870  1.00  0.00     0.626 OA 
ENDROOT
BRANCH   2   3
HETATM    3  C   UNL     1     -11.416  15.918  67.583  1.00  0.00    -0.070 A  
HETATM    4  C   UNL     1     -10.379  15.258  68.253  1.00  0.00    -0.234 A  
HETATM    5  C   UNL     1     -10.013  13.941  67.935  1.00  0.00    -0.242 A  
HETATM    6  C   UNL     1     -10.725  13.291  66.911  1.00  0.00    -0.271 A  
HETATM    7  C   UNL     1     -12.081  15.256  66.545  1.00  0.00     0.442 A  
HETATM    8 CL   UNL     1     -10.353  11.657  66.480  1.00  0.00    -0.252 Cl 
HETATM    9  C   UNL     1     -11.748  13.942  66.216  1.00  0.00    -0.402 A  
HETATM   10 CL   UNL     1     -13.353  16.021  65.658  1.00  0.00     3.583 Cl 
BRANCH   5  11
HETATM   11  N   UNL     1      -8.897  13.317  68.552  1.00  0.00    -0.341 NA 
HETATM   12  H   UNL     1      -8.210  13.949  68.962  1.00  0.00     0.000 HD 
BRANCH  11  13
HETATM   13  C   UNL     1      -8.608  11.933  68.675  1.00  0.00    -0.037 A  
HETATM   14  C   UNL     1      -6.687  12.072  67.083  1.00  0.00    -0.136 C  
HETATM   15  C   UNL     1      -7.500  11.363  68.016  1.00  0.00    -0.100 A  
HETATM   16  C   UNL     1      -7.194  10.040  68.273  1.00  0.00    -0.077 A  
HETATM   17  N   UNL     1      -7.876   9.259  69.134  1.00  0.00    -0.084 NA 
HETATM   18  N   UNL     1      -5.985  12.620  66.338  1.00  0.00     0.843 NA 
HETATM   19  C   UNL     1      -8.928   9.790  69.768  1.00  0.00    -0.221 A  
HETATM   20  C   UNL     1      -9.592   8.979  70.672  1.00  0.00    -0.289 A  
HETATM   21  C   UNL     1     -10.679   9.435  71.423  1.00  0.00    -0.337 A  
HETATM   22  C   UNL     1      -9.363  11.119  69.571  1.00  0.00     0.432 A  
HETATM   23  C   UNL     1     -11.143  10.735  71.222  1.00  0.00     1.219 A  
HETATM   24  C   UNL     1     -10.499  11.558  70.291  1.00  0.00     1.444 A  
BRANCH  21  25
HETATM   25  O   UNL     1     -11.353   8.611  72.282  1.00  0.00    -0.359 OA 
BRANCH  25  26
HETATM   26  C   UNL     1     -12.748   8.446  71.993  1.00  0.00    -0.360 C  
BRANCH  26  27
HETATM   27  C   UNL     1     -13.078   6.978  72.217  1.00  0.00     0.095 C  
BRANCH  27  28
HETATM   28  C   UNL     1     -11.979   6.231  72.973  1.00  0.00     0.493 C  
BRANCH  28  29
HETATM   29  N   UNL     1     -11.076   5.435  72.122  1.00  0.00    -0.207 NA 
HETATM   30  C   UNL     1      -9.655   5.821  72.259  1.00  0.00    -0.147 C  
HETATM   31  C   UNL     1      -9.024   5.454  73.624  1.00  0.00    -0.124 C  
HETATM   32  N   UNL     1      -9.147   4.029  73.988  1.00  0.00    -0.093 NA 
HETATM   33  C   UNL     1     -10.546   3.586  73.805  1.00  0.00    -0.202 C  
HETATM   34  C   UNL     1      -8.227   3.204  73.206  1.00  0.00    -0.073 C  
HETATM   35  C   UNL     1     -11.196   3.994  72.456  1.00  0.00     0.378 C  
ENDBRANCH  28  29
ENDBRANCH  27  28
ENDBRANCH  26  27
ENDBRANCH  25  26
ENDBRANCH  21  25
BRANCH  23  36
HETATM   36  O   UNL     1     -12.228  11.311  71.830  1.00  0.00     0.120 OA 
HETATM   37  C   UNL     1     -12.524  12.640  71.412  1.00  0.00    -0.104 C  
ENDBRANCH  23  36
ENDBRANCH  11  13
ENDBRANCH   5  11
ENDBRANCH   2   3
TORSDOF 9
ENDMDL
MODEL      264
REMARK 921   NORMALIZED FREE ENERGY PREDICTED BY IDOCK:   13.61 KCAL/MOL
REMARK 922        TOTAL FREE ENERGY PREDICTED BY IDOCK:   19.43 KCAL/MOL
REMARK 923 INTER-LIGAND FREE ENERGY PREDICTED BY IDOCK:   12.36 KCAL/MOL
REMARK 924 INTRA-LIGAND FREE ENERGY PREDICTED BY IDOCK:    7.07 KCAL/MOL
REMARK 927      BINDING AFFINITY PREDICTED BY RF-SCORE:    0.00 PKD
ROOT
HETATM    1  C   UNL     1     -10.259  20.360  73.055  1.00  0.00     5.073 C  
HETATM    2  O   UNL     1     -11.003  19.180  73.347  1.00  0.00     1.831 OA 
ENDROOT
BRANCH   2   3
HETATM    3  C   UNL     1     -11.032  18.235  72.352  1.00  0.00     3.138 A  
HETATM    4  C   UNL     1     -10.465  18.444  71.089  1.00  0.00     2.849 A  
HETATM    5  C   UNL     1     -10.515  17.465  70.085  1.00  0.00     0.716 A  
HETATM    6  C   UNL     1     -11.158  16.250  70.385  1.00  0.00    -0.311 A  
HETATM    7  C   UNL     1     -11.696  17.030  72.606  1.00  0.00     0.495 A  
HETATM    8 CL   UNL     1     -11.235  14.983  69.210  1.00  0.00    -0.277 Cl 
HETATM    9  C   UNL     1     -11.749  16.033  71.632  1.00  0.00    -0.583 A  
HETATM   10 CL   UNL     1     -12.441  16.717  74.135  1.00  0.00    -0.361 Cl 
BRANCH   5  11
HETATM   11  N   UNL     1     -10.025  17.724  68.779  1.00  0.00    -0.364 NA 
HETATM   12  H   UNL     1      -9.458  18.566  68.679  1.00  0.00     0.000 HD 
BRANCH  11  13
HETATM   13  C   UNL     1     -10.216  16.970  67.591  1.00  0.00    -0.317 A  
HETATM   14  C   UNL     1     -11.051  18.956  66.325  1.00  0.00     0.303 C  
HETATM   15  C   UNL     1     -10.645  17.591  66.400  1.00  0.00    -0.195 A  
HETATM   16  C   UNL     1     -10.692  16.832  65.246  1.00  0.00    -0.169 A  
HETATM   17  N   UNL     1     -10.333  15.535  65.178  1.00  0.00    -0.379 NA 
HETATM   18  N   UNL     1     -11.364  20.068  66.214  1.00  0.00     0.433 NA 
HETATM   19  C   UNL     1      -9.921  14.936  66.302  1.00  0.00    -0.282 A  
HETATM   20  C   UNL     1      -9.526  13.613  66.200  1.00  0.00    -0.166 A  
HETATM   21  C   UNL     1      -9.040  12.895  67.295  1.00  0.00    -0.208 A  
HETATM   22  C   UNL     1      -9.857  15.591  67.551  1.00  0.00    -0.220 A  
HETATM   23  C   UNL     1      -8.995  13.513  68.545  1.00  0.00    -0.086 A  
HETATM   24  C   UNL     1      -9.418  14.842  68.669  1.00  0.00    -0.208 A  
BRANCH  21  25
HETATM   25  O   UNL     1      -8.693  11.576  67.192  1.00  0.00    -0.150 OA 
BRANCH  25  26
HETATM   26  C   UNL     1      -8.379  11.134  65.864  1.00  0.00    -0.076 C  
BRANCH  26  27
HETATM   27  C   UNL     1      -8.370   9.613  65.892  1.00  0.00    -0.124 C  
BRANCH  27  28
HETATM   28  C   UNL     1      -7.532   9.045  67.039  1.00  0.00    -0.087 C  
BRANCH  28  29
HETATM   29  N   UNL     1      -7.348   7.584  67.004  1.00  0.00    -0.091 NA 
HETATM   30  C   UNL     1      -6.393   7.092  68.022  1.00  0.00    -0.044 C  
HETATM   31  C   UNL     1      -6.905   7.198  69.478  1.00  0.00    -0.050 C  
HETATM   32  N   UNL     1      -8.205   6.540  69.716  1.00  0.00    -0.125 NA 
HETATM   33  C   UNL     1      -9.174   6.959  68.680  1.00  0.00    -0.130 C  
HETATM   34  C   UNL     1      -8.061   5.085  69.746  1.00  0.00    -0.074 C  
HETATM   35  C   UNL     1      -8.646   6.898  67.222  1.00  0.00    -0.120 C  
ENDBRANCH  28  29
ENDBRANCH  27  28
ENDBRANCH  26  27
ENDBRANCH  25  26
ENDBRANCH  21  25
BRANCH  23  36
HETATM   36  O   UNL     1      -8.604  12.933  69.724  1.00  0.00     1.700 OA 
HETATM   37  C   UNL     1      -8.377  11.529  69.664  1.00  0.00     1.019 C  
ENDBRANCH  23  36
ENDBRANCH  11  13
ENDBRANCH   5  11
ENDBRANCH   2   3
TORSDOF 9
ENDMDL
MODEL      265
REMARK 921   NORMALIZED FREE ENERGY PREDICTED BY IDOCK:   14.40 KCAL/MOL
REMARK 922        TOTAL FREE ENERGY PREDICTED BY IDOCK:   20.63 KCAL/MOL
REMARK 923 INTER-LIGAND FREE ENERGY PREDICTED BY IDOCK:   14.11 KCAL/MOL
REMARK 924 INTRA-LIGAND FREE ENERGY PREDICTED BY IDOCK:    6.51 KCAL/MOL
REMARK 927      BINDING AFFINITY PREDICTED BY RF-SCORE:    0.00 PKD
ROOT
HETATM    1  C   UNL     1     -11.923  14.388  72.855  1.00  0.00     0.240 C  
HETATM    2  O   UNL     1     -12.312  13.021  72.742  1.00  0.00     0.596 OA 
ENDROOT
BRANCH   2   3
HETATM    3  C   UNL     1     -12.403  12.534  71.463  1.00  0.00     0.172 A  
HETATM    4  C   UNL     1     -12.051  13.286  70.336  1.00  0.00    -0.401 A  
HETATM    5  C   UNL     1     -12.161  12.768  69.036  1.00  0.00    -0.144 A  
HETATM    6  C   UNL     1     -12.641  11.453  68.893  1.00  0.00     0.669 A  
HETATM    7  C   UNL     1     -12.911  11.242  71.284  1.00  0.00    -0.327 A  
HETATM    8 CL   UNL     1     -12.777  10.732  67.326  1.00  0.00     4.356 Cl 
HETATM    9  C   UNL     1     -13.018  10.696  70.005  1.00  0.00     0.049 A  
HETATM   10 CL   UNL     1     -13.391  10.269  72.630  1.00  0.00     0.090 Cl 
BRANCH   5  11
HETATM   11  N   UNL     1     -11.895  13.572  67.898  1.00  0.00    -0.358 NA 
HETATM   12  H   UNL     1     -12.658  14.179  67.599  1.00  0.00     0.000 HD 
BRANCH  11  13
HETATM   13  C   UNL     1     -10.711  13.647  67.118  1.00  0.00    -0.277 A  
HETATM   14  C   UNL     1     -11.884  12.883  65.049  1.00  0.00    -0.372 C  
HETATM   15  C   UNL     1     -10.736  13.378  65.735  1.00  0.00    -0.280 A  
HETATM   16  C   UNL     1      -9.581  13.589  65.005  1.00  0.00     0.285 A  
HETATM   17  N   UNL     1      -8.431  14.058  65.528  1.00  0.00     2.191 NA 
HETATM   18  N   UNL     1     -12.802  12.504  64.447  1.00  0.00    -0.747 NA 
HETATM   19  C   UNL     1      -8.396  14.319  66.840  1.00  0.00    -0.054 A  
HETATM   20  C   UNL     1      -7.214  14.831  67.347  1.00  0.00    -0.202 A  
HETATM   21  C   UNL     1      -7.071  15.180  68.693  1.00  0.00    -0.115 A  
HETATM   22  C   UNL     1      -9.497  14.117  67.701  1.00  0.00    -0.213 A  
HETATM   23  C   UNL     1      -8.136  14.961  69.567  1.00  0.00    -0.061 A  
HETATM   24  C   UNL     1      -9.328  14.419  69.073  1.00  0.00    -0.028 A  
BRANCH  21  25
HETATM   25  O   UNL     1      -5.884  15.645  69.191  1.00  0.00    -0.104 OA 
BRANCH  25  26
HETATM   26  C   UNL     1      -5.829  15.757  70.619  1.00  0.00     0.050 C  
BRANCH  26  27
HETATM   27  C   UNL     1      -5.859  17.242  70.950  1.00  0.00     0.488 C  
BRANCH  27  28
HETATM   28  C   UNL     1      -5.679  18.129  69.717  1.00  0.00    -0.239 C  
BRANCH  28  29
HETATM   29  N   UNL     1      -6.176  17.545  68.459  1.00  0.00    -0.171 NA 
HETATM   30  C   UNL     1      -7.641  17.672  68.295  1.00  0.00    -0.257 C  
HETATM   31  C   UNL     1      -8.132  19.119  68.056  1.00  0.00    -0.298 C  
HETATM   32  N   UNL     1      -7.485  19.801  66.918  1.00  0.00    -0.233 NA 
HETATM   33  C   UNL     1      -6.017  19.645  67.010  1.00  0.00    -0.176 C  
HETATM   34  C   UNL     1      -7.990  19.292  65.643  1.00  0.00     0.174 C  
HETATM   35  C   UNL     1      -5.525  18.202  67.298  1.00  0.00    -0.131 C  
ENDBRANCH  28  29
ENDBRANCH  27  28
ENDBRANCH  26  27
ENDBRANCH  25  26
ENDBRANCH  21  25
BRANCH  23  36
HETATM   36  O   UNL     1      -8.137  15.191  70.918  1.00  0.00     1.383 OA 
HETATM   37  C   UNL     1      -8.537  14.086  71.722  1.00  0.00     8.560 C  
ENDBRANCH  23  36
ENDBRANCH  11  13
ENDBRANCH   5  11
ENDBRANCH   2   3
TORSDOF 9
ENDMDL
MODEL      266
REMARK 921   NORMALIZED FREE ENERGY PREDICTED BY IDOCK:   14.85 KCAL/MOL
REMARK 922        TOTAL FREE ENERGY PREDICTED BY IDOCK:   21.32 KCAL/MOL
REMARK 923 INTER-LIGAND FREE ENERGY PREDICTED BY IDOCK:   11.31 KCAL/MOL
REMARK 924 INTRA-LIGAND FREE ENERGY PREDICTED BY IDOCK:   10.01 KCAL/MOL
REMARK 927      BINDING AFFINITY PREDICTED BY RF-SCORE:    0.00 PKD
ROOT
HETATM    1  C   UNL     1     -10.165   8.802  71.832  1.00  0.00    -0.345 C  
HETATM    2  O   UNL     1     -10.662   8.974  70.508  1.00  0.00    -0.215 OA 
ENDROOT
BRANCH   2   3
HETATM    3  C   UNL     1     -10.514  10.231  69.978  1.00  0.00    -0.241 A  
HETATM    4  C   UNL     1      -9.284  10.899  69.936  1.00  0.00     0.779 A  
HETATM    5  C   UNL     1      -9.160  12.188  69.396  1.00  0.00     1.124 A  
HETATM    6  C   UNL     1     -10.320  12.801  68.888  1.00  0.00    -0.031 A  
HETATM    7  C   UNL     1     -11.655  10.882  69.497  1.00  0.00    -0.313 A  
HETATM    8 CL   UNL     1     -10.243  14.377  68.178  1.00  0.00    -0.228 Cl 
HETATM    9  C   UNL     1     -11.560  12.158  68.941  1.00  0.00    -0.377 A  
HETATM   10 CL   UNL     1     -13.210  10.127  69.542  1.00  0.00     1.162 Cl 
BRANCH   5  11
HETATM   11  N   UNL     1      -7.930  12.893  69.449  1.00  0.00     0.065 NA 
HETATM   12  H   UNL     1      -7.171  12.420  69.938  1.00  0.00     0.000 HD 
BRANCH  11  13
HETATM   13  C   UNL     1      -7.613  14.170  68.914  1.00  0.00    -0.098 A  
HETATM   14  C   UNL     1      -5.820  13.237  67.444  1.00  0.00     0.063 C  
HETATM   15  C   UNL     1      -6.643  14.309  67.900  1.00  0.00    -0.175 A  
HETATM   16  C   UNL     1      -6.466  15.555  67.329  1.00  0.00    -0.014 A  
HETATM   17  N   UNL     1      -7.179  16.649  67.664  1.00  0.00    -0.132 NA 
HETATM   18  N   UNL     1      -5.148  12.387  67.025  1.00  0.00    -0.327 NA 
HETATM   19  C   UNL     1      -8.105  16.528  68.623  1.00  0.00    -0.233 A  
HETATM   20  C   UNL     1      -8.846  17.656  68.925  1.00  0.00    -0.124 A  
HETATM   21  C   UNL     1      -9.868  17.642  69.879  1.00  0.00     0.806 A  
HETATM   22  C   UNL     1      -8.361  15.318  69.305  1.00  0.00    -0.243 A  
HETATM   23  C   UNL     1     -10.118  16.466  70.587  1.00  0.00     1.246 A  
HETATM   24  C   UNL     1      -9.357  15.324  70.311  1.00  0.00     0.543 A  
BRANCH  21  25
HETATM   25  O   UNL     1     -10.565  18.775  70.201  1.00  0.00     0.995 OA 
BRANCH  25  26
HETATM   26  C   UNL     1      -9.853  19.713  71.018  1.00  0.00     2.051 C  
BRANCH  26  27
HETATM   27  C   UNL     1      -9.248  20.749  70.082  1.00  0.00     2.057 C  
BRANCH  27  28
HETATM   28  C   UNL     1      -8.867  20.168  68.720  1.00  0.00     0.227 C  
BRANCH  28  29
HETATM   29  N   UNL     1      -9.811  20.476  67.632  1.00  0.00    -0.399 NA 
HETATM   30  C   UNL     1      -9.241  20.251  66.285  1.00  0.00    -0.209 C  
HETATM   31  C   UNL     1      -9.005  18.763  65.934  1.00  0.00     0.207 C  
HETATM   32  N   UNL     1     -10.201  17.908  66.073  1.00  0.00    -0.537 NA 
HETATM   33  C   UNL     1     -10.837  18.148  67.385  1.00  0.00    -0.235 C  
HETATM   34  C   UNL     1     -11.144  18.140  64.979  1.00  0.00     1.283 C  
HETATM   35  C   UNL     1     -11.031  19.642  67.760  1.00  0.00    -0.079 C  
ENDBRANCH  28  29
ENDBRANCH  27  28
ENDBRANCH  26  27
ENDBRANCH  25  26
ENDBRANCH  21  25
BRANCH  23  36
HETATM   36  O   UNL     1     -11.037  16.303  71.590  1.00  0.00    -0.014 OA 
HETATM   37  C   UNL     1     -10.512  15.822  72.823  1.00  0.00     3.268 C  
ENDBRANCH  23  36
ENDBRANCH  11  13
ENDBRANCH   5  11
ENDBRANCH   2   3
TORSDOF 9
ENDMDL
MODEL      267
REMARK 921   NORMALIZED FREE ENERGY PREDICTED BY IDOCK:   17.20 KCAL/MOL
REMARK 922        TOTAL FREE ENERGY PREDICTED BY IDOCK:   24.91 KCAL/MOL
REMARK 923 INTER-LIGAND FREE ENERGY PREDICTED BY IDOCK:   22.99 KCAL/MOL
REMARK 924 INTRA-LIGAND FREE ENERGY PREDICTED BY IDOCK:    1.93 KCAL/MOL
REMARK 927      BINDING AFFINITY PREDICTED BY RF-SCORE:    0.00 PKD
ROOT
HETATM    1  C   UNL     1     -12.919  17.906  66.982  1.00  0.00     7.956 C  
HETATM    2  O   UNL     1     -11.804  17.429  67.731  1.00  0.00     0.844 OA 
ENDROOT
BRANCH   2   3
HETATM    3  C   UNL     1     -11.221  16.280  67.260  1.00  0.00     0.052 A  
HETATM    4  C   UNL     1     -10.034  15.758  67.788  1.00  0.00    -0.227 A  
HETATM    5  C   UNL     1      -9.452  14.585  67.283  1.00  0.00    -0.217 A  
HETATM    6  C   UNL     1     -10.102  13.937  66.217  1.00  0.00    -0.300 A  
HETATM    7  C   UNL     1     -11.823  15.631  66.176  1.00  0.00     0.609 A  
HETATM    8 CL   UNL     1      -9.464  12.470  65.558  1.00  0.00    -0.040 Cl 
HETATM    9  C   UNL     1     -11.275  14.456  65.662  1.00  0.00    -0.323 A  
HETATM   10 CL   UNL     1     -13.275  16.236  65.458  1.00  0.00     4.109 Cl 
BRANCH   5  11
HETATM   11  N   UNL     1      -8.199  14.120  67.759  1.00  0.00    -0.155 NA 
HETATM   12  H   UNL     1      -7.670  14.781  68.327  1.00  0.00     0.000 HD 
BRANCH  11  13
HETATM   13  C   UNL     1      -7.581  12.858  67.552  1.00  0.00    -0.164 A  
HETATM   14  C   UNL     1      -5.732  13.854  66.197  1.00  0.00     5.650 C  
HETATM   15  C   UNL     1      -6.358  12.756  66.857  1.00  0.00     0.534 A  
HETATM   16  C   UNL     1      -5.741  11.521  66.796  1.00  0.00    -0.139 A  
HETATM   17  N   UNL     1      -6.223  10.405  67.378  1.00  0.00    -0.057 NA 
HETATM   18  N   UNL     1      -5.176  14.726  65.670  1.00  0.00     7.430 NA 
HETATM   19  C   UNL     1      -7.381  10.491  68.043  1.00  0.00    -0.089 A  
HETATM   20  C   UNL     1      -7.837   9.339  68.661  1.00  0.00    -0.089 A  
HETATM   21  C   UNL     1      -9.012   9.316  69.417  1.00  0.00    -0.147 A  
HETATM   22  C   UNL     1      -8.125  11.686  68.154  1.00  0.00    -0.148 A  
HETATM   23  C   UNL     1      -9.778  10.477  69.515  1.00  0.00    -0.119 A  
HETATM   24  C   UNL     1      -9.343  11.643  68.873  1.00  0.00     0.033 A  
BRANCH  21  25
HETATM   25  O   UNL     1      -9.475   8.162  69.987  1.00  0.00    -0.166 OA 
BRANCH  25  26
HETATM   26  C   UNL     1     -10.797   7.777  69.587  1.00  0.00    -0.184 C  
BRANCH  26  27
HETATM   27  C   UNL     1     -10.774   6.272  69.363  1.00  0.00    -0.364 C  
BRANCH  27  28
HETATM   28  C   UNL     1      -9.514   5.608  69.920  1.00  0.00    -0.156 C  
BRANCH  28  29
HETATM   29  N   UNL     1      -9.755   4.633  70.998  1.00  0.00    -0.175 NA 
HETATM   30  C   UNL     1      -9.244   3.280  70.685  1.00  0.00    -0.137 C  
HETATM   31  C   UNL     1      -7.701   3.173  70.655  1.00  0.00    -0.043 C  
HETATM   32  N   UNL     1      -7.034   3.640  71.887  1.00  0.00    -0.029 NA 
HETATM   33  C   UNL     1      -7.562   4.967  72.269  1.00  0.00    -0.090 C  
HETATM   34  C   UNL     1      -7.199   2.674  72.972  1.00  0.00    -0.040 C  
HETATM   35  C   UNL     1      -9.109   5.089  72.254  1.00  0.00    -0.131 C  
ENDBRANCH  28  29
ENDBRANCH  27  28
ENDBRANCH  26  27
ENDBRANCH  25  26
ENDBRANCH  21  25
BRANCH  23  36
HETATM   36  O   UNL     1     -10.979  10.605  70.164  1.00  0.00    -0.282 OA 
HETATM   37  C   UNL     1     -11.593  11.886  70.059  1.00  0.00    -0.220 C  
ENDBRANCH  23  36
ENDBRANCH  11  13
ENDBRANCH   5  11
ENDBRANCH   2   3
TORSDOF 9
ENDMDL
MODEL      268
REMARK 921   NORMALIZED FREE ENERGY PREDICTED BY IDOCK:   19.89 KCAL/MOL
REMARK 922        TOTAL FREE ENERGY PREDICTED BY IDOCK:   29.01 KCAL/MOL
REMARK 923 INTER-LIGAND FREE ENERGY PREDICTED BY IDOCK:   23.98 KCAL/MOL
REMARK 924 INTRA-LIGAND FREE ENERGY PREDICTED BY IDOCK:    5.03 KCAL/MOL
REMARK 927      BINDING AFFINITY PREDICTED BY RF-SCORE:    0.00 PKD
ROOT
HETATM    1  C   UNL     1     -13.191   7.393  65.643  1.00  0.00    16.439 C  
HETATM    2  O   UNL     1     -12.498   7.886  66.787  1.00  0.00     6.123 OA 
ENDROOT
BRANCH   2   3
HETATM    3  C   UNL     1     -11.247   8.396  66.549  1.00  0.00     1.893 A  
HETATM    4  C   UNL     1     -11.037   9.652  65.965  1.00  0.00     1.162 A  
HETATM    5  C   UNL     1      -9.747  10.149  65.724  1.00  0.00    -0.245 A  
HETATM    6  C   UNL     1      -8.654   9.342  66.090  1.00  0.00    -0.136 A  
HETATM    7  C   UNL     1     -10.139   7.603  66.868  1.00  0.00    -0.278 A  
HETATM    8 CL   UNL     1      -7.033   9.897  65.852  1.00  0.00    -0.101 Cl 
HETATM    9  C   UNL     1      -8.845   8.078  66.652  1.00  0.00    -0.166 A  
HETATM   10 CL   UNL     1     -10.327   6.033  67.566  1.00  0.00    -0.221 Cl 
BRANCH   5  11
HETATM   11  N   UNL     1      -9.547  11.378  65.043  1.00  0.00    -0.253 NA 
HETATM   12  H   UNL     1      -9.637  11.339  64.028  1.00  0.00     0.000 HD 
BRANCH  11  13
HETATM   13  C   UNL     1      -9.238  12.654  65.583  1.00  0.00     0.247 A  
HETATM   14  C   UNL     1     -10.730  13.831  63.960  1.00  0.00     0.185 C  
HETATM   15  C   UNL     1      -9.868  13.818  65.096  1.00  0.00    -0.125 A  
HETATM   16  C   UNL     1      -9.624  15.014  65.743  1.00  0.00    -0.292 A  
HETATM   17  N   UNL     1      -8.835  15.140  66.828  1.00  0.00    -0.254 NA 
HETATM   18  N   UNL     1     -11.458  13.882  63.056  1.00  0.00     1.052 NA 
HETATM   19  C   UNL     1      -8.234  14.042  67.301  1.00  0.00    -0.171 A  
HETATM   20  C   UNL     1      -7.456  14.191  68.436  1.00  0.00    -0.124 A  
HETATM   21  C   UNL     1      -6.813  13.110  69.045  1.00  0.00    -0.090 A  
HETATM   22  C   UNL     1      -8.377  12.765  66.713  1.00  0.00     0.010 A  
HETATM   23  C   UNL     1      -6.916  11.845  68.464  1.00  0.00    -0.085 A  
HETATM   24  C   UNL     1      -7.677  11.684  67.300  1.00  0.00    -0.154 A  
BRANCH  21  25
HETATM   25  O   UNL     1      -6.012  13.276  70.141  1.00  0.00    -0.139 OA 
BRANCH  25  26
HETATM   26  C   UNL     1      -5.346  14.543  70.218  1.00  0.00    -0.105 C  
BRANCH  26  27
HETATM   27  C   UNL     1      -6.304  15.508  70.902  1.00  0.00     0.531 C  
BRANCH  27  28
HETATM   28  C   UNL     1      -7.147  16.311  69.910  1.00  0.00     0.269 C  
BRANCH  28  29
HETATM   29  N   UNL     1      -6.395  17.305  69.124  1.00  0.00    -0.216 NA 
HETATM   30  C   UNL     1      -7.161  18.544  68.865  1.00  0.00    -0.279 C  
HETATM   31  C   UNL     1      -7.403  19.417  70.120  1.00  0.00     0.515 C  
HETATM   32  N   UNL     1      -6.175  19.784  70.852  1.00  0.00    -0.162 NA 
HETATM   33  C   UNL     1      -5.349  18.579  71.078  1.00  0.00    -0.245 C  
HETATM   34  C   UNL     1      -5.423  20.813  70.135  1.00  0.00    -0.305 C  
HETATM   35  C   UNL     1      -5.144  17.678  69.831  1.00  0.00    -0.194 C  
ENDBRANCH  28  29
ENDBRANCH  27  28
ENDBRANCH  26  27
ENDBRANCH  25  26
ENDBRANCH  21  25
BRANCH  23  36
HETATM   36  O   UNL     1      -6.302  10.700  68.899  1.00  0.00    -0.043 OA 
HETATM   37  C   UNL     1      -5.497  10.848  70.065  1.00  0.00    -0.063 C  
ENDBRANCH  23  36
ENDBRANCH  11  13
ENDBRANCH   5  11
ENDBRANCH   2   3
TORSDOF 9
ENDMDL
MODEL      269
REMARK 921   NORMALIZED FREE ENERGY PREDICTED BY IDOCK:   24.07 KCAL/MOL
REMARK 922        TOTAL FREE ENERGY PREDICTED BY IDOCK:   35.39 KCAL/MOL
REMARK 923 INTER-LIGAND FREE ENERGY PREDICTED BY IDOCK:   23.18 KCAL/MOL
REMARK 924 INTRA-LIGAND FREE ENERGY PREDICTED BY IDOCK:   12.21 KCAL/MOL
REMARK 927      BINDING AFFINITY PREDICTED BY RF-SCORE:    0.00 PKD
ROOT
HETATM    1  C   UNL     1      -8.941  15.342  64.232  1.00  0.00     7.232 C  
HETATM    2  O   UNL     1      -8.297  15.946  65.351  1.00  0.00     0.933 OA 
ENDROOT
BRANCH   2   3
HETATM    3  C   UNL     1      -8.278  15.196  66.500  1.00  0.00     0.075 A  
HETATM    4  C   UNL     1      -7.208  15.215  67.403  1.00  0.00    -0.231 A  
HETATM    5  C   UNL     1      -7.210  14.433  68.568  1.00  0.00    -0.119 A  
HETATM    6  C   UNL     1      -8.331  13.618  68.810  1.00  0.00     0.041 A  
HETATM    7  C   UNL     1      -9.362  14.348  66.751  1.00  0.00    -0.268 A  
HETATM    8 CL   UNL     1      -8.421  12.646  70.239  1.00  0.00     4.078 Cl 
HETATM    9  C   UNL     1      -9.397  13.569  67.908  1.00  0.00    -0.215 A  
HETATM   10 CL   UNL     1     -10.704  14.255  65.665  1.00  0.00    -0.305 Cl 
BRANCH   5  11
HETATM   11  N   UNL     1      -6.079  14.385  69.424  1.00  0.00    -0.101 NA 
HETATM   12  H   UNL     1      -5.207  14.729  69.023  1.00  0.00     0.000 HD 
BRANCH  11  13
HETATM   13  C   UNL     1      -5.997  13.922  70.764  1.00  0.00    -0.170 A  
HETATM   14  C   UNL     1      -5.396  16.186  71.634  1.00  0.00     0.237 C  
HETATM   15  C   UNL     1      -5.735  14.814  71.824  1.00  0.00     0.126 A  
HETATM   16  C   UNL     1      -5.792  14.329  73.117  1.00  0.00     0.187 A  
HETATM   17  N   UNL     1      -6.103  13.058  73.435  1.00  0.00     1.177 NA 
HETATM   18  N   UNL     1      -5.143  17.314  71.525  1.00  0.00    -0.406 NA 
HETATM   19  C   UNL     1      -6.357  12.202  72.438  1.00  0.00     4.234 A  
HETATM   20  C   UNL     1      -6.707  10.911  72.792  1.00  0.00     4.876 A  
HETATM   21  C   UNL     1      -7.034   9.941  71.840  1.00  0.00     1.302 A  
HETATM   22  C   UNL     1      -6.302  12.564  71.073  1.00  0.00     1.272 A  
HETATM   23  C   UNL     1      -6.957  10.268  70.486  1.00  0.00     0.017 A  
HETATM   24  C   UNL     1      -6.577  11.562  70.112  1.00  0.00     0.099 A  
BRANCH  21  25
HETATM   25  O   UNL     1      -7.337   8.656  72.199  1.00  0.00    -0.217 OA 
BRANCH  25  26
HETATM   26  C   UNL     1      -6.631   7.641  71.473  1.00  0.00    -0.045 C  
BRANCH  26  27
HETATM   27  C   UNL     1      -7.108   7.715  70.030  1.00  0.00    -0.059 C  
BRANCH  27  28
HETATM   28  C   UNL     1      -8.169   6.664  69.701  1.00  0.00    -0.127 C  
BRANCH  28  29
HETATM   29  N   UNL     1      -7.636   5.333  69.361  1.00  0.00    -0.068 NA 
HETATM   30  C   UNL     1      -8.041   4.870  68.015  1.00  0.00    -0.093 C  
HETATM   31  C   UNL     1      -7.391   5.653  66.850  1.00  0.00    -0.079 C  
HETATM   32  N   UNL     1      -5.916   5.697  66.894  1.00  0.00    -0.018 NA 
HETATM   33  C   UNL     1      -5.468   6.098  68.245  1.00  0.00    -0.008 C  
HETATM   34  C   UNL     1      -5.340   4.409  66.508  1.00  0.00    -0.013 C  
HETATM   35  C   UNL     1      -6.153   5.346  69.416  1.00  0.00    -0.025 C  
ENDBRANCH  28  29
ENDBRANCH  27  28
ENDBRANCH  26  27
ENDBRANCH  25  26
ENDBRANCH  21  25
BRANCH  23  36
HETATM   36  O   UNL     1      -7.184   9.420  69.433  1.00  0.00    -0.061 OA 
HETATM   37  C   UNL     1      -7.380  10.055  68.173  1.00  0.00    -0.083 C  
ENDBRANCH  23  36
ENDBRANCH  11  13
ENDBRANCH   5  11
ENDBRANCH   2   3
TORSDOF 9
ENDMDL
MODEL      270
REMARK 921   NORMALIZED FREE ENERGY PREDICTED BY IDOCK:   25.23 KCAL/MOL
REMARK 922        TOTAL FREE ENERGY PREDICTED BY IDOCK:   37.17 KCAL/MOL
REMARK 923 INTER-LIGAND FREE ENERGY PREDICTED BY IDOCK:   26.80 KCAL/MOL
REMARK 924 INTRA-LIGAND FREE ENERGY PREDICTED BY IDOCK:   10.37 KCAL/MOL
REMARK 927      BINDING AFFINITY PREDICTED BY RF-SCORE:    0.00 PKD
ROOT
HETATM    1  C   UNL     1     -11.444   4.527  68.555  1.00  0.00     5.444 C  
HETATM    2  O   UNL     1     -10.120   5.022  68.377  1.00  0.00    -0.157 OA 
ENDROOT
BRANCH   2   3
HETATM    3  C   UNL     1      -9.815   6.165  69.072  1.00  0.00    -0.141 A  
HETATM    4  C   UNL     1      -8.793   7.040  68.685  1.00  0.00    -0.128 A  
HETATM    5  C   UNL     1      -8.495   8.200  69.417  1.00  0.00    -0.127 A  
HETATM    6  C   UNL     1      -9.262   8.465  70.566  1.00  0.00    -0.151 A  
HETATM    7  C   UNL     1     -10.536   6.439  70.240  1.00  0.00    -0.219 A  
HETATM    8 CL   UNL     1      -8.976   9.889  71.506  1.00  0.00     1.460 Cl 
HETATM    9  C   UNL     1     -10.271   7.591  70.980  1.00  0.00    -0.194 A  
HETATM   10 CL   UNL     1     -11.793   5.386  70.790  1.00  0.00     1.152 Cl 
BRANCH   5  11
HETATM   11  N   UNL     1      -7.394   9.026  69.072  1.00  0.00    -0.072 NA 
HETATM   12  H   UNL     1      -6.746   8.635  68.390  1.00  0.00     0.000 HD 
BRANCH  11  13
HETATM   13  C   UNL     1      -7.073  10.325  69.549  1.00  0.00    -0.107 A  
HETATM   14  C   UNL     1      -7.117   9.587  71.936  1.00  0.00     0.702 C  
HETATM   15  C   UNL     1      -6.876  10.563  70.924  1.00  0.00     0.629 A  
HETATM   16  C   UNL     1      -6.442  11.815  71.317  1.00  0.00     2.176 A  
HETATM   17  N   UNL     1      -6.173  12.824  70.465  1.00  0.00    -0.087 NA 
HETATM   18  N   UNL     1      -7.277   8.815  72.788  1.00  0.00    -0.341 NA 
HETATM   19  C   UNL     1      -6.353  12.608  69.156  1.00  0.00    -0.099 A  
HETATM   20  C   UNL     1      -6.038  13.648  68.299  1.00  0.00    -0.108 A  
HETATM   21  C   UNL     1      -6.147  13.528  66.911  1.00  0.00     1.376 A  
HETATM   22  C   UNL     1      -6.822  11.384  68.629  1.00  0.00    -0.078 A  
HETATM   23  C   UNL     1      -6.635  12.338  66.370  1.00  0.00     0.982 A  
HETATM   24  C   UNL     1      -6.985  11.287  67.226  1.00  0.00    -0.109 A  
BRANCH  21  25
HETATM   25  O   UNL     1      -5.874  14.577  66.076  1.00  0.00     4.565 OA 
BRANCH  25  26
HETATM   26  C   UNL     1      -7.025  15.256  65.560  1.00  0.00     7.526 C  
BRANCH  26  27
HETATM   27  C   UNL     1      -7.357  16.375  66.537  1.00  0.00    -0.176 C  
BRANCH  27  28
HETATM   28  C   UNL     1      -6.245  16.622  67.556  1.00  0.00    -0.160 C  
BRANCH  28  29
HETATM   29  N   UNL     1      -6.610  17.525  68.662  1.00  0.00    -0.197 NA 
HETATM   30  C   UNL     1      -7.512  18.622  68.246  1.00  0.00    -0.281 C  
HETATM   31  C   UNL     1      -8.942  18.164  67.876  1.00  0.00    -0.269 C  
HETATM   32  N   UNL     1      -9.625  17.388  68.929  1.00  0.00    -0.255 NA 
HETATM   33  C   UNL     1      -8.732  16.315  69.417  1.00  0.00    -0.044 C  
HETATM   34  C   UNL     1     -10.057  18.254  70.025  1.00  0.00     1.065 C  
HETATM   35  C   UNL     1      -7.282  16.763  69.744  1.00  0.00     0.386 C  
ENDBRANCH  28  29
ENDBRANCH  27  28
ENDBRANCH  26  27
ENDBRANCH  25  26
ENDBRANCH  21  25
BRANCH  23  36
HETATM   36  O   UNL     1      -6.858  12.082  65.042  1.00  0.00     2.444 OA 
HETATM   37  C   UNL     1      -6.216  10.918  64.532  1.00  0.00     0.390 C  
ENDBRANCH  23  36
ENDBRANCH  11  13
ENDBRANCH   5  11
ENDBRANCH   2   3
TORSDOF 9
ENDMDL
MODEL      271
REMARK 921   NORMALIZED FREE ENERGY PREDICTED BY IDOCK:   27.65 KCAL/MOL
REMARK 922        TOTAL FREE ENERGY PREDICTED BY IDOCK:   40.86 KCAL/MOL
REMARK 923 INTER-LIGAND FREE ENERGY PREDICTED BY IDOCK:   25.27 KCAL/MOL
REMARK 924 INTRA-LIGAND FREE ENERGY PREDICTED BY IDOCK:   15.59 KCAL/MOL
REMARK 927      BINDING AFFINITY PREDICTED BY RF-SCORE:    0.00 PKD
ROOT
HETATM    1  C   UNL     1     -10.200   8.526  70.848  1.00  0.00    -0.200 C  
HETATM    2  O   UNL     1     -10.708   8.635  69.522  1.00  0.00    -0.228 OA 
ENDROOT
BRANCH   2   3
HETATM    3  C   UNL     1     -10.537   9.856  68.920  1.00  0.00    -0.218 A  
HETATM    4  C   UNL     1      -9.289  10.481  68.809  1.00  0.00    -0.181 A  
HETATM    5  C   UNL     1      -9.141  11.735  68.196  1.00  0.00    -0.185 A  
HETATM    6  C   UNL     1     -10.296  12.357  67.687  1.00  0.00    -0.216 A  
HETATM    7  C   UNL     1     -11.671  10.518  68.435  1.00  0.00    -0.010 A  
HETATM    8 CL   UNL     1     -10.192  13.889  66.891  1.00  0.00    -0.254 Cl 
HETATM    9  C   UNL     1     -11.553  11.758  67.809  1.00  0.00    -0.374 A  
HETATM   10 CL   UNL     1     -13.246   9.816  68.563  1.00  0.00     5.921 Cl 
BRANCH   5  11
HETATM   11  N   UNL     1      -7.889  12.403  68.177  1.00  0.00    -0.137 NA 
HETATM   12  H   UNL     1      -7.138  11.945  68.693  1.00  0.00     0.000 HD 
BRANCH  11  13
HETATM   13  C   UNL     1      -7.540  13.622  67.538  1.00  0.00    -0.170 A  
HETATM   14  C   UNL     1      -5.797  12.520  66.128  1.00  0.00     2.369 C  
HETATM   15  C   UNL     1      -6.580  13.649  66.506  1.00  0.00     2.743 A  
HETATM   16  C   UNL     1      -6.373  14.840  65.836  1.00  0.00     7.134 A  
HETATM   17  N   UNL     1      -7.048  15.979  66.090  1.00  0.00     0.513 NA 
HETATM   18  N   UNL     1      -5.157  11.619  65.772  1.00  0.00    -0.206 NA 
HETATM   19  C   UNL     1      -7.964  15.963  67.065  1.00  0.00    -0.235 A  
HETATM   20  C   UNL     1      -8.667  17.135  67.285  1.00  0.00    -0.213 A  
HETATM   21  C   UNL     1      -9.676  17.229  68.248  1.00  0.00    -0.294 A  
HETATM   22  C   UNL     1      -8.248  14.820  67.845  1.00  0.00    -0.154 A  
HETATM   23  C   UNL     1      -9.952  16.121  69.050  1.00  0.00    -0.242 A  
HETATM   24  C   UNL     1      -9.230  14.938  68.858  1.00  0.00    -0.192 A  
BRANCH  21  25
HETATM   25  O   UNL     1     -10.334  18.405  68.485  1.00  0.00    -0.365 OA 
BRANCH  25  26
HETATM   26  C   UNL     1     -11.192  18.397  69.634  1.00  0.00     2.827 C  
BRANCH  26  27
HETATM   27  C   UNL     1     -10.394  18.983  70.789  1.00  0.00     2.056 C  
BRANCH  27  28
HETATM   28  C   UNL     1      -8.902  18.660  70.703  1.00  0.00     3.877 C  
BRANCH  28  29
HETATM   29  N   UNL     1      -8.057  19.767  70.221  1.00  0.00     0.902 NA 
HETATM   30  C   UNL     1      -6.621  19.580  70.525  1.00  0.00     0.140 C  
HETATM   31  C   UNL     1      -5.944  18.444  69.723  1.00  0.00    -0.239 C  
HETATM   32  N   UNL     1      -6.089  18.560  68.259  1.00  0.00    -0.199 NA 
HETATM   33  C   UNL     1      -7.506  18.810  67.916  1.00  0.00    -0.242 C  
HETATM   34  C   UNL     1      -5.225  19.613  67.727  1.00  0.00    -0.177 C  
HETATM   35  C   UNL     1      -8.201  19.917  68.752  1.00  0.00    -0.069 C  
ENDBRANCH  28  29
ENDBRANCH  27  28
ENDBRANCH  26  27
ENDBRANCH  25  26
ENDBRANCH  21  25
BRANCH  23  36
HETATM   36  O   UNL     1     -10.862  16.067  70.073  1.00  0.00    -0.308 OA 
HETATM   37  C   UNL     1     -10.394  16.548  71.329  1.00  0.00     2.094 C  
ENDBRANCH  23  36
ENDBRANCH  11  13
ENDBRANCH   5  11
ENDBRANCH   2   3
TORSDOF 9
ENDMDL
MODEL      272
REMARK 921   NORMALIZED FREE ENERGY PREDICTED BY IDOCK:   38.59 KCAL/MOL
REMARK 922        TOTAL FREE ENERGY PREDICTED BY IDOCK:   57.55 KCAL/MOL
REMARK 923 INTER-LIGAND FREE ENERGY PREDICTED BY IDOCK:   49.41 KCAL/MOL
REMARK 924 INTRA-LIGAND FREE ENERGY PREDICTED BY IDOCK:    8.14 KCAL/MOL
REMARK 927      BINDING AFFINITY PREDICTED BY RF-SCORE:    0.00 PKD
ROOT
HETATM    1  C   UNL     1      -8.527  14.792  63.922  1.00  0.00    12.959 C  
HETATM    2  O   UNL     1      -7.956  15.447  65.051  1.00  0.00     4.345 OA 
ENDROOT
BRANCH   2   3
HETATM    3  C   UNL     1      -8.066  14.778  66.244  1.00  0.00     0.944 A  
HETATM    4  C   UNL     1      -7.085  14.837  67.242  1.00  0.00    -0.067 A  
HETATM    5  C   UNL     1      -7.216  14.136  68.451  1.00  0.00    -0.109 A  
HETATM    6  C   UNL     1      -8.376  13.361  68.637  1.00  0.00    -0.010 A  
HETATM    7  C   UNL     1      -9.190  13.970  66.446  1.00  0.00    -0.162 A  
HETATM    8 CL   UNL     1      -8.625  12.492  70.112  1.00  0.00     3.548 Cl 
HETATM    9  C   UNL     1      -9.354  13.273  67.643  1.00  0.00    -0.212 A  
HETATM   10 CL   UNL     1     -10.426  13.830  65.244  1.00  0.00    -0.352 Cl 
BRANCH   5  11
HETATM   11  N   UNL     1      -6.173  14.124  69.412  1.00  0.00    -0.103 NA 
HETATM   12  H   UNL     1      -5.253  14.398  69.068  1.00  0.00     0.000 HD 
BRANCH  11  13
HETATM   13  C   UNL     1      -6.236  13.782  70.789  1.00  0.00     0.001 A  
HETATM   14  C   UNL     1      -5.572  16.080  71.510  1.00  0.00     0.447 C  
HETATM   15  C   UNL     1      -6.011  14.752  71.786  1.00  0.00     0.311 A  
HETATM   16  C   UNL     1      -6.209  14.393  73.106  1.00  0.00     0.840 A  
HETATM   17  N   UNL     1      -6.626  13.174  73.504  1.00  0.00     2.596 NA 
HETATM   18  N   UNL     1      -5.240  17.178  71.327  1.00  0.00    -0.298 NA 
HETATM   19  C   UNL     1      -6.846  12.246  72.565  1.00  0.00     7.664 A  
HETATM   20  C   UNL     1      -7.306  11.014  72.996  1.00  0.00     9.676 A  
HETATM   21  C   UNL     1      -7.609   9.980  72.106  1.00  0.00     3.065 A  
HETATM   22  C   UNL     1      -6.651  12.477  71.185  1.00  0.00     2.392 A  
HETATM   23  C   UNL     1      -7.396  10.176  70.741  1.00  0.00     0.457 A  
HETATM   24  C   UNL     1      -6.904  11.408  70.293  1.00  0.00     0.493 A  
BRANCH  21  25
HETATM   25  O   UNL     1      -8.022   8.752  72.546  1.00  0.00    -0.373 OA 
BRANCH  25  26
HETATM   26  C   UNL     1      -7.394   7.635  71.904  1.00  0.00    -0.070 C  
BRANCH  26  27
HETATM   27  C   UNL     1      -8.013   6.377  72.494  1.00  0.00    -0.102 C  
BRANCH  27  28
HETATM   28  C   UNL     1      -8.612   5.455  71.431  1.00  0.00    -0.130 C  
BRANCH  28  29
HETATM   29  N   UNL     1      -9.975   5.814  71.000  1.00  0.00    -0.184 NA 
HETATM   30  C   UNL     1     -10.898   4.658  70.965  1.00  0.00     0.514 C  
HETATM   31  C   UNL     1     -11.267   4.095  72.358  1.00  0.00     0.438 C  
HETATM   32  N   UNL     1     -11.822   5.094  73.291  1.00  0.00    -0.073 NA 
HETATM   33  C   UNL     1     -10.959   6.295  73.310  1.00  0.00    -0.194 C  
HETATM   34  C   UNL     1     -13.198   5.440  72.935  1.00  0.00     1.490 C  
HETATM   35  C   UNL     1     -10.549   6.833  71.913  1.00  0.00    -0.209 C  
ENDBRANCH  28  29
ENDBRANCH  27  28
ENDBRANCH  26  27
ENDBRANCH  25  26
ENDBRANCH  21  25
BRANCH  23  36
HETATM   36  O   UNL     1      -7.584   9.249  69.749  1.00  0.00    -0.067 OA 
HETATM   37  C   UNL     1      -6.649   9.310  68.676  1.00  0.00    -0.053 C  
ENDBRANCH  23  36
ENDBRANCH  11  13
ENDBRANCH   5  11
ENDBRANCH   2   3
TORSDOF 9
ENDMDL
MODEL      273
REMARK 921   NORMALIZED FREE ENERGY PREDICTED BY IDOCK:   38.68 KCAL/MOL
REMARK 922        TOTAL FREE ENERGY PREDICTED BY IDOCK:   57.69 KCAL/MOL
REMARK 923 INTER-LIGAND FREE ENERGY PREDICTED BY IDOCK:   43.04 KCAL/MOL
REMARK 924 INTRA-LIGAND FREE ENERGY PREDICTED BY IDOCK:   14.65 KCAL/MOL
REMARK 927      BINDING AFFINITY PREDICTED BY RF-SCORE:    0.00 PKD
ROOT
HETATM    1  C   UNL     1     -13.228   7.432  65.587  1.00  0.00    16.439 C  
HETATM    2  O   UNL     1     -12.575   7.915  66.757  1.00  0.00     6.955 OA 
ENDROOT
BRANCH   2   3
HETATM    3  C   UNL     1     -11.274   8.319  66.587  1.00  0.00     1.582 A  
HETATM    4  C   UNL     1     -10.927   9.521  65.960  1.00  0.00     0.982 A  
HETATM    5  C   UNL     1      -9.589   9.908  65.790  1.00  0.00    -0.250 A  
HETATM    6  C   UNL     1      -8.590   9.044  66.274  1.00  0.00    -0.128 A  
HETATM    7  C   UNL     1     -10.256   7.465  67.025  1.00  0.00    -0.287 A  
HETATM    8 CL   UNL     1      -6.918   9.464  66.129  1.00  0.00    -0.089 Cl 
HETATM    9  C   UNL     1      -8.917   7.829  66.882  1.00  0.00    -0.153 A  
HETATM   10 CL   UNL     1     -10.613   5.952  67.784  1.00  0.00    -0.304 Cl 
BRANCH   5  11
HETATM   11  N   UNL     1      -9.247  11.080  65.066  1.00  0.00    -0.232 NA 
HETATM   12  H   UNL     1      -9.240  10.984  64.051  1.00  0.00     0.000 HD 
BRANCH  11  13
HETATM   13  C   UNL     1      -8.914  12.367  65.563  1.00  0.00     0.485 A  
HETATM   14  C   UNL     1      -9.923  13.520  63.589  1.00  0.00     2.128 C  
HETATM   15  C   UNL     1      -9.306  13.533  64.874  1.00  0.00     0.927 A  
HETATM   16  C   UNL     1      -9.065  14.757  65.469  1.00  0.00     0.682 A  
HETATM   17  N   UNL     1      -8.494  14.911  66.680  1.00  0.00    -0.179 NA 
HETATM   18  N   UNL     1     -10.450  13.553  62.555  1.00  0.00     4.651 NA 
HETATM   19  C   UNL     1      -8.121  13.811  67.345  1.00  0.00    -0.177 A  
HETATM   20  C   UNL     1      -7.568  13.993  68.600  1.00  0.00    -0.130 A  
HETATM   21  C   UNL     1      -7.177  12.919  69.405  1.00  0.00     0.270 A  
HETATM   22  C   UNL     1      -8.283  12.504  66.834  1.00  0.00    -0.070 A  
HETATM   23  C   UNL     1      -7.301  11.621  68.909  1.00  0.00    -0.107 A  
HETATM   24  C   UNL     1      -7.833  11.423  67.629  1.00  0.00    -0.122 A  
BRANCH  21  25
HETATM   25  O   UNL     1      -6.593  13.112  70.626  1.00  0.00     0.224 OA 
BRANCH  25  26
HETATM   26  C   UNL     1      -5.938  14.377  70.791  1.00  0.00    -0.195 C  
BRANCH  26  27
HETATM   27  C   UNL     1      -6.985  15.357  71.298  1.00  0.00     1.808 C  
BRANCH  27  28
HETATM   28  C   UNL     1      -8.271  14.669  71.757  1.00  0.00     5.141 C  
BRANCH  28  29
HETATM   29  N   UNL     1      -9.091  14.105  70.671  1.00  0.00     3.024 NA 
HETATM   30  C   UNL     1     -10.545  14.235  70.911  1.00  0.00     1.494 C  
HETATM   31  C   UNL     1     -11.076  15.686  70.834  1.00  0.00    -0.338 C  
HETATM   32  N   UNL     1     -10.756  16.385  69.574  1.00  0.00    -0.309 NA 
HETATM   33  C   UNL     1      -9.319  16.227  69.265  1.00  0.00    -0.202 C  
HETATM   34  C   UNL     1     -11.589  15.896  68.475  1.00  0.00    -0.349 C  
HETATM   35  C   UNL     1      -8.774  14.779  69.387  1.00  0.00     0.038 C  
ENDBRANCH  28  29
ENDBRANCH  27  28
ENDBRANCH  26  27
ENDBRANCH  25  26
ENDBRANCH  21  25
BRANCH  23  36
HETATM   36  O   UNL     1      -6.911  10.470  69.542  1.00  0.00    -0.083 OA 
HETATM   37  C   UNL     1      -7.797   9.364  69.394  1.00  0.00    -0.087 C  
ENDBRANCH  23  36
ENDBRANCH  11  13
ENDBRANCH   5  11
ENDBRANCH   2   3
TORSDOF 9
ENDMDL
MODEL      274
REMARK 921   NORMALIZED FREE ENERGY PREDICTED BY IDOCK:   41.52 KCAL/MOL
REMARK 922        TOTAL FREE ENERGY PREDICTED BY IDOCK:   62.03 KCAL/MOL
REMARK 923 INTER-LIGAND FREE ENERGY PREDICTED BY IDOCK:   50.67 KCAL/MOL
REMARK 924 INTRA-LIGAND FREE ENERGY PREDICTED BY IDOCK:   11.36 KCAL/MOL
REMARK 927      BINDING AFFINITY PREDICTED BY RF-SCORE:    0.00 PKD
ROOT
HETATM    1  C   UNL     1      -9.847  14.042  73.110  1.00  0.00     9.466 C  
HETATM    2  O   UNL     1      -9.576  12.751  72.570  1.00  0.00    16.417 OA 
ENDROOT
BRANCH   2   3
HETATM    3  C   UNL     1     -10.033  12.533  71.295  1.00  0.00    10.164 A  
HETATM    4  C   UNL     1     -10.462  13.567  70.454  1.00  0.00     2.078 A  
HETATM    5  C   UNL     1     -10.934  13.318  69.156  1.00  0.00    -0.161 A  
HETATM    6  C   UNL     1     -10.966  11.982  68.715  1.00  0.00    -0.239 A  
HETATM    7  C   UNL     1     -10.111  11.212  70.839  1.00  0.00     3.658 A  
HETATM    8 CL   UNL     1     -11.507  11.595  67.118  1.00  0.00    -0.365 Cl 
HETATM    9  C   UNL     1     -10.563  10.935  69.549  1.00  0.00    -0.217 A  
HETATM   10 CL   UNL     1      -9.624   9.885  71.835  1.00  0.00     1.990 Cl 
BRANCH   5  11
HETATM   11  N   UNL     1     -11.458  14.361  68.350  1.00  0.00    -0.284 NA 
HETATM   12  H   UNL     1     -12.322  14.786  68.685  1.00  0.00     0.000 HD 
BRANCH  11  13
HETATM   13  C   UNL     1     -10.942  14.894  67.139  1.00  0.00    -0.323 A  
HETATM   14  C   UNL     1     -12.704  13.782  65.761  1.00  0.00    -0.446 C  
HETATM   15  C   UNL     1     -11.593  14.662  65.910  1.00  0.00    -0.327 A  
HETATM   16  C   UNL     1     -11.117  15.309  64.785  1.00  0.00    -0.394 A  
HETATM   17  N   UNL     1     -10.079  16.168  64.788  1.00  0.00    -0.115 NA 
HETATM   18  N   UNL     1     -13.627  13.095  65.600  1.00  0.00     0.278 NA 
HETATM   19  C   UNL     1      -9.456  16.399  65.949  1.00  0.00    -0.254 A  
HETATM   20  C   UNL     1      -8.414  17.310  65.933  1.00  0.00    -0.003 A  
HETATM   21  C   UNL     1      -7.715  17.662  67.091  1.00  0.00    -0.207 A  
HETATM   22  C   UNL     1      -9.823  15.778  67.164  1.00  0.00    -0.227 A  
HETATM   23  C   UNL     1      -8.042  17.039  68.296  1.00  0.00    -0.228 A  
HETATM   24  C   UNL     1      -9.074  16.095  68.322  1.00  0.00    -0.190 A  
BRANCH  21  25
HETATM   25  O   UNL     1      -6.660  18.532  67.055  1.00  0.00    -0.185 OA 
BRANCH  25  26
HETATM   26  C   UNL     1      -6.563  19.414  68.181  1.00  0.00    -0.246 C  
BRANCH  26  27
HETATM   27  C   UNL     1      -6.149  20.776  67.645  1.00  0.00    -0.332 C  
BRANCH  27  28
HETATM   28  C   UNL     1      -6.241  20.868  66.121  1.00  0.00    -0.256 C  
BRANCH  28  29
HETATM   29  N   UNL     1      -7.039  19.805  65.486  1.00  0.00    -0.310 NA 
HETATM   30  C   UNL     1      -8.307  19.524  66.196  1.00  0.00    -0.321 C  
HETATM   31  C   UNL     1      -9.358  20.655  66.093  1.00  0.00     0.220 C  
HETATM   32  N   UNL     1      -9.687  21.056  64.712  1.00  0.00     1.847 NA 
HETATM   33  C   UNL     1      -8.442  21.288  63.948  1.00  0.00     2.853 C  
HETATM   34  C   UNL     1     -10.528  20.054  64.059  1.00  0.00     6.104 C  
HETATM   35  C   UNL     1      -7.368  20.176  64.088  1.00  0.00     1.452 C  
ENDBRANCH  28  29
ENDBRANCH  27  28
ENDBRANCH  26  27
ENDBRANCH  25  26
ENDBRANCH  21  25
BRANCH  23  36
HETATM   36  O   UNL     1      -7.417  17.226  69.501  1.00  0.00    -0.020 OA 
HETATM   37  C   UNL     1      -6.161  16.570  69.642  1.00  0.00    -0.213 C  
ENDBRANCH  23  36
ENDBRANCH  11  13
ENDBRANCH   5  11
ENDBRANCH   2   3
TORSDOF 9
ENDMDL
MODEL      275
REMARK 921   NORMALIZED FREE ENERGY PREDICTED BY IDOCK:   46.56 KCAL/MOL
REMARK 922        TOTAL FREE ENERGY PREDICTED BY IDOCK:   69.72 KCAL/MOL
REMARK 923 INTER-LIGAND FREE ENERGY PREDICTED BY IDOCK:   65.91 KCAL/MOL
REMARK 924 INTRA-LIGAND FREE ENERGY PREDICTED BY IDOCK:    3.81 KCAL/MOL
REMARK 927      BINDING AFFINITY PREDICTED BY RF-SCORE:    0.00 PKD
ROOT
HETATM    1  C   UNL     1     -13.984   7.562  65.336  1.00  0.00    19.153 C  
HETATM    2  O   UNL     1     -13.196   8.319  66.251  1.00  0.00    14.025 OA 
ENDROOT
BRANCH   2   3
HETATM    3  C   UNL     1     -12.153   9.018  65.700  1.00  0.00    10.498 A  
HETATM    4  C   UNL     1     -12.133  10.416  65.617  1.00  0.00     4.293 A  
HETATM    5  C   UNL     1     -11.057  11.108  65.041  1.00  0.00    -0.030 A  
HETATM    6  C   UNL     1      -9.982  10.350  64.541  1.00  0.00    -0.331 A  
HETATM    7  C   UNL     1     -11.084   8.292  65.161  1.00  0.00     7.595 A  
HETATM    8 CL   UNL     1      -8.605  11.131  63.842  1.00  0.00     0.146 Cl 
HETATM    9  C   UNL     1      -9.995   8.954  64.594  1.00  0.00     1.744 A  
HETATM   10 CL   UNL     1     -11.057   6.564  65.205  1.00  0.00     4.551 Cl 
BRANCH   5  11
HETATM   11  N   UNL     1     -11.092  12.517  64.873  1.00  0.00    -0.290 NA 
HETATM   12  H   UNL     1     -11.632  12.853  64.076  1.00  0.00     0.000 HD 
BRANCH  11  13
HETATM   13  C   UNL     1     -10.477  13.522  65.665  1.00  0.00    -0.293 A  
HETATM   14  C   UNL     1     -11.480  15.367  64.311  1.00  0.00    -0.171 C  
HETATM   15  C   UNL     1     -10.729  14.888  65.424  1.00  0.00    -0.391 A  
HETATM   16  C   UNL     1     -10.204  15.816  66.304  1.00  0.00    -0.303 A  
HETATM   17  N   UNL     1      -9.481  15.498  67.396  1.00  0.00    -0.210 NA 
HETATM   18  N   UNL     1     -12.107  15.798  63.434  1.00  0.00     0.237 NA 
HETATM   19  C   UNL     1      -9.239  14.204  67.637  1.00  0.00    -0.193 A  
HETATM   20  C   UNL     1      -8.522  13.902  68.782  1.00  0.00    -0.008 A  
HETATM   21  C   UNL     1      -8.243  12.586  69.159  1.00  0.00     0.542 A  
HETATM   22  C   UNL     1      -9.691  13.162  66.799  1.00  0.00    -0.246 A  
HETATM   23  C   UNL     1      -8.655  11.541  68.331  1.00  0.00    -0.159 A  
HETATM   24  C   UNL     1      -9.356  11.833  67.155  1.00  0.00    -0.178 A  
BRANCH  21  25
HETATM   25  O   UNL     1      -7.497  12.301  70.270  1.00  0.00     1.305 OA 
BRANCH  25  26
HETATM   26  C   UNL     1      -6.267  13.029  70.378  1.00  0.00     0.055 C  
BRANCH  26  27
HETATM   27  C   UNL     1      -5.147  12.002  70.447  1.00  0.00    -0.102 C  
BRANCH  27  28
HETATM   28  C   UNL     1      -5.582  10.616  69.973  1.00  0.00    -0.060 C  
BRANCH  28  29
HETATM   29  N   UNL     1      -6.653   9.997  70.774  1.00  0.00    -0.286 NA 
HETATM   30  C   UNL     1      -6.339   8.615  71.199  1.00  0.00    -0.049 C  
HETATM   31  C   UNL     1      -5.211   8.513  72.253  1.00  0.00    -0.041 C  
HETATM   32  N   UNL     1      -5.437   9.323  73.466  1.00  0.00    -0.209 NA 
HETATM   33  C   UNL     1      -5.815  10.701  73.084  1.00  0.00     1.478 C  
HETATM   34  C   UNL     1      -6.455   8.716  74.322  1.00  0.00    -0.109 C  
HETATM   35  C   UNL     1      -6.912  10.804  71.992  1.00  0.00     4.191 C  
ENDBRANCH  28  29
ENDBRANCH  27  28
ENDBRANCH  26  27
ENDBRANCH  25  26
ENDBRANCH  21  25
BRANCH  23  36
HETATM   36  O   UNL     1      -8.409  10.207  68.525  1.00  0.00    -0.108 OA 
HETATM   37  C   UNL     1      -9.473   9.334  68.159  1.00  0.00    -0.138 C  
ENDBRANCH  23  36
ENDBRANCH  11  13
ENDBRANCH   5  11
ENDBRANCH   2   3
TORSDOF 9
ENDMDL
MODEL      276
REMARK 921   NORMALIZED FREE ENERGY PREDICTED BY IDOCK:   54.67 KCAL/MOL
REMARK 922        TOTAL FREE ENERGY PREDICTED BY IDOCK:   82.09 KCAL/MOL
REMARK 923 INTER-LIGAND FREE ENERGY PREDICTED BY IDOCK:   74.25 KCAL/MOL
REMARK 924 INTRA-LIGAND FREE ENERGY PREDICTED BY IDOCK:    7.84 KCAL/MOL
REMARK 927      BINDING AFFINITY PREDICTED BY RF-SCORE:    0.00 PKD
ROOT
HETATM    1  C   UNL     1      -5.573   7.125  68.890  1.00  0.00    -0.018 C  
HETATM    2  O   UNL     1      -6.949   7.192  69.254  1.00  0.00    -0.065 OA 
ENDROOT
BRANCH   2   3
HETATM    3  C   UNL     1      -7.753   7.907  68.402  1.00  0.00    -0.114 A  
HETATM    4  C   UNL     1      -8.247   9.181  68.712  1.00  0.00    -0.109 A  
HETATM    5  C   UNL     1      -9.074   9.889  67.827  1.00  0.00    -0.131 A  
HETATM    6  C   UNL     1      -9.399   9.278  66.602  1.00  0.00    -0.170 A  
HETATM    7  C   UNL     1      -8.124   7.313  67.191  1.00  0.00    -0.114 A  
HETATM    8 CL   UNL     1     -10.390  10.099  65.445  1.00  0.00    -0.271 Cl 
HETATM    9  C   UNL     1      -8.934   7.999  66.286  1.00  0.00    -0.208 A  
HETATM   10 CL   UNL     1      -7.573   5.732  66.757  1.00  0.00    -0.094 Cl 
BRANCH   5  11
HETATM   11  N   UNL     1      -9.648  11.134  68.192  1.00  0.00    -0.173 NA 
HETATM   12  H   UNL     1     -10.162  11.616  67.455  1.00  0.00     0.000 HD 
BRANCH  11  13
HETATM   13  C   UNL     1      -9.604  11.800  69.445  1.00  0.00     0.709 A  
HETATM   14  C   UNL     1     -11.200  10.186  70.491  1.00  0.00    -0.336 C  
HETATM   15  C   UNL     1     -10.302  11.292  70.560  1.00  0.00     1.959 A  
HETATM   16  C   UNL     1     -10.122  11.910  71.783  1.00  0.00    12.155 A  
HETATM   17  N   UNL     1      -9.301  12.959  71.987  1.00  0.00    16.698 NA 
HETATM   18  N   UNL     1     -11.918   9.274  70.484  1.00  0.00    -0.140 NA 
HETATM   19  C   UNL     1      -8.631  13.448  70.937  1.00  0.00     7.540 A  
HETATM   20  C   UNL     1      -7.769  14.504  71.178  1.00  0.00     2.731 A  
HETATM   21  C   UNL     1      -6.986  15.071  70.169  1.00  0.00    -0.016 A  
HETATM   22  C   UNL     1      -8.751  12.927  69.630  1.00  0.00     1.976 A  
HETATM   23  C   UNL     1      -7.111  14.592  68.865  1.00  0.00    -0.118 A  
HETATM   24  C   UNL     1      -7.999  13.542  68.600  1.00  0.00    -0.073 A  
BRANCH  21  25
HETATM   25  O   UNL     1      -6.170  16.142  70.410  1.00  0.00    -0.043 OA 
BRANCH  25  26
HETATM   26  C   UNL     1      -6.391  17.276  69.561  1.00  0.00    -0.235 C  
BRANCH  26  27
HETATM   27  C   UNL     1      -5.924  16.885  68.167  1.00  0.00    -0.124 C  
BRANCH  27  28
HETATM   28  C   UNL     1      -7.069  16.808  67.157  1.00  0.00    -0.187 C  
BRANCH  28  29
HETATM   29  N   UNL     1      -7.663  18.107  66.797  1.00  0.00    -0.216 NA 
HETATM   30  C   UNL     1      -6.949  18.791  65.696  1.00  0.00    -0.225 C  
HETATM   31  C   UNL     1      -7.102  18.108  64.317  1.00  0.00     4.692 C  
HETATM   32  N   UNL     1      -8.501  17.900  63.893  1.00  0.00    11.213 NA 
HETATM   33  C   UNL     1      -9.267  17.272  64.991  1.00  0.00     2.715 C  
HETATM   34  C   UNL     1      -9.116  19.158  63.472  1.00  0.00    15.187 C  
HETATM   35  C   UNL     1      -9.077  17.927  66.385  1.00  0.00    -0.235 C  
ENDBRANCH  28  29
ENDBRANCH  27  28
ENDBRANCH  26  27
ENDBRANCH  25  26
ENDBRANCH  21  25
BRANCH  23  36
HETATM   36  O   UNL     1      -6.464  15.076  67.757  1.00  0.00    -0.142 OA 
HETATM   37  C   UNL     1      -5.161  14.545  67.534  1.00  0.00     0.236 C  
ENDBRANCH  23  36
ENDBRANCH  11  13
ENDBRANCH   5  11
ENDBRANCH   2   3
TORSDOF 9
ENDMDL
MODEL      277
REMARK 921   NORMALIZED FREE ENERGY PREDICTED BY IDOCK:   66.53 KCAL/MOL
REMARK 922        TOTAL FREE ENERGY PREDICTED BY IDOCK:  100.18 KCAL/MOL
REMARK 923 INTER-LIGAND FREE ENERGY PREDICTED BY IDOCK:   91.35 KCAL/MOL
REMARK 924 INTRA-LIGAND FREE ENERGY PREDICTED BY IDOCK:    8.83 KCAL/MOL
REMARK 927      BINDING AFFINITY PREDICTED BY RF-SCORE:    0.00 PKD
ROOT
HETATM    1  C   UNL     1      -8.536  14.793  63.924  1.00  0.00    12.034 C  
HETATM    2  O   UNL     1      -8.038  15.468  65.076  1.00  0.00     3.682 OA 
ENDROOT
BRANCH   2   3
HETATM    3  C   UNL     1      -8.276  14.848  66.276  1.00  0.00     0.641 A  
HETATM    4  C   UNL     1      -7.383  14.905  67.353  1.00  0.00    -0.222 A  
HETATM    5  C   UNL     1      -7.645  14.255  68.568  1.00  0.00    -0.127 A  
HETATM    6  C   UNL     1      -8.848  13.534  68.680  1.00  0.00    -0.003 A  
HETATM    7  C   UNL     1      -9.447  14.093  66.407  1.00  0.00    -0.269 A  
HETATM    8 CL   UNL     1      -9.258  12.729  70.155  1.00  0.00     3.622 Cl 
HETATM    9  C   UNL     1      -9.741  13.447  67.609  1.00  0.00    -0.222 A  
HETATM   10 CL   UNL     1     -10.581  13.957  65.109  1.00  0.00    -0.364 Cl 
BRANCH   5  11
HETATM   11  N   UNL     1      -6.689  14.237  69.616  1.00  0.00    -0.208 NA 
HETATM   12  H   UNL     1      -5.726  14.424  69.337  1.00  0.00     0.000 HD 
BRANCH  11  13
HETATM   13  C   UNL     1      -6.890  13.995  71.001  1.00  0.00     1.117 A  
HETATM   14  C   UNL     1      -6.043  16.257  71.640  1.00  0.00     1.760 C  
HETATM   15  C   UNL     1      -6.639  15.001  71.956  1.00  0.00     1.581 A  
HETATM   16  C   UNL     1      -6.973  14.751  73.273  1.00  0.00     3.802 A  
HETATM   17  N   UNL     1      -7.545  13.610  73.706  1.00  0.00     5.464 NA 
HETATM   18  N   UNL     1      -5.584  17.301  71.421  1.00  0.00     0.313 NA 
HETATM   19  C   UNL     1      -7.791  12.649  72.808  1.00  0.00    15.982 A  
HETATM   20  C   UNL     1      -8.409  11.501  73.270  1.00  0.00    20.561 A  
HETATM   21  C   UNL     1      -8.753  10.446  72.420  1.00  0.00     8.395 A  
HETATM   22  C   UNL     1      -7.470  12.768  71.437  1.00  0.00     7.323 A  
HETATM   23  C   UNL     1      -8.418  10.530  71.068  1.00  0.00     3.143 A  
HETATM   24  C   UNL     1      -7.767  11.673  70.591  1.00  0.00     3.943 A  
BRANCH  21  25
HETATM   25  O   UNL     1      -9.325   9.298  72.895  1.00  0.00     0.546 OA 
BRANCH  25  26
HETATM   26  C   UNL     1      -8.782   8.084  72.360  1.00  0.00    -0.167 C  
BRANCH  26  27
HETATM   27  C   UNL     1      -9.562   6.936  72.984  1.00  0.00    -0.178 C  
BRANCH  27  28
HETATM   28  C   UNL     1      -8.790   5.616  72.967  1.00  0.00    -0.123 C  
BRANCH  28  29
HETATM   29  N   UNL     1      -8.882   4.863  71.704  1.00  0.00    -0.129 NA 
HETATM   30  C   UNL     1      -7.890   5.294  70.695  1.00  0.00    -0.089 C  
HETATM   31  C   UNL     1      -6.428   4.928  71.042  1.00  0.00    -0.023 C  
HETATM   32  N   UNL     1      -6.207   3.495  71.317  1.00  0.00    -0.014 NA 
HETATM   33  C   UNL     1      -7.219   3.008  72.278  1.00  0.00    -0.042 C  
HETATM   34  C   UNL     1      -6.234   2.713  70.081  1.00  0.00    -0.024 C  
HETATM   35  C   UNL     1      -8.682   3.414  71.956  1.00  0.00    -0.089 C  
ENDBRANCH  28  29
ENDBRANCH  27  28
ENDBRANCH  26  27
ENDBRANCH  25  26
ENDBRANCH  21  25
BRANCH  23  36
HETATM   36  O   UNL     1      -8.629   9.563  70.119  1.00  0.00    -0.189 OA 
HETATM   37  C   UNL     1      -7.616   9.458  69.124  1.00  0.00    -0.074 C  
ENDBRANCH  23  36
ENDBRANCH  11  13
ENDBRANCH   5  11
ENDBRANCH   2   3
TORSDOF 9
ENDMDL
MODEL      278
REMARK 921   NORMALIZED FREE ENERGY PREDICTED BY IDOCK:   70.24 KCAL/MOL
REMARK 922        TOTAL FREE ENERGY PREDICTED BY IDOCK:  105.86 KCAL/MOL
REMARK 923 INTER-LIGAND FREE ENERGY PREDICTED BY IDOCK:  106.60 KCAL/MOL
REMARK 924 INTRA-LIGAND FREE ENERGY PREDICTED BY IDOCK:   -0.74 KCAL/MOL
REMARK 927      BINDING AFFINITY PREDICTED BY RF-SCORE:    0.00 PKD
ROOT
HETATM    1  C   UNL     1      -5.573   7.125  68.890  1.00  0.00    -0.018 C  
HETATM    2  O   UNL     1      -6.949   7.192  69.254  1.00  0.00    -0.065 OA 
ENDROOT
BRANCH   2   3
HETATM    3  C   UNL     1      -7.753   7.907  68.402  1.00  0.00    -0.114 A  
HETATM    4  C   UNL     1      -8.247   9.181  68.712  1.00  0.00    -0.109 A  
HETATM    5  C   UNL     1      -9.074   9.889  67.827  1.00  0.00    -0.131 A  
HETATM    6  C   UNL     1      -9.399   9.278  66.602  1.00  0.00    -0.170 A  
HETATM    7  C   UNL     1      -8.124   7.313  67.191  1.00  0.00    -0.114 A  
HETATM    8 CL   UNL     1     -10.390  10.099  65.445  1.00  0.00    -0.271 Cl 
HETATM    9  C   UNL     1      -8.934   7.999  66.286  1.00  0.00    -0.208 A  
HETATM   10 CL   UNL     1      -7.573   5.732  66.757  1.00  0.00    -0.094 Cl 
BRANCH   5  11
HETATM   11  N   UNL     1      -9.648  11.134  68.192  1.00  0.00    -0.173 NA 
HETATM   12  H   UNL     1     -10.162  11.616  67.455  1.00  0.00     0.000 HD 
BRANCH  11  13
HETATM   13  C   UNL     1      -9.604  11.800  69.445  1.00  0.00     0.709 A  
HETATM   14  C   UNL     1     -11.200  10.186  70.491  1.00  0.00    -0.336 C  
HETATM   15  C   UNL     1     -10.302  11.292  70.560  1.00  0.00     1.959 A  
HETATM   16  C   UNL     1     -10.122  11.910  71.783  1.00  0.00    12.155 A  
HETATM   17  N   UNL     1      -9.301  12.959  71.987  1.00  0.00    16.698 NA 
HETATM   18  N   UNL     1     -11.918   9.274  70.484  1.00  0.00    -0.140 NA 
HETATM   19  C   UNL     1      -8.631  13.448  70.937  1.00  0.00     7.540 A  
HETATM   20  C   UNL     1      -7.769  14.504  71.178  1.00  0.00     2.731 A  
HETATM   21  C   UNL     1      -6.986  15.071  70.169  1.00  0.00    -0.016 A  
HETATM   22  C   UNL     1      -8.751  12.927  69.630  1.00  0.00     1.976 A  
HETATM   23  C   UNL     1      -7.111  14.592  68.865  1.00  0.00    -0.118 A  
HETATM   24  C   UNL     1      -7.999  13.542  68.600  1.00  0.00    -0.073 A  
BRANCH  21  25
HETATM   25  O   UNL     1      -6.170  16.142  70.410  1.00  0.00    -0.043 OA 
BRANCH  25  26
HETATM   26  C   UNL     1      -6.688  17.100  71.343  1.00  0.00     3.959 C  
BRANCH  26  27
HETATM   27  C   UNL     1      -7.858  17.795  70.663  1.00  0.00     4.337 C  
BRANCH  27  28
HETATM   28  C   UNL     1      -9.199  17.490  71.331  1.00  0.00     8.382 C  
BRANCH  28  29
HETATM   29  N   UNL     1      -9.376  18.089  72.665  1.00  0.00    11.140 NA 
HETATM   30  C   UNL     1      -9.895  19.473  72.618  1.00  0.00     3.767 C  
HETATM   31  C   UNL     1     -11.364  19.588  72.149  1.00  0.00     7.714 C  
HETATM   32  N   UNL     1     -12.317  18.769  72.924  1.00  0.00     8.293 NA 
HETATM   33  C   UNL     1     -11.804  17.388  73.047  1.00  0.00     1.085 C  
HETATM   34  C   UNL     1     -12.567  19.358  74.239  1.00  0.00     9.287 C  
HETATM   35  C   UNL     1     -10.317  17.272  73.472  1.00  0.00     6.964 C  
ENDBRANCH  28  29
ENDBRANCH  27  28
ENDBRANCH  26  27
ENDBRANCH  25  26
ENDBRANCH  21  25
BRANCH  23  36
HETATM   36  O   UNL     1      -6.464  15.076  67.757  1.00  0.00    -0.142 OA 
HETATM   37  C   UNL     1      -5.161  14.545  67.534  1.00  0.00     0.236 C  
ENDBRANCH  23  36
ENDBRANCH  11  13
ENDBRANCH   5  11
ENDBRANCH   2   3
TORSDOF 9
ENDMDL
