MODEL        1
REMARK 921   NORMALIZED FREE ENERGY PREDICTED BY IDOCK:   -4.27 KCAL/MOL
REMARK 922        TOTAL FREE ENERGY PREDICTED BY IDOCK:   -5.23 KCAL/MOL
REMARK 923 INTER-LIGAND FREE ENERGY PREDICTED BY IDOCK:   -5.02 KCAL/MOL
REMARK 924 INTRA-LIGAND FREE ENERGY PREDICTED BY IDOCK:   -0.20 KCAL/MOL
REMARK 927      BINDING AFFINITY PREDICTED BY RF-SCORE:    0.00 PKD
ROOT
HETATM    1  C   UNL     1     -11.916  12.586  63.442  1.00  0.00    -0.602 C  
HETATM    2  C   UNL     1     -10.803  13.148  64.311  1.00  0.00    -0.406 C  
ENDROOT
BRANCH   2   3
HETATM    3  N   UNL     1     -11.271  14.140  65.404  1.00  0.00    -0.315 N  
HETATM    4  C   UNL     1     -11.025  15.578  64.961  1.00  0.00    -0.440 C  
HETATM    5  C   UNL     1     -12.750  13.948  65.698  1.00  0.00    -0.495 C  
BRANCH   3   6
HETATM    6  C   UNL     1     -10.400  13.825  66.666  1.00  0.00    -0.279 C  
BRANCH   6   7
HETATM    7  C   UNL     1     -11.041  13.160  67.866  1.00  0.00    -0.288 A  
HETATM    8  C   UNL     1     -11.061  11.752  67.948  1.00  0.00    -0.302 A  
HETATM    9  C   UNL     1     -11.599  11.090  69.056  1.00  0.00    -0.392 A  
HETATM   10  C   UNL     1     -12.082  11.818  70.134  1.00  0.00    -0.398 A  
HETATM   11  C   UNL     1     -12.043  13.210  70.096  1.00  0.00    -0.392 A  
HETATM   12  C   UNL     1     -11.538  13.877  68.971  1.00  0.00    -0.310 A  
HETATM   13 BR   UNL     1     -11.548  15.777  69.048  1.00  0.00    -0.403 Br 
ENDBRANCH   6   7
ENDBRANCH   3   6
ENDBRANCH   2   3
TORSDOF 3
ENDMDL
MODEL        2
REMARK 921   NORMALIZED FREE ENERGY PREDICTED BY IDOCK:   -4.14 KCAL/MOL
REMARK 922        TOTAL FREE ENERGY PREDICTED BY IDOCK:   -5.07 KCAL/MOL
REMARK 923 INTER-LIGAND FREE ENERGY PREDICTED BY IDOCK:   -4.93 KCAL/MOL
REMARK 924 INTRA-LIGAND FREE ENERGY PREDICTED BY IDOCK:   -0.15 KCAL/MOL
REMARK 927      BINDING AFFINITY PREDICTED BY RF-SCORE:    0.00 PKD
ROOT
HETATM    1  C   UNL     1     -11.954  12.436  63.665  1.00  0.00    -0.626 C  
HETATM    2  C   UNL     1     -10.820  13.208  64.319  1.00  0.00    -0.406 C  
ENDROOT
BRANCH   2   3
HETATM    3  N   UNL     1     -11.270  14.301  65.318  1.00  0.00    -0.323 N  
HETATM    4  C   UNL     1     -11.064  15.689  64.721  1.00  0.00    -0.412 C  
HETATM    5  C   UNL     1     -12.735  14.119  65.680  1.00  0.00    -0.441 C  
BRANCH   3   6
HETATM    6  C   UNL     1     -10.353  14.131  66.576  1.00  0.00    -0.284 C  
BRANCH   6   7
HETATM    7  C   UNL     1     -10.965  14.211  67.959  1.00  0.00    -0.269 A  
HETATM    8  C   UNL     1     -11.182  15.475  68.546  1.00  0.00    -0.334 A  
HETATM    9  C   UNL     1     -11.786  15.606  69.800  1.00  0.00    -0.376 A  
HETATM   10  C   UNL     1     -12.238  14.481  70.476  1.00  0.00    -0.399 A  
HETATM   11  C   UNL     1     -12.069  13.222  69.904  1.00  0.00    -0.377 A  
HETATM   12  C   UNL     1     -11.430  13.084  68.664  1.00  0.00    -0.307 A  
HETATM   13 BR   UNL     1     -11.260  11.311  68.001  1.00  0.00    -0.375 Br 
ENDBRANCH   6   7
ENDBRANCH   3   6
ENDBRANCH   2   3
TORSDOF 3
ENDMDL
MODEL        3
REMARK 921   NORMALIZED FREE ENERGY PREDICTED BY IDOCK:   -4.12 KCAL/MOL
REMARK 922        TOTAL FREE ENERGY PREDICTED BY IDOCK:   -5.05 KCAL/MOL
REMARK 923 INTER-LIGAND FREE ENERGY PREDICTED BY IDOCK:   -4.88 KCAL/MOL
REMARK 924 INTRA-LIGAND FREE ENERGY PREDICTED BY IDOCK:   -0.17 KCAL/MOL
REMARK 927      BINDING AFFINITY PREDICTED BY RF-SCORE:    0.00 PKD
ROOT
HETATM    1  C   UNL     1      -9.652  18.100  68.510  1.00  0.00    -0.349 C  
HETATM    2  C   UNL     1     -10.739  17.158  68.020  1.00  0.00    -0.372 C  
ENDROOT
BRANCH   2   3
HETATM    3  N   UNL     1     -10.538  15.674  68.412  1.00  0.00    -0.244 N  
HETATM    4  C   UNL     1      -9.810  14.921  67.303  1.00  0.00    -0.229 C  
HETATM    5  C   UNL     1      -9.740  15.568  69.701  1.00  0.00    -0.274 C  
BRANCH   3   6
HETATM    6  C   UNL     1     -11.976  15.082  68.590  1.00  0.00    -0.246 C  
BRANCH   6   7
HETATM    7  C   UNL     1     -12.434  14.637  69.963  1.00  0.00    -0.333 A  
HETATM    8  C   UNL     1     -13.020  15.577  70.834  1.00  0.00    -0.526 A  
HETATM    9  C   UNL     1     -13.501  15.209  72.094  1.00  0.00    -0.525 A  
HETATM   10  C   UNL     1     -13.458  13.880  72.494  1.00  0.00    -0.676 A  
HETATM   11  C   UNL     1     -12.917  12.923  71.639  1.00  0.00    -0.410 A  
HETATM   12  C   UNL     1     -12.399  13.296  70.390  1.00  0.00    -0.295 A  
HETATM   13 BR   UNL     1     -11.686  11.891  69.326  1.00  0.00    -0.403 Br 
ENDBRANCH   6   7
ENDBRANCH   3   6
ENDBRANCH   2   3
TORSDOF 3
ENDMDL
MODEL        4
REMARK 921   NORMALIZED FREE ENERGY PREDICTED BY IDOCK:   -4.07 KCAL/MOL
REMARK 922        TOTAL FREE ENERGY PREDICTED BY IDOCK:   -4.99 KCAL/MOL
REMARK 923 INTER-LIGAND FREE ENERGY PREDICTED BY IDOCK:   -4.91 KCAL/MOL
REMARK 924 INTRA-LIGAND FREE ENERGY PREDICTED BY IDOCK:   -0.08 KCAL/MOL
REMARK 927      BINDING AFFINITY PREDICTED BY RF-SCORE:    0.00 PKD
ROOT
HETATM    1  C   UNL     1      -9.407  16.025  66.213  1.00  0.00    -0.356 C  
HETATM    2  C   UNL     1     -10.497  16.056  67.272  1.00  0.00    -0.308 C  
ENDROOT
BRANCH   2   3
HETATM    3  N   UNL     1     -10.431  14.905  68.305  1.00  0.00    -0.235 N  
HETATM    4  C   UNL     1      -9.602  13.746  67.762  1.00  0.00    -0.219 C  
HETATM    5  C   UNL     1      -9.822  15.394  69.608  1.00  0.00    -0.258 C  
BRANCH   3   6
HETATM    6  C   UNL     1     -11.910  14.436  68.515  1.00  0.00    -0.334 C  
BRANCH   6   7
HETATM    7  C   UNL     1     -12.441  14.256  69.922  1.00  0.00    -0.315 A  
HETATM    8  C   UNL     1     -13.028  15.354  70.585  1.00  0.00    -0.450 A  
HETATM    9  C   UNL     1     -13.575  15.229  71.865  1.00  0.00    -0.575 A  
HETATM   10  C   UNL     1     -13.598  13.992  72.494  1.00  0.00    -0.670 A  
HETATM   11  C   UNL     1     -13.057  12.882  71.849  1.00  0.00    -0.474 A  
HETATM   12  C   UNL     1     -12.475  13.012  70.580  1.00  0.00    -0.268 A  
HETATM   13 BR   UNL     1     -11.770  11.421  69.815  1.00  0.00    -0.446 Br 
ENDBRANCH   6   7
ENDBRANCH   3   6
ENDBRANCH   2   3
TORSDOF 3
ENDMDL
MODEL        5
REMARK 921   NORMALIZED FREE ENERGY PREDICTED BY IDOCK:   -4.06 KCAL/MOL
REMARK 922        TOTAL FREE ENERGY PREDICTED BY IDOCK:   -4.98 KCAL/MOL
REMARK 923 INTER-LIGAND FREE ENERGY PREDICTED BY IDOCK:   -4.73 KCAL/MOL
REMARK 924 INTRA-LIGAND FREE ENERGY PREDICTED BY IDOCK:   -0.25 KCAL/MOL
REMARK 927      BINDING AFFINITY PREDICTED BY RF-SCORE:    0.00 PKD
ROOT
HETATM    1  C   UNL     1     -10.375  16.514  65.937  1.00  0.00    -0.365 C  
HETATM    2  C   UNL     1     -10.982  15.581  64.902  1.00  0.00    -0.436 C  
ENDROOT
BRANCH   2   3
HETATM    3  N   UNL     1     -11.337  14.170  65.431  1.00  0.00    -0.313 N  
HETATM    4  C   UNL     1     -12.836  14.058  65.690  1.00  0.00    -0.406 C  
HETATM    5  C   UNL     1     -10.917  13.105  64.432  1.00  0.00    -0.390 C  
BRANCH   3   6
HETATM    6  C   UNL     1     -10.560  14.014  66.782  1.00  0.00    -0.277 C  
BRANCH   6   7
HETATM    7  C   UNL     1     -11.171  13.201  67.903  1.00  0.00    -0.300 A  
HETATM    8  C   UNL     1     -11.162  11.793  67.821  1.00  0.00    -0.331 A  
HETATM    9  C   UNL     1     -11.672  10.995  68.849  1.00  0.00    -0.400 A  
HETATM   10  C   UNL     1     -12.154  11.583  70.011  1.00  0.00    -0.408 A  
HETATM   11  C   UNL     1     -12.143  12.970  70.135  1.00  0.00    -0.377 A  
HETATM   12  C   UNL     1     -11.667  13.774  69.090  1.00  0.00    -0.334 A  
HETATM   13 BR   UNL     1     -11.713  15.651  69.388  1.00  0.00    -0.394 Br 
ENDBRANCH   6   7
ENDBRANCH   3   6
ENDBRANCH   2   3
TORSDOF 3
ENDMDL
MODEL        6
REMARK 921   NORMALIZED FREE ENERGY PREDICTED BY IDOCK:   -4.05 KCAL/MOL
REMARK 922        TOTAL FREE ENERGY PREDICTED BY IDOCK:   -4.96 KCAL/MOL
REMARK 923 INTER-LIGAND FREE ENERGY PREDICTED BY IDOCK:   -4.70 KCAL/MOL
REMARK 924 INTRA-LIGAND FREE ENERGY PREDICTED BY IDOCK:   -0.26 KCAL/MOL
REMARK 927      BINDING AFFINITY PREDICTED BY RF-SCORE:    0.00 PKD
ROOT
HETATM    1  C   UNL     1     -10.984  15.411  64.917  1.00  0.00    -0.453 C  
HETATM    2  C   UNL     1     -10.228  16.234  65.948  1.00  0.00    -0.364 C  
ENDROOT
BRANCH   2   3
HETATM    3  N   UNL     1     -10.347  15.720  67.403  1.00  0.00    -0.276 N  
HETATM    4  C   UNL     1      -9.148  14.848  67.762  1.00  0.00    -0.185 C  
HETATM    5  C   UNL     1     -10.433  16.885  68.374  1.00  0.00    -0.355 C  
BRANCH   3   6
HETATM    6  C   UNL     1     -11.653  14.855  67.443  1.00  0.00    -0.332 C  
BRANCH   6   7
HETATM    7  C   UNL     1     -11.806  13.787  68.506  1.00  0.00    -0.406 A  
HETATM    8  C   UNL     1     -12.191  14.160  69.810  1.00  0.00    -0.397 A  
HETATM    9  C   UNL     1     -12.392  13.210  70.815  1.00  0.00    -0.404 A  
HETATM   10  C   UNL     1     -12.266  11.857  70.528  1.00  0.00    -0.426 A  
HETATM   11  C   UNL     1     -11.920  11.457  69.239  1.00  0.00    -0.400 A  
HETATM   12  C   UNL     1     -11.682  12.411  68.239  1.00  0.00    -0.345 A  
HETATM   13 BR   UNL     1     -11.214  11.729  66.527  1.00  0.00    -0.358 Br 
ENDBRANCH   6   7
ENDBRANCH   3   6
ENDBRANCH   2   3
TORSDOF 3
ENDMDL
MODEL        7
REMARK 921   NORMALIZED FREE ENERGY PREDICTED BY IDOCK:   -4.03 KCAL/MOL
REMARK 922        TOTAL FREE ENERGY PREDICTED BY IDOCK:   -4.95 KCAL/MOL
REMARK 923 INTER-LIGAND FREE ENERGY PREDICTED BY IDOCK:   -4.77 KCAL/MOL
REMARK 924 INTRA-LIGAND FREE ENERGY PREDICTED BY IDOCK:   -0.18 KCAL/MOL
REMARK 927      BINDING AFFINITY PREDICTED BY RF-SCORE:    0.00 PKD
ROOT
HETATM    1  C   UNL     1     -11.550  11.937  63.871  1.00  0.00    -0.515 C  
HETATM    2  C   UNL     1     -10.633  13.077  64.283  1.00  0.00    -0.412 C  
ENDROOT
BRANCH   2   3
HETATM    3  N   UNL     1     -11.218  14.021  65.362  1.00  0.00    -0.311 N  
HETATM    4  C   UNL     1     -11.185  15.468  64.882  1.00  0.00    -0.389 C  
HETATM    5  C   UNL     1     -12.649  13.631  65.692  1.00  0.00    -0.484 C  
BRANCH   3   6
HETATM    6  C   UNL     1     -10.288  13.864  66.613  1.00  0.00    -0.278 C  
BRANCH   6   7
HETATM    7  C   UNL     1     -10.908  13.660  67.980  1.00  0.00    -0.261 A  
HETATM    8  C   UNL     1     -11.291  14.784  68.740  1.00  0.00    -0.301 A  
HETATM    9  C   UNL     1     -11.910  14.650  69.986  1.00  0.00    -0.363 A  
HETATM   10  C   UNL     1     -12.210  13.389  70.481  1.00  0.00    -0.425 A  
HETATM   11  C   UNL     1     -11.876  12.260  69.736  1.00  0.00    -0.388 A  
HETATM   12  C   UNL     1     -11.222  12.391  68.503  1.00  0.00    -0.279 A  
HETATM   13 BR   UNL     1     -10.818  10.771  67.593  1.00  0.00    -0.358 Br 
ENDBRANCH   6   7
ENDBRANCH   3   6
ENDBRANCH   2   3
TORSDOF 3
ENDMDL
MODEL        8
REMARK 921   NORMALIZED FREE ENERGY PREDICTED BY IDOCK:   -4.03 KCAL/MOL
REMARK 922        TOTAL FREE ENERGY PREDICTED BY IDOCK:   -4.94 KCAL/MOL
REMARK 923 INTER-LIGAND FREE ENERGY PREDICTED BY IDOCK:   -4.76 KCAL/MOL
REMARK 924 INTRA-LIGAND FREE ENERGY PREDICTED BY IDOCK:   -0.17 KCAL/MOL
REMARK 927      BINDING AFFINITY PREDICTED BY RF-SCORE:    0.00 PKD
ROOT
HETATM    1  C   UNL     1     -10.576  19.500  67.141  1.00  0.00    -0.605 C  
HETATM    2  C   UNL     1     -10.227  18.279  66.307  1.00  0.00    -0.401 C  
ENDROOT
BRANCH   2   3
HETATM    3  N   UNL     1      -9.732  17.058  67.120  1.00  0.00    -0.252 N  
HETATM    4  C   UNL     1      -8.470  17.411  67.900  1.00  0.00    -0.228 C  
HETATM    5  C   UNL     1     -10.808  16.591  68.086  1.00  0.00    -0.345 C  
BRANCH   3   6
HETATM    6  C   UNL     1      -9.401  15.949  66.065  1.00  0.00    -0.349 C  
BRANCH   6   7
HETATM    7  C   UNL     1     -10.449  14.910  65.724  1.00  0.00    -0.345 A  
HETATM    8  C   UNL     1     -11.395  15.188  64.716  1.00  0.00    -0.399 A  
HETATM    9  C   UNL     1     -12.354  14.246  64.331  1.00  0.00    -0.417 A  
HETATM   10  C   UNL     1     -12.357  12.982  64.905  1.00  0.00    -0.512 A  
HETATM   11  C   UNL     1     -11.411  12.668  65.879  1.00  0.00    -0.407 A  
HETATM   12  C   UNL     1     -10.473  13.623  66.293  1.00  0.00    -0.291 A  
HETATM   13 BR   UNL     1      -9.244  13.064  67.632  1.00  0.00    -0.210 Br 
ENDBRANCH   6   7
ENDBRANCH   3   6
ENDBRANCH   2   3
TORSDOF 3
ENDMDL
MODEL        9
REMARK 921   NORMALIZED FREE ENERGY PREDICTED BY IDOCK:   -4.01 KCAL/MOL
REMARK 922        TOTAL FREE ENERGY PREDICTED BY IDOCK:   -4.92 KCAL/MOL
REMARK 923 INTER-LIGAND FREE ENERGY PREDICTED BY IDOCK:   -4.68 KCAL/MOL
REMARK 924 INTRA-LIGAND FREE ENERGY PREDICTED BY IDOCK:   -0.24 KCAL/MOL
REMARK 927      BINDING AFFINITY PREDICTED BY RF-SCORE:    0.00 PKD
ROOT
HETATM    1  C   UNL     1     -12.318  14.672  64.331  1.00  0.00    -0.420 C  
HETATM    2  C   UNL     1     -11.251  15.101  65.324  1.00  0.00    -0.358 C  
ENDROOT
BRANCH   2   3
HETATM    3  N   UNL     1     -11.059  14.142  66.524  1.00  0.00    -0.312 N  
HETATM    4  C   UNL     1      -9.579  13.858  66.751  1.00  0.00    -0.283 C  
HETATM    5  C   UNL     1     -11.657  14.743  67.786  1.00  0.00    -0.357 C  
BRANCH   3   6
HETATM    6  C   UNL     1     -11.792  12.816  66.130  1.00  0.00    -0.425 C  
BRANCH   6   7
HETATM    7  C   UNL     1     -11.062  11.495  66.260  1.00  0.00    -0.321 A  
HETATM    8  C   UNL     1     -11.153  10.770  67.466  1.00  0.00    -0.374 A  
HETATM    9  C   UNL     1     -10.536   9.525  67.621  1.00  0.00    -0.329 A  
HETATM   10  C   UNL     1      -9.858   8.947  66.556  1.00  0.00    -0.344 A  
HETATM   11  C   UNL     1      -9.782   9.625  65.341  1.00  0.00    -0.365 A  
HETATM   12  C   UNL     1     -10.368  10.890  65.194  1.00  0.00    -0.278 A  
HETATM   13 BR   UNL     1     -10.185  11.705  63.487  1.00  0.00    -0.512 Br 
ENDBRANCH   6   7
ENDBRANCH   3   6
ENDBRANCH   2   3
TORSDOF 3
ENDMDL
MODEL       10
REMARK 921   NORMALIZED FREE ENERGY PREDICTED BY IDOCK:   -3.97 KCAL/MOL
REMARK 922        TOTAL FREE ENERGY PREDICTED BY IDOCK:   -4.88 KCAL/MOL
REMARK 923 INTER-LIGAND FREE ENERGY PREDICTED BY IDOCK:   -4.79 KCAL/MOL
REMARK 924 INTRA-LIGAND FREE ENERGY PREDICTED BY IDOCK:   -0.09 KCAL/MOL
REMARK 927      BINDING AFFINITY PREDICTED BY RF-SCORE:    0.00 PKD
ROOT
HETATM    1  C   UNL     1     -11.302  12.659  63.768  1.00  0.00    -0.529 C  
HETATM    2  C   UNL     1     -10.728  13.733  64.677  1.00  0.00    -0.414 C  
ENDROOT
BRANCH   2   3
HETATM    3  N   UNL     1     -10.807  13.413  66.189  1.00  0.00    -0.280 N  
HETATM    4  C   UNL     1     -11.340  12.001  66.410  1.00  0.00    -0.354 C  
HETATM    5  C   UNL     1      -9.437  13.541  66.833  1.00  0.00    -0.258 C  
BRANCH   3   6
HETATM    6  C   UNL     1     -11.813  14.452  66.792  1.00  0.00    -0.410 C  
BRANCH   6   7
HETATM    7  C   UNL     1     -11.685  14.853  68.247  1.00  0.00    -0.342 A  
HETATM    8  C   UNL     1     -12.107  13.956  69.250  1.00  0.00    -0.383 A  
HETATM    9  C   UNL     1     -11.969  14.258  70.608  1.00  0.00    -0.392 A  
HETATM   10  C   UNL     1     -11.356  15.441  70.999  1.00  0.00    -0.411 A  
HETATM   11  C   UNL     1     -10.897  16.330  70.029  1.00  0.00    -0.329 A  
HETATM   12  C   UNL     1     -11.068  16.046  68.667  1.00  0.00    -0.349 A  
HETATM   13 BR   UNL     1     -10.401  17.346  67.450  1.00  0.00    -0.337 Br 
ENDBRANCH   6   7
ENDBRANCH   3   6
ENDBRANCH   2   3
TORSDOF 3
ENDMDL
MODEL       11
REMARK 921   NORMALIZED FREE ENERGY PREDICTED BY IDOCK:   -3.94 KCAL/MOL
REMARK 922        TOTAL FREE ENERGY PREDICTED BY IDOCK:   -4.83 KCAL/MOL
REMARK 923 INTER-LIGAND FREE ENERGY PREDICTED BY IDOCK:   -4.68 KCAL/MOL
REMARK 924 INTRA-LIGAND FREE ENERGY PREDICTED BY IDOCK:   -0.16 KCAL/MOL
REMARK 927      BINDING AFFINITY PREDICTED BY RF-SCORE:    0.00 PKD
ROOT
HETATM    1  C   UNL     1     -11.147  12.376  63.501  1.00  0.00    -0.521 C  
HETATM    2  C   UNL     1     -10.978  12.341  65.011  1.00  0.00    -0.302 C  
ENDROOT
BRANCH   2   3
HETATM    3  N   UNL     1     -11.204  13.698  65.721  1.00  0.00    -0.294 N  
HETATM    4  C   UNL     1     -10.632  14.839  64.886  1.00  0.00    -0.406 C  
HETATM    5  C   UNL     1     -12.686  13.937  65.955  1.00  0.00    -0.421 C  
BRANCH   3   6
HETATM    6  C   UNL     1     -10.427  13.603  67.078  1.00  0.00    -0.270 C  
BRANCH   6   7
HETATM    7  C   UNL     1     -11.195  13.677  68.381  1.00  0.00    -0.306 A  
HETATM    8  C   UNL     1     -11.597  12.483  69.015  1.00  0.00    -0.365 A  
HETATM    9  C   UNL     1     -12.267  12.494  70.242  1.00  0.00    -0.345 A  
HETATM   10  C   UNL     1     -12.504  13.697  70.894  1.00  0.00    -0.448 A  
HETATM   11  C   UNL     1     -12.086  14.890  70.308  1.00  0.00    -0.379 A  
HETATM   12  C   UNL     1     -11.447  14.884  69.060  1.00  0.00    -0.301 A  
HETATM   13 BR   UNL     1     -10.933  16.581  68.374  1.00  0.00    -0.319 Br 
ENDBRANCH   6   7
ENDBRANCH   3   6
ENDBRANCH   2   3
TORSDOF 3
ENDMDL
MODEL       12
REMARK 921   NORMALIZED FREE ENERGY PREDICTED BY IDOCK:   -3.93 KCAL/MOL
REMARK 922        TOTAL FREE ENERGY PREDICTED BY IDOCK:   -4.82 KCAL/MOL
REMARK 923 INTER-LIGAND FREE ENERGY PREDICTED BY IDOCK:   -4.63 KCAL/MOL
REMARK 924 INTRA-LIGAND FREE ENERGY PREDICTED BY IDOCK:   -0.19 KCAL/MOL
REMARK 927      BINDING AFFINITY PREDICTED BY RF-SCORE:    0.00 PKD
ROOT
HETATM    1  C   UNL     1     -10.050  17.601  68.576  1.00  0.00    -0.375 C  
HETATM    2  C   UNL     1     -10.522  16.788  67.381  1.00  0.00    -0.310 C  
ENDROOT
BRANCH   2   3
HETATM    3  N   UNL     1     -10.335  15.258  67.524  1.00  0.00    -0.241 N  
HETATM    4  C   UNL     1      -9.767  14.666  66.239  1.00  0.00    -0.307 C  
HETATM    5  C   UNL     1      -9.401  14.941  68.681  1.00  0.00    -0.194 C  
BRANCH   3   6
HETATM    6  C   UNL     1     -11.766  14.676  67.780  1.00  0.00    -0.359 C  
BRANCH   6   7
HETATM    7  C   UNL     1     -11.937  13.511  68.732  1.00  0.00    -0.374 A  
HETATM    8  C   UNL     1     -11.634  12.207  68.288  1.00  0.00    -0.382 A  
HETATM    9  C   UNL     1     -11.730  11.102  69.140  1.00  0.00    -0.408 A  
HETATM   10  C   UNL     1     -12.078  11.280  70.472  1.00  0.00    -0.481 A  
HETATM   11  C   UNL     1     -12.348  12.561  70.947  1.00  0.00    -0.349 A  
HETATM   12  C   UNL     1     -12.289  13.666  70.086  1.00  0.00    -0.304 A  
HETATM   13 BR   UNL     1     -12.684  15.355  70.862  1.00  0.00    -0.544 Br 
ENDBRANCH   6   7
ENDBRANCH   3   6
ENDBRANCH   2   3
TORSDOF 3
ENDMDL
MODEL       13
REMARK 921   NORMALIZED FREE ENERGY PREDICTED BY IDOCK:   -3.92 KCAL/MOL
REMARK 922        TOTAL FREE ENERGY PREDICTED BY IDOCK:   -4.81 KCAL/MOL
REMARK 923 INTER-LIGAND FREE ENERGY PREDICTED BY IDOCK:   -4.53 KCAL/MOL
REMARK 924 INTRA-LIGAND FREE ENERGY PREDICTED BY IDOCK:   -0.29 KCAL/MOL
REMARK 927      BINDING AFFINITY PREDICTED BY RF-SCORE:    0.00 PKD
ROOT
HETATM    1  C   UNL     1     -11.748  14.800  68.891  1.00  0.00    -0.340 C  
HETATM    2  C   UNL     1     -11.704  14.804  67.372  1.00  0.00    -0.350 C  
ENDROOT
BRANCH   2   3
HETATM    3  N   UNL     1     -10.307  15.079  66.764  1.00  0.00    -0.265 N  
HETATM    4  C   UNL     1      -9.513  13.784  66.640  1.00  0.00    -0.279 C  
HETATM    5  C   UNL     1     -10.439  15.724  65.395  1.00  0.00    -0.414 C  
BRANCH   3   6
HETATM    6  C   UNL     1      -9.587  16.039  67.771  1.00  0.00    -0.219 C  
BRANCH   6   7
HETATM    7  C   UNL     1      -9.554  17.526  67.488  1.00  0.00    -0.265 A  
HETATM    8  C   UNL     1     -10.659  18.324  67.850  1.00  0.00    -0.392 A  
HETATM    9  C   UNL     1     -10.659  19.708  67.653  1.00  0.00    -0.556 A  
HETATM   10  C   UNL     1      -9.534  20.338  67.139  1.00  0.00    -0.557 A  
HETATM   11  C   UNL     1      -8.414  19.579  66.805  1.00  0.00    -0.337 A  
HETATM   12  C   UNL     1      -8.425  18.187  66.967  1.00  0.00    -0.245 A  
HETATM   13 BR   UNL     1      -6.834  17.273  66.468  1.00  0.00    -0.308 Br 
ENDBRANCH   6   7
ENDBRANCH   3   6
ENDBRANCH   2   3
TORSDOF 3
ENDMDL
MODEL       14
REMARK 921   NORMALIZED FREE ENERGY PREDICTED BY IDOCK:   -3.91 KCAL/MOL
REMARK 922        TOTAL FREE ENERGY PREDICTED BY IDOCK:   -4.80 KCAL/MOL
REMARK 923 INTER-LIGAND FREE ENERGY PREDICTED BY IDOCK:   -4.77 KCAL/MOL
REMARK 924 INTRA-LIGAND FREE ENERGY PREDICTED BY IDOCK:   -0.03 KCAL/MOL
REMARK 927      BINDING AFFINITY PREDICTED BY RF-SCORE:    0.00 PKD
ROOT
HETATM    1  C   UNL     1     -12.433  14.283  64.620  1.00  0.00    -0.371 C  
HETATM    2  C   UNL     1     -11.320  15.301  64.802  1.00  0.00    -0.391 C  
ENDROOT
BRANCH   2   3
HETATM    3  N   UNL     1     -10.423  15.066  66.041  1.00  0.00    -0.299 N  
HETATM    4  C   UNL     1     -11.225  15.251  67.325  1.00  0.00    -0.306 C  
HETATM    5  C   UNL     1      -9.831  13.667  66.013  1.00  0.00    -0.276 C  
BRANCH   3   6
HETATM    6  C   UNL     1      -9.299  16.155  65.965  1.00  0.00    -0.333 C  
BRANCH   6   7
HETATM    7  C   UNL     1      -9.507  17.489  66.651  1.00  0.00    -0.285 A  
HETATM    8  C   UNL     1     -10.397  18.425  66.086  1.00  0.00    -0.431 A  
HETATM    9  C   UNL     1     -10.660  19.651  66.704  1.00  0.00    -0.599 A  
HETATM   10  C   UNL     1     -10.082  19.951  67.930  1.00  0.00    -0.571 A  
HETATM   11  C   UNL     1      -9.225  19.030  68.529  1.00  0.00    -0.413 A  
HETATM   12  C   UNL     1      -8.930  17.815  67.893  1.00  0.00    -0.255 A  
HETATM   13 BR   UNL     1      -7.744  16.652  68.818  1.00  0.00    -0.239 Br 
ENDBRANCH   6   7
ENDBRANCH   3   6
ENDBRANCH   2   3
TORSDOF 3
ENDMDL
MODEL       15
REMARK 921   NORMALIZED FREE ENERGY PREDICTED BY IDOCK:   -3.90 KCAL/MOL
REMARK 922        TOTAL FREE ENERGY PREDICTED BY IDOCK:   -4.78 KCAL/MOL
REMARK 923 INTER-LIGAND FREE ENERGY PREDICTED BY IDOCK:   -4.59 KCAL/MOL
REMARK 924 INTRA-LIGAND FREE ENERGY PREDICTED BY IDOCK:   -0.19 KCAL/MOL
REMARK 927      BINDING AFFINITY PREDICTED BY RF-SCORE:    0.00 PKD
ROOT
HETATM    1  C   UNL     1      -9.627  13.113  67.822  1.00  0.00    -0.208 C  
HETATM    2  C   UNL     1      -9.684  13.619  66.390  1.00  0.00    -0.292 C  
ENDROOT
BRANCH   2   3
HETATM    3  N   UNL     1     -10.497  14.922  66.194  1.00  0.00    -0.294 N  
HETATM    4  C   UNL     1     -11.400  14.810  64.970  1.00  0.00    -0.391 C  
HETATM    5  C   UNL     1     -11.346  15.209  67.422  1.00  0.00    -0.306 C  
BRANCH   3   6
HETATM    6  C   UNL     1      -9.440  16.053  65.962  1.00  0.00    -0.349 C  
BRANCH   6   7
HETATM    7  C   UNL     1      -9.610  17.386  66.662  1.00  0.00    -0.283 A  
HETATM    8  C   UNL     1     -10.456  18.361  66.094  1.00  0.00    -0.422 A  
HETATM    9  C   UNL     1     -10.684  19.589  66.723  1.00  0.00    -0.569 A  
HETATM   10  C   UNL     1     -10.115  19.852  67.962  1.00  0.00    -0.572 A  
HETATM   11  C   UNL     1      -9.304  18.892  68.563  1.00  0.00    -0.412 A  
HETATM   12  C   UNL     1      -9.043  17.675  67.918  1.00  0.00    -0.260 A  
HETATM   13 BR   UNL     1      -7.917  16.458  68.847  1.00  0.00    -0.232 Br 
ENDBRANCH   6   7
ENDBRANCH   3   6
ENDBRANCH   2   3
TORSDOF 3
ENDMDL
MODEL       16
REMARK 921   NORMALIZED FREE ENERGY PREDICTED BY IDOCK:   -3.90 KCAL/MOL
REMARK 922        TOTAL FREE ENERGY PREDICTED BY IDOCK:   -4.78 KCAL/MOL
REMARK 923 INTER-LIGAND FREE ENERGY PREDICTED BY IDOCK:   -4.60 KCAL/MOL
REMARK 924 INTRA-LIGAND FREE ENERGY PREDICTED BY IDOCK:   -0.18 KCAL/MOL
REMARK 927      BINDING AFFINITY PREDICTED BY RF-SCORE:    0.00 PKD
ROOT
HETATM    1  C   UNL     1     -11.128   6.155  69.407  1.00  0.00    -0.479 C  
HETATM    2  C   UNL     1     -11.721   6.361  70.792  1.00  0.00    -0.312 C  
ENDROOT
BRANCH   2   3
HETATM    3  N   UNL     1     -10.709   6.234  71.956  1.00  0.00    -0.220 N  
HETATM    4  C   UNL     1     -11.217   5.248  73.002  1.00  0.00    -0.324 C  
HETATM    5  C   UNL     1      -9.358   5.770  71.439  1.00  0.00    -0.146 C  
BRANCH   3   6
HETATM    6  C   UNL     1     -10.609   7.663  72.590  1.00  0.00    -0.299 C  
BRANCH   6   7
HETATM    7  C   UNL     1     -11.371   8.811  71.961  1.00  0.00    -0.441 A  
HETATM    8  C   UNL     1     -12.653   9.140  72.449  1.00  0.00    -0.381 A  
HETATM    9  C   UNL     1     -13.378  10.219  71.935  1.00  0.00    -0.487 A  
HETATM   10  C   UNL     1     -12.819  11.030  70.957  1.00  0.00    -0.442 A  
HETATM   11  C   UNL     1     -11.540  10.751  70.481  1.00  0.00    -0.425 A  
HETATM   12  C   UNL     1     -10.825   9.647  70.968  1.00  0.00    -0.342 A  
HETATM   13 BR   UNL     1      -9.094   9.377  70.230  1.00  0.00    -0.300 Br 
ENDBRANCH   6   7
ENDBRANCH   3   6
ENDBRANCH   2   3
TORSDOF 3
ENDMDL
MODEL       17
REMARK 921   NORMALIZED FREE ENERGY PREDICTED BY IDOCK:   -3.89 KCAL/MOL
REMARK 922        TOTAL FREE ENERGY PREDICTED BY IDOCK:   -4.78 KCAL/MOL
REMARK 923 INTER-LIGAND FREE ENERGY PREDICTED BY IDOCK:   -4.67 KCAL/MOL
REMARK 924 INTRA-LIGAND FREE ENERGY PREDICTED BY IDOCK:   -0.11 KCAL/MOL
REMARK 927      BINDING AFFINITY PREDICTED BY RF-SCORE:    0.00 PKD
ROOT
HETATM    1  C   UNL     1     -11.464  12.150  63.779  1.00  0.00    -0.548 C  
HETATM    2  C   UNL     1     -10.580  12.882  64.774  1.00  0.00    -0.342 C  
ENDROOT
BRANCH   2   3
HETATM    3  N   UNL     1     -10.421  12.177  66.143  1.00  0.00    -0.242 N  
HETATM    4  C   UNL     1     -10.247  10.674  65.952  1.00  0.00    -0.251 C  
HETATM    5  C   UNL     1      -9.222  12.733  66.892  1.00  0.00    -0.229 C  
BRANCH   3   6
HETATM    6  C   UNL     1     -11.751  12.455  66.922  1.00  0.00    -0.362 C  
BRANCH   6   7
HETATM    7  C   UNL     1     -11.758  13.474  68.042  1.00  0.00    -0.394 A  
HETATM    8  C   UNL     1     -11.725  14.848  67.727  1.00  0.00    -0.340 A  
HETATM    9  C   UNL     1     -11.777  15.829  68.721  1.00  0.00    -0.387 A  
HETATM   10  C   UNL     1     -11.917  15.464  70.052  1.00  0.00    -0.383 A  
HETATM   11  C   UNL     1     -11.988  14.114  70.391  1.00  0.00    -0.400 A  
HETATM   12  C   UNL     1     -11.899  13.127  69.399  1.00  0.00    -0.326 A  
HETATM   13 BR   UNL     1     -12.004  11.326  69.998  1.00  0.00    -0.466 Br 
ENDBRANCH   6   7
ENDBRANCH   3   6
ENDBRANCH   2   3
TORSDOF 3
ENDMDL
MODEL       18
REMARK 921   NORMALIZED FREE ENERGY PREDICTED BY IDOCK:   -3.87 KCAL/MOL
REMARK 922        TOTAL FREE ENERGY PREDICTED BY IDOCK:   -4.75 KCAL/MOL
REMARK 923 INTER-LIGAND FREE ENERGY PREDICTED BY IDOCK:   -4.52 KCAL/MOL
REMARK 924 INTRA-LIGAND FREE ENERGY PREDICTED BY IDOCK:   -0.23 KCAL/MOL
REMARK 927      BINDING AFFINITY PREDICTED BY RF-SCORE:    0.00 PKD
ROOT
HETATM    1  C   UNL     1     -11.583  11.768  63.678  1.00  0.00    -0.521 C  
HETATM    2  C   UNL     1     -10.534  11.062  64.522  1.00  0.00    -0.342 C  
ENDROOT
BRANCH   2   3
HETATM    3  N   UNL     1     -10.528  11.463  66.017  1.00  0.00    -0.248 N  
HETATM    4  C   UNL     1     -10.758  10.240  66.900  1.00  0.00    -0.184 C  
HETATM    5  C   UNL     1      -9.205  12.112  66.389  1.00  0.00    -0.207 C  
BRANCH   3   6
HETATM    6  C   UNL     1     -11.717  12.466  66.194  1.00  0.00    -0.400 C  
BRANCH   6   7
HETATM    7  C   UNL     1     -11.618  13.561  67.236  1.00  0.00    -0.398 A  
HETATM    8  C   UNL     1     -11.854  13.249  68.590  1.00  0.00    -0.380 A  
HETATM    9  C   UNL     1     -11.730  14.212  69.596  1.00  0.00    -0.372 A  
HETATM   10  C   UNL     1     -11.315  15.498  69.280  1.00  0.00    -0.330 A  
HETATM   11  C   UNL     1     -11.042  15.826  67.954  1.00  0.00    -0.326 A  
HETATM   12  C   UNL     1     -11.201  14.872  66.939  1.00  0.00    -0.343 A  
HETATM   13 BR   UNL     1     -10.798  15.453  65.174  1.00  0.00    -0.464 Br 
ENDBRANCH   6   7
ENDBRANCH   3   6
ENDBRANCH   2   3
TORSDOF 3
ENDMDL
MODEL       19
REMARK 921   NORMALIZED FREE ENERGY PREDICTED BY IDOCK:   -3.86 KCAL/MOL
REMARK 922        TOTAL FREE ENERGY PREDICTED BY IDOCK:   -4.75 KCAL/MOL
REMARK 923 INTER-LIGAND FREE ENERGY PREDICTED BY IDOCK:   -4.47 KCAL/MOL
REMARK 924 INTRA-LIGAND FREE ENERGY PREDICTED BY IDOCK:   -0.27 KCAL/MOL
REMARK 927      BINDING AFFINITY PREDICTED BY RF-SCORE:    0.00 PKD
ROOT
HETATM    1  C   UNL     1     -11.616  12.360  63.727  1.00  0.00    -0.553 C  
HETATM    2  C   UNL     1     -10.714  13.385  64.394  1.00  0.00    -0.408 C  
ENDROOT
BRANCH   2   3
HETATM    3  N   UNL     1     -10.823  13.438  65.937  1.00  0.00    -0.273 N  
HETATM    4  C   UNL     1      -9.444  13.307  66.576  1.00  0.00    -0.245 C  
HETATM    5  C   UNL     1     -11.463  14.743  66.382  1.00  0.00    -0.319 C  
BRANCH   3   6
HETATM    6  C   UNL     1     -11.706  12.210  66.344  1.00  0.00    -0.324 C  
BRANCH   6   7
HETATM    7  C   UNL     1     -11.398  11.463  67.624  1.00  0.00    -0.359 A  
HETATM    8  C   UNL     1     -11.890  11.958  68.849  1.00  0.00    -0.366 A  
HETATM    9  C   UNL     1     -11.673  11.282  70.054  1.00  0.00    -0.428 A  
HETATM   10  C   UNL     1     -11.006  10.065  70.057  1.00  0.00    -0.352 A  
HETATM   11  C   UNL     1     -10.539   9.533  68.857  1.00  0.00    -0.239 A  
HETATM   12  C   UNL     1     -10.722  10.228  67.653  1.00  0.00    -0.288 A  
HETATM   13 BR   UNL     1     -10.033   9.392  66.091  1.00  0.00    -0.318 Br 
ENDBRANCH   6   7
ENDBRANCH   3   6
ENDBRANCH   2   3
TORSDOF 3
ENDMDL
MODEL       20
REMARK 921   NORMALIZED FREE ENERGY PREDICTED BY IDOCK:   -3.86 KCAL/MOL
REMARK 922        TOTAL FREE ENERGY PREDICTED BY IDOCK:   -4.74 KCAL/MOL
REMARK 923 INTER-LIGAND FREE ENERGY PREDICTED BY IDOCK:   -4.73 KCAL/MOL
REMARK 924 INTRA-LIGAND FREE ENERGY PREDICTED BY IDOCK:   -0.01 KCAL/MOL
REMARK 927      BINDING AFFINITY PREDICTED BY RF-SCORE:    0.00 PKD
ROOT
HETATM    1  C   UNL     1     -10.085  15.524  65.915  1.00  0.00    -0.374 C  
HETATM    2  C   UNL     1      -9.834  14.049  66.181  1.00  0.00    -0.303 C  
ENDROOT
BRANCH   2   3
HETATM    3  N   UNL     1     -10.955  13.332  66.971  1.00  0.00    -0.272 N  
HETATM    4  C   UNL     1     -12.284  14.058  66.791  1.00  0.00    -0.404 C  
HETATM    5  C   UNL     1     -11.100  11.893  66.504  1.00  0.00    -0.306 C  
BRANCH   3   6
HETATM    6  C   UNL     1     -10.524  13.396  68.475  1.00  0.00    -0.252 C  
BRANCH   6   7
HETATM    7  C   UNL     1     -11.437  12.819  69.537  1.00  0.00    -0.293 A  
HETATM    8  C   UNL     1     -11.481  11.422  69.725  1.00  0.00    -0.376 A  
HETATM    9  C   UNL     1     -12.271  10.842  70.722  1.00  0.00    -0.480 A  
HETATM   10  C   UNL     1     -12.995  11.646  71.591  1.00  0.00    -0.483 A  
HETATM   11  C   UNL     1     -12.942  13.031  71.452  1.00  0.00    -0.373 A  
HETATM   12  C   UNL     1     -12.180  13.614  70.429  1.00  0.00    -0.363 A  
HETATM   13 BR   UNL     1     -12.200  15.513  70.349  1.00  0.00    -0.451 Br 
ENDBRANCH   6   7
ENDBRANCH   3   6
ENDBRANCH   2   3
TORSDOF 3
ENDMDL
MODEL       21
REMARK 921   NORMALIZED FREE ENERGY PREDICTED BY IDOCK:   -3.82 KCAL/MOL
REMARK 922        TOTAL FREE ENERGY PREDICTED BY IDOCK:   -4.70 KCAL/MOL
REMARK 923 INTER-LIGAND FREE ENERGY PREDICTED BY IDOCK:   -4.48 KCAL/MOL
REMARK 924 INTRA-LIGAND FREE ENERGY PREDICTED BY IDOCK:   -0.22 KCAL/MOL
REMARK 927      BINDING AFFINITY PREDICTED BY RF-SCORE:    0.00 PKD
ROOT
HETATM    1  C   UNL     1     -11.360   5.196  72.993  1.00  0.00    -0.381 C  
HETATM    2  C   UNL     1     -10.292   5.070  71.918  1.00  0.00    -0.204 C  
ENDROOT
BRANCH   2   3
HETATM    3  N   UNL     1     -10.175   6.292  70.975  1.00  0.00    -0.188 N  
HETATM    4  C   UNL     1      -8.863   6.246  70.200  1.00  0.00    -0.149 C  
HETATM    5  C   UNL     1     -11.338   6.324  69.998  1.00  0.00    -0.416 C  
BRANCH   3   6
HETATM    6  C   UNL     1     -10.188   7.551  71.907  1.00  0.00    -0.188 C  
BRANCH   6   7
HETATM    7  C   UNL     1     -11.134   8.693  71.602  1.00  0.00    -0.375 A  
HETATM    8  C   UNL     1     -12.363   8.774  72.288  1.00  0.00    -0.448 A  
HETATM    9  C   UNL     1     -13.252   9.833  72.078  1.00  0.00    -0.557 A  
HETATM   10  C   UNL     1     -12.910  10.867  71.217  1.00  0.00    -0.536 A  
HETATM   11  C   UNL     1     -11.686  10.832  70.552  1.00  0.00    -0.449 A  
HETATM   12  C   UNL     1     -10.810   9.752  70.733  1.00  0.00    -0.333 A  
HETATM   13 BR   UNL     1      -9.177   9.828  69.763  1.00  0.00    -0.255 Br 
ENDBRANCH   6   7
ENDBRANCH   3   6
ENDBRANCH   2   3
TORSDOF 3
ENDMDL
MODEL       22
REMARK 921   NORMALIZED FREE ENERGY PREDICTED BY IDOCK:   -3.82 KCAL/MOL
REMARK 922        TOTAL FREE ENERGY PREDICTED BY IDOCK:   -4.70 KCAL/MOL
REMARK 923 INTER-LIGAND FREE ENERGY PREDICTED BY IDOCK:   -4.45 KCAL/MOL
REMARK 924 INTRA-LIGAND FREE ENERGY PREDICTED BY IDOCK:   -0.25 KCAL/MOL
REMARK 927      BINDING AFFINITY PREDICTED BY RF-SCORE:    0.00 PKD
ROOT
HETATM    1  C   UNL     1     -12.586  15.515  70.779  1.00  0.00    -0.505 C  
HETATM    2  C   UNL     1     -11.090  15.734  70.623  1.00  0.00    -0.354 C  
ENDROOT
BRANCH   2   3
HETATM    3  N   UNL     1     -10.586  15.746  69.160  1.00  0.00    -0.226 N  
HETATM    4  C   UNL     1     -10.454  17.178  68.651  1.00  0.00    -0.366 C  
HETATM    5  C   UNL     1      -9.240  15.048  69.055  1.00  0.00    -0.205 C  
BRANCH   3   6
HETATM    6  C   UNL     1     -11.678  14.993  68.327  1.00  0.00    -0.314 C  
BRANCH   6   7
HETATM    7  C   UNL     1     -11.429  13.564  67.894  1.00  0.00    -0.353 A  
HETATM    8  C   UNL     1     -11.651  12.515  68.810  1.00  0.00    -0.366 A  
HETATM    9  C   UNL     1     -11.481  11.176  68.447  1.00  0.00    -0.377 A  
HETATM   10  C   UNL     1     -11.138  10.848  67.143  1.00  0.00    -0.308 A  
HETATM   11  C   UNL     1     -10.947  11.861  66.206  1.00  0.00    -0.345 A  
HETATM   12  C   UNL     1     -11.080  13.207  66.577  1.00  0.00    -0.294 A  
HETATM   13 BR   UNL     1     -10.787  14.488  65.204  1.00  0.00    -0.438 Br 
ENDBRANCH   6   7
ENDBRANCH   3   6
ENDBRANCH   2   3
TORSDOF 3
ENDMDL
MODEL       23
REMARK 921   NORMALIZED FREE ENERGY PREDICTED BY IDOCK:   -3.82 KCAL/MOL
REMARK 922        TOTAL FREE ENERGY PREDICTED BY IDOCK:   -4.70 KCAL/MOL
REMARK 923 INTER-LIGAND FREE ENERGY PREDICTED BY IDOCK:   -4.47 KCAL/MOL
REMARK 924 INTRA-LIGAND FREE ENERGY PREDICTED BY IDOCK:   -0.22 KCAL/MOL
REMARK 927      BINDING AFFINITY PREDICTED BY RF-SCORE:    0.00 PKD
ROOT
HETATM    1  C   UNL     1      -7.620  16.834  68.406  1.00  0.00    -0.205 C  
HETATM    2  C   UNL     1      -8.413  17.870  67.625  1.00  0.00    -0.234 C  
ENDROOT
BRANCH   2   3
HETATM    3  N   UNL     1      -9.745  17.353  67.030  1.00  0.00    -0.266 N  
HETATM    4  C   UNL     1     -10.727  17.001  68.142  1.00  0.00    -0.374 C  
HETATM    5  C   UNL     1     -10.366  18.404  66.123  1.00  0.00    -0.407 C  
BRANCH   3   6
HETATM    6  C   UNL     1      -9.379  16.060  66.226  1.00  0.00    -0.322 C  
BRANCH   6   7
HETATM    7  C   UNL     1     -10.460  15.047  65.912  1.00  0.00    -0.341 A  
HETATM    8  C   UNL     1     -11.299  15.254  64.797  1.00  0.00    -0.396 A  
HETATM    9  C   UNL     1     -12.281  14.327  64.437  1.00  0.00    -0.471 A  
HETATM   10  C   UNL     1     -12.415  13.143  65.150  1.00  0.00    -0.539 A  
HETATM   11  C   UNL     1     -11.577  12.896  66.235  1.00  0.00    -0.424 A  
HETATM   12  C   UNL     1     -10.615  13.841  66.621  1.00  0.00    -0.274 A  
HETATM   13 BR   UNL     1      -9.542  13.379  68.120  1.00  0.00    -0.222 Br 
ENDBRANCH   6   7
ENDBRANCH   3   6
ENDBRANCH   2   3
TORSDOF 3
ENDMDL
MODEL       24
REMARK 921   NORMALIZED FREE ENERGY PREDICTED BY IDOCK:   -3.82 KCAL/MOL
REMARK 922        TOTAL FREE ENERGY PREDICTED BY IDOCK:   -4.70 KCAL/MOL
REMARK 923 INTER-LIGAND FREE ENERGY PREDICTED BY IDOCK:   -4.52 KCAL/MOL
REMARK 924 INTRA-LIGAND FREE ENERGY PREDICTED BY IDOCK:   -0.18 KCAL/MOL
REMARK 927      BINDING AFFINITY PREDICTED BY RF-SCORE:    0.00 PKD
ROOT
HETATM    1  C   UNL     1     -12.088  15.619  70.674  1.00  0.00    -0.443 C  
HETATM    2  C   UNL     1     -10.870  16.260  70.030  1.00  0.00    -0.329 C  
ENDROOT
BRANCH   2   3
HETATM    3  N   UNL     1     -10.648  15.884  68.545  1.00  0.00    -0.252 N  
HETATM    4  C   UNL     1     -10.559  17.138  67.682  1.00  0.00    -0.343 C  
HETATM    5  C   UNL     1      -9.374  15.070  68.386  1.00  0.00    -0.193 C  
BRANCH   3   6
HETATM    6  C   UNL     1     -11.906  15.049  68.126  1.00  0.00    -0.260 C  
BRANCH   6   7
HETATM    7  C   UNL     1     -11.805  14.085  66.962  1.00  0.00    -0.458 A  
HETATM    8  C   UNL     1     -11.869  14.583  65.644  1.00  0.00    -0.326 A  
HETATM    9  C   UNL     1     -11.735  13.743  64.535  1.00  0.00    -0.432 A  
HETATM   10  C   UNL     1     -11.479  12.390  64.715  1.00  0.00    -0.375 A  
HETATM   11  C   UNL     1     -11.375  11.876  66.006  1.00  0.00    -0.375 A  
HETATM   12  C   UNL     1     -11.546  12.710  67.120  1.00  0.00    -0.368 A  
HETATM   13 BR   UNL     1     -11.383  11.879  68.821  1.00  0.00    -0.364 Br 
ENDBRANCH   6   7
ENDBRANCH   3   6
ENDBRANCH   2   3
TORSDOF 3
ENDMDL
MODEL       25
REMARK 921   NORMALIZED FREE ENERGY PREDICTED BY IDOCK:   -3.80 KCAL/MOL
REMARK 922        TOTAL FREE ENERGY PREDICTED BY IDOCK:   -4.67 KCAL/MOL
REMARK 923 INTER-LIGAND FREE ENERGY PREDICTED BY IDOCK:   -4.43 KCAL/MOL
REMARK 924 INTRA-LIGAND FREE ENERGY PREDICTED BY IDOCK:   -0.24 KCAL/MOL
REMARK 927      BINDING AFFINITY PREDICTED BY RF-SCORE:    0.00 PKD
ROOT
HETATM    1  C   UNL     1     -12.191  12.399  64.157  1.00  0.00    -0.558 C  
HETATM    2  C   UNL     1     -10.919  11.962  64.865  1.00  0.00    -0.313 C  
ENDROOT
BRANCH   2   3
HETATM    3  N   UNL     1     -10.826  12.385  66.352  1.00  0.00    -0.250 N  
HETATM    4  C   UNL     1     -11.308  11.259  67.260  1.00  0.00    -0.255 C  
HETATM    5  C   UNL     1      -9.395  12.747  66.713  1.00  0.00    -0.241 C  
BRANCH   3   6
HETATM    6  C   UNL     1     -11.776  13.621  66.502  1.00  0.00    -0.382 C  
BRANCH   6   7
HETATM    7  C   UNL     1     -11.185  14.979  66.820  1.00  0.00    -0.322 A  
HETATM    8  C   UNL     1     -10.696  15.783  65.770  1.00  0.00    -0.337 A  
HETATM    9  C   UNL     1     -10.184  17.062  66.004  1.00  0.00    -0.337 A  
HETATM   10  C   UNL     1     -10.198  17.593  67.286  1.00  0.00    -0.343 A  
HETATM   11  C   UNL     1     -10.707  16.835  68.338  1.00  0.00    -0.362 A  
HETATM   12  C   UNL     1     -11.187  15.537  68.112  1.00  0.00    -0.343 A  
HETATM   13 BR   UNL     1     -11.850  14.612  69.635  1.00  0.00    -0.388 Br 
ENDBRANCH   6   7
ENDBRANCH   3   6
ENDBRANCH   2   3
TORSDOF 3
ENDMDL
MODEL       26
REMARK 921   NORMALIZED FREE ENERGY PREDICTED BY IDOCK:   -3.79 KCAL/MOL
REMARK 922        TOTAL FREE ENERGY PREDICTED BY IDOCK:   -4.66 KCAL/MOL
REMARK 923 INTER-LIGAND FREE ENERGY PREDICTED BY IDOCK:   -4.56 KCAL/MOL
REMARK 924 INTRA-LIGAND FREE ENERGY PREDICTED BY IDOCK:   -0.10 KCAL/MOL
REMARK 927      BINDING AFFINITY PREDICTED BY RF-SCORE:    0.00 PKD
ROOT
HETATM    1  C   UNL     1     -12.266  14.602  64.222  1.00  0.00    -0.432 C  
HETATM    2  C   UNL     1     -11.118  15.028  65.123  1.00  0.00    -0.401 C  
ENDROOT
BRANCH   2   3
HETATM    3  N   UNL     1     -10.972  14.199  66.422  1.00  0.00    -0.307 N  
HETATM    4  C   UNL     1      -9.511  13.836  66.664  1.00  0.00    -0.279 C  
HETATM    5  C   UNL     1     -11.502  14.979  67.614  1.00  0.00    -0.333 C  
BRANCH   3   6
HETATM    6  C   UNL     1     -11.804  12.893  66.189  1.00  0.00    -0.429 C  
BRANCH   6   7
HETATM    7  C   UNL     1     -11.104  11.550  66.215  1.00  0.00    -0.321 A  
HETATM    8  C   UNL     1     -10.401  11.115  65.072  1.00  0.00    -0.362 A  
HETATM    9  C   UNL     1      -9.700   9.906  65.059  1.00  0.00    -0.359 A  
HETATM   10  C   UNL     1      -9.637   9.126  66.206  1.00  0.00    -0.321 A  
HETATM   11  C   UNL     1     -10.292   9.548  67.360  1.00  0.00    -0.319 A  
HETATM   12  C   UNL     1     -11.027  10.742  67.365  1.00  0.00    -0.300 A  
HETATM   13 BR   UNL     1     -11.875  11.197  69.004  1.00  0.00    -0.398 Br 
ENDBRANCH   6   7
ENDBRANCH   3   6
ENDBRANCH   2   3
TORSDOF 3
ENDMDL
MODEL       27
REMARK 921   NORMALIZED FREE ENERGY PREDICTED BY IDOCK:   -3.79 KCAL/MOL
REMARK 922        TOTAL FREE ENERGY PREDICTED BY IDOCK:   -4.65 KCAL/MOL
REMARK 923 INTER-LIGAND FREE ENERGY PREDICTED BY IDOCK:   -4.44 KCAL/MOL
REMARK 924 INTRA-LIGAND FREE ENERGY PREDICTED BY IDOCK:   -0.21 KCAL/MOL
REMARK 927      BINDING AFFINITY PREDICTED BY RF-SCORE:    0.00 PKD
ROOT
HETATM    1  C   UNL     1     -10.982  15.987  69.395  1.00  0.00    -0.321 C  
HETATM    2  C   UNL     1     -10.993  16.237  67.896  1.00  0.00    -0.310 C  
ENDROOT
BRANCH   2   3
HETATM    3  N   UNL     1      -9.604  16.524  67.276  1.00  0.00    -0.239 N  
HETATM    4  C   UNL     1      -9.670  17.735  66.352  1.00  0.00    -0.308 C  
HETATM    5  C   UNL     1      -8.576  16.777  68.367  1.00  0.00    -0.235 C  
BRANCH   3   6
HETATM    6  C   UNL     1      -9.239  15.249  66.443  1.00  0.00    -0.307 C  
BRANCH   6   7
HETATM    7  C   UNL     1     -10.346  14.341  65.949  1.00  0.00    -0.325 A  
HETATM    8  C   UNL     1     -11.008  14.651  64.744  1.00  0.00    -0.399 A  
HETATM    9  C   UNL     1     -12.004  13.821  64.220  1.00  0.00    -0.481 A  
HETATM   10  C   UNL     1     -12.325  12.631  64.860  1.00  0.00    -0.563 A  
HETATM   11  C   UNL     1     -11.662  12.282  66.035  1.00  0.00    -0.451 A  
HETATM   12  C   UNL     1     -10.689  13.131  66.582  1.00  0.00    -0.279 A  
HETATM   13 BR   UNL     1      -9.866  12.536  68.188  1.00  0.00    -0.222 Br 
ENDBRANCH   6   7
ENDBRANCH   3   6
ENDBRANCH   2   3
TORSDOF 3
ENDMDL
MODEL       28
REMARK 921   NORMALIZED FREE ENERGY PREDICTED BY IDOCK:   -3.78 KCAL/MOL
REMARK 922        TOTAL FREE ENERGY PREDICTED BY IDOCK:   -4.65 KCAL/MOL
REMARK 923 INTER-LIGAND FREE ENERGY PREDICTED BY IDOCK:   -4.57 KCAL/MOL
REMARK 924 INTRA-LIGAND FREE ENERGY PREDICTED BY IDOCK:   -0.07 KCAL/MOL
REMARK 927      BINDING AFFINITY PREDICTED BY RF-SCORE:    0.00 PKD
ROOT
HETATM    1  C   UNL     1     -12.071  12.770  63.550  1.00  0.00    -0.642 C  
HETATM    2  C   UNL     1     -12.146  12.605  65.059  1.00  0.00    -0.444 C  
ENDROOT
BRANCH   2   3
HETATM    3  N   UNL     1     -11.383  13.683  65.867  1.00  0.00    -0.306 N  
HETATM    4  C   UNL     1     -10.888  14.793  64.946  1.00  0.00    -0.416 C  
HETATM    5  C   UNL     1     -12.280  14.279  66.939  1.00  0.00    -0.331 C  
BRANCH   3   6
HETATM    6  C   UNL     1     -10.156  12.947  66.505  1.00  0.00    -0.261 C  
BRANCH   6   7
HETATM    7  C   UNL     1     -10.120  11.433  66.516  1.00  0.00    -0.250 A  
HETATM    8  C   UNL     1      -9.435  10.751  65.490  1.00  0.00    -0.253 A  
HETATM    9  C   UNL     1      -9.332   9.356  65.479  1.00  0.00    -0.315 A  
HETATM   10  C   UNL     1      -9.864   8.612  66.522  1.00  0.00    -0.348 A  
HETATM   11  C   UNL     1     -10.516   9.261  67.568  1.00  0.00    -0.338 A  
HETATM   12  C   UNL     1     -10.654  10.657  67.562  1.00  0.00    -0.252 A  
HETATM   13 BR   UNL     1     -11.569  11.414  69.046  1.00  0.00    -0.420 Br 
ENDBRANCH   6   7
ENDBRANCH   3   6
ENDBRANCH   2   3
TORSDOF 3
ENDMDL
MODEL       29
REMARK 921   NORMALIZED FREE ENERGY PREDICTED BY IDOCK:   -3.77 KCAL/MOL
REMARK 922        TOTAL FREE ENERGY PREDICTED BY IDOCK:   -4.64 KCAL/MOL
REMARK 923 INTER-LIGAND FREE ENERGY PREDICTED BY IDOCK:   -4.50 KCAL/MOL
REMARK 924 INTRA-LIGAND FREE ENERGY PREDICTED BY IDOCK:   -0.13 KCAL/MOL
REMARK 927      BINDING AFFINITY PREDICTED BY RF-SCORE:    0.00 PKD
ROOT
HETATM    1  C   UNL     1     -11.084  16.295  68.107  1.00  0.00    -0.329 C  
HETATM    2  C   UNL     1     -11.736  15.014  67.611  1.00  0.00    -0.262 C  
ENDROOT
BRANCH   2   3
HETATM    3  N   UNL     1     -11.023  14.346  66.411  1.00  0.00    -0.314 N  
HETATM    4  C   UNL     1     -11.093  15.243  65.180  1.00  0.00    -0.404 C  
HETATM    5  C   UNL     1      -9.568  14.063  66.747  1.00  0.00    -0.286 C  
BRANCH   3   6
HETATM    6  C   UNL     1     -11.806  13.018  66.136  1.00  0.00    -0.409 C  
BRANCH   6   7
HETATM    7  C   UNL     1     -11.091  11.690  66.273  1.00  0.00    -0.345 A  
HETATM    8  C   UNL     1     -11.253  10.936  67.453  1.00  0.00    -0.345 A  
HETATM    9  C   UNL     1     -10.653   9.683  67.611  1.00  0.00    -0.334 A  
HETATM   10  C   UNL     1      -9.920   9.128  66.571  1.00  0.00    -0.359 A  
HETATM   11  C   UNL     1      -9.773   9.834  65.380  1.00  0.00    -0.383 A  
HETATM   12  C   UNL     1     -10.342  11.107  65.233  1.00  0.00    -0.277 A  
HETATM   13 BR   UNL     1     -10.061  11.963  63.559  1.00  0.00    -0.457 Br 
ENDBRANCH   6   7
ENDBRANCH   3   6
ENDBRANCH   2   3
TORSDOF 3
ENDMDL
MODEL       30
REMARK 921   NORMALIZED FREE ENERGY PREDICTED BY IDOCK:   -3.76 KCAL/MOL
REMARK 922        TOTAL FREE ENERGY PREDICTED BY IDOCK:   -4.62 KCAL/MOL
REMARK 923 INTER-LIGAND FREE ENERGY PREDICTED BY IDOCK:   -4.39 KCAL/MOL
REMARK 924 INTRA-LIGAND FREE ENERGY PREDICTED BY IDOCK:   -0.23 KCAL/MOL
REMARK 927      BINDING AFFINITY PREDICTED BY RF-SCORE:    0.00 PKD
ROOT
HETATM    1  C   UNL     1      -9.996   9.969  65.557  1.00  0.00    -0.367 C  
HETATM    2  C   UNL     1     -10.618  11.138  64.811  1.00  0.00    -0.303 C  
ENDROOT
BRANCH   2   3
HETATM    3  N   UNL     1     -10.571  12.489  65.567  1.00  0.00    -0.268 N  
HETATM    4  C   UNL     1      -9.346  12.553  66.472  1.00  0.00    -0.233 C  
HETATM    5  C   UNL     1     -10.535  13.648  64.585  1.00  0.00    -0.423 C  
BRANCH   3   6
HETATM    6  C   UNL     1     -11.870  12.532  66.441  1.00  0.00    -0.381 C  
BRANCH   6   7
HETATM    7  C   UNL     1     -11.858  13.284  67.756  1.00  0.00    -0.394 A  
HETATM    8  C   UNL     1     -11.953  14.691  67.747  1.00  0.00    -0.302 A  
HETATM    9  C   UNL     1     -11.993  15.430  68.933  1.00  0.00    -0.298 A  
HETATM   10  C   UNL     1     -11.994  14.778  70.159  1.00  0.00    -0.367 A  
HETATM   11  C   UNL     1     -11.937  13.386  70.197  1.00  0.00    -0.396 A  
HETATM   12  C   UNL     1     -11.859  12.645  69.010  1.00  0.00    -0.294 A  
HETATM   13 BR   UNL     1     -11.782  10.756  69.206  1.00  0.00    -0.366 Br 
ENDBRANCH   6   7
ENDBRANCH   3   6
ENDBRANCH   2   3
TORSDOF 3
ENDMDL
MODEL       31
REMARK 921   NORMALIZED FREE ENERGY PREDICTED BY IDOCK:   -3.75 KCAL/MOL
REMARK 922        TOTAL FREE ENERGY PREDICTED BY IDOCK:   -4.61 KCAL/MOL
REMARK 923 INTER-LIGAND FREE ENERGY PREDICTED BY IDOCK:   -4.82 KCAL/MOL
REMARK 924 INTRA-LIGAND FREE ENERGY PREDICTED BY IDOCK:    0.20 KCAL/MOL
REMARK 927      BINDING AFFINITY PREDICTED BY RF-SCORE:    0.00 PKD
ROOT
HETATM    1  C   UNL     1     -11.716  12.574  63.487  1.00  0.00    -0.595 C  
HETATM    2  C   UNL     1     -10.717  13.164  64.469  1.00  0.00    -0.398 C  
ENDROOT
BRANCH   2   3
HETATM    3  N   UNL     1     -11.246  14.368  65.286  1.00  0.00    -0.329 N  
HETATM    4  C   UNL     1     -12.030  15.320  64.390  1.00  0.00    -0.277 C  
HETATM    5  C   UNL     1     -12.139  13.890  66.420  1.00  0.00    -0.455 C  
BRANCH   3   6
HETATM    6  C   UNL     1      -9.975  15.097  65.840  1.00  0.00    -0.328 C  
BRANCH   6   7
HETATM    7  C   UNL     1     -10.115  16.478  66.445  1.00  0.00    -0.323 A  
HETATM    8  C   UNL     1     -10.302  17.589  65.597  1.00  0.00    -0.145 A  
HETATM    9  C   UNL     1     -10.482  18.878  66.106  1.00  0.00    -0.521 A  
HETATM   10  C   UNL     1     -10.534  19.083  67.478  1.00  0.00    -0.537 A  
HETATM   11  C   UNL     1     -10.388  17.999  68.341  1.00  0.00    -0.377 A  
HETATM   12  C   UNL     1     -10.169  16.710  67.833  1.00  0.00    -0.284 A  
HETATM   13 BR   UNL     1      -9.981  15.323  69.119  1.00  0.00    -0.250 Br 
ENDBRANCH   6   7
ENDBRANCH   3   6
ENDBRANCH   2   3
TORSDOF 3
ENDMDL
MODEL       32
REMARK 921   NORMALIZED FREE ENERGY PREDICTED BY IDOCK:   -3.74 KCAL/MOL
REMARK 922        TOTAL FREE ENERGY PREDICTED BY IDOCK:   -4.60 KCAL/MOL
REMARK 923 INTER-LIGAND FREE ENERGY PREDICTED BY IDOCK:   -4.39 KCAL/MOL
REMARK 924 INTRA-LIGAND FREE ENERGY PREDICTED BY IDOCK:   -0.21 KCAL/MOL
REMARK 927      BINDING AFFINITY PREDICTED BY RF-SCORE:    0.00 PKD
ROOT
HETATM    1  C   UNL     1     -11.883  11.424  69.107  1.00  0.00    -0.413 C  
HETATM    2  C   UNL     1     -11.171  12.721  68.758  1.00  0.00    -0.283 C  
ENDROOT
BRANCH   2   3
HETATM    3  N   UNL     1     -11.080  13.022  67.242  1.00  0.00    -0.265 N  
HETATM    4  C   UNL     1     -12.030  14.152  66.863  1.00  0.00    -0.449 C  
HETATM    5  C   UNL     1      -9.660  13.406  66.860  1.00  0.00    -0.257 C  
BRANCH   3   6
HETATM    6  C   UNL     1     -11.521  11.704  66.519  1.00  0.00    -0.187 C  
BRANCH   6   7
HETATM    7  C   UNL     1     -10.647  11.127  65.425  1.00  0.00    -0.291 A  
HETATM    8  C   UNL     1      -9.727  10.106  65.741  1.00  0.00    -0.307 A  
HETATM    9  C   UNL     1      -8.931   9.508  64.761  1.00  0.00    -0.263 A  
HETATM   10  C   UNL     1      -9.072   9.876  63.430  1.00  0.00    -0.291 A  
HETATM   11  C   UNL     1      -9.999  10.857  63.083  1.00  0.00    -0.368 A  
HETATM   12  C   UNL     1     -10.772  11.485  64.069  1.00  0.00    -0.384 A  
HETATM   13 BR   UNL     1     -11.993  12.809  63.460  1.00  0.00    -0.630 Br 
ENDBRANCH   6   7
ENDBRANCH   3   6
ENDBRANCH   2   3
TORSDOF 3
ENDMDL
MODEL       33
REMARK 921   NORMALIZED FREE ENERGY PREDICTED BY IDOCK:   -3.72 KCAL/MOL
REMARK 922        TOTAL FREE ENERGY PREDICTED BY IDOCK:   -4.58 KCAL/MOL
REMARK 923 INTER-LIGAND FREE ENERGY PREDICTED BY IDOCK:   -4.45 KCAL/MOL
REMARK 924 INTRA-LIGAND FREE ENERGY PREDICTED BY IDOCK:   -0.13 KCAL/MOL
REMARK 927      BINDING AFFINITY PREDICTED BY RF-SCORE:    0.00 PKD
ROOT
HETATM    1  C   UNL     1     -11.529  13.988  68.681  1.00  0.00    -0.337 C  
HETATM    2  C   UNL     1     -12.019  14.439  67.314  1.00  0.00    -0.377 C  
ENDROOT
BRANCH   2   3
HETATM    3  N   UNL     1     -11.139  13.980  66.126  1.00  0.00    -0.299 N  
HETATM    4  C   UNL     1     -11.224  14.982  64.980  1.00  0.00    -0.409 C  
HETATM    5  C   UNL     1      -9.691  13.832  66.562  1.00  0.00    -0.293 C  
BRANCH   3   6
HETATM    6  C   UNL     1     -11.732  12.605  65.664  1.00  0.00    -0.412 C  
BRANCH   6   7
HETATM    7  C   UNL     1     -10.871  11.658  64.855  1.00  0.00    -0.359 A  
HETATM    8  C   UNL     1     -10.635  11.933  63.492  1.00  0.00    -0.507 A  
HETATM    9  C   UNL     1      -9.810  11.117  62.712  1.00  0.00    -0.261 A  
HETATM   10  C   UNL     1      -9.157  10.036  63.287  1.00  0.00    -0.300 A  
HETATM   11  C   UNL     1      -9.344   9.761  64.640  1.00  0.00    -0.318 A  
HETATM   12  C   UNL     1     -10.199  10.556  65.416  1.00  0.00    -0.270 A  
HETATM   13 BR   UNL     1     -10.367  10.067  67.245  1.00  0.00    -0.309 Br 
ENDBRANCH   6   7
ENDBRANCH   3   6
ENDBRANCH   2   3
TORSDOF 3
ENDMDL
MODEL       34
REMARK 921   NORMALIZED FREE ENERGY PREDICTED BY IDOCK:   -3.72 KCAL/MOL
REMARK 922        TOTAL FREE ENERGY PREDICTED BY IDOCK:   -4.58 KCAL/MOL
REMARK 923 INTER-LIGAND FREE ENERGY PREDICTED BY IDOCK:   -4.54 KCAL/MOL
REMARK 924 INTRA-LIGAND FREE ENERGY PREDICTED BY IDOCK:   -0.04 KCAL/MOL
REMARK 927      BINDING AFFINITY PREDICTED BY RF-SCORE:    0.00 PKD
ROOT
HETATM    1  C   UNL     1     -12.720  13.429  65.659  1.00  0.00    -0.432 C  
HETATM    2  C   UNL     1     -12.210  14.159  66.891  1.00  0.00    -0.365 C  
ENDROOT
BRANCH   2   3
HETATM    3  N   UNL     1     -10.686  14.430  66.901  1.00  0.00    -0.289 N  
HETATM    4  C   UNL     1      -9.972  13.502  65.924  1.00  0.00    -0.283 C  
HETATM    5  C   UNL     1     -10.400  15.875  66.526  1.00  0.00    -0.300 C  
BRANCH   3   6
HETATM    6  C   UNL     1     -10.209  14.121  68.360  1.00  0.00    -0.247 C  
BRANCH   6   7
HETATM    7  C   UNL     1     -11.190  14.248  69.507  1.00  0.00    -0.286 A  
HETATM    8  C   UNL     1     -11.464  15.522  70.044  1.00  0.00    -0.344 A  
HETATM    9  C   UNL     1     -12.396  15.699  71.071  1.00  0.00    -0.481 A  
HETATM   10  C   UNL     1     -13.117  14.614  71.551  1.00  0.00    -0.420 A  
HETATM   11  C   UNL     1     -12.893  13.349  71.014  1.00  0.00    -0.329 A  
HETATM   12  C   UNL     1     -11.932  13.162  70.010  1.00  0.00    -0.321 A  
HETATM   13 BR   UNL     1     -11.723  11.384  69.370  1.00  0.00    -0.442 Br 
ENDBRANCH   6   7
ENDBRANCH   3   6
ENDBRANCH   2   3
TORSDOF 3
ENDMDL
MODEL       35
REMARK 921   NORMALIZED FREE ENERGY PREDICTED BY IDOCK:   -3.70 KCAL/MOL
REMARK 922        TOTAL FREE ENERGY PREDICTED BY IDOCK:   -4.55 KCAL/MOL
REMARK 923 INTER-LIGAND FREE ENERGY PREDICTED BY IDOCK:   -4.50 KCAL/MOL
REMARK 924 INTRA-LIGAND FREE ENERGY PREDICTED BY IDOCK:   -0.05 KCAL/MOL
REMARK 927      BINDING AFFINITY PREDICTED BY RF-SCORE:    0.00 PKD
ROOT
HETATM    1  C   UNL     1     -11.664  10.647  70.494  1.00  0.00    -0.451 C  
HETATM    2  C   UNL     1     -11.642  10.916  68.998  1.00  0.00    -0.316 C  
ENDROOT
BRANCH   2   3
HETATM    3  N   UNL     1     -10.371  10.418  68.268  1.00  0.00    -0.162 N  
HETATM    4  C   UNL     1      -9.237  10.191  69.262  1.00  0.00    -0.208 C  
HETATM    5  C   UNL     1     -10.656   9.124  67.523  1.00  0.00    -0.249 C  
BRANCH   3   6
HETATM    6  C   UNL     1      -9.974  11.563  67.276  1.00  0.00    -0.191 C  
BRANCH   6   7
HETATM    7  C   UNL     1     -10.710  11.696  65.959  1.00  0.00    -0.328 A  
HETATM    8  C   UNL     1     -11.896  12.458  65.904  1.00  0.00    -0.467 A  
HETATM    9  C   UNL     1     -12.588  12.650  64.705  1.00  0.00    -0.530 A  
HETATM   10  C   UNL     1     -12.084  12.131  63.520  1.00  0.00    -0.649 A  
HETATM   11  C   UNL     1     -10.896  11.404  63.539  1.00  0.00    -0.430 A  
HETATM   12  C   UNL     1     -10.220  11.178  64.746  1.00  0.00    -0.306 A  
HETATM   13 BR   UNL     1      -8.614  10.166  64.630  1.00  0.00    -0.210 Br 
ENDBRANCH   6   7
ENDBRANCH   3   6
ENDBRANCH   2   3
TORSDOF 3
ENDMDL
MODEL       36
REMARK 921   NORMALIZED FREE ENERGY PREDICTED BY IDOCK:   -3.69 KCAL/MOL
REMARK 922        TOTAL FREE ENERGY PREDICTED BY IDOCK:   -4.54 KCAL/MOL
REMARK 923 INTER-LIGAND FREE ENERGY PREDICTED BY IDOCK:   -4.40 KCAL/MOL
REMARK 924 INTRA-LIGAND FREE ENERGY PREDICTED BY IDOCK:   -0.15 KCAL/MOL
REMARK 927      BINDING AFFINITY PREDICTED BY RF-SCORE:    0.00 PKD
ROOT
HETATM    1  C   UNL     1     -10.320  13.487  64.485  1.00  0.00    -0.381 C  
HETATM    2  C   UNL     1      -9.857  13.334  65.925  1.00  0.00    -0.231 C  
ENDROOT
BRANCH   2   3
HETATM    3  N   UNL     1     -10.968  12.929  66.923  1.00  0.00    -0.261 N  
HETATM    4  C   UNL     1     -12.248  13.708  66.644  1.00  0.00    -0.389 C  
HETATM    5  C   UNL     1     -11.252  11.439  66.827  1.00  0.00    -0.252 C  
BRANCH   3   6
HETATM    6  C   UNL     1     -10.423  13.307  68.342  1.00  0.00    -0.253 C  
BRANCH   6   7
HETATM    7  C   UNL     1     -11.390  13.779  69.409  1.00  0.00    -0.306 A  
HETATM    8  C   UNL     1     -12.043  12.827  70.219  1.00  0.00    -0.373 A  
HETATM    9  C   UNL     1     -12.909  13.210  71.247  1.00  0.00    -0.384 A  
HETATM   10  C   UNL     1     -13.101  14.556  71.528  1.00  0.00    -0.413 A  
HETATM   11  C   UNL     1     -12.441  15.518  70.768  1.00  0.00    -0.491 A  
HETATM   12  C   UNL     1     -11.602  15.137  69.711  1.00  0.00    -0.311 A  
HETATM   13 BR   UNL     1     -10.768  16.550  68.752  1.00  0.00    -0.353 Br 
ENDBRANCH   6   7
ENDBRANCH   3   6
ENDBRANCH   2   3
TORSDOF 3
ENDMDL
MODEL       37
REMARK 921   NORMALIZED FREE ENERGY PREDICTED BY IDOCK:   -3.66 KCAL/MOL
REMARK 922        TOTAL FREE ENERGY PREDICTED BY IDOCK:   -4.51 KCAL/MOL
REMARK 923 INTER-LIGAND FREE ENERGY PREDICTED BY IDOCK:   -4.76 KCAL/MOL
REMARK 924 INTRA-LIGAND FREE ENERGY PREDICTED BY IDOCK:    0.25 KCAL/MOL
REMARK 927      BINDING AFFINITY PREDICTED BY RF-SCORE:    0.00 PKD
ROOT
HETATM    1  C   UNL     1      -8.715  15.814  66.435  1.00  0.00    -0.372 C  
HETATM    2  C   UNL     1     -10.170  15.393  66.309  1.00  0.00    -0.290 C  
ENDROOT
BRANCH   2   3
HETATM    3  N   UNL     1     -10.806  14.857  67.615  1.00  0.00    -0.278 N  
HETATM    4  C   UNL     1      -9.769  14.110  68.447  1.00  0.00    -0.226 C  
HETATM    5  C   UNL     1     -11.382  16.000  68.435  1.00  0.00    -0.355 C  
BRANCH   3   6
HETATM    6  C   UNL     1     -11.930  13.864  67.165  1.00  0.00    -0.420 C  
BRANCH   6   7
HETATM    7  C   UNL     1     -11.783  13.118  65.855  1.00  0.00    -0.427 A  
HETATM    8  C   UNL     1     -12.256  13.710  64.666  1.00  0.00    -0.448 A  
HETATM    9  C   UNL     1     -12.104  13.084  63.425  1.00  0.00    -0.591 A  
HETATM   10  C   UNL     1     -11.426  11.876  63.334  1.00  0.00    -0.470 A  
HETATM   11  C   UNL     1     -10.917  11.285  64.488  1.00  0.00    -0.301 A  
HETATM   12  C   UNL     1     -11.101  11.892  65.739  1.00  0.00    -0.317 A  
HETATM   13 BR   UNL     1     -10.360  10.978  67.231  1.00  0.00    -0.263 Br 
ENDBRANCH   6   7
ENDBRANCH   3   6
ENDBRANCH   2   3
TORSDOF 3
ENDMDL
MODEL       38
REMARK 921   NORMALIZED FREE ENERGY PREDICTED BY IDOCK:   -3.61 KCAL/MOL
REMARK 922        TOTAL FREE ENERGY PREDICTED BY IDOCK:   -4.45 KCAL/MOL
REMARK 923 INTER-LIGAND FREE ENERGY PREDICTED BY IDOCK:   -4.20 KCAL/MOL
REMARK 924 INTRA-LIGAND FREE ENERGY PREDICTED BY IDOCK:   -0.25 KCAL/MOL
REMARK 927      BINDING AFFINITY PREDICTED BY RF-SCORE:    0.00 PKD
ROOT
HETATM    1  C   UNL     1     -11.820  14.819  69.058  1.00  0.00    -0.337 C  
HETATM    2  C   UNL     1     -11.663  14.617  67.560  1.00  0.00    -0.379 C  
ENDROOT
BRANCH   2   3
HETATM    3  N   UNL     1     -10.842  13.368  67.157  1.00  0.00    -0.274 N  
HETATM    4  C   UNL     1     -10.461  13.431  65.682  1.00  0.00    -0.290 C  
HETATM    5  C   UNL     1      -9.581  13.264  68.000  1.00  0.00    -0.220 C  
BRANCH   3   6
HETATM    6  C   UNL     1     -11.785  12.141  67.401  1.00  0.00    -0.304 C  
BRANCH   6   7
HETATM    7  C   UNL     1     -11.438  11.139  68.483  1.00  0.00    -0.371 A  
HETATM    8  C   UNL     1     -11.973  11.306  69.777  1.00  0.00    -0.431 A  
HETATM    9  C   UNL     1     -11.721  10.384  70.798  1.00  0.00    -0.464 A  
HETATM   10  C   UNL     1     -10.973   9.244  70.537  1.00  0.00    -0.318 A  
HETATM   11  C   UNL     1     -10.462   9.036  69.258  1.00  0.00    -0.238 A  
HETATM   12  C   UNL     1     -10.681   9.977  68.242  1.00  0.00    -0.240 A  
HETATM   13 BR   UNL     1      -9.923   9.571  66.546  1.00  0.00    -0.335 Br 
ENDBRANCH   6   7
ENDBRANCH   3   6
ENDBRANCH   2   3
TORSDOF 3
ENDMDL
MODEL       39
REMARK 921   NORMALIZED FREE ENERGY PREDICTED BY IDOCK:   -3.61 KCAL/MOL
REMARK 922        TOTAL FREE ENERGY PREDICTED BY IDOCK:   -4.45 KCAL/MOL
REMARK 923 INTER-LIGAND FREE ENERGY PREDICTED BY IDOCK:   -4.38 KCAL/MOL
REMARK 924 INTRA-LIGAND FREE ENERGY PREDICTED BY IDOCK:   -0.07 KCAL/MOL
REMARK 927      BINDING AFFINITY PREDICTED BY RF-SCORE:    0.00 PKD
ROOT
HETATM    1  C   UNL     1      -8.343  15.369  66.808  1.00  0.00    -0.285 C  
HETATM    2  C   UNL     1      -9.437  14.314  66.809  1.00  0.00    -0.275 C  
ENDROOT
BRANCH   2   3
HETATM    3  N   UNL     1     -10.861  14.857  66.533  1.00  0.00    -0.317 N  
HETATM    4  C   UNL     1     -11.411  15.566  67.766  1.00  0.00    -0.286 C  
HETATM    5  C   UNL     1     -10.844  15.822  65.360  1.00  0.00    -0.364 C  
BRANCH   3   6
HETATM    6  C   UNL     1     -11.741  13.600  66.217  1.00  0.00    -0.367 C  
BRANCH   6   7
HETATM    7  C   UNL     1     -11.179  12.216  66.465  1.00  0.00    -0.378 A  
HETATM    8  C   UNL     1     -11.336  11.624  67.735  1.00  0.00    -0.356 A  
HETATM    9  C   UNL     1     -10.877  10.331  68.003  1.00  0.00    -0.325 A  
HETATM   10  C   UNL     1     -10.298   9.576  66.992  1.00  0.00    -0.319 A  
HETATM   11  C   UNL     1     -10.161  10.122  65.718  1.00  0.00    -0.324 A  
HETATM   12  C   UNL     1     -10.586  11.432  65.457  1.00  0.00    -0.271 A  
HETATM   13 BR   UNL     1     -10.336  12.055  63.678  1.00  0.00    -0.511 Br 
ENDBRANCH   6   7
ENDBRANCH   3   6
ENDBRANCH   2   3
TORSDOF 3
ENDMDL
MODEL       40
REMARK 921   NORMALIZED FREE ENERGY PREDICTED BY IDOCK:   -3.60 KCAL/MOL
REMARK 922        TOTAL FREE ENERGY PREDICTED BY IDOCK:   -4.44 KCAL/MOL
REMARK 923 INTER-LIGAND FREE ENERGY PREDICTED BY IDOCK:   -4.41 KCAL/MOL
REMARK 924 INTRA-LIGAND FREE ENERGY PREDICTED BY IDOCK:   -0.03 KCAL/MOL
REMARK 927      BINDING AFFINITY PREDICTED BY RF-SCORE:    0.00 PKD
ROOT
HETATM    1  C   UNL     1      -8.759  16.010  66.121  1.00  0.00    -0.348 C  
HETATM    2  C   UNL     1     -10.211  15.599  66.301  1.00  0.00    -0.299 C  
ENDROOT
BRANCH   2   3
HETATM    3  N   UNL     1     -10.466  14.074  66.232  1.00  0.00    -0.282 N  
HETATM    4  C   UNL     1     -10.537  13.608  64.781  1.00  0.00    -0.422 C  
HETATM    5  C   UNL     1      -9.363  13.316  66.951  1.00  0.00    -0.244 C  
BRANCH   3   6
HETATM    6  C   UNL     1     -11.852  13.843  66.924  1.00  0.00    -0.423 C  
BRANCH   6   7
HETATM    7  C   UNL     1     -11.979  14.038  68.420  1.00  0.00    -0.378 A  
HETATM    8  C   UNL     1     -12.144  15.340  68.936  1.00  0.00    -0.223 A  
HETATM    9  C   UNL     1     -12.312  15.571  70.304  1.00  0.00    -0.431 A  
HETATM   10  C   UNL     1     -12.373  14.502  71.187  1.00  0.00    -0.415 A  
HETATM   11  C   UNL     1     -12.249  13.202  70.702  1.00  0.00    -0.402 A  
HETATM   12  C   UNL     1     -12.043  12.970  69.335  1.00  0.00    -0.212 A  
HETATM   13 BR   UNL     1     -11.885  11.150  68.808  1.00  0.00    -0.337 Br 
ENDBRANCH   6   7
ENDBRANCH   3   6
ENDBRANCH   2   3
TORSDOF 3
ENDMDL
MODEL       41
REMARK 921   NORMALIZED FREE ENERGY PREDICTED BY IDOCK:   -3.59 KCAL/MOL
REMARK 922        TOTAL FREE ENERGY PREDICTED BY IDOCK:   -4.43 KCAL/MOL
REMARK 923 INTER-LIGAND FREE ENERGY PREDICTED BY IDOCK:   -4.31 KCAL/MOL
REMARK 924 INTRA-LIGAND FREE ENERGY PREDICTED BY IDOCK:   -0.11 KCAL/MOL
REMARK 927      BINDING AFFINITY PREDICTED BY RF-SCORE:    0.00 PKD
ROOT
HETATM    1  C   UNL     1     -10.616   5.213  73.740  1.00  0.00    -0.331 C  
HETATM    2  C   UNL     1     -11.475   5.599  72.547  1.00  0.00    -0.279 C  
ENDROOT
BRANCH   2   3
HETATM    3  N   UNL     1     -10.765   6.488  71.497  1.00  0.00    -0.230 N  
HETATM    4  C   UNL     1      -9.353   5.978  71.231  1.00  0.00    -0.156 C  
HETATM    5  C   UNL     1     -11.549   6.503  70.195  1.00  0.00    -0.402 C  
BRANCH   3   6
HETATM    6  C   UNL     1     -10.694   7.919  72.129  1.00  0.00    -0.257 C  
BRANCH   6   7
HETATM    7  C   UNL     1     -11.103   9.119  71.301  1.00  0.00    -0.405 A  
HETATM    8  C   UNL     1     -10.181   9.680  70.394  1.00  0.00    -0.348 A  
HETATM    9  C   UNL     1     -10.524  10.759  69.573  1.00  0.00    -0.205 A  
HETATM   10  C   UNL     1     -11.815  11.270  69.600  1.00  0.00    -0.430 A  
HETATM   11  C   UNL     1     -12.757  10.713  70.461  1.00  0.00    -0.395 A  
HETATM   12  C   UNL     1     -12.405   9.655  71.312  1.00  0.00    -0.360 A  
HETATM   13 BR   UNL     1     -13.785   8.992  72.439  1.00  0.00    -0.516 Br 
ENDBRANCH   6   7
ENDBRANCH   3   6
ENDBRANCH   2   3
TORSDOF 3
ENDMDL
MODEL       42
REMARK 921   NORMALIZED FREE ENERGY PREDICTED BY IDOCK:   -3.57 KCAL/MOL
REMARK 922        TOTAL FREE ENERGY PREDICTED BY IDOCK:   -4.40 KCAL/MOL
REMARK 923 INTER-LIGAND FREE ENERGY PREDICTED BY IDOCK:   -4.38 KCAL/MOL
REMARK 924 INTRA-LIGAND FREE ENERGY PREDICTED BY IDOCK:   -0.02 KCAL/MOL
REMARK 927      BINDING AFFINITY PREDICTED BY RF-SCORE:    0.00 PKD
ROOT
HETATM    1  C   UNL     1     -12.963  15.424  71.247  1.00  0.00    -0.541 C  
HETATM    2  C   UNL     1     -11.487  15.706  71.019  1.00  0.00    -0.395 C  
ENDROOT
BRANCH   2   3
HETATM    3  N   UNL     1     -10.945  15.252  69.642  1.00  0.00    -0.266 N  
HETATM    4  C   UNL     1      -9.420  15.247  69.643  1.00  0.00    -0.165 C  
HETATM    5  C   UNL     1     -11.454  13.861  69.302  1.00  0.00    -0.297 C  
BRANCH   3   6
HETATM    6  C   UNL     1     -11.464  16.310  68.611  1.00  0.00    -0.288 C  
BRANCH   6   7
HETATM    7  C   UNL     1     -10.505  17.345  68.060  1.00  0.00    -0.383 A  
HETATM    8  C   UNL     1     -10.077  18.401  68.890  1.00  0.00    -0.352 A  
HETATM    9  C   UNL     1      -9.157  19.356  68.446  1.00  0.00    -0.410 A  
HETATM   10  C   UNL     1      -8.601  19.249  67.178  1.00  0.00    -0.311 A  
HETATM   11  C   UNL     1      -8.979  18.195  66.349  1.00  0.00    -0.256 A  
HETATM   12  C   UNL     1      -9.929  17.258  66.778  1.00  0.00    -0.301 A  
HETATM   13 BR   UNL     1     -10.358  15.875  65.546  1.00  0.00    -0.411 Br 
ENDBRANCH   6   7
ENDBRANCH   3   6
ENDBRANCH   2   3
TORSDOF 3
ENDMDL
MODEL       43
REMARK 921   NORMALIZED FREE ENERGY PREDICTED BY IDOCK:   -3.56 KCAL/MOL
REMARK 922        TOTAL FREE ENERGY PREDICTED BY IDOCK:   -4.39 KCAL/MOL
REMARK 923 INTER-LIGAND FREE ENERGY PREDICTED BY IDOCK:   -4.19 KCAL/MOL
REMARK 924 INTRA-LIGAND FREE ENERGY PREDICTED BY IDOCK:   -0.20 KCAL/MOL
REMARK 927      BINDING AFFINITY PREDICTED BY RF-SCORE:    0.00 PKD
ROOT
HETATM    1  C   UNL     1     -11.406   6.478  70.255  1.00  0.00    -0.456 C  
HETATM    2  C   UNL     1     -10.093   7.161  69.909  1.00  0.00    -0.191 C  
ENDROOT
BRANCH   2   3
HETATM    3  N   UNL     1     -10.032   8.666  70.266  1.00  0.00    -0.182 N  
HETATM    4  C   UNL     1      -9.854   8.853  71.769  1.00  0.00    -0.315 C  
HETATM    5  C   UNL     1      -8.883   9.340  69.534  1.00  0.00    -0.151 C  
BRANCH   3   6
HETATM    6  C   UNL     1     -11.410   9.265  69.824  1.00  0.00    -0.005 C  
BRANCH   6   7
HETATM    7  C   UNL     1     -11.902  10.548  70.460  1.00  0.00    -0.442 A  
HETATM    8  C   UNL     1     -11.496  11.787  69.922  1.00  0.00    -0.285 A  
HETATM    9  C   UNL     1     -11.959  12.999  70.443  1.00  0.00    -0.337 A  
HETATM   10  C   UNL     1     -12.881  13.003  71.480  1.00  0.00    -0.386 A  
HETATM   11  C   UNL     1     -13.328  11.794  72.008  1.00  0.00    -0.417 A  
HETATM   12  C   UNL     1     -12.837  10.578  71.513  1.00  0.00    -0.463 A  
HETATM   13 BR   UNL     1     -13.525   9.003  72.325  1.00  0.00    -0.556 Br 
ENDBRANCH   6   7
ENDBRANCH   3   6
ENDBRANCH   2   3
TORSDOF 3
ENDMDL
MODEL       44
REMARK 921   NORMALIZED FREE ENERGY PREDICTED BY IDOCK:   -3.55 KCAL/MOL
REMARK 922        TOTAL FREE ENERGY PREDICTED BY IDOCK:   -4.38 KCAL/MOL
REMARK 923 INTER-LIGAND FREE ENERGY PREDICTED BY IDOCK:   -4.33 KCAL/MOL
REMARK 924 INTRA-LIGAND FREE ENERGY PREDICTED BY IDOCK:   -0.04 KCAL/MOL
REMARK 927      BINDING AFFINITY PREDICTED BY RF-SCORE:    0.00 PKD
ROOT
HETATM    1  C   UNL     1     -11.736  13.185  67.868  1.00  0.00    -0.398 C  
HETATM    2  C   UNL     1     -11.666  14.452  67.032  1.00  0.00    -0.399 C  
ENDROOT
BRANCH   2   3
HETATM    3  N   UNL     1     -11.047  14.267  65.625  1.00  0.00    -0.308 N  
HETATM    4  C   UNL     1     -10.501  12.852  65.463  1.00  0.00    -0.289 C  
HETATM    5  C   UNL     1     -12.084  14.534  64.547  1.00  0.00    -0.484 C  
BRANCH   3   6
HETATM    6  C   UNL     1      -9.868  15.295  65.541  1.00  0.00    -0.326 C  
BRANCH   6   7
HETATM    7  C   UNL     1      -9.820  16.453  66.515  1.00  0.00    -0.290 A  
HETATM    8  C   UNL     1     -10.518  17.640  66.213  1.00  0.00    -0.292 A  
HETATM    9  C   UNL     1     -10.544  18.721  67.099  1.00  0.00    -0.491 A  
HETATM   10  C   UNL     1      -9.918  18.623  68.334  1.00  0.00    -0.428 A  
HETATM   11  C   UNL     1      -9.250  17.448  68.675  1.00  0.00    -0.265 A  
HETATM   12  C   UNL     1      -9.191  16.377  67.772  1.00  0.00    -0.201 A  
HETATM   13 BR   UNL     1      -8.244  14.837  68.361  1.00  0.00    -0.162 Br 
ENDBRANCH   6   7
ENDBRANCH   3   6
ENDBRANCH   2   3
TORSDOF 3
ENDMDL
MODEL       45
REMARK 921   NORMALIZED FREE ENERGY PREDICTED BY IDOCK:   -3.53 KCAL/MOL
REMARK 922        TOTAL FREE ENERGY PREDICTED BY IDOCK:   -4.35 KCAL/MOL
REMARK 923 INTER-LIGAND FREE ENERGY PREDICTED BY IDOCK:   -4.45 KCAL/MOL
REMARK 924 INTRA-LIGAND FREE ENERGY PREDICTED BY IDOCK:    0.10 KCAL/MOL
REMARK 927      BINDING AFFINITY PREDICTED BY RF-SCORE:    0.00 PKD
ROOT
HETATM    1  C   UNL     1     -12.152  12.107  63.563  1.00  0.00    -0.649 C  
HETATM    2  C   UNL     1     -11.048  13.084  63.932  1.00  0.00    -0.371 C  
ENDROOT
BRANCH   2   3
HETATM    3  N   UNL     1     -11.434  14.118  65.018  1.00  0.00    -0.336 N  
HETATM    4  C   UNL     1     -11.522  15.517  64.416  1.00  0.00    -0.259 C  
HETATM    5  C   UNL     1     -12.767  13.755  65.649  1.00  0.00    -0.478 C  
BRANCH   3   6
HETATM    6  C   UNL     1     -10.279  14.075  66.075  1.00  0.00    -0.304 C  
BRANCH   6   7
HETATM    7  C   UNL     1      -9.790  15.367  66.696  1.00  0.00    -0.269 A  
HETATM    8  C   UNL     1      -8.817  16.133  66.022  1.00  0.00    -0.313 A  
HETATM    9  C   UNL     1      -8.366  17.355  66.529  1.00  0.00    -0.308 A  
HETATM   10  C   UNL     1      -8.916  17.870  67.696  1.00  0.00    -0.250 A  
HETATM   11  C   UNL     1      -9.905  17.151  68.364  1.00  0.00    -0.296 A  
HETATM   12  C   UNL     1     -10.332  15.908  67.878  1.00  0.00    -0.269 A  
HETATM   13 BR   UNL     1     -11.683  15.032  68.889  1.00  0.00    -0.348 Br 
ENDBRANCH   6   7
ENDBRANCH   3   6
ENDBRANCH   2   3
TORSDOF 3
ENDMDL
MODEL       46
REMARK 921   NORMALIZED FREE ENERGY PREDICTED BY IDOCK:   -3.51 KCAL/MOL
REMARK 922        TOTAL FREE ENERGY PREDICTED BY IDOCK:   -4.33 KCAL/MOL
REMARK 923 INTER-LIGAND FREE ENERGY PREDICTED BY IDOCK:   -4.21 KCAL/MOL
REMARK 924 INTRA-LIGAND FREE ENERGY PREDICTED BY IDOCK:   -0.12 KCAL/MOL
REMARK 927      BINDING AFFINITY PREDICTED BY RF-SCORE:    0.00 PKD
ROOT
HETATM    1  C   UNL     1      -9.515   7.772  73.337  1.00  0.00    -0.349 C  
HETATM    2  C   UNL     1     -11.011   7.528  73.219  1.00  0.00    -0.309 C  
ENDROOT
BRANCH   2   3
HETATM    3  N   UNL     1     -11.686   8.213  72.006  1.00  0.00    -0.310 N  
HETATM    4  C   UNL     1     -12.052   7.181  70.944  1.00  0.00    -0.326 C  
HETATM    5  C   UNL     1     -12.939   8.954  72.443  1.00  0.00    -0.404 C  
BRANCH   3   6
HETATM    6  C   UNL     1     -10.618   9.202  71.428  1.00  0.00    -0.341 C  
BRANCH   6   7
HETATM    7  C   UNL     1     -10.865   9.864  70.089  1.00  0.00    -0.356 A  
HETATM    8  C   UNL     1     -11.673  11.018  70.026  1.00  0.00    -0.437 A  
HETATM    9  C   UNL     1     -11.894  11.694  68.823  1.00  0.00    -0.387 A  
HETATM   10  C   UNL     1     -11.269  11.265  67.659  1.00  0.00    -0.357 A  
HETATM   11  C   UNL     1     -10.437  10.148  67.698  1.00  0.00    -0.293 A  
HETATM   12  C   UNL     1     -10.243   9.447  68.896  1.00  0.00    -0.200 A  
HETATM   13 BR   UNL     1      -9.088   7.940  68.808  1.00  0.00    -0.139 Br 
ENDBRANCH   6   7
ENDBRANCH   3   6
ENDBRANCH   2   3
TORSDOF 3
ENDMDL
MODEL       47
REMARK 921   NORMALIZED FREE ENERGY PREDICTED BY IDOCK:   -3.51 KCAL/MOL
REMARK 922        TOTAL FREE ENERGY PREDICTED BY IDOCK:   -4.32 KCAL/MOL
REMARK 923 INTER-LIGAND FREE ENERGY PREDICTED BY IDOCK:   -4.27 KCAL/MOL
REMARK 924 INTRA-LIGAND FREE ENERGY PREDICTED BY IDOCK:   -0.05 KCAL/MOL
REMARK 927      BINDING AFFINITY PREDICTED BY RF-SCORE:    0.00 PKD
ROOT
HETATM    1  C   UNL     1     -11.084  16.295  68.107  1.00  0.00    -0.329 C  
HETATM    2  C   UNL     1     -11.736  15.014  67.611  1.00  0.00    -0.262 C  
ENDROOT
BRANCH   2   3
HETATM    3  N   UNL     1     -11.023  14.346  66.411  1.00  0.00    -0.314 N  
HETATM    4  C   UNL     1     -11.093  15.243  65.180  1.00  0.00    -0.404 C  
HETATM    5  C   UNL     1      -9.568  14.063  66.747  1.00  0.00    -0.286 C  
BRANCH   3   6
HETATM    6  C   UNL     1     -11.806  13.018  66.136  1.00  0.00    -0.409 C  
BRANCH   6   7
HETATM    7  C   UNL     1     -11.091  11.690  66.273  1.00  0.00    -0.345 A  
HETATM    8  C   UNL     1     -10.316  11.209  65.198  1.00  0.00    -0.354 A  
HETATM    9  C   UNL     1      -9.599  10.012  65.289  1.00  0.00    -0.355 A  
HETATM   10  C   UNL     1      -9.595   9.293  66.477  1.00  0.00    -0.285 A  
HETATM   11  C   UNL     1     -10.324   9.763  67.567  1.00  0.00    -0.291 A  
HETATM   12  C   UNL     1     -11.074  10.943  67.466  1.00  0.00    -0.310 A  
HETATM   13 BR   UNL     1     -12.025  11.467  69.026  1.00  0.00    -0.326 Br 
ENDBRANCH   6   7
ENDBRANCH   3   6
ENDBRANCH   2   3
TORSDOF 3
ENDMDL
MODEL       48
REMARK 921   NORMALIZED FREE ENERGY PREDICTED BY IDOCK:   -3.50 KCAL/MOL
REMARK 922        TOTAL FREE ENERGY PREDICTED BY IDOCK:   -4.32 KCAL/MOL
REMARK 923 INTER-LIGAND FREE ENERGY PREDICTED BY IDOCK:   -4.23 KCAL/MOL
REMARK 924 INTRA-LIGAND FREE ENERGY PREDICTED BY IDOCK:   -0.09 KCAL/MOL
REMARK 927      BINDING AFFINITY PREDICTED BY RF-SCORE:    0.00 PKD
ROOT
HETATM    1  C   UNL     1     -11.477  11.486  69.240  1.00  0.00    -0.370 C  
HETATM    2  C   UNL     1     -11.386  11.068  67.781  1.00  0.00    -0.292 C  
ENDROOT
BRANCH   2   3
HETATM    3  N   UNL     1     -10.043  10.411  67.379  1.00  0.00    -0.187 N  
HETATM    4  C   UNL     1      -9.090  10.369  68.568  1.00  0.00    -0.145 C  
HETATM    5  C   UNL     1     -10.274   9.000  66.866  1.00  0.00    -0.269 C  
BRANCH   3   6
HETATM    6  C   UNL     1      -9.441  11.326  66.259  1.00  0.00    -0.204 C  
BRANCH   6   7
HETATM    7  C   UNL     1     -10.372  12.062  65.318  1.00  0.00    -0.311 A  
HETATM    8  C   UNL     1     -11.022  11.347  64.291  1.00  0.00    -0.390 A  
HETATM    9  C   UNL     1     -11.927  11.969  63.425  1.00  0.00    -0.571 A  
HETATM   10  C   UNL     1     -12.246  13.308  63.598  1.00  0.00    -0.522 A  
HETATM   11  C   UNL     1     -11.646  14.031  64.627  1.00  0.00    -0.400 A  
HETATM   12  C   UNL     1     -10.710  13.419  65.473  1.00  0.00    -0.294 A  
HETATM   13 BR   UNL     1      -9.965  14.520  66.832  1.00  0.00    -0.269 Br 
ENDBRANCH   6   7
ENDBRANCH   3   6
ENDBRANCH   2   3
TORSDOF 3
ENDMDL
MODEL       49
REMARK 921   NORMALIZED FREE ENERGY PREDICTED BY IDOCK:   -3.49 KCAL/MOL
REMARK 922        TOTAL FREE ENERGY PREDICTED BY IDOCK:   -4.30 KCAL/MOL
REMARK 923 INTER-LIGAND FREE ENERGY PREDICTED BY IDOCK:   -4.15 KCAL/MOL
REMARK 924 INTRA-LIGAND FREE ENERGY PREDICTED BY IDOCK:   -0.15 KCAL/MOL
REMARK 927      BINDING AFFINITY PREDICTED BY RF-SCORE:    0.00 PKD
ROOT
HETATM    1  C   UNL     1      -9.593  16.385  66.274  1.00  0.00    -0.338 C  
HETATM    2  C   UNL     1     -10.836  16.457  67.146  1.00  0.00    -0.169 C  
ENDROOT
BRANCH   2   3
HETATM    3  N   UNL     1     -10.988  15.294  68.157  1.00  0.00    -0.280 N  
HETATM    4  C   UNL     1      -9.631  14.666  68.457  1.00  0.00    -0.221 C  
HETATM    5  C   UNL     1     -11.612  15.790  69.450  1.00  0.00    -0.365 C  
BRANCH   3   6
HETATM    6  C   UNL     1     -11.908  14.239  67.455  1.00  0.00    -0.395 C  
BRANCH   6   7
HETATM    7  C   UNL     1     -11.435  12.806  67.327  1.00  0.00    -0.393 A  
HETATM    8  C   UNL     1     -11.564  11.934  68.428  1.00  0.00    -0.376 A  
HETATM    9  C   UNL     1     -11.186  10.591  68.347  1.00  0.00    -0.339 A  
HETATM   10  C   UNL     1     -10.719  10.071  67.148  1.00  0.00    -0.279 A  
HETATM   11  C   UNL     1     -10.614  10.900  66.034  1.00  0.00    -0.254 A  
HETATM   12  C   UNL     1     -10.957  12.256  66.122  1.00  0.00    -0.293 A  
HETATM   13 BR   UNL     1     -10.762  13.276  64.529  1.00  0.00    -0.445 Br 
ENDBRANCH   6   7
ENDBRANCH   3   6
ENDBRANCH   2   3
TORSDOF 3
ENDMDL
MODEL       50
REMARK 921   NORMALIZED FREE ENERGY PREDICTED BY IDOCK:   -3.49 KCAL/MOL
REMARK 922        TOTAL FREE ENERGY PREDICTED BY IDOCK:   -4.30 KCAL/MOL
REMARK 923 INTER-LIGAND FREE ENERGY PREDICTED BY IDOCK:   -4.28 KCAL/MOL
REMARK 924 INTRA-LIGAND FREE ENERGY PREDICTED BY IDOCK:   -0.02 KCAL/MOL
REMARK 927      BINDING AFFINITY PREDICTED BY RF-SCORE:    0.00 PKD
ROOT
HETATM    1  C   UNL     1      -9.603   7.688  68.380  1.00  0.00    -0.155 C  
HETATM    2  C   UNL     1     -10.227   8.975  67.865  1.00  0.00    -0.221 C  
ENDROOT
BRANCH   2   3
HETATM    3  N   UNL     1     -10.257  10.135  68.889  1.00  0.00    -0.188 N  
HETATM    4  C   UNL     1      -9.815   9.647  70.264  1.00  0.00    -0.266 C  
HETATM    5  C   UNL     1      -9.347  11.266  68.439  1.00  0.00    -0.181 C  
BRANCH   3   6
HETATM    6  C   UNL     1     -11.749  10.606  68.956  1.00  0.00    -0.234 C  
BRANCH   6   7
HETATM    7  C   UNL     1     -12.160  11.635  69.988  1.00  0.00    -0.395 A  
HETATM    8  C   UNL     1     -11.944  13.003  69.724  1.00  0.00    -0.377 A  
HETATM    9  C   UNL     1     -12.347  13.995  70.623  1.00  0.00    -0.446 A  
HETATM   10  C   UNL     1     -13.024  13.649  71.783  1.00  0.00    -0.441 A  
HETATM   11  C   UNL     1     -13.283  12.307  72.054  1.00  0.00    -0.508 A  
HETATM   12  C   UNL     1     -12.847  11.307  71.172  1.00  0.00    -0.352 A  
HETATM   13 BR   UNL     1     -13.261   9.518  71.664  1.00  0.00    -0.518 Br 
ENDBRANCH   6   7
ENDBRANCH   3   6
ENDBRANCH   2   3
TORSDOF 3
ENDMDL
MODEL       51
REMARK 921   NORMALIZED FREE ENERGY PREDICTED BY IDOCK:   -3.47 KCAL/MOL
REMARK 922        TOTAL FREE ENERGY PREDICTED BY IDOCK:   -4.29 KCAL/MOL
REMARK 923 INTER-LIGAND FREE ENERGY PREDICTED BY IDOCK:   -4.19 KCAL/MOL
REMARK 924 INTRA-LIGAND FREE ENERGY PREDICTED BY IDOCK:   -0.10 KCAL/MOL
REMARK 927      BINDING AFFINITY PREDICTED BY RF-SCORE:    0.00 PKD
ROOT
HETATM    1  C   UNL     1     -11.760  10.471  70.280  1.00  0.00    -0.420 C  
HETATM    2  C   UNL     1     -11.669  11.911  69.802  1.00  0.00    -0.331 C  
ENDROOT
BRANCH   2   3
HETATM    3  N   UNL     1     -11.168  12.081  68.347  1.00  0.00    -0.239 N  
HETATM    4  C   UNL     1      -9.717  12.550  68.332  1.00  0.00    -0.189 C  
HETATM    5  C   UNL     1     -11.283  10.770  67.588  1.00  0.00    -0.299 C  
BRANCH   3   6
HETATM    6  C   UNL     1     -12.081  13.183  67.709  1.00  0.00    -0.215 C  
BRANCH   6   7
HETATM    7  C   UNL     1     -11.445  14.418  67.106  1.00  0.00    -0.379 A  
HETATM    8  C   UNL     1     -11.216  14.468  65.715  1.00  0.00    -0.334 A  
HETATM    9  C   UNL     1     -10.675  15.602  65.102  1.00  0.00    -0.463 A  
HETATM   10  C   UNL     1     -10.400  16.735  65.855  1.00  0.00    -0.341 A  
HETATM   11  C   UNL     1     -10.649  16.727  67.225  1.00  0.00    -0.275 A  
HETATM   12  C   UNL     1     -11.156  15.578  67.849  1.00  0.00    -0.321 A  
HETATM   13 BR   UNL     1     -11.445  15.701  69.724  1.00  0.00    -0.382 Br 
ENDBRANCH   6   7
ENDBRANCH   3   6
ENDBRANCH   2   3
TORSDOF 3
ENDMDL
MODEL       52
REMARK 921   NORMALIZED FREE ENERGY PREDICTED BY IDOCK:   -3.47 KCAL/MOL
REMARK 922        TOTAL FREE ENERGY PREDICTED BY IDOCK:   -4.28 KCAL/MOL
REMARK 923 INTER-LIGAND FREE ENERGY PREDICTED BY IDOCK:   -4.15 KCAL/MOL
REMARK 924 INTRA-LIGAND FREE ENERGY PREDICTED BY IDOCK:   -0.13 KCAL/MOL
REMARK 927      BINDING AFFINITY PREDICTED BY RF-SCORE:    0.00 PKD
ROOT
HETATM    1  C   UNL     1     -10.578   7.186  67.385  1.00  0.00    -0.372 C  
HETATM    2  C   UNL     1     -10.504   8.567  68.016  1.00  0.00    -0.191 C  
ENDROOT
BRANCH   2   3
HETATM    3  N   UNL     1      -9.112   8.949  68.578  1.00  0.00    -0.137 N  
HETATM    4  C   UNL     1      -8.343   7.701  68.995  1.00  0.00    -0.128 C  
HETATM    5  C   UNL     1      -8.310   9.712  67.537  1.00  0.00    -0.118 C  
BRANCH   3   6
HETATM    6  C   UNL     1      -9.391   9.838  69.837  1.00  0.00    -0.231 C  
BRANCH   6   7
HETATM    7  C   UNL     1     -10.720   9.716  70.554  1.00  0.00    -0.374 A  
HETATM    8  C   UNL     1     -10.884   8.723  71.541  1.00  0.00    -0.374 A  
HETATM    9  C   UNL     1     -12.074   8.599  72.265  1.00  0.00    -0.443 A  
HETATM   10  C   UNL     1     -13.111   9.499  72.058  1.00  0.00    -0.528 A  
HETATM   11  C   UNL     1     -12.963  10.512  71.114  1.00  0.00    -0.506 A  
HETATM   12  C   UNL     1     -11.785  10.616  70.361  1.00  0.00    -0.353 A  
HETATM   13 BR   UNL     1     -11.717  12.041  69.104  1.00  0.00    -0.397 Br 
ENDBRANCH   6   7
ENDBRANCH   3   6
ENDBRANCH   2   3
TORSDOF 3
ENDMDL
MODEL       53
REMARK 921   NORMALIZED FREE ENERGY PREDICTED BY IDOCK:   -3.46 KCAL/MOL
REMARK 922        TOTAL FREE ENERGY PREDICTED BY IDOCK:   -4.27 KCAL/MOL
REMARK 923 INTER-LIGAND FREE ENERGY PREDICTED BY IDOCK:   -4.24 KCAL/MOL
REMARK 924 INTRA-LIGAND FREE ENERGY PREDICTED BY IDOCK:   -0.03 KCAL/MOL
REMARK 927      BINDING AFFINITY PREDICTED BY RF-SCORE:    0.00 PKD
ROOT
HETATM    1  C   UNL     1     -10.314   5.882  69.312  1.00  0.00    -0.312 C  
HETATM    2  C   UNL     1     -11.170   6.454  70.430  1.00  0.00    -0.372 C  
ENDROOT
BRANCH   2   3
HETATM    3  N   UNL     1     -10.504   6.443  71.828  1.00  0.00    -0.211 N  
HETATM    4  C   UNL     1     -11.153   5.393  72.722  1.00  0.00    -0.294 C  
HETATM    5  C   UNL     1      -9.017   6.153  71.706  1.00  0.00    -0.141 C  
BRANCH   3   6
HETATM    6  C   UNL     1     -10.753   7.868  72.428  1.00  0.00    -0.305 C  
BRANCH   6   7
HETATM    7  C   UNL     1     -11.032   9.030  71.497  1.00  0.00    -0.418 A  
HETATM    8  C   UNL     1     -10.008   9.494  70.646  1.00  0.00    -0.342 A  
HETATM    9  C   UNL     1     -10.227  10.533  69.736  1.00  0.00    -0.168 A  
HETATM   10  C   UNL     1     -11.490  11.096  69.614  1.00  0.00    -0.383 A  
HETATM   11  C   UNL     1     -12.529  10.633  70.418  1.00  0.00    -0.421 A  
HETATM   12  C   UNL     1     -12.303   9.618  71.358  1.00  0.00    -0.378 A  
HETATM   13 BR   UNL     1     -13.806   9.083  72.392  1.00  0.00    -0.496 Br 
ENDBRANCH   6   7
ENDBRANCH   3   6
ENDBRANCH   2   3
TORSDOF 3
ENDMDL
MODEL       54
REMARK 921   NORMALIZED FREE ENERGY PREDICTED BY IDOCK:   -3.44 KCAL/MOL
REMARK 922        TOTAL FREE ENERGY PREDICTED BY IDOCK:   -4.25 KCAL/MOL
REMARK 923 INTER-LIGAND FREE ENERGY PREDICTED BY IDOCK:   -4.13 KCAL/MOL
REMARK 924 INTRA-LIGAND FREE ENERGY PREDICTED BY IDOCK:   -0.12 KCAL/MOL
REMARK 927      BINDING AFFINITY PREDICTED BY RF-SCORE:    0.00 PKD
ROOT
HETATM    1  C   UNL     1      -7.959  14.115  68.467  1.00  0.00    -0.145 C  
HETATM    2  C   UNL     1      -8.344  14.809  67.170  1.00  0.00    -0.214 C  
ENDROOT
BRANCH   2   3
HETATM    3  N   UNL     1      -8.901  16.243  67.343  1.00  0.00    -0.185 N  
HETATM    4  C   UNL     1      -8.501  16.812  68.700  1.00  0.00    -0.259 C  
HETATM    5  C   UNL     1      -8.381  17.152  66.241  1.00  0.00    -0.263 C  
BRANCH   3   6
HETATM    6  C   UNL     1     -10.459  16.105  67.271  1.00  0.00    -0.309 C  
BRANCH   6   7
HETATM    7  C   UNL     1     -11.070  14.952  66.503  1.00  0.00    -0.341 A  
HETATM    8  C   UNL     1     -10.972  14.929  65.097  1.00  0.00    -0.410 A  
HETATM    9  C   UNL     1     -11.478  13.865  64.344  1.00  0.00    -0.376 A  
HETATM   10  C   UNL     1     -12.046  12.771  64.981  1.00  0.00    -0.491 A  
HETATM   11  C   UNL     1     -12.125  12.749  66.372  1.00  0.00    -0.370 A  
HETATM   12  C   UNL     1     -11.652  13.832  67.127  1.00  0.00    -0.364 A  
HETATM   13 BR   UNL     1     -11.824  13.676  69.014  1.00  0.00    -0.402 Br 
ENDBRANCH   6   7
ENDBRANCH   3   6
ENDBRANCH   2   3
TORSDOF 3
ENDMDL
MODEL       55
REMARK 921   NORMALIZED FREE ENERGY PREDICTED BY IDOCK:   -3.43 KCAL/MOL
REMARK 922        TOTAL FREE ENERGY PREDICTED BY IDOCK:   -4.23 KCAL/MOL
REMARK 923 INTER-LIGAND FREE ENERGY PREDICTED BY IDOCK:   -3.96 KCAL/MOL
REMARK 924 INTRA-LIGAND FREE ENERGY PREDICTED BY IDOCK:   -0.27 KCAL/MOL
REMARK 927      BINDING AFFINITY PREDICTED BY RF-SCORE:    0.00 PKD
ROOT
HETATM    1  C   UNL     1     -13.938   9.052  72.386  1.00  0.00    -0.517 C  
HETATM    2  C   UNL     1     -13.411   7.867  71.594  1.00  0.00    -0.341 C  
ENDROOT
BRANCH   2   3
HETATM    3  N   UNL     1     -11.869   7.795  71.482  1.00  0.00    -0.283 N  
HETATM    4  C   UNL     1     -11.284   7.010  72.651  1.00  0.00    -0.272 C  
HETATM    5  C   UNL     1     -11.460   7.136  70.175  1.00  0.00    -0.205 C  
BRANCH   3   6
HETATM    6  C   UNL     1     -11.369   9.278  71.546  1.00  0.00    -0.385 C  
BRANCH   6   7
HETATM    7  C   UNL     1     -10.963   9.982  70.268  1.00  0.00    -0.377 A  
HETATM    8  C   UNL     1     -11.921  10.737  69.561  1.00  0.00    -0.364 A  
HETATM    9  C   UNL     1     -11.587  11.444  68.402  1.00  0.00    -0.385 A  
HETATM   10  C   UNL     1     -10.275  11.458  67.950  1.00  0.00    -0.201 A  
HETATM   11  C   UNL     1      -9.300  10.749  68.648  1.00  0.00    -0.184 A  
HETATM   12  C   UNL     1      -9.639  10.009  69.789  1.00  0.00    -0.216 A  
HETATM   13 BR   UNL     1      -8.214   9.086  70.644  1.00  0.00    -0.229 Br 
ENDBRANCH   6   7
ENDBRANCH   3   6
ENDBRANCH   2   3
TORSDOF 3
ENDMDL
MODEL       56
REMARK 921   NORMALIZED FREE ENERGY PREDICTED BY IDOCK:   -3.42 KCAL/MOL
REMARK 922        TOTAL FREE ENERGY PREDICTED BY IDOCK:   -4.22 KCAL/MOL
REMARK 923 INTER-LIGAND FREE ENERGY PREDICTED BY IDOCK:   -4.04 KCAL/MOL
REMARK 924 INTRA-LIGAND FREE ENERGY PREDICTED BY IDOCK:   -0.18 KCAL/MOL
REMARK 927      BINDING AFFINITY PREDICTED BY RF-SCORE:    0.00 PKD
ROOT
HETATM    1  C   UNL     1      -9.559  10.043  65.553  1.00  0.00    -0.328 C  
HETATM    2  C   UNL     1      -8.719  10.150  66.815  1.00  0.00    -0.125 C  
ENDROOT
BRANCH   2   3
HETATM    3  N   UNL     1      -9.167   9.226  67.973  1.00  0.00    -0.131 N  
HETATM    4  C   UNL     1     -10.512   8.582  67.653  1.00  0.00    -0.241 C  
HETATM    5  C   UNL     1      -8.133   8.140  68.218  1.00  0.00    -0.128 C  
BRANCH   3   6
HETATM    6  C   UNL     1      -9.317  10.155  69.225  1.00  0.00    -0.215 C  
BRANCH   6   7
HETATM    7  C   UNL     1     -10.583  10.090  70.052  1.00  0.00    -0.344 A  
HETATM    8  C   UNL     1     -10.687   9.134  71.083  1.00  0.00    -0.380 A  
HETATM    9  C   UNL     1     -11.815   9.063  71.907  1.00  0.00    -0.447 A  
HETATM   10  C   UNL     1     -12.845   9.981  71.755  1.00  0.00    -0.546 A  
HETATM   11  C   UNL     1     -12.754  10.960  70.768  1.00  0.00    -0.431 A  
HETATM   12  C   UNL     1     -11.640  11.010  69.917  1.00  0.00    -0.337 A  
HETATM   13 BR   UNL     1     -11.646  12.391  68.611  1.00  0.00    -0.391 Br 
ENDBRANCH   6   7
ENDBRANCH   3   6
ENDBRANCH   2   3
TORSDOF 3
ENDMDL
MODEL       57
REMARK 921   NORMALIZED FREE ENERGY PREDICTED BY IDOCK:   -3.42 KCAL/MOL
REMARK 922        TOTAL FREE ENERGY PREDICTED BY IDOCK:   -4.22 KCAL/MOL
REMARK 923 INTER-LIGAND FREE ENERGY PREDICTED BY IDOCK:   -4.41 KCAL/MOL
REMARK 924 INTRA-LIGAND FREE ENERGY PREDICTED BY IDOCK:    0.18 KCAL/MOL
REMARK 927      BINDING AFFINITY PREDICTED BY RF-SCORE:    0.00 PKD
ROOT
HETATM    1  C   UNL     1     -14.368   7.886  71.560  1.00  0.00    -0.563 C  
HETATM    2  C   UNL     1     -13.178   8.665  72.097  1.00  0.00    -0.383 C  
ENDROOT
BRANCH   2   3
HETATM    3  N   UNL     1     -11.798   8.043  71.774  1.00  0.00    -0.281 N  
HETATM    4  C   UNL     1     -11.249   7.299  72.987  1.00  0.00    -0.264 C  
HETATM    5  C   UNL     1     -11.907   7.084  70.601  1.00  0.00    -0.330 C  
BRANCH   3   6
HETATM    6  C   UNL     1     -10.858   9.248  71.431  1.00  0.00    -0.364 C  
BRANCH   6   7
HETATM    7  C   UNL     1     -10.939   9.888  70.060  1.00  0.00    -0.338 A  
HETATM    8  C   UNL     1     -10.339   9.242  68.960  1.00  0.00    -0.228 A  
HETATM    9  C   UNL     1     -10.424   9.766  67.667  1.00  0.00    -0.305 A  
HETATM   10  C   UNL     1     -11.157  10.921  67.432  1.00  0.00    -0.373 A  
HETATM   11  C   UNL     1     -11.791  11.562  68.495  1.00  0.00    -0.365 A  
HETATM   12  C   UNL     1     -11.675  11.058  69.798  1.00  0.00    -0.335 A  
HETATM   13 BR   UNL     1     -12.585  12.031  71.155  1.00  0.00    -0.275 Br 
ENDBRANCH   6   7
ENDBRANCH   3   6
ENDBRANCH   2   3
TORSDOF 3
ENDMDL
MODEL       58
REMARK 921   NORMALIZED FREE ENERGY PREDICTED BY IDOCK:   -3.41 KCAL/MOL
REMARK 922        TOTAL FREE ENERGY PREDICTED BY IDOCK:   -4.21 KCAL/MOL
REMARK 923 INTER-LIGAND FREE ENERGY PREDICTED BY IDOCK:   -4.14 KCAL/MOL
REMARK 924 INTRA-LIGAND FREE ENERGY PREDICTED BY IDOCK:   -0.07 KCAL/MOL
REMARK 927      BINDING AFFINITY PREDICTED BY RF-SCORE:    0.00 PKD
ROOT
HETATM    1  C   UNL     1     -10.387   8.468  66.789  1.00  0.00    -0.346 C  
HETATM    2  C   UNL     1     -10.397   9.535  67.872  1.00  0.00    -0.227 C  
ENDROOT
BRANCH   2   3
HETATM    3  N   UNL     1     -10.110  10.971  67.370  1.00  0.00    -0.182 N  
HETATM    4  C   UNL     1      -9.105  11.665  68.283  1.00  0.00    -0.187 C  
HETATM    5  C   UNL     1      -9.567  10.940  65.952  1.00  0.00    -0.216 C  
BRANCH   3   6
HETATM    6  C   UNL     1     -11.481  11.725  67.433  1.00  0.00    -0.305 C  
BRANCH   6   7
HETATM    7  C   UNL     1     -11.627  12.932  68.336  1.00  0.00    -0.369 A  
HETATM    8  C   UNL     1     -11.519  14.225  67.784  1.00  0.00    -0.354 A  
HETATM    9  C   UNL     1     -11.691  15.372  68.565  1.00  0.00    -0.355 A  
HETATM   10  C   UNL     1     -12.029  15.255  69.906  1.00  0.00    -0.373 A  
HETATM   11  C   UNL     1     -12.178  13.990  70.470  1.00  0.00    -0.435 A  
HETATM   12  C   UNL     1     -11.969  12.838  69.698  1.00  0.00    -0.288 A  
HETATM   13 BR   UNL     1     -12.199  11.177  70.593  1.00  0.00    -0.499 Br 
ENDBRANCH   6   7
ENDBRANCH   3   6
ENDBRANCH   2   3
TORSDOF 3
ENDMDL
MODEL       59
REMARK 921   NORMALIZED FREE ENERGY PREDICTED BY IDOCK:   -3.40 KCAL/MOL
REMARK 922        TOTAL FREE ENERGY PREDICTED BY IDOCK:   -4.20 KCAL/MOL
REMARK 923 INTER-LIGAND FREE ENERGY PREDICTED BY IDOCK:   -4.14 KCAL/MOL
REMARK 924 INTRA-LIGAND FREE ENERGY PREDICTED BY IDOCK:   -0.06 KCAL/MOL
REMARK 927      BINDING AFFINITY PREDICTED BY RF-SCORE:    0.00 PKD
ROOT
HETATM    1  C   UNL     1     -10.244   8.645  66.678  1.00  0.00    -0.343 C  
HETATM    2  C   UNL     1      -9.706   9.677  67.656  1.00  0.00    -0.149 C  
ENDROOT
BRANCH   2   3
HETATM    3  N   UNL     1      -9.807  11.144  67.172  1.00  0.00    -0.185 N  
HETATM    4  C   UNL     1      -8.934  12.052  68.031  1.00  0.00    -0.187 C  
HETATM    5  C   UNL     1      -9.376  11.256  65.719  1.00  0.00    -0.223 C  
BRANCH   3   6
HETATM    6  C   UNL     1     -11.311  11.547  67.345  1.00  0.00    -0.298 C  
BRANCH   6   7
HETATM    7  C   UNL     1     -11.803  12.021  68.697  1.00  0.00    -0.366 A  
HETATM    8  C   UNL     1     -12.081  11.072  69.703  1.00  0.00    -0.411 A  
HETATM    9  C   UNL     1     -12.493  11.460  70.982  1.00  0.00    -0.486 A  
HETATM   10  C   UNL     1     -12.586  12.807  71.304  1.00  0.00    -0.347 A  
HETATM   11  C   UNL     1     -12.283  13.766  70.340  1.00  0.00    -0.433 A  
HETATM   12  C   UNL     1     -11.906  13.381  69.046  1.00  0.00    -0.335 A  
HETATM   13 BR   UNL     1     -11.526  14.790  67.829  1.00  0.00    -0.374 Br 
ENDBRANCH   6   7
ENDBRANCH   3   6
ENDBRANCH   2   3
TORSDOF 3
ENDMDL
MODEL       60
REMARK 921   NORMALIZED FREE ENERGY PREDICTED BY IDOCK:   -3.38 KCAL/MOL
REMARK 922        TOTAL FREE ENERGY PREDICTED BY IDOCK:   -4.17 KCAL/MOL
REMARK 923 INTER-LIGAND FREE ENERGY PREDICTED BY IDOCK:   -4.01 KCAL/MOL
REMARK 924 INTRA-LIGAND FREE ENERGY PREDICTED BY IDOCK:   -0.16 KCAL/MOL
REMARK 927      BINDING AFFINITY PREDICTED BY RF-SCORE:    0.00 PKD
ROOT
HETATM    1  C   UNL     1      -9.263  10.078  69.471  1.00  0.00    -0.238 C  
HETATM    2  C   UNL     1      -9.302  11.304  68.573  1.00  0.00    -0.182 C  
ENDROOT
BRANCH   2   3
HETATM    3  N   UNL     1     -10.360  11.247  67.444  1.00  0.00    -0.194 N  
HETATM    4  C   UNL     1     -10.657   9.801  67.062  1.00  0.00    -0.199 C  
HETATM    5  C   UNL     1     -11.646  11.926  67.885  1.00  0.00    -0.323 C  
BRANCH   3   6
HETATM    6  C   UNL     1      -9.720  11.990  66.223  1.00  0.00    -0.235 C  
BRANCH   6   7
HETATM    7  C   UNL     1     -10.033  13.454  65.996  1.00  0.00    -0.300 A  
HETATM    8  C   UNL     1      -9.232  14.436  66.613  1.00  0.00    -0.283 A  
HETATM    9  C   UNL     1      -9.449  15.800  66.399  1.00  0.00    -0.326 A  
HETATM   10  C   UNL     1     -10.438  16.217  65.519  1.00  0.00    -0.407 A  
HETATM   11  C   UNL     1     -11.222  15.268  64.867  1.00  0.00    -0.422 A  
HETATM   12  C   UNL     1     -11.031  13.900  65.109  1.00  0.00    -0.350 A  
HETATM   13 BR   UNL     1     -12.172  12.713  64.158  1.00  0.00    -0.551 Br 
ENDBRANCH   6   7
ENDBRANCH   3   6
ENDBRANCH   2   3
TORSDOF 3
ENDMDL
MODEL       61
REMARK 921   NORMALIZED FREE ENERGY PREDICTED BY IDOCK:   -3.37 KCAL/MOL
REMARK 922        TOTAL FREE ENERGY PREDICTED BY IDOCK:   -4.17 KCAL/MOL
REMARK 923 INTER-LIGAND FREE ENERGY PREDICTED BY IDOCK:   -3.99 KCAL/MOL
REMARK 924 INTRA-LIGAND FREE ENERGY PREDICTED BY IDOCK:   -0.18 KCAL/MOL
REMARK 927      BINDING AFFINITY PREDICTED BY RF-SCORE:    0.00 PKD
ROOT
HETATM    1  C   UNL     1      -9.564   4.684  70.475  1.00  0.00    -0.268 C  
HETATM    2  C   UNL     1      -8.850   5.821  69.763  1.00  0.00    -0.126 C  
ENDROOT
BRANCH   2   3
HETATM    3  N   UNL     1      -9.774   6.966  69.281  1.00  0.00    -0.156 N  
HETATM    4  C   UNL     1      -9.434   7.360  67.848  1.00  0.00    -0.140 C  
HETATM    5  C   UNL     1     -11.231   6.541  69.355  1.00  0.00    -0.356 C  
BRANCH   3   6
HETATM    6  C   UNL     1      -9.489   8.173  70.237  1.00  0.00    -0.170 C  
BRANCH   6   7
HETATM    7  C   UNL     1     -10.638   9.050  70.691  1.00  0.00    -0.290 A  
HETATM    8  C   UNL     1     -11.063  10.113  69.868  1.00  0.00    -0.346 A  
HETATM    9  C   UNL     1     -12.147  10.923  70.218  1.00  0.00    -0.440 A  
HETATM   10  C   UNL     1     -12.870  10.656  71.373  1.00  0.00    -0.556 A  
HETATM   11  C   UNL     1     -12.495   9.590  72.187  1.00  0.00    -0.376 A  
HETATM   12  C   UNL     1     -11.385   8.800  71.858  1.00  0.00    -0.361 A  
HETATM   13 BR   UNL     1     -10.981   7.381  73.057  1.00  0.00    -0.406 Br 
ENDBRANCH   6   7
ENDBRANCH   3   6
ENDBRANCH   2   3
TORSDOF 3
ENDMDL
MODEL       62
REMARK 921   NORMALIZED FREE ENERGY PREDICTED BY IDOCK:   -3.37 KCAL/MOL
REMARK 922        TOTAL FREE ENERGY PREDICTED BY IDOCK:   -4.16 KCAL/MOL
REMARK 923 INTER-LIGAND FREE ENERGY PREDICTED BY IDOCK:   -4.04 KCAL/MOL
REMARK 924 INTRA-LIGAND FREE ENERGY PREDICTED BY IDOCK:   -0.12 KCAL/MOL
REMARK 927      BINDING AFFINITY PREDICTED BY RF-SCORE:    0.00 PKD
ROOT
HETATM    1  C   UNL     1     -10.292   7.731  66.981  1.00  0.00    -0.405 C  
HETATM    2  C   UNL     1     -10.661   8.873  67.914  1.00  0.00    -0.183 C  
ENDROOT
BRANCH   2   3
HETATM    3  N   UNL     1      -9.468   9.495  68.680  1.00  0.00    -0.141 N  
HETATM    4  C   UNL     1      -8.146   8.996  68.108  1.00  0.00    -0.105 C  
HETATM    5  C   UNL     1      -9.514  11.012  68.596  1.00  0.00    -0.195 C  
BRANCH   3   6
HETATM    6  C   UNL     1      -9.614   9.009  70.162  1.00  0.00    -0.193 C  
BRANCH   6   7
HETATM    7  C   UNL     1     -10.996   8.824  70.752  1.00  0.00    -0.294 A  
HETATM    8  C   UNL     1     -11.755   9.959  71.104  1.00  0.00    -0.478 A  
HETATM    9  C   UNL     1     -13.053   9.846  71.609  1.00  0.00    -0.538 A  
HETATM   10  C   UNL     1     -13.648   8.596  71.724  1.00  0.00    -0.439 A  
HETATM   11  C   UNL     1     -12.935   7.459  71.350  1.00  0.00    -0.403 A  
HETATM   12  C   UNL     1     -11.619   7.568  70.879  1.00  0.00    -0.286 A  
HETATM   13 BR   UNL     1     -10.760   5.938  70.408  1.00  0.00    -0.379 Br 
ENDBRANCH   6   7
ENDBRANCH   3   6
ENDBRANCH   2   3
TORSDOF 3
ENDMDL
MODEL       63
REMARK 921   NORMALIZED FREE ENERGY PREDICTED BY IDOCK:   -3.37 KCAL/MOL
REMARK 922        TOTAL FREE ENERGY PREDICTED BY IDOCK:   -4.16 KCAL/MOL
REMARK 923 INTER-LIGAND FREE ENERGY PREDICTED BY IDOCK:   -4.13 KCAL/MOL
REMARK 924 INTRA-LIGAND FREE ENERGY PREDICTED BY IDOCK:   -0.03 KCAL/MOL
REMARK 927      BINDING AFFINITY PREDICTED BY RF-SCORE:    0.00 PKD
ROOT
HETATM    1  C   UNL     1     -10.412   8.572  67.089  1.00  0.00    -0.370 C  
HETATM    2  C   UNL     1     -10.404  10.089  67.180  1.00  0.00    -0.241 C  
ENDROOT
BRANCH   2   3
HETATM    3  N   UNL     1      -8.995  10.727  67.236  1.00  0.00    -0.140 N  
HETATM    4  C   UNL     1      -8.589  11.004  68.680  1.00  0.00    -0.157 C  
HETATM    5  C   UNL     1      -7.969   9.810  66.591  1.00  0.00    -0.112 C  
BRANCH   3   6
HETATM    6  C   UNL     1      -9.109  12.080  66.457  1.00  0.00    -0.202 C  
BRANCH   6   7
HETATM    7  C   UNL     1     -10.277  12.302  65.518  1.00  0.00    -0.296 A  
HETATM    8  C   UNL     1     -10.279  11.669  64.257  1.00  0.00    -0.357 A  
HETATM    9  C   UNL     1     -11.354  11.803  63.372  1.00  0.00    -0.437 A  
HETATM   10  C   UNL     1     -12.477  12.528  63.747  1.00  0.00    -0.552 A  
HETATM   11  C   UNL     1     -12.517  13.134  65.000  1.00  0.00    -0.516 A  
HETATM   12  C   UNL     1     -11.426  13.033  65.875  1.00  0.00    -0.337 A  
HETATM   13 BR   UNL     1     -11.611  13.911  67.551  1.00  0.00    -0.417 Br 
ENDBRANCH   6   7
ENDBRANCH   3   6
ENDBRANCH   2   3
TORSDOF 3
ENDMDL
MODEL       64
REMARK 921   NORMALIZED FREE ENERGY PREDICTED BY IDOCK:   -3.36 KCAL/MOL
REMARK 922        TOTAL FREE ENERGY PREDICTED BY IDOCK:   -4.15 KCAL/MOL
REMARK 923 INTER-LIGAND FREE ENERGY PREDICTED BY IDOCK:   -3.91 KCAL/MOL
REMARK 924 INTRA-LIGAND FREE ENERGY PREDICTED BY IDOCK:   -0.24 KCAL/MOL
REMARK 927      BINDING AFFINITY PREDICTED BY RF-SCORE:    0.00 PKD
ROOT
HETATM    1  C   UNL     1      -7.303  16.027  67.146  1.00  0.00    -0.257 C  
HETATM    2  C   UNL     1      -8.209  17.219  66.888  1.00  0.00    -0.227 C  
ENDROOT
BRANCH   2   3
HETATM    3  N   UNL     1      -9.390  17.363  67.879  1.00  0.00    -0.261 N  
HETATM    4  C   UNL     1      -9.364  18.733  68.547  1.00  0.00    -0.350 C  
HETATM    5  C   UNL     1     -10.715  17.178  67.158  1.00  0.00    -0.177 C  
BRANCH   3   6
HETATM    6  C   UNL     1      -9.176  16.250  68.959  1.00  0.00    -0.253 C  
BRANCH   6   7
HETATM    7  C   UNL     1     -10.378  15.540  69.546  1.00  0.00    -0.271 A  
HETATM    8  C   UNL     1     -11.142  16.183  70.542  1.00  0.00    -0.338 A  
HETATM    9  C   UNL     1     -12.288  15.591  71.082  1.00  0.00    -0.468 A  
HETATM   10  C   UNL     1     -12.731  14.367  70.602  1.00  0.00    -0.421 A  
HETATM   11  C   UNL     1     -12.016  13.725  69.593  1.00  0.00    -0.399 A  
HETATM   12  C   UNL     1     -10.846  14.298  69.075  1.00  0.00    -0.255 A  
HETATM   13 BR   UNL     1      -9.966  13.316  67.706  1.00  0.00    -0.229 Br 
ENDBRANCH   6   7
ENDBRANCH   3   6
ENDBRANCH   2   3
TORSDOF 3
ENDMDL
MODEL       65
REMARK 921   NORMALIZED FREE ENERGY PREDICTED BY IDOCK:   -3.35 KCAL/MOL
REMARK 922        TOTAL FREE ENERGY PREDICTED BY IDOCK:   -4.14 KCAL/MOL
REMARK 923 INTER-LIGAND FREE ENERGY PREDICTED BY IDOCK:   -4.06 KCAL/MOL
REMARK 924 INTRA-LIGAND FREE ENERGY PREDICTED BY IDOCK:   -0.09 KCAL/MOL
REMARK 927      BINDING AFFINITY PREDICTED BY RF-SCORE:    0.00 PKD
ROOT
HETATM    1  C   UNL     1     -11.799  12.160  63.830  1.00  0.00    -0.592 C  
HETATM    2  C   UNL     1     -10.720  12.960  64.540  1.00  0.00    -0.371 C  
ENDROOT
BRANCH   2   3
HETATM    3  N   UNL     1     -11.211  14.278  65.188  1.00  0.00    -0.328 N  
HETATM    4  C   UNL     1     -12.271  14.941  64.316  1.00  0.00    -0.344 C  
HETATM    5  C   UNL     1     -11.789  14.009  66.568  1.00  0.00    -0.417 C  
BRANCH   3   6
HETATM    6  C   UNL     1      -9.951  15.204  65.276  1.00  0.00    -0.290 C  
BRANCH   6   7
HETATM    7  C   UNL     1      -9.293  15.440  66.619  1.00  0.00    -0.288 A  
HETATM    8  C   UNL     1      -8.477  14.433  67.175  1.00  0.00    -0.229 A  
HETATM    9  C   UNL     1      -7.809  14.618  68.390  1.00  0.00    -0.131 A  
HETATM   10  C   UNL     1      -7.896  15.835  69.052  1.00  0.00    -0.206 A  
HETATM   11  C   UNL     1      -8.667  16.860  68.508  1.00  0.00    -0.251 A  
HETATM   12  C   UNL     1      -9.367  16.664  67.310  1.00  0.00    -0.230 A  
HETATM   13 BR   UNL     1     -10.383  18.143  66.681  1.00  0.00    -0.379 Br 
ENDBRANCH   6   7
ENDBRANCH   3   6
ENDBRANCH   2   3
TORSDOF 3
ENDMDL
MODEL       66
REMARK 921   NORMALIZED FREE ENERGY PREDICTED BY IDOCK:   -3.35 KCAL/MOL
REMARK 922        TOTAL FREE ENERGY PREDICTED BY IDOCK:   -4.14 KCAL/MOL
REMARK 923 INTER-LIGAND FREE ENERGY PREDICTED BY IDOCK:   -4.14 KCAL/MOL
REMARK 924 INTRA-LIGAND FREE ENERGY PREDICTED BY IDOCK:    0.01 KCAL/MOL
REMARK 927      BINDING AFFINITY PREDICTED BY RF-SCORE:    0.00 PKD
ROOT
HETATM    1  C   UNL     1     -10.865  16.154  64.971  1.00  0.00    -0.380 C  
HETATM    2  C   UNL     1      -9.888  15.444  65.895  1.00  0.00    -0.356 C  
ENDROOT
BRANCH   2   3
HETATM    3  N   UNL     1     -10.496  14.967  67.237  1.00  0.00    -0.261 N  
HETATM    4  C   UNL     1     -11.907  14.430  67.025  1.00  0.00    -0.412 C  
HETATM    5  C   UNL     1      -9.630  13.883  67.858  1.00  0.00    -0.227 C  
BRANCH   3   6
HETATM    6  C   UNL     1     -10.552  16.237  68.153  1.00  0.00    -0.307 C  
BRANCH   6   7
HETATM    7  C   UNL     1      -9.302  17.069  68.349  1.00  0.00    -0.266 A  
HETATM    8  C   UNL     1      -8.159  16.475  68.922  1.00  0.00    -0.240 A  
HETATM    9  C   UNL     1      -6.966  17.186  69.082  1.00  0.00    -0.224 A  
HETATM   10  C   UNL     1      -6.868  18.492  68.623  1.00  0.00    -0.279 A  
HETATM   11  C   UNL     1      -7.971  19.094  68.021  1.00  0.00    -0.331 A  
HETATM   12  C   UNL     1      -9.180  18.395  67.893  1.00  0.00    -0.283 A  
HETATM   13 BR   UNL     1     -10.605  19.334  67.056  1.00  0.00    -0.579 Br 
ENDBRANCH   6   7
ENDBRANCH   3   6
ENDBRANCH   2   3
TORSDOF 3
ENDMDL
MODEL       67
REMARK 921   NORMALIZED FREE ENERGY PREDICTED BY IDOCK:   -3.35 KCAL/MOL
REMARK 922        TOTAL FREE ENERGY PREDICTED BY IDOCK:   -4.14 KCAL/MOL
REMARK 923 INTER-LIGAND FREE ENERGY PREDICTED BY IDOCK:   -4.10 KCAL/MOL
REMARK 924 INTRA-LIGAND FREE ENERGY PREDICTED BY IDOCK:   -0.04 KCAL/MOL
REMARK 927      BINDING AFFINITY PREDICTED BY RF-SCORE:    0.00 PKD
ROOT
HETATM    1  C   UNL     1     -11.689  15.346  70.127  1.00  0.00    -0.356 C  
HETATM    2  C   UNL     1     -11.523  16.003  68.767  1.00  0.00    -0.375 C  
ENDROOT
BRANCH   2   3
HETATM    3  N   UNL     1     -10.788  15.139  67.715  1.00  0.00    -0.283 N  
HETATM    4  C   UNL     1      -9.934  14.075  68.397  1.00  0.00    -0.236 C  
HETATM    5  C   UNL     1     -11.786  14.466  66.787  1.00  0.00    -0.410 C  
BRANCH   3   6
HETATM    6  C   UNL     1      -9.862  16.125  66.926  1.00  0.00    -0.241 C  
BRANCH   6   7
HETATM    7  C   UNL     1      -8.941  17.054  67.690  1.00  0.00    -0.221 A  
HETATM    8  C   UNL     1      -7.767  16.536  68.275  1.00  0.00    -0.176 A  
HETATM    9  C   UNL     1      -6.861  17.359  68.951  1.00  0.00    -0.241 A  
HETATM   10  C   UNL     1      -7.077  18.729  69.012  1.00  0.00    -0.324 A  
HETATM   11  C   UNL     1      -8.211  19.273  68.412  1.00  0.00    -0.383 A  
HETATM   12  C   UNL     1      -9.140  18.446  67.766  1.00  0.00    -0.277 A  
HETATM   13 BR   UNL     1     -10.644  19.317  66.994  1.00  0.00    -0.579 Br 
ENDBRANCH   6   7
ENDBRANCH   3   6
ENDBRANCH   2   3
TORSDOF 3
ENDMDL
MODEL       68
REMARK 921   NORMALIZED FREE ENERGY PREDICTED BY IDOCK:   -3.33 KCAL/MOL
REMARK 922        TOTAL FREE ENERGY PREDICTED BY IDOCK:   -4.12 KCAL/MOL
REMARK 923 INTER-LIGAND FREE ENERGY PREDICTED BY IDOCK:   -3.83 KCAL/MOL
REMARK 924 INTRA-LIGAND FREE ENERGY PREDICTED BY IDOCK:   -0.29 KCAL/MOL
REMARK 927      BINDING AFFINITY PREDICTED BY RF-SCORE:    0.00 PKD
ROOT
HETATM    1  C   UNL     1      -9.761   5.567  70.818  1.00  0.00    -0.232 C  
HETATM    2  C   UNL     1      -8.671   6.489  70.296  1.00  0.00    -0.151 C  
ENDROOT
BRANCH   2   3
HETATM    3  N   UNL     1      -9.187   7.739  69.541  1.00  0.00    -0.150 N  
HETATM    4  C   UNL     1      -8.171   8.189  68.497  1.00  0.00    -0.125 C  
HETATM    5  C   UNL     1     -10.512   7.440  68.861  1.00  0.00    -0.203 C  
BRANCH   3   6
HETATM    6  C   UNL     1      -9.350   8.855  70.628  1.00  0.00    -0.212 C  
BRANCH   6   7
HETATM    7  C   UNL     1     -10.737   9.333  71.001  1.00  0.00    -0.387 A  
HETATM    8  C   UNL     1     -11.428   8.698  72.054  1.00  0.00    -0.437 A  
HETATM    9  C   UNL     1     -12.691   9.131  72.468  1.00  0.00    -0.352 A  
HETATM   10  C   UNL     1     -13.273  10.244  71.877  1.00  0.00    -0.550 A  
HETATM   11  C   UNL     1     -12.599  10.913  70.858  1.00  0.00    -0.494 A  
HETATM   12  C   UNL     1     -11.348  10.458  70.415  1.00  0.00    -0.337 A  
HETATM   13 BR   UNL     1     -10.540  11.460  69.016  1.00  0.00    -0.200 Br 
ENDBRANCH   6   7
ENDBRANCH   3   6
ENDBRANCH   2   3
TORSDOF 3
ENDMDL
MODEL       69
REMARK 921   NORMALIZED FREE ENERGY PREDICTED BY IDOCK:   -3.33 KCAL/MOL
REMARK 922        TOTAL FREE ENERGY PREDICTED BY IDOCK:   -4.12 KCAL/MOL
REMARK 923 INTER-LIGAND FREE ENERGY PREDICTED BY IDOCK:   -3.92 KCAL/MOL
REMARK 924 INTRA-LIGAND FREE ENERGY PREDICTED BY IDOCK:   -0.20 KCAL/MOL
REMARK 927      BINDING AFFINITY PREDICTED BY RF-SCORE:    0.00 PKD
ROOT
HETATM    1  C   UNL     1     -10.085  11.535  64.927  1.00  0.00    -0.314 C  
HETATM    2  C   UNL     1     -11.132  12.008  65.922  1.00  0.00    -0.324 C  
ENDROOT
BRANCH   2   3
HETATM    3  N   UNL     1     -11.283  13.545  66.024  1.00  0.00    -0.294 N  
HETATM    4  C   UNL     1     -10.316  14.242  65.072  1.00  0.00    -0.421 C  
HETATM    5  C   UNL     1     -12.706  13.963  65.692  1.00  0.00    -0.495 C  
BRANCH   3   6
HETATM    6  C   UNL     1     -10.918  13.912  67.502  1.00  0.00    -0.276 C  
BRANCH   6   7
HETATM    7  C   UNL     1     -10.197  15.212  67.790  1.00  0.00    -0.236 A  
HETATM    8  C   UNL     1     -10.947  16.391  67.981  1.00  0.00    -0.327 A  
HETATM    9  C   UNL     1     -10.334  17.607  68.295  1.00  0.00    -0.384 A  
HETATM   10  C   UNL     1      -8.959  17.666  68.479  1.00  0.00    -0.289 A  
HETATM   11  C   UNL     1      -8.196  16.510  68.331  1.00  0.00    -0.194 A  
HETATM   12  C   UNL     1      -8.805  15.296  67.980  1.00  0.00    -0.169 A  
HETATM   13 BR   UNL     1      -7.647  13.798  67.806  1.00  0.00    -0.194 Br 
ENDBRANCH   6   7
ENDBRANCH   3   6
ENDBRANCH   2   3
TORSDOF 3
ENDMDL
MODEL       70
REMARK 921   NORMALIZED FREE ENERGY PREDICTED BY IDOCK:   -3.33 KCAL/MOL
REMARK 922        TOTAL FREE ENERGY PREDICTED BY IDOCK:   -4.12 KCAL/MOL
REMARK 923 INTER-LIGAND FREE ENERGY PREDICTED BY IDOCK:   -4.00 KCAL/MOL
REMARK 924 INTRA-LIGAND FREE ENERGY PREDICTED BY IDOCK:   -0.12 KCAL/MOL
REMARK 927      BINDING AFFINITY PREDICTED BY RF-SCORE:    0.00 PKD
ROOT
HETATM    1  C   UNL     1     -10.450   7.618  66.976  1.00  0.00    -0.419 C  
HETATM    2  C   UNL     1     -10.800   9.095  67.055  1.00  0.00     0.014 C  
ENDROOT
BRANCH   2   3
HETATM    3  N   UNL     1      -9.819   9.950  67.894  1.00  0.00    -0.141 N  
HETATM    4  C   UNL     1     -10.420  10.270  69.258  1.00  0.00    -0.228 C  
HETATM    5  C   UNL     1      -8.501   9.216  68.083  1.00  0.00    -0.125 C  
BRANCH   3   6
HETATM    6  C   UNL     1      -9.614  11.277  67.087  1.00  0.00    -0.177 C  
BRANCH   6   7
HETATM    7  C   UNL     1     -10.500  11.567  65.894  1.00  0.00    -0.303 A  
HETATM    8  C   UNL     1     -11.674  12.328  66.073  1.00  0.00    -0.451 A  
HETATM    9  C   UNL     1     -12.502  12.663  64.998  1.00  0.00    -0.556 A  
HETATM   10  C   UNL     1     -12.149  12.293  63.707  1.00  0.00    -0.624 A  
HETATM   11  C   UNL     1     -10.976  11.571  63.496  1.00  0.00    -0.453 A  
HETATM   12  C   UNL     1     -10.164  11.201  64.577  1.00  0.00    -0.324 A  
HETATM   13 BR   UNL     1      -8.596  10.215  64.148  1.00  0.00    -0.213 Br 
ENDBRANCH   6   7
ENDBRANCH   3   6
ENDBRANCH   2   3
TORSDOF 3
ENDMDL
MODEL       71
REMARK 921   NORMALIZED FREE ENERGY PREDICTED BY IDOCK:   -3.33 KCAL/MOL
REMARK 922        TOTAL FREE ENERGY PREDICTED BY IDOCK:   -4.12 KCAL/MOL
REMARK 923 INTER-LIGAND FREE ENERGY PREDICTED BY IDOCK:   -4.14 KCAL/MOL
REMARK 924 INTRA-LIGAND FREE ENERGY PREDICTED BY IDOCK:    0.02 KCAL/MOL
REMARK 927      BINDING AFFINITY PREDICTED BY RF-SCORE:    0.00 PKD
ROOT
HETATM    1  C   UNL     1     -11.534  12.402  63.634  1.00  0.00    -0.568 C  
HETATM    2  C   UNL     1     -10.682  13.134  64.658  1.00  0.00    -0.380 C  
ENDROOT
BRANCH   2   3
HETATM    3  N   UNL     1     -11.408  14.280  65.404  1.00  0.00    -0.319 N  
HETATM    4  C   UNL     1     -11.092  15.624  64.757  1.00  0.00    -0.412 C  
HETATM    5  C   UNL     1     -12.911  14.056  65.392  1.00  0.00    -0.410 C  
BRANCH   3   6
HETATM    6  C   UNL     1     -10.846  14.259  66.866  1.00  0.00    -0.298 C  
BRANCH   6   7
HETATM    7  C   UNL     1     -10.530  12.931  67.522  1.00  0.00    -0.226 A  
HETATM    8  C   UNL     1     -11.562  11.989  67.707  1.00  0.00    -0.400 A  
HETATM    9  C   UNL     1     -11.314  10.731  68.265  1.00  0.00    -0.376 A  
HETATM   10  C   UNL     1     -10.019  10.362  68.602  1.00  0.00    -0.186 A  
HETATM   11  C   UNL     1      -8.973  11.260  68.396  1.00  0.00    -0.167 A  
HETATM   12  C   UNL     1      -9.224  12.536  67.872  1.00  0.00    -0.200 A  
HETATM   13 BR   UNL     1      -7.710  13.663  67.647  1.00  0.00    -0.195 Br 
ENDBRANCH   6   7
ENDBRANCH   3   6
ENDBRANCH   2   3
TORSDOF 3
ENDMDL
MODEL       72
REMARK 921   NORMALIZED FREE ENERGY PREDICTED BY IDOCK:   -3.33 KCAL/MOL
REMARK 922        TOTAL FREE ENERGY PREDICTED BY IDOCK:   -4.11 KCAL/MOL
REMARK 923 INTER-LIGAND FREE ENERGY PREDICTED BY IDOCK:   -4.12 KCAL/MOL
REMARK 924 INTRA-LIGAND FREE ENERGY PREDICTED BY IDOCK:    0.01 KCAL/MOL
REMARK 927      BINDING AFFINITY PREDICTED BY RF-SCORE:    0.00 PKD
ROOT
HETATM    1  C   UNL     1     -10.556  19.749  66.643  1.00  0.00    -0.578 C  
HETATM    2  C   UNL     1     -10.043  18.323  66.532  1.00  0.00    -0.385 C  
ENDROOT
BRANCH   2   3
HETATM    3  N   UNL     1      -8.634  18.092  67.131  1.00  0.00    -0.243 N  
HETATM    4  C   UNL     1      -7.556  18.403  66.098  1.00  0.00    -0.235 C  
HETATM    5  C   UNL     1      -8.427  18.968  68.356  1.00  0.00    -0.348 C  
BRANCH   3   6
HETATM    6  C   UNL     1      -8.576  16.573  67.508  1.00  0.00    -0.177 C  
BRANCH   6   7
HETATM    7  C   UNL     1      -9.755  15.935  68.212  1.00  0.00    -0.209 A  
HETATM    8  C   UNL     1     -10.064  16.323  69.532  1.00  0.00    -0.221 A  
HETATM    9  C   UNL     1     -11.168  15.799  70.211  1.00  0.00    -0.377 A  
HETATM   10  C   UNL     1     -12.024  14.916  69.567  1.00  0.00    -0.347 A  
HETATM   11  C   UNL     1     -11.764  14.542  68.251  1.00  0.00    -0.368 A  
HETATM   12  C   UNL     1     -10.636  15.037  67.581  1.00  0.00    -0.267 A  
HETATM   13 BR   UNL     1     -10.397  14.443  65.791  1.00  0.00    -0.362 Br 
ENDBRANCH   6   7
ENDBRANCH   3   6
ENDBRANCH   2   3
TORSDOF 3
ENDMDL
MODEL       73
REMARK 921   NORMALIZED FREE ENERGY PREDICTED BY IDOCK:   -3.31 KCAL/MOL
REMARK 922        TOTAL FREE ENERGY PREDICTED BY IDOCK:   -4.10 KCAL/MOL
REMARK 923 INTER-LIGAND FREE ENERGY PREDICTED BY IDOCK:   -4.04 KCAL/MOL
REMARK 924 INTRA-LIGAND FREE ENERGY PREDICTED BY IDOCK:   -0.06 KCAL/MOL
REMARK 927      BINDING AFFINITY PREDICTED BY RF-SCORE:    0.00 PKD
ROOT
HETATM    1  C   UNL     1      -7.927  12.110  67.139  1.00  0.00    -0.170 C  
HETATM    2  C   UNL     1      -9.281  11.968  67.815  1.00  0.00    -0.190 C  
ENDROOT
BRANCH   2   3
HETATM    3  N   UNL     1     -10.347  11.219  66.981  1.00  0.00    -0.218 N  
HETATM    4  C   UNL     1      -9.788  10.839  65.614  1.00  0.00    -0.245 C  
HETATM    5  C   UNL     1     -10.805   9.964  67.705  1.00  0.00    -0.257 C  
BRANCH   3   6
HETATM    6  C   UNL     1     -11.531  12.228  66.799  1.00  0.00    -0.361 C  
BRANCH   6   7
HETATM    7  C   UNL     1     -11.615  13.447  67.695  1.00  0.00    -0.377 A  
HETATM    8  C   UNL     1     -12.036  13.294  69.031  1.00  0.00    -0.336 A  
HETATM    9  C   UNL     1     -12.086  14.379  69.912  1.00  0.00    -0.398 A  
HETATM   10  C   UNL     1     -11.664  15.633  69.495  1.00  0.00    -0.382 A  
HETATM   11  C   UNL     1     -11.209  15.807  68.190  1.00  0.00    -0.344 A  
HETATM   12  C   UNL     1     -11.193  14.729  67.293  1.00  0.00    -0.346 A  
HETATM   13 BR   UNL     1     -10.553  15.104  65.543  1.00  0.00    -0.418 Br 
ENDBRANCH   6   7
ENDBRANCH   3   6
ENDBRANCH   2   3
TORSDOF 3
ENDMDL
MODEL       74
REMARK 921   NORMALIZED FREE ENERGY PREDICTED BY IDOCK:   -3.31 KCAL/MOL
REMARK 922        TOTAL FREE ENERGY PREDICTED BY IDOCK:   -4.10 KCAL/MOL
REMARK 923 INTER-LIGAND FREE ENERGY PREDICTED BY IDOCK:   -4.02 KCAL/MOL
REMARK 924 INTRA-LIGAND FREE ENERGY PREDICTED BY IDOCK:   -0.08 KCAL/MOL
REMARK 927      BINDING AFFINITY PREDICTED BY RF-SCORE:    0.00 PKD
ROOT
HETATM    1  C   UNL     1     -11.631  14.721  69.006  1.00  0.00    -0.324 C  
HETATM    2  C   UNL     1     -11.159  15.360  67.710  1.00  0.00    -0.320 C  
ENDROOT
BRANCH   2   3
HETATM    3  N   UNL     1      -9.719  15.927  67.753  1.00  0.00    -0.219 N  
HETATM    4  C   UNL     1      -8.775  14.939  68.431  1.00  0.00    -0.172 C  
HETATM    5  C   UNL     1      -9.220  16.220  66.348  1.00  0.00    -0.299 C  
BRANCH   3   6
HETATM    6  C   UNL     1      -9.804  17.238  68.605  1.00  0.00    -0.313 C  
BRANCH   6   7
HETATM    7  C   UNL     1      -8.781  18.334  68.389  1.00  0.00    -0.325 A  
HETATM    8  C   UNL     1      -7.512  18.223  68.994  1.00  0.00    -0.189 A  
HETATM    9  C   UNL     1      -6.517  19.183  68.789  1.00  0.00    -0.286 A  
HETATM   10  C   UNL     1      -6.746  20.250  67.931  1.00  0.00    -0.319 A  
HETATM   11  C   UNL     1      -7.978  20.366  67.291  1.00  0.00    -0.376 A  
HETATM   12  C   UNL     1      -8.991  19.425  67.525  1.00  0.00    -0.303 A  
HETATM   13 BR   UNL     1     -10.624  19.704  66.593  1.00  0.00    -0.570 Br 
ENDBRANCH   6   7
ENDBRANCH   3   6
ENDBRANCH   2   3
TORSDOF 3
ENDMDL
MODEL       75
REMARK 921   NORMALIZED FREE ENERGY PREDICTED BY IDOCK:   -3.31 KCAL/MOL
REMARK 922        TOTAL FREE ENERGY PREDICTED BY IDOCK:   -4.09 KCAL/MOL
REMARK 923 INTER-LIGAND FREE ENERGY PREDICTED BY IDOCK:   -3.99 KCAL/MOL
REMARK 924 INTRA-LIGAND FREE ENERGY PREDICTED BY IDOCK:   -0.10 KCAL/MOL
REMARK 927      BINDING AFFINITY PREDICTED BY RF-SCORE:    0.00 PKD
ROOT
HETATM    1  C   UNL     1      -9.724   8.633  66.482  1.00  0.00    -0.325 C  
HETATM    2  C   UNL     1     -10.737   9.566  67.125  1.00  0.00    -0.182 C  
ENDROOT
BRANCH   2   3
HETATM    3  N   UNL     1     -10.347  11.064  67.098  1.00  0.00    -0.210 N  
HETATM    4  C   UNL     1      -9.089  11.274  66.263  1.00  0.00    -0.199 C  
HETATM    5  C   UNL     1     -11.480  11.898  66.523  1.00  0.00    -0.314 C  
BRANCH   3   6
HETATM    6  C   UNL     1     -10.059  11.455  68.587  1.00  0.00    -0.210 C  
BRANCH   6   7
HETATM    7  C   UNL     1     -10.834  10.779  69.698  1.00  0.00    -0.294 A  
HETATM    8  C   UNL     1     -12.153  11.196  69.973  1.00  0.00    -0.437 A  
HETATM    9  C   UNL     1     -12.928  10.574  70.957  1.00  0.00    -0.475 A  
HETATM   10  C   UNL     1     -12.424   9.484  71.653  1.00  0.00    -0.476 A  
HETATM   11  C   UNL     1     -11.137   9.028  71.377  1.00  0.00    -0.399 A  
HETATM   12  C   UNL     1     -10.344   9.673  70.418  1.00  0.00    -0.291 A  
HETATM   13 BR   UNL     1      -8.607   8.951  70.144  1.00  0.00    -0.182 Br 
ENDBRANCH   6   7
ENDBRANCH   3   6
ENDBRANCH   2   3
TORSDOF 3
ENDMDL
MODEL       76
REMARK 921   NORMALIZED FREE ENERGY PREDICTED BY IDOCK:   -3.30 KCAL/MOL
REMARK 922        TOTAL FREE ENERGY PREDICTED BY IDOCK:   -4.08 KCAL/MOL
REMARK 923 INTER-LIGAND FREE ENERGY PREDICTED BY IDOCK:   -3.91 KCAL/MOL
REMARK 924 INTRA-LIGAND FREE ENERGY PREDICTED BY IDOCK:   -0.17 KCAL/MOL
REMARK 927      BINDING AFFINITY PREDICTED BY RF-SCORE:    0.00 PKD
ROOT
HETATM    1  C   UNL     1     -12.249  15.034  64.229  1.00  0.00    -0.312 C  
HETATM    2  C   UNL     1     -10.914  14.423  64.623  1.00  0.00    -0.354 C  
ENDROOT
BRANCH   2   3
HETATM    3  N   UNL     1     -10.943  12.891  64.847  1.00  0.00    -0.290 N  
HETATM    4  C   UNL     1     -12.357  12.426  65.178  1.00  0.00    -0.332 C  
HETATM    5  C   UNL     1     -10.449  12.162  63.609  1.00  0.00    -0.460 C  
BRANCH   3   6
HETATM    6  C   UNL     1     -10.005  12.623  66.072  1.00  0.00    -0.258 C  
BRANCH   6   7
HETATM    7  C   UNL     1     -10.363  11.533  67.060  1.00  0.00    -0.254 A  
HETATM    8  C   UNL     1      -9.998  10.200  66.781  1.00  0.00    -0.266 A  
HETATM    9  C   UNL     1     -10.264   9.163  67.681  1.00  0.00    -0.293 A  
HETATM   10  C   UNL     1     -10.853   9.441  68.907  1.00  0.00    -0.151 A  
HETATM   11  C   UNL     1     -11.193  10.754  69.225  1.00  0.00    -0.333 A  
HETATM   12  C   UNL     1     -10.961  11.790  68.309  1.00  0.00    -0.229 A  
HETATM   13 BR   UNL     1     -11.476  13.532  68.867  1.00  0.00    -0.373 Br 
ENDBRANCH   6   7
ENDBRANCH   3   6
ENDBRANCH   2   3
TORSDOF 3
ENDMDL
MODEL       77
REMARK 921   NORMALIZED FREE ENERGY PREDICTED BY IDOCK:   -3.30 KCAL/MOL
REMARK 922        TOTAL FREE ENERGY PREDICTED BY IDOCK:   -4.08 KCAL/MOL
REMARK 923 INTER-LIGAND FREE ENERGY PREDICTED BY IDOCK:   -4.00 KCAL/MOL
REMARK 924 INTRA-LIGAND FREE ENERGY PREDICTED BY IDOCK:   -0.08 KCAL/MOL
REMARK 927      BINDING AFFINITY PREDICTED BY RF-SCORE:    0.00 PKD
ROOT
HETATM    1  C   UNL     1      -9.410  13.327  66.986  1.00  0.00    -0.242 C  
HETATM    2  C   UNL     1      -9.230  11.817  67.010  1.00  0.00    -0.187 C  
ENDROOT
BRANCH   2   3
HETATM    3  N   UNL     1     -10.411  11.033  67.633  1.00  0.00    -0.193 N  
HETATM    4  C   UNL     1     -11.739  11.687  67.266  1.00  0.00    -0.175 C  
HETATM    5  C   UNL     1     -10.407   9.593  67.149  1.00  0.00    -0.254 C  
BRANCH   3   6
HETATM    6  C   UNL     1     -10.202  11.108  69.183  1.00  0.00    -0.141 C  
BRANCH   6   7
HETATM    7  C   UNL     1     -11.319  10.672  70.107  1.00  0.00    -0.402 A  
HETATM    8  C   UNL     1     -11.443   9.309  70.447  1.00  0.00    -0.255 A  
HETATM    9  C   UNL     1     -12.428   8.861  71.332  1.00  0.00    -0.357 A  
HETATM   10  C   UNL     1     -13.280   9.771  71.943  1.00  0.00    -0.545 A  
HETATM   11  C   UNL     1     -13.159  11.128  71.653  1.00  0.00    -0.529 A  
HETATM   12  C   UNL     1     -12.196  11.576  70.737  1.00  0.00    -0.363 A  
HETATM   13 BR   UNL     1     -12.141  13.451  70.429  1.00  0.00    -0.356 Br 
ENDBRANCH   6   7
ENDBRANCH   3   6
ENDBRANCH   2   3
TORSDOF 3
ENDMDL
MODEL       78
REMARK 921   NORMALIZED FREE ENERGY PREDICTED BY IDOCK:   -3.29 KCAL/MOL
REMARK 922        TOTAL FREE ENERGY PREDICTED BY IDOCK:   -4.07 KCAL/MOL
REMARK 923 INTER-LIGAND FREE ENERGY PREDICTED BY IDOCK:   -3.99 KCAL/MOL
REMARK 924 INTRA-LIGAND FREE ENERGY PREDICTED BY IDOCK:   -0.08 KCAL/MOL
REMARK 927      BINDING AFFINITY PREDICTED BY RF-SCORE:    0.00 PKD
ROOT
HETATM    1  C   UNL     1     -10.573  19.798  66.438  1.00  0.00    -0.575 C  
HETATM    2  C   UNL     1     -10.505  18.331  66.044  1.00  0.00    -0.361 C  
ENDROOT
BRANCH   2   3
HETATM    3  N   UNL     1      -9.799  17.415  67.073  1.00  0.00    -0.275 N  
HETATM    4  C   UNL     1      -8.782  18.209  67.886  1.00  0.00    -0.261 C  
HETATM    5  C   UNL     1     -10.816  16.787  68.011  1.00  0.00    -0.341 C  
BRANCH   3   6
HETATM    6  C   UNL     1      -9.057  16.322  66.232  1.00  0.00    -0.331 C  
BRANCH   6   7
HETATM    7  C   UNL     1      -9.250  14.860  66.576  1.00  0.00    -0.314 A  
HETATM    8  C   UNL     1      -8.439  14.271  67.568  1.00  0.00    -0.195 A  
HETATM    9  C   UNL     1      -8.608  12.938  67.956  1.00  0.00    -0.186 A  
HETATM   10  C   UNL     1      -9.626  12.176  67.401  1.00  0.00    -0.177 A  
HETATM   11  C   UNL     1     -10.466  12.742  66.444  1.00  0.00    -0.265 A  
HETATM   12  C   UNL     1     -10.275  14.067  66.026  1.00  0.00    -0.304 A  
HETATM   13 BR   UNL     1     -11.488  14.713  64.712  1.00  0.00    -0.404 Br 
ENDBRANCH   6   7
ENDBRANCH   3   6
ENDBRANCH   2   3
TORSDOF 3
ENDMDL
MODEL       79
REMARK 921   NORMALIZED FREE ENERGY PREDICTED BY IDOCK:   -3.29 KCAL/MOL
REMARK 922        TOTAL FREE ENERGY PREDICTED BY IDOCK:   -4.07 KCAL/MOL
REMARK 923 INTER-LIGAND FREE ENERGY PREDICTED BY IDOCK:   -4.00 KCAL/MOL
REMARK 924 INTRA-LIGAND FREE ENERGY PREDICTED BY IDOCK:   -0.07 KCAL/MOL
REMARK 927      BINDING AFFINITY PREDICTED BY RF-SCORE:    0.00 PKD
ROOT
HETATM    1  C   UNL     1      -9.181  15.493  69.160  1.00  0.00    -0.246 C  
HETATM    2  C   UNL     1      -9.993  14.401  68.484  1.00  0.00    -0.237 C  
ENDROOT
BRANCH   2   3
HETATM    3  N   UNL     1     -11.514  14.456  68.766  1.00  0.00    -0.272 N  
HETATM    4  C   UNL     1     -11.888  13.478  69.875  1.00  0.00    -0.316 C  
HETATM    5  C   UNL     1     -11.931  15.860  69.169  1.00  0.00    -0.255 C  
BRANCH   3   6
HETATM    6  C   UNL     1     -12.210  14.023  67.431  1.00  0.00    -0.254 C  
BRANCH   6   7
HETATM    7  C   UNL     1     -11.421  13.246  66.398  1.00  0.00    -0.364 A  
HETATM    8  C   UNL     1     -11.179  11.872  66.603  1.00  0.00    -0.384 A  
HETATM    9  C   UNL     1     -10.497  11.099  65.659  1.00  0.00    -0.308 A  
HETATM   10  C   UNL     1     -10.086  11.668  64.461  1.00  0.00    -0.321 A  
HETATM   11  C   UNL     1     -10.342  13.015  64.216  1.00  0.00    -0.385 A  
HETATM   12  C   UNL     1     -10.993  13.801  65.177  1.00  0.00    -0.337 A  
HETATM   13 BR   UNL     1     -11.275  15.624  64.717  1.00  0.00    -0.320 Br 
ENDBRANCH   6   7
ENDBRANCH   3   6
ENDBRANCH   2   3
TORSDOF 3
ENDMDL
MODEL       80
REMARK 921   NORMALIZED FREE ENERGY PREDICTED BY IDOCK:   -3.26 KCAL/MOL
REMARK 922        TOTAL FREE ENERGY PREDICTED BY IDOCK:   -4.03 KCAL/MOL
REMARK 923 INTER-LIGAND FREE ENERGY PREDICTED BY IDOCK:   -3.82 KCAL/MOL
REMARK 924 INTRA-LIGAND FREE ENERGY PREDICTED BY IDOCK:   -0.21 KCAL/MOL
REMARK 927      BINDING AFFINITY PREDICTED BY RF-SCORE:    0.00 PKD
ROOT
HETATM    1  C   UNL     1     -10.008   6.003  69.804  1.00  0.00    -0.223 C  
HETATM    2  C   UNL     1      -8.836   6.953  69.611  1.00  0.00    -0.141 C  
ENDROOT
BRANCH   2   3
HETATM    3  N   UNL     1      -9.145   8.436  69.928  1.00  0.00    -0.145 N  
HETATM    4  C   UNL     1      -8.931   8.722  71.411  1.00  0.00    -0.238 C  
HETATM    5  C   UNL     1      -8.257   9.353  69.104  1.00  0.00    -0.112 C  
BRANCH   3   6
HETATM    6  C   UNL     1     -10.655   8.642  69.569  1.00  0.00    -0.213 C  
BRANCH   6   7
HETATM    7  C   UNL     1     -11.483   9.628  70.368  1.00  0.00    -0.325 A  
HETATM    8  C   UNL     1     -11.489  10.987  69.994  1.00  0.00    -0.398 A  
HETATM    9  C   UNL     1     -12.271  11.929  70.669  1.00  0.00    -0.424 A  
HETATM   10  C   UNL     1     -13.109  11.526  71.700  1.00  0.00    -0.478 A  
HETATM   11  C   UNL     1     -13.150  10.183  72.068  1.00  0.00    -0.538 A  
HETATM   12  C   UNL     1     -12.339   9.243  71.417  1.00  0.00    -0.343 A  
HETATM   13 BR   UNL     1     -12.489   7.446  72.020  1.00  0.00    -0.245 Br 
ENDBRANCH   6   7
ENDBRANCH   3   6
ENDBRANCH   2   3
TORSDOF 3
ENDMDL
MODEL       81
REMARK 921   NORMALIZED FREE ENERGY PREDICTED BY IDOCK:   -3.25 KCAL/MOL
REMARK 922        TOTAL FREE ENERGY PREDICTED BY IDOCK:   -4.02 KCAL/MOL
REMARK 923 INTER-LIGAND FREE ENERGY PREDICTED BY IDOCK:   -4.22 KCAL/MOL
REMARK 924 INTRA-LIGAND FREE ENERGY PREDICTED BY IDOCK:    0.19 KCAL/MOL
REMARK 927      BINDING AFFINITY PREDICTED BY RF-SCORE:    0.00 PKD
ROOT
HETATM    1  C   UNL     1      -9.011  12.369  68.085  1.00  0.00    -0.196 C  
HETATM    2  C   UNL     1      -8.950  10.940  68.600  1.00  0.00    -0.162 C  
ENDROOT
BRANCH   2   3
HETATM    3  N   UNL     1     -10.329  10.277  68.835  1.00  0.00    -0.192 N  
HETATM    4  C   UNL     1     -11.443  11.315  68.754  1.00  0.00    -0.293 C  
HETATM    5  C   UNL     1     -10.578   9.188  67.805  1.00  0.00    -0.227 C  
BRANCH   3   6
HETATM    6  C   UNL     1     -10.273   9.681  70.282  1.00  0.00    -0.277 C  
BRANCH   6   7
HETATM    7  C   UNL     1     -11.553   9.217  70.946  1.00  0.00    -0.364 A  
HETATM    8  C   UNL     1     -12.428  10.173  71.503  1.00  0.00    -0.526 A  
HETATM    9  C   UNL     1     -13.643   9.802  72.086  1.00  0.00    -0.432 A  
HETATM   10  C   UNL     1     -14.041   8.472  72.077  1.00  0.00    -0.516 A  
HETATM   11  C   UNL     1     -13.214   7.511  71.502  1.00  0.00    -0.404 A  
HETATM   12  C   UNL     1     -11.977   7.875  70.950  1.00  0.00    -0.196 A  
HETATM   13 BR   UNL     1     -10.945   6.465  70.202  1.00  0.00    -0.431 Br 
ENDBRANCH   6   7
ENDBRANCH   3   6
ENDBRANCH   2   3
TORSDOF 3
ENDMDL
MODEL       82
REMARK 921   NORMALIZED FREE ENERGY PREDICTED BY IDOCK:   -3.22 KCAL/MOL
REMARK 922        TOTAL FREE ENERGY PREDICTED BY IDOCK:   -3.98 KCAL/MOL
REMARK 923 INTER-LIGAND FREE ENERGY PREDICTED BY IDOCK:   -3.88 KCAL/MOL
REMARK 924 INTRA-LIGAND FREE ENERGY PREDICTED BY IDOCK:   -0.10 KCAL/MOL
REMARK 927      BINDING AFFINITY PREDICTED BY RF-SCORE:    0.00 PKD
ROOT
HETATM    1  C   UNL     1     -11.193  11.436  67.419  1.00  0.00    -0.370 C  
HETATM    2  C   UNL     1     -11.329  10.227  68.331  1.00  0.00    -0.178 C  
ENDROOT
BRANCH   2   3
HETATM    3  N   UNL     1     -10.030   9.822  69.069  1.00  0.00    -0.175 N  
HETATM    4  C   UNL     1      -9.508   8.490  68.542  1.00  0.00    -0.142 C  
HETATM    5  C   UNL     1      -8.962  10.889  68.891  1.00  0.00    -0.140 C  
BRANCH   3   6
HETATM    6  C   UNL     1     -10.427   9.669  70.576  1.00  0.00    -0.303 C  
BRANCH   6   7
HETATM    7  C   UNL     1     -11.785   9.103  70.934  1.00  0.00    -0.341 A  
HETATM    8  C   UNL     1     -11.960   7.705  70.987  1.00  0.00    -0.296 A  
HETATM    9  C   UNL     1     -13.181   7.133  71.357  1.00  0.00    -0.391 A  
HETATM   10  C   UNL     1     -14.242   7.943  71.737  1.00  0.00    -0.555 A  
HETATM   11  C   UNL     1     -14.087   9.327  71.729  1.00  0.00    -0.255 A  
HETATM   12  C   UNL     1     -12.876   9.905  71.323  1.00  0.00    -0.390 A  
HETATM   13 BR   UNL     1     -12.801  11.804  71.355  1.00  0.00    -0.347 Br 
ENDBRANCH   6   7
ENDBRANCH   3   6
ENDBRANCH   2   3
TORSDOF 3
ENDMDL
MODEL       83
REMARK 921   NORMALIZED FREE ENERGY PREDICTED BY IDOCK:   -3.21 KCAL/MOL
REMARK 922        TOTAL FREE ENERGY PREDICTED BY IDOCK:   -3.97 KCAL/MOL
REMARK 923 INTER-LIGAND FREE ENERGY PREDICTED BY IDOCK:   -3.70 KCAL/MOL
REMARK 924 INTRA-LIGAND FREE ENERGY PREDICTED BY IDOCK:   -0.28 KCAL/MOL
REMARK 927      BINDING AFFINITY PREDICTED BY RF-SCORE:    0.00 PKD
ROOT
HETATM    1  C   UNL     1     -11.763  15.690  68.656  1.00  0.00    -0.364 C  
HETATM    2  C   UNL     1     -10.287  15.930  68.383  1.00  0.00    -0.240 C  
ENDROOT
BRANCH   2   3
HETATM    3  N   UNL     1      -9.593  14.823  67.553  1.00  0.00    -0.207 N  
HETATM    4  C   UNL     1      -9.203  15.351  66.177  1.00  0.00    -0.327 C  
HETATM    5  C   UNL     1      -8.352  14.320  68.271  1.00  0.00    -0.165 C  
BRANCH   3   6
HETATM    6  C   UNL     1     -10.654  13.682  67.394  1.00  0.00    -0.259 C  
BRANCH   6   7
HETATM    7  C   UNL     1     -10.673  12.855  66.126  1.00  0.00    -0.290 A  
HETATM    8  C   UNL     1      -9.841  11.720  66.028  1.00  0.00    -0.258 A  
HETATM    9  C   UNL     1      -9.855  10.897  64.898  1.00  0.00    -0.339 A  
HETATM   10  C   UNL     1     -10.739  11.155  63.860  1.00  0.00    -0.407 A  
HETATM   11  C   UNL     1     -11.597  12.249  63.945  1.00  0.00    -0.525 A  
HETATM   12  C   UNL     1     -11.560  13.098  65.060  1.00  0.00    -0.325 A  
HETATM   13 BR   UNL     1     -12.781  14.555  65.046  1.00  0.00     0.009 Br 
ENDBRANCH   6   7
ENDBRANCH   3   6
ENDBRANCH   2   3
TORSDOF 3
ENDMDL
MODEL       84
REMARK 921   NORMALIZED FREE ENERGY PREDICTED BY IDOCK:   -3.19 KCAL/MOL
REMARK 922        TOTAL FREE ENERGY PREDICTED BY IDOCK:   -3.96 KCAL/MOL
REMARK 923 INTER-LIGAND FREE ENERGY PREDICTED BY IDOCK:   -3.79 KCAL/MOL
REMARK 924 INTRA-LIGAND FREE ENERGY PREDICTED BY IDOCK:   -0.17 KCAL/MOL
REMARK 927      BINDING AFFINITY PREDICTED BY RF-SCORE:    0.00 PKD
ROOT
HETATM    1  C   UNL     1      -8.421   6.626  68.963  1.00  0.00    -0.130 C  
HETATM    2  C   UNL     1      -8.221   7.404  70.254  1.00  0.00    -0.132 C  
ENDROOT
BRANCH   2   3
HETATM    3  N   UNL     1      -9.425   7.367  71.226  1.00  0.00    -0.154 N  
HETATM    4  C   UNL     1      -9.585   5.974  71.826  1.00  0.00    -0.151 C  
HETATM    5  C   UNL     1      -9.238   8.380  72.344  1.00  0.00    -0.275 C  
BRANCH   3   6
HETATM    6  C   UNL     1     -10.683   7.710  70.359  1.00  0.00    -0.236 C  
BRANCH   6   7
HETATM    7  C   UNL     1     -11.592   8.845  70.783  1.00  0.00    -0.301 A  
HETATM    8  C   UNL     1     -12.629   8.592  71.704  1.00  0.00    -0.381 A  
HETATM    9  C   UNL     1     -13.466   9.614  72.163  1.00  0.00    -0.516 A  
HETATM   10  C   UNL     1     -13.254  10.923  71.755  1.00  0.00    -0.513 A  
HETATM   11  C   UNL     1     -12.214  11.208  70.873  1.00  0.00    -0.468 A  
HETATM   12  C   UNL     1     -11.396  10.180  70.382  1.00  0.00    -0.326 A  
HETATM   13 BR   UNL     1     -10.019  10.706  69.182  1.00  0.00    -0.207 Br 
ENDBRANCH   6   7
ENDBRANCH   3   6
ENDBRANCH   2   3
TORSDOF 3
ENDMDL
MODEL       85
REMARK 921   NORMALIZED FREE ENERGY PREDICTED BY IDOCK:   -3.19 KCAL/MOL
REMARK 922        TOTAL FREE ENERGY PREDICTED BY IDOCK:   -3.95 KCAL/MOL
REMARK 923 INTER-LIGAND FREE ENERGY PREDICTED BY IDOCK:   -3.82 KCAL/MOL
REMARK 924 INTRA-LIGAND FREE ENERGY PREDICTED BY IDOCK:   -0.14 KCAL/MOL
REMARK 927      BINDING AFFINITY PREDICTED BY RF-SCORE:    0.00 PKD
ROOT
HETATM    1  C   UNL     1     -10.400  19.250  68.193  1.00  0.00    -0.496 C  
HETATM    2  C   UNL     1      -9.246  18.260  68.185  1.00  0.00    -0.301 C  
ENDROOT
BRANCH   2   3
HETATM    3  N   UNL     1      -8.174  18.522  67.100  1.00  0.00    -0.248 N  
HETATM    4  C   UNL     1      -8.632  19.623  66.150  1.00  0.00    -0.333 C  
HETATM    5  C   UNL     1      -6.856  18.924  67.740  1.00  0.00    -0.207 C  
BRANCH   3   6
HETATM    6  C   UNL     1      -8.030  17.177  66.311  1.00  0.00    -0.304 C  
BRANCH   6   7
HETATM    7  C   UNL     1      -9.053  16.079  66.517  1.00  0.00    -0.319 A  
HETATM    8  C   UNL     1     -10.186  16.024  65.680  1.00  0.00    -0.412 A  
HETATM    9  C   UNL     1     -11.136  15.006  65.798  1.00  0.00    -0.346 A  
HETATM   10  C   UNL     1     -10.950  13.985  66.720  1.00  0.00    -0.298 A  
HETATM   11  C   UNL     1      -9.821  13.994  67.537  1.00  0.00    -0.236 A  
HETATM   12  C   UNL     1      -8.886  15.034  67.446  1.00  0.00    -0.190 A  
HETATM   13 BR   UNL     1      -7.395  14.926  68.621  1.00  0.00    -0.129 Br 
ENDBRANCH   6   7
ENDBRANCH   3   6
ENDBRANCH   2   3
TORSDOF 3
ENDMDL
MODEL       86
REMARK 921   NORMALIZED FREE ENERGY PREDICTED BY IDOCK:   -3.18 KCAL/MOL
REMARK 922        TOTAL FREE ENERGY PREDICTED BY IDOCK:   -3.94 KCAL/MOL
REMARK 923 INTER-LIGAND FREE ENERGY PREDICTED BY IDOCK:   -3.77 KCAL/MOL
REMARK 924 INTRA-LIGAND FREE ENERGY PREDICTED BY IDOCK:   -0.16 KCAL/MOL
REMARK 927      BINDING AFFINITY PREDICTED BY RF-SCORE:    0.00 PKD
ROOT
HETATM    1  C   UNL     1      -9.599   7.512  73.618  1.00  0.00    -0.347 C  
HETATM    2  C   UNL     1     -10.985   7.412  73.001  1.00  0.00    -0.374 C  
ENDROOT
BRANCH   2   3
HETATM    3  N   UNL     1     -11.059   7.807  71.506  1.00  0.00    -0.234 N  
HETATM    4  C   UNL     1     -11.910   9.059  71.325  1.00  0.00    -0.312 C  
HETATM    5  C   UNL     1      -9.667   8.059  70.952  1.00  0.00    -0.164 C  
BRANCH   3   6
HETATM    6  C   UNL     1     -11.744   6.599  70.781  1.00  0.00    -0.388 C  
BRANCH   6   7
HETATM    7  C   UNL     1     -11.052   5.952  69.599  1.00  0.00    -0.414 A  
HETATM    8  C   UNL     1     -11.231   6.495  68.311  1.00  0.00    -0.259 A  
HETATM    9  C   UNL     1     -10.579   5.964  67.194  1.00  0.00    -0.373 A  
HETATM   10  C   UNL     1      -9.689   4.909  67.345  1.00  0.00    -0.195 A  
HETATM   11  C   UNL     1      -9.465   4.375  68.612  1.00  0.00    -0.219 A  
HETATM   12  C   UNL     1     -10.146   4.882  69.728  1.00  0.00    -0.249 A  
HETATM   13 BR   UNL     1      -9.752   4.058  71.395  1.00  0.00    -0.247 Br 
ENDBRANCH   6   7
ENDBRANCH   3   6
ENDBRANCH   2   3
TORSDOF 3
ENDMDL
MODEL       87
REMARK 921   NORMALIZED FREE ENERGY PREDICTED BY IDOCK:   -3.17 KCAL/MOL
REMARK 922        TOTAL FREE ENERGY PREDICTED BY IDOCK:   -3.93 KCAL/MOL
REMARK 923 INTER-LIGAND FREE ENERGY PREDICTED BY IDOCK:   -3.93 KCAL/MOL
REMARK 924 INTRA-LIGAND FREE ENERGY PREDICTED BY IDOCK:   -0.01 KCAL/MOL
REMARK 927      BINDING AFFINITY PREDICTED BY RF-SCORE:    0.00 PKD
ROOT
HETATM    1  C   UNL     1      -9.040  14.438  68.482  1.00  0.00    -0.193 C  
HETATM    2  C   UNL     1      -9.777  13.168  68.090  1.00  0.00    -0.228 C  
ENDROOT
BRANCH   2   3
HETATM    3  N   UNL     1     -11.317  13.307  68.020  1.00  0.00    -0.273 N  
HETATM    4  C   UNL     1     -11.854  13.956  69.291  1.00  0.00    -0.348 C  
HETATM    5  C   UNL     1     -11.722  14.142  66.817  1.00  0.00    -0.410 C  
BRANCH   3   6
HETATM    6  C   UNL     1     -11.871  11.847  67.904  1.00  0.00    -0.238 C  
BRANCH   6   7
HETATM    7  C   UNL     1     -11.386  10.788  68.873  1.00  0.00    -0.349 A  
HETATM    8  C   UNL     1     -11.890  10.773  70.190  1.00  0.00    -0.427 A  
HETATM    9  C   UNL     1     -11.510   9.790  71.108  1.00  0.00    -0.472 A  
HETATM   10  C   UNL     1     -10.660   8.765  70.718  1.00  0.00    -0.269 A  
HETATM   11  C   UNL     1     -10.175   8.733  69.412  1.00  0.00    -0.210 A  
HETATM   12  C   UNL     1     -10.524   9.739  68.500  1.00  0.00    -0.210 A  
HETATM   13 BR   UNL     1      -9.789   9.578  66.754  1.00  0.00    -0.298 Br 
ENDBRANCH   6   7
ENDBRANCH   3   6
ENDBRANCH   2   3
TORSDOF 3
ENDMDL
MODEL       88
REMARK 921   NORMALIZED FREE ENERGY PREDICTED BY IDOCK:   -3.17 KCAL/MOL
REMARK 922        TOTAL FREE ENERGY PREDICTED BY IDOCK:   -3.93 KCAL/MOL
REMARK 923 INTER-LIGAND FREE ENERGY PREDICTED BY IDOCK:   -3.74 KCAL/MOL
REMARK 924 INTRA-LIGAND FREE ENERGY PREDICTED BY IDOCK:   -0.19 KCAL/MOL
REMARK 927      BINDING AFFINITY PREDICTED BY RF-SCORE:    0.00 PKD
ROOT
HETATM    1  C   UNL     1      -9.757  20.068  66.383  1.00  0.00    -0.557 C  
HETATM    2  C   UNL     1     -10.525  18.756  66.395  1.00  0.00    -0.429 C  
ENDROOT
BRANCH   2   3
HETATM    3  N   UNL     1      -9.902  17.649  67.279  1.00  0.00    -0.293 N  
HETATM    4  C   UNL     1     -10.240  17.883  68.748  1.00  0.00    -0.360 C  
HETATM    5  C   UNL     1     -10.411  16.281  66.857  1.00  0.00    -0.302 C  
BRANCH   3   6
HETATM    6  C   UNL     1      -8.354  17.762  67.075  1.00  0.00    -0.226 C  
BRANCH   6   7
HETATM    7  C   UNL     1      -7.423  17.391  68.211  1.00  0.00    -0.227 A  
HETATM    8  C   UNL     1      -7.297  16.038  68.587  1.00  0.00    -0.159 A  
HETATM    9  C   UNL     1      -6.418  15.637  69.597  1.00  0.00    -0.179 A  
HETATM   10  C   UNL     1      -5.603  16.572  70.221  1.00  0.00    -0.183 A  
HETATM   11  C   UNL     1      -5.681  17.911  69.845  1.00  0.00    -0.247 A  
HETATM   12  C   UNL     1      -6.588  18.321  68.858  1.00  0.00    -0.245 A  
HETATM   13 BR   UNL     1      -6.596  20.177  68.446  1.00  0.00    -0.334 Br 
ENDBRANCH   6   7
ENDBRANCH   3   6
ENDBRANCH   2   3
TORSDOF 3
ENDMDL
MODEL       89
REMARK 921   NORMALIZED FREE ENERGY PREDICTED BY IDOCK:   -3.17 KCAL/MOL
REMARK 922        TOTAL FREE ENERGY PREDICTED BY IDOCK:   -3.93 KCAL/MOL
REMARK 923 INTER-LIGAND FREE ENERGY PREDICTED BY IDOCK:   -3.76 KCAL/MOL
REMARK 924 INTRA-LIGAND FREE ENERGY PREDICTED BY IDOCK:   -0.17 KCAL/MOL
REMARK 927      BINDING AFFINITY PREDICTED BY RF-SCORE:    0.00 PKD
ROOT
HETATM    1  C   UNL     1      -9.217   8.761  67.273  1.00  0.00    -0.165 C  
HETATM    2  C   UNL     1     -10.262   9.411  66.381  1.00  0.00    -0.230 C  
ENDROOT
BRANCH   2   3
HETATM    3  N   UNL     1      -9.829  10.755  65.747  1.00  0.00    -0.227 N  
HETATM    4  C   UNL     1      -8.680  11.373  66.536  1.00  0.00    -0.181 C  
HETATM    5  C   UNL     1      -9.396  10.548  64.305  1.00  0.00    -0.267 C  
BRANCH   3   6
HETATM    6  C   UNL     1     -11.083  11.689  65.830  1.00  0.00    -0.264 C  
BRANCH   6   7
HETATM    7  C   UNL     1     -10.890  13.179  66.015  1.00  0.00    -0.287 A  
HETATM    8  C   UNL     1     -10.603  13.983  64.892  1.00  0.00    -0.442 A  
HETATM    9  C   UNL     1     -10.462  15.370  65.001  1.00  0.00    -0.411 A  
HETATM   10  C   UNL     1     -10.658  15.995  66.225  1.00  0.00    -0.288 A  
HETATM   11  C   UNL     1     -10.977  15.230  67.344  1.00  0.00    -0.321 A  
HETATM   12  C   UNL     1     -11.083  13.835  67.246  1.00  0.00    -0.304 A  
HETATM   13 BR   UNL     1     -11.519  12.913  68.849  1.00  0.00    -0.373 Br 
ENDBRANCH   6   7
ENDBRANCH   3   6
ENDBRANCH   2   3
TORSDOF 3
ENDMDL
MODEL       90
REMARK 921   NORMALIZED FREE ENERGY PREDICTED BY IDOCK:   -3.17 KCAL/MOL
REMARK 922        TOTAL FREE ENERGY PREDICTED BY IDOCK:   -3.93 KCAL/MOL
REMARK 923 INTER-LIGAND FREE ENERGY PREDICTED BY IDOCK:   -3.76 KCAL/MOL
REMARK 924 INTRA-LIGAND FREE ENERGY PREDICTED BY IDOCK:   -0.16 KCAL/MOL
REMARK 927      BINDING AFFINITY PREDICTED BY RF-SCORE:    0.00 PKD
ROOT
HETATM    1  C   UNL     1     -12.101  12.619  63.481  1.00  0.00    -0.648 C  
HETATM    2  C   UNL     1     -12.560  12.642  64.929  1.00  0.00    -0.450 C  
ENDROOT
BRANCH   2   3
HETATM    3  N   UNL     1     -11.453  12.331  65.965  1.00  0.00    -0.364 N  
HETATM    4  C   UNL     1     -11.833  12.881  67.336  1.00  0.00    -0.360 C  
HETATM    5  C   UNL     1     -11.225  10.832  66.068  1.00  0.00     0.303 C  
BRANCH   3   6
HETATM    6  C   UNL     1     -10.168  13.062  65.447  1.00  0.00    -0.288 C  
BRANCH   6   7
HETATM    7  C   UNL     1      -9.833  14.442  65.974  1.00  0.00    -0.342 A  
HETATM    8  C   UNL     1     -10.496  15.565  65.440  1.00  0.00    -0.429 A  
HETATM    9  C   UNL     1     -10.257  16.855  65.924  1.00  0.00    -0.330 A  
HETATM   10  C   UNL     1      -9.389  17.049  66.990  1.00  0.00    -0.249 A  
HETATM   11  C   UNL     1      -8.747  15.953  67.560  1.00  0.00    -0.189 A  
HETATM   12  C   UNL     1      -8.956  14.662  67.053  1.00  0.00    -0.240 A  
HETATM   13 BR   UNL     1      -8.013  13.258  67.920  1.00  0.00    -0.175 Br 
ENDBRANCH   6   7
ENDBRANCH   3   6
ENDBRANCH   2   3
TORSDOF 3
ENDMDL
MODEL       91
REMARK 921   NORMALIZED FREE ENERGY PREDICTED BY IDOCK:   -3.15 KCAL/MOL
REMARK 922        TOTAL FREE ENERGY PREDICTED BY IDOCK:   -3.91 KCAL/MOL
REMARK 923 INTER-LIGAND FREE ENERGY PREDICTED BY IDOCK:   -3.67 KCAL/MOL
REMARK 924 INTRA-LIGAND FREE ENERGY PREDICTED BY IDOCK:   -0.24 KCAL/MOL
REMARK 927      BINDING AFFINITY PREDICTED BY RF-SCORE:    0.00 PKD
ROOT
HETATM    1  C   UNL     1      -9.763   7.278  73.736  1.00  0.00    -0.344 C  
HETATM    2  C   UNL     1     -11.018   7.519  72.913  1.00  0.00    -0.383 C  
ENDROOT
BRANCH   2   3
HETATM    3  N   UNL     1     -10.760   7.912  71.438  1.00  0.00    -0.222 N  
HETATM    4  C   UNL     1     -11.418   9.249  71.117  1.00  0.00    -0.333 C  
HETATM    5  C   UNL     1      -9.268   8.005  71.164  1.00  0.00    -0.149 C  
BRANCH   3   6
HETATM    6  C   UNL     1     -11.422   6.783  70.576  1.00  0.00    -0.360 C  
BRANCH   6   7
HETATM    7  C   UNL     1     -10.572   5.633  70.077  1.00  0.00    -0.388 A  
HETATM    8  C   UNL     1     -10.201   4.609  70.973  1.00  0.00    -0.207 A  
HETATM    9  C   UNL     1      -9.457   3.502  70.553  1.00  0.00    -0.249 A  
HETATM   10  C   UNL     1      -9.112   3.363  69.216  1.00  0.00    -0.199 A  
HETATM   11  C   UNL     1      -9.496   4.342  68.302  1.00  0.00    -0.212 A  
HETATM   12  C   UNL     1     -10.209   5.471  68.727  1.00  0.00    -0.199 A  
HETATM   13 BR   UNL     1     -10.666   6.731  67.378  1.00  0.00    -0.429 Br 
ENDBRANCH   6   7
ENDBRANCH   3   6
ENDBRANCH   2   3
TORSDOF 3
ENDMDL
MODEL       92
REMARK 921   NORMALIZED FREE ENERGY PREDICTED BY IDOCK:   -3.13 KCAL/MOL
REMARK 922        TOTAL FREE ENERGY PREDICTED BY IDOCK:   -3.89 KCAL/MOL
REMARK 923 INTER-LIGAND FREE ENERGY PREDICTED BY IDOCK:   -3.76 KCAL/MOL
REMARK 924 INTRA-LIGAND FREE ENERGY PREDICTED BY IDOCK:   -0.12 KCAL/MOL
REMARK 927      BINDING AFFINITY PREDICTED BY RF-SCORE:    0.00 PKD
ROOT
HETATM    1  C   UNL     1      -8.276  10.337  69.336  1.00  0.00    -0.171 C  
HETATM    2  C   UNL     1      -9.189  11.088  68.380  1.00  0.00    -0.175 C  
ENDROOT
BRANCH   2   3
HETATM    3  N   UNL     1     -10.120  10.188  67.531  1.00  0.00    -0.190 N  
HETATM    4  C   UNL     1      -9.640  10.136  66.085  1.00  0.00    -0.203 C  
HETATM    5  C   UNL     1     -10.163   8.780  68.100  1.00  0.00    -0.205 C  
BRANCH   3   6
HETATM    6  C   UNL     1     -11.532  10.863  67.589  1.00  0.00    -0.200 C  
BRANCH   6   7
HETATM    7  C   UNL     1     -11.733  12.097  68.444  1.00  0.00    -0.388 A  
HETATM    8  C   UNL     1     -11.701  13.370  67.839  1.00  0.00    -0.396 A  
HETATM    9  C   UNL     1     -11.927  14.537  68.574  1.00  0.00    -0.321 A  
HETATM   10  C   UNL     1     -12.244  14.458  69.923  1.00  0.00    -0.394 A  
HETATM   11  C   UNL     1     -12.318  13.212  70.540  1.00  0.00    -0.380 A  
HETATM   12  C   UNL     1     -12.055  12.042  69.814  1.00  0.00    -0.248 A  
HETATM   13 BR   UNL     1     -12.186  10.409  70.778  1.00  0.00    -0.492 Br 
ENDBRANCH   6   7
ENDBRANCH   3   6
ENDBRANCH   2   3
TORSDOF 3
ENDMDL
MODEL       93
REMARK 921   NORMALIZED FREE ENERGY PREDICTED BY IDOCK:   -3.13 KCAL/MOL
REMARK 922        TOTAL FREE ENERGY PREDICTED BY IDOCK:   -3.88 KCAL/MOL
REMARK 923 INTER-LIGAND FREE ENERGY PREDICTED BY IDOCK:   -3.77 KCAL/MOL
REMARK 924 INTRA-LIGAND FREE ENERGY PREDICTED BY IDOCK:   -0.11 KCAL/MOL
REMARK 927      BINDING AFFINITY PREDICTED BY RF-SCORE:    0.00 PKD
ROOT
HETATM    1  C   UNL     1      -8.531   9.129  69.030  1.00  0.00    -0.132 C  
HETATM    2  C   UNL     1      -8.239   9.935  67.775  1.00  0.00    -0.114 C  
ENDROOT
BRANCH   2   3
HETATM    3  N   UNL     1      -9.445  10.107  66.820  1.00  0.00    -0.163 N  
HETATM    4  C   UNL     1      -9.417   9.044  65.727  1.00  0.00    -0.236 C  
HETATM    5  C   UNL     1     -10.752  10.006  67.588  1.00  0.00    -0.284 C  
BRANCH   3   6
HETATM    6  C   UNL     1      -9.279  11.524  66.175  1.00  0.00    -0.219 C  
BRANCH   6   7
HETATM    7  C   UNL     1     -10.506  12.371  65.912  1.00  0.00    -0.284 A  
HETATM    8  C   UNL     1     -11.340  12.059  64.818  1.00  0.00    -0.369 A  
HETATM    9  C   UNL     1     -12.509  12.780  64.559  1.00  0.00    -0.501 A  
HETATM   10  C   UNL     1     -12.904  13.796  65.418  1.00  0.00    -0.455 A  
HETATM   11  C   UNL     1     -12.119  14.103  66.527  1.00  0.00    -0.481 A  
HETATM   12  C   UNL     1     -10.927  13.407  66.768  1.00  0.00    -0.288 A  
HETATM   13 BR   UNL     1      -9.949  13.929  68.313  1.00  0.00    -0.240 Br 
ENDBRANCH   6   7
ENDBRANCH   3   6
ENDBRANCH   2   3
TORSDOF 3
ENDMDL
MODEL       94
REMARK 921   NORMALIZED FREE ENERGY PREDICTED BY IDOCK:   -3.12 KCAL/MOL
REMARK 922        TOTAL FREE ENERGY PREDICTED BY IDOCK:   -3.87 KCAL/MOL
REMARK 923 INTER-LIGAND FREE ENERGY PREDICTED BY IDOCK:   -3.69 KCAL/MOL
REMARK 924 INTRA-LIGAND FREE ENERGY PREDICTED BY IDOCK:   -0.18 KCAL/MOL
REMARK 927      BINDING AFFINITY PREDICTED BY RF-SCORE:    0.00 PKD
ROOT
HETATM    1  C   UNL     1     -10.638  16.684  66.978  1.00  0.00    -0.247 C  
HETATM    2  C   UNL     1     -10.476  15.924  65.672  1.00  0.00    -0.392 C  
ENDROOT
BRANCH   2   3
HETATM    3  N   UNL     1     -11.242  14.581  65.604  1.00  0.00    -0.327 N  
HETATM    4  C   UNL     1     -11.997  14.329  66.905  1.00  0.00    -0.438 C  
HETATM    5  C   UNL     1     -12.224  14.586  64.444  1.00  0.00    -0.458 C  
BRANCH   3   6
HETATM    6  C   UNL     1     -10.148  13.477  65.412  1.00  0.00    -0.262 C  
BRANCH   6   7
HETATM    7  C   UNL     1      -9.951  12.430  66.488  1.00  0.00    -0.242 A  
HETATM    8  C   UNL     1     -10.705  11.239  66.441  1.00  0.00    -0.320 A  
HETATM    9  C   UNL     1     -10.527  10.221  67.383  1.00  0.00    -0.303 A  
HETATM   10  C   UNL     1      -9.553  10.344  68.364  1.00  0.00    -0.153 A  
HETATM   11  C   UNL     1      -8.768  11.494  68.413  1.00  0.00    -0.160 A  
HETATM   12  C   UNL     1      -8.970  12.532  67.493  1.00  0.00    -0.185 A  
HETATM   13 BR   UNL     1      -7.834  14.046  67.675  1.00  0.00    -0.201 Br 
ENDBRANCH   6   7
ENDBRANCH   3   6
ENDBRANCH   2   3
TORSDOF 3
ENDMDL
MODEL       95
REMARK 921   NORMALIZED FREE ENERGY PREDICTED BY IDOCK:   -3.12 KCAL/MOL
REMARK 922        TOTAL FREE ENERGY PREDICTED BY IDOCK:   -3.87 KCAL/MOL
REMARK 923 INTER-LIGAND FREE ENERGY PREDICTED BY IDOCK:   -3.83 KCAL/MOL
REMARK 924 INTRA-LIGAND FREE ENERGY PREDICTED BY IDOCK:   -0.03 KCAL/MOL
REMARK 927      BINDING AFFINITY PREDICTED BY RF-SCORE:    0.00 PKD
ROOT
HETATM    1  C   UNL     1      -7.544  11.457  67.046  1.00  0.00    -0.151 C  
HETATM    2  C   UNL     1      -8.900  11.558  66.367  1.00  0.00    -0.193 C  
ENDROOT
BRANCH   2   3
HETATM    3  N   UNL     1     -10.043  10.803  67.088  1.00  0.00    -0.197 N  
HETATM    4  C   UNL     1     -10.247   9.424  66.469  1.00  0.00    -0.238 C  
HETATM    5  C   UNL     1      -9.731  10.651  68.567  1.00  0.00    -0.174 C  
BRANCH   3   6
HETATM    6  C   UNL     1     -11.329  11.669  66.869  1.00  0.00    -0.295 C  
BRANCH   6   7
HETATM    7  C   UNL     1     -11.189  13.116  66.444  1.00  0.00    -0.328 A  
HETATM    8  C   UNL     1     -10.914  14.099  67.417  1.00  0.00    -0.306 A  
HETATM    9  C   UNL     1     -10.729  15.441  67.072  1.00  0.00    -0.321 A  
HETATM   10  C   UNL     1     -10.760  15.826  65.738  1.00  0.00    -0.337 A  
HETATM   11  C   UNL     1     -10.994  14.871  64.752  1.00  0.00    -0.390 A  
HETATM   12  C   UNL     1     -11.217  13.531  65.099  1.00  0.00    -0.309 A  
HETATM   13 BR   UNL     1     -11.529  12.333  63.656  1.00  0.00    -0.595 Br 
ENDBRANCH   6   7
ENDBRANCH   3   6
ENDBRANCH   2   3
TORSDOF 3
ENDMDL
MODEL       96
REMARK 921   NORMALIZED FREE ENERGY PREDICTED BY IDOCK:   -3.10 KCAL/MOL
REMARK 922        TOTAL FREE ENERGY PREDICTED BY IDOCK:   -3.85 KCAL/MOL
REMARK 923 INTER-LIGAND FREE ENERGY PREDICTED BY IDOCK:   -3.68 KCAL/MOL
REMARK 924 INTRA-LIGAND FREE ENERGY PREDICTED BY IDOCK:   -0.17 KCAL/MOL
REMARK 927      BINDING AFFINITY PREDICTED BY RF-SCORE:    0.00 PKD
ROOT
HETATM    1  C   UNL     1      -7.604  11.265  66.841  1.00  0.00    -0.148 C  
HETATM    2  C   UNL     1      -9.103  11.240  66.589  1.00  0.00    -0.179 C  
ENDROOT
BRANCH   2   3
HETATM    3  N   UNL     1      -9.975  11.199  67.867  1.00  0.00    -0.170 N  
HETATM    4  C   UNL     1     -11.112  10.196  67.707  1.00  0.00    -0.227 C  
HETATM    5  C   UNL     1      -9.133  10.820  69.074  1.00  0.00    -0.143 C  
BRANCH   3   6
HETATM    6  C   UNL     1     -10.568  12.641  68.024  1.00  0.00    -0.221 C  
BRANCH   6   7
HETATM    7  C   UNL     1     -11.009  13.402  66.791  1.00  0.00    -0.298 A  
HETATM    8  C   UNL     1     -12.264  13.118  66.216  1.00  0.00    -0.423 A  
HETATM    9  C   UNL     1     -12.738  13.824  65.106  1.00  0.00    -0.439 A  
HETATM   10  C   UNL     1     -11.994  14.869  64.577  1.00  0.00    -0.420 A  
HETATM   11  C   UNL     1     -10.765  15.195  65.147  1.00  0.00    -0.442 A  
HETATM   12  C   UNL     1     -10.270  14.465  66.236  1.00  0.00    -0.299 A  
HETATM   13 BR   UNL     1      -8.581  15.012  66.914  1.00  0.00    -0.273 Br 
ENDBRANCH   6   7
ENDBRANCH   3   6
ENDBRANCH   2   3
TORSDOF 3
ENDMDL
MODEL       97
REMARK 921   NORMALIZED FREE ENERGY PREDICTED BY IDOCK:   -3.10 KCAL/MOL
REMARK 922        TOTAL FREE ENERGY PREDICTED BY IDOCK:   -3.85 KCAL/MOL
REMARK 923 INTER-LIGAND FREE ENERGY PREDICTED BY IDOCK:   -3.84 KCAL/MOL
REMARK 924 INTRA-LIGAND FREE ENERGY PREDICTED BY IDOCK:   -0.01 KCAL/MOL
REMARK 927      BINDING AFFINITY PREDICTED BY RF-SCORE:    0.00 PKD
ROOT
HETATM    1  C   UNL     1     -12.188  14.684  71.986  1.00  0.00    -0.372 C  
HETATM    2  C   UNL     1     -12.497  14.278  70.554  1.00  0.00    -0.361 C  
ENDROOT
BRANCH   2   3
HETATM    3  N   UNL     1     -11.521  14.845  69.495  1.00  0.00    -0.279 N  
HETATM    4  C   UNL     1     -12.257  15.763  68.526  1.00  0.00     0.265 C  
HETATM    5  C   UNL     1     -10.397  15.617  70.166  1.00  0.00    -0.254 C  
BRANCH   3   6
HETATM    6  C   UNL     1     -10.966  13.602  68.720  1.00  0.00    -0.264 C  
BRANCH   6   7
HETATM    7  C   UNL     1     -11.116  13.536  67.215  1.00  0.00    -0.302 A  
HETATM    8  C   UNL     1     -12.249  12.907  66.660  1.00  0.00    -0.229 A  
HETATM    9  C   UNL     1     -12.459  12.860  65.278  1.00  0.00    -0.552 A  
HETATM   10  C   UNL     1     -11.568  13.488  64.418  1.00  0.00    -0.429 A  
HETATM   11  C   UNL     1     -10.458  14.148  64.940  1.00  0.00    -0.461 A  
HETATM   12  C   UNL     1     -10.226  14.164  66.323  1.00  0.00    -0.295 A  
HETATM   13 BR   UNL     1      -8.673  15.096  66.900  1.00  0.00    -0.304 Br 
ENDBRANCH   6   7
ENDBRANCH   3   6
ENDBRANCH   2   3
TORSDOF 3
ENDMDL
MODEL       98
REMARK 921   NORMALIZED FREE ENERGY PREDICTED BY IDOCK:   -3.09 KCAL/MOL
REMARK 922        TOTAL FREE ENERGY PREDICTED BY IDOCK:   -3.83 KCAL/MOL
REMARK 923 INTER-LIGAND FREE ENERGY PREDICTED BY IDOCK:   -4.00 KCAL/MOL
REMARK 924 INTRA-LIGAND FREE ENERGY PREDICTED BY IDOCK:    0.17 KCAL/MOL
REMARK 927      BINDING AFFINITY PREDICTED BY RF-SCORE:    0.00 PKD
ROOT
HETATM    1  C   UNL     1     -11.557  10.108  70.471  1.00  0.00    -0.411 C  
HETATM    2  C   UNL     1     -11.906  11.516  70.015  1.00  0.00    -0.355 C  
ENDROOT
BRANCH   2   3
HETATM    3  N   UNL     1     -11.368  11.895  68.614  1.00  0.00    -0.250 N  
HETATM    4  C   UNL     1      -9.906  12.319  68.699  1.00  0.00    -0.089 C  
HETATM    5  C   UNL     1     -11.499  10.721  67.658  1.00  0.00    -0.151 C  
BRANCH   3   6
HETATM    6  C   UNL     1     -12.237  13.108  68.139  1.00  0.00    -0.028 C  
BRANCH   6   7
HETATM    7  C   UNL     1     -11.616  14.167  67.253  1.00  0.00    -0.399 A  
HETATM    8  C   UNL     1     -10.961  15.266  67.847  1.00  0.00    -0.306 A  
HETATM    9  C   UNL     1     -10.331  16.248  67.075  1.00  0.00    -0.292 A  
HETATM   10  C   UNL     1     -10.292  16.127  65.693  1.00  0.00    -0.405 A  
HETATM   11  C   UNL     1     -10.900  15.033  65.081  1.00  0.00    -0.422 A  
HETATM   12  C   UNL     1     -11.565  14.067  65.850  1.00  0.00    -0.347 A  
HETATM   13 BR   UNL     1     -12.355  12.630  64.889  1.00  0.00    -0.547 Br 
ENDBRANCH   6   7
ENDBRANCH   3   6
ENDBRANCH   2   3
TORSDOF 3
ENDMDL
MODEL       99
REMARK 921   NORMALIZED FREE ENERGY PREDICTED BY IDOCK:   -3.08 KCAL/MOL
REMARK 922        TOTAL FREE ENERGY PREDICTED BY IDOCK:   -3.82 KCAL/MOL
REMARK 923 INTER-LIGAND FREE ENERGY PREDICTED BY IDOCK:   -3.95 KCAL/MOL
REMARK 924 INTRA-LIGAND FREE ENERGY PREDICTED BY IDOCK:    0.13 KCAL/MOL
REMARK 927      BINDING AFFINITY PREDICTED BY RF-SCORE:    0.00 PKD
ROOT
HETATM    1  C   UNL     1     -10.154  19.020  67.483  1.00  0.00    -0.447 C  
HETATM    2  C   UNL     1     -10.220  17.530  67.773  1.00  0.00    -0.349 C  
ENDROOT
BRANCH   2   3
HETATM    3  N   UNL     1      -8.845  16.820  67.833  1.00  0.00    -0.215 N  
HETATM    4  C   UNL     1      -8.391  16.413  66.435  1.00  0.00    -0.328 C  
HETATM    5  C   UNL     1      -7.802  17.731  68.457  1.00  0.00    -0.290 C  
BRANCH   3   6
HETATM    6  C   UNL     1      -9.067  15.537  68.704  1.00  0.00    -0.202 C  
BRANCH   6   7
HETATM    7  C   UNL     1      -9.981  14.442  68.197  1.00  0.00    -0.223 A  
HETATM    8  C   UNL     1      -9.510  13.549  67.213  1.00  0.00    -0.230 A  
HETATM    9  C   UNL     1     -10.298  12.492  66.745  1.00  0.00    -0.241 A  
HETATM   10  C   UNL     1     -11.555  12.269  67.288  1.00  0.00    -0.427 A  
HETATM   11  C   UNL     1     -12.032  13.113  68.288  1.00  0.00    -0.328 A  
HETATM   12  C   UNL     1     -11.260  14.196  68.732  1.00  0.00    -0.268 A  
HETATM   13 BR   UNL     1     -12.032  15.272  70.096  1.00  0.00    -0.406 Br 
ENDBRANCH   6   7
ENDBRANCH   3   6
ENDBRANCH   2   3
TORSDOF 3
ENDMDL
MODEL      100
REMARK 921   NORMALIZED FREE ENERGY PREDICTED BY IDOCK:   -3.07 KCAL/MOL
REMARK 922        TOTAL FREE ENERGY PREDICTED BY IDOCK:   -3.82 KCAL/MOL
REMARK 923 INTER-LIGAND FREE ENERGY PREDICTED BY IDOCK:   -3.72 KCAL/MOL
REMARK 924 INTRA-LIGAND FREE ENERGY PREDICTED BY IDOCK:   -0.09 KCAL/MOL
REMARK 927      BINDING AFFINITY PREDICTED BY RF-SCORE:    0.00 PKD
ROOT
HETATM    1  C   UNL     1     -10.291  11.788  63.597  1.00  0.00    -0.476 C  
HETATM    2  C   UNL     1     -11.445  11.919  64.578  1.00  0.00    -0.294 C  
ENDROOT
BRANCH   2   3
HETATM    3  N   UNL     1     -11.420  13.203  65.442  1.00  0.00    -0.298 N  
HETATM    4  C   UNL     1     -10.323  14.148  64.964  1.00  0.00    -0.418 C  
HETATM    5  C   UNL     1     -12.761  13.913  65.380  1.00  0.00    -0.490 C  
BRANCH   3   6
HETATM    6  C   UNL     1     -11.101  12.727  66.900  1.00  0.00    -0.270 C  
BRANCH   6   7
HETATM    7  C   UNL     1      -9.897  13.297  67.622  1.00  0.00    -0.230 A  
HETATM    8  C   UNL     1      -8.655  12.637  67.522  1.00  0.00    -0.185 A  
HETATM    9  C   UNL     1      -7.504  13.146  68.130  1.00  0.00    -0.131 A  
HETATM   10  C   UNL     1      -7.553  14.356  68.809  1.00  0.00    -0.131 A  
HETATM   11  C   UNL     1      -8.760  15.047  68.895  1.00  0.00    -0.197 A  
HETATM   12  C   UNL     1      -9.924  14.521  68.318  1.00  0.00    -0.229 A  
HETATM   13 BR   UNL     1     -11.501  15.563  68.512  1.00  0.00    -0.376 Br 
ENDBRANCH   6   7
ENDBRANCH   3   6
ENDBRANCH   2   3
TORSDOF 3
ENDMDL
MODEL      101
REMARK 921   NORMALIZED FREE ENERGY PREDICTED BY IDOCK:   -3.06 KCAL/MOL
REMARK 922        TOTAL FREE ENERGY PREDICTED BY IDOCK:   -3.80 KCAL/MOL
REMARK 923 INTER-LIGAND FREE ENERGY PREDICTED BY IDOCK:   -3.67 KCAL/MOL
REMARK 924 INTRA-LIGAND FREE ENERGY PREDICTED BY IDOCK:   -0.13 KCAL/MOL
REMARK 927      BINDING AFFINITY PREDICTED BY RF-SCORE:    0.00 PKD
ROOT
HETATM    1  C   UNL     1      -9.886  13.107  67.844  1.00  0.00    -0.231 C  
HETATM    2  C   UNL     1      -9.897  13.643  66.422  1.00  0.00    -0.296 C  
ENDROOT
BRANCH   2   3
HETATM    3  N   UNL     1     -10.656  14.980  66.240  1.00  0.00    -0.299 N  
HETATM    4  C   UNL     1     -11.651  14.877  65.089  1.00  0.00    -0.330 C  
HETATM    5  C   UNL     1     -11.396  15.351  67.515  1.00  0.00    -0.269 C  
BRANCH   3   6
HETATM    6  C   UNL     1      -9.563  16.046  65.892  1.00  0.00    -0.335 C  
BRANCH   6   7
HETATM    7  C   UNL     1      -8.684  16.598  66.995  1.00  0.00    -0.223 A  
HETATM    8  C   UNL     1      -7.493  15.923  67.333  1.00  0.00    -0.217 A  
HETATM    9  C   UNL     1      -6.624  16.415  68.311  1.00  0.00    -0.134 A  
HETATM   10  C   UNL     1      -6.895  17.623  68.939  1.00  0.00    -0.243 A  
HETATM   11  C   UNL     1      -8.047  18.329  68.600  1.00  0.00    -0.304 A  
HETATM   12  C   UNL     1      -8.940  17.820  67.646  1.00  0.00    -0.249 A  
HETATM   13 BR   UNL     1     -10.474  18.882  67.282  1.00  0.00    -0.540 Br 
ENDBRANCH   6   7
ENDBRANCH   3   6
ENDBRANCH   2   3
TORSDOF 3
ENDMDL
MODEL      102
REMARK 921   NORMALIZED FREE ENERGY PREDICTED BY IDOCK:   -3.05 KCAL/MOL
REMARK 922        TOTAL FREE ENERGY PREDICTED BY IDOCK:   -3.79 KCAL/MOL
REMARK 923 INTER-LIGAND FREE ENERGY PREDICTED BY IDOCK:   -3.75 KCAL/MOL
REMARK 924 INTRA-LIGAND FREE ENERGY PREDICTED BY IDOCK:   -0.04 KCAL/MOL
REMARK 927      BINDING AFFINITY PREDICTED BY RF-SCORE:    0.00 PKD
ROOT
HETATM    1  C   UNL     1      -8.221   8.793  65.002  1.00  0.00    -0.156 C  
HETATM    2  C   UNL     1      -9.241   8.742  66.127  1.00  0.00    -0.215 C  
ENDROOT
BRANCH   2   3
HETATM    3  N   UNL     1      -9.402  10.064  66.917  1.00  0.00    -0.156 N  
HETATM    4  C   UNL     1      -9.102   9.844  68.396  1.00  0.00    -0.123 C  
HETATM    5  C   UNL     1      -8.470  11.130  66.366  1.00  0.00    -0.167 C  
BRANCH   3   6
HETATM    6  C   UNL     1     -10.902  10.482  66.744  1.00  0.00    -0.142 C  
BRANCH   6   7
HETATM    7  C   UNL     1     -11.307  11.920  66.995  1.00  0.00    -0.392 A  
HETATM    8  C   UNL     1     -11.255  12.434  68.307  1.00  0.00    -0.309 A  
HETATM    9  C   UNL     1     -11.573  13.767  68.585  1.00  0.00    -0.369 A  
HETATM   10  C   UNL     1     -11.899  14.634  67.551  1.00  0.00    -0.375 A  
HETATM   11  C   UNL     1     -11.924  14.163  66.241  1.00  0.00    -0.448 A  
HETATM   12  C   UNL     1     -11.642  12.818  65.963  1.00  0.00    -0.383 A  
HETATM   13 BR   UNL     1     -11.716  12.306  64.134  1.00  0.00    -0.516 Br 
ENDBRANCH   6   7
ENDBRANCH   3   6
ENDBRANCH   2   3
TORSDOF 3
ENDMDL
MODEL      103
REMARK 921   NORMALIZED FREE ENERGY PREDICTED BY IDOCK:   -3.05 KCAL/MOL
REMARK 922        TOTAL FREE ENERGY PREDICTED BY IDOCK:   -3.78 KCAL/MOL
REMARK 923 INTER-LIGAND FREE ENERGY PREDICTED BY IDOCK:   -3.79 KCAL/MOL
REMARK 924 INTRA-LIGAND FREE ENERGY PREDICTED BY IDOCK:    0.01 KCAL/MOL
REMARK 927      BINDING AFFINITY PREDICTED BY RF-SCORE:    0.00 PKD
ROOT
HETATM    1  C   UNL     1      -8.368  12.808  67.719  1.00  0.00    -0.177 C  
HETATM    2  C   UNL     1      -9.428  13.677  67.062  1.00  0.00    -0.252 C  
ENDROOT
BRANCH   2   3
HETATM    3  N   UNL     1     -10.268  12.963  65.974  1.00  0.00    -0.279 N  
HETATM    4  C   UNL     1     -10.528  13.900  64.800  1.00  0.00    -0.429 C  
HETATM    5  C   UNL     1      -9.550  11.719  65.479  1.00  0.00    -0.201 C  
BRANCH   3   6
HETATM    6  C   UNL     1     -11.626  12.594  66.660  1.00  0.00    -0.381 C  
BRANCH   6   7
HETATM    7  C   UNL     1     -11.616  11.861  67.986  1.00  0.00    -0.401 A  
HETATM    8  C   UNL     1     -11.306  10.486  68.013  1.00  0.00    -0.319 A  
HETATM    9  C   UNL     1     -11.238   9.774  69.214  1.00  0.00    -0.128 A  
HETATM   10  C   UNL     1     -11.424  10.430  70.423  1.00  0.00    -0.420 A  
HETATM   11  C   UNL     1     -11.696  11.796  70.429  1.00  0.00    -0.253 A  
HETATM   12  C   UNL     1     -11.803  12.505  69.224  1.00  0.00    -0.304 A  
HETATM   13 BR   UNL     1     -12.183  14.362  69.374  1.00  0.00    -0.249 Br 
ENDBRANCH   6   7
ENDBRANCH   3   6
ENDBRANCH   2   3
TORSDOF 3
ENDMDL
MODEL      104
REMARK 921   NORMALIZED FREE ENERGY PREDICTED BY IDOCK:   -3.04 KCAL/MOL
REMARK 922        TOTAL FREE ENERGY PREDICTED BY IDOCK:   -3.78 KCAL/MOL
REMARK 923 INTER-LIGAND FREE ENERGY PREDICTED BY IDOCK:   -3.82 KCAL/MOL
REMARK 924 INTRA-LIGAND FREE ENERGY PREDICTED BY IDOCK:    0.05 KCAL/MOL
REMARK 927      BINDING AFFINITY PREDICTED BY RF-SCORE:    0.00 PKD
ROOT
HETATM    1  C   UNL     1     -11.336  16.134  68.771  1.00  0.00    -0.359 C  
HETATM    2  C   UNL     1      -9.924  15.754  68.358  1.00  0.00    -0.217 C  
ENDROOT
BRANCH   2   3
HETATM    3  N   UNL     1      -9.367  16.544  67.149  1.00  0.00    -0.229 N  
HETATM    4  C   UNL     1     -10.359  17.613  66.706  1.00  0.00    -0.331 C  
HETATM    5  C   UNL     1      -8.043  17.200  67.506  1.00  0.00    -0.184 C  
BRANCH   3   6
HETATM    6  C   UNL     1      -9.183  15.493  66.003  1.00  0.00    -0.326 C  
BRANCH   6   7
HETATM    7  C   UNL     1      -9.843  14.135  66.125  1.00  0.00    -0.326 A  
HETATM    8  C   UNL     1      -9.246  13.146  66.934  1.00  0.00    -0.236 A  
HETATM    9  C   UNL     1      -9.838  11.893  67.117  1.00  0.00    -0.206 A  
HETATM   10  C   UNL     1     -11.070  11.615  66.542  1.00  0.00    -0.357 A  
HETATM   11  C   UNL     1     -11.701  12.586  65.767  1.00  0.00    -0.478 A  
HETATM   12  C   UNL     1     -11.092  13.830  65.550  1.00  0.00    -0.298 A  
HETATM   13 BR   UNL     1     -12.059  15.060  64.470  1.00  0.00    -0.276 Br 
ENDBRANCH   6   7
ENDBRANCH   3   6
ENDBRANCH   2   3
TORSDOF 3
ENDMDL
MODEL      105
REMARK 921   NORMALIZED FREE ENERGY PREDICTED BY IDOCK:   -3.03 KCAL/MOL
REMARK 922        TOTAL FREE ENERGY PREDICTED BY IDOCK:   -3.77 KCAL/MOL
REMARK 923 INTER-LIGAND FREE ENERGY PREDICTED BY IDOCK:   -3.73 KCAL/MOL
REMARK 924 INTRA-LIGAND FREE ENERGY PREDICTED BY IDOCK:   -0.04 KCAL/MOL
REMARK 927      BINDING AFFINITY PREDICTED BY RF-SCORE:    0.00 PKD
ROOT
HETATM    1  C   UNL     1     -10.137  10.582  67.127  1.00  0.00    -0.253 C  
HETATM    2  C   UNL     1     -11.131  11.726  67.014  1.00  0.00    -0.304 C  
ENDROOT
BRANCH   2   3
HETATM    3  N   UNL     1     -11.161  12.424  65.632  1.00  0.00    -0.309 N  
HETATM    4  C   UNL     1     -10.636  11.489  64.549  1.00  0.00    -0.329 C  
HETATM    5  C   UNL     1     -12.577  12.855  65.284  1.00  0.00    -0.439 C  
BRANCH   3   6
HETATM    6  C   UNL     1     -10.211  13.662  65.760  1.00  0.00    -0.308 C  
BRANCH   6   7
HETATM    7  C   UNL     1     -10.266  14.516  67.010  1.00  0.00    -0.262 A  
HETATM    8  C   UNL     1     -11.458  15.197  67.330  1.00  0.00    -0.284 A  
HETATM    9  C   UNL     1     -11.576  15.960  68.496  1.00  0.00    -0.351 A  
HETATM   10  C   UNL     1     -10.523  16.019  69.398  1.00  0.00    -0.271 A  
HETATM   11  C   UNL     1      -9.344  15.328  69.124  1.00  0.00    -0.236 A  
HETATM   12  C   UNL     1      -9.210  14.592  67.939  1.00  0.00    -0.196 A  
HETATM   13 BR   UNL     1      -7.550  13.701  67.688  1.00  0.00    -0.193 Br 
ENDBRANCH   6   7
ENDBRANCH   3   6
ENDBRANCH   2   3
TORSDOF 3
ENDMDL
MODEL      106
REMARK 921   NORMALIZED FREE ENERGY PREDICTED BY IDOCK:   -3.01 KCAL/MOL
REMARK 922        TOTAL FREE ENERGY PREDICTED BY IDOCK:   -3.74 KCAL/MOL
REMARK 923 INTER-LIGAND FREE ENERGY PREDICTED BY IDOCK:   -3.58 KCAL/MOL
REMARK 924 INTRA-LIGAND FREE ENERGY PREDICTED BY IDOCK:   -0.16 KCAL/MOL
REMARK 927      BINDING AFFINITY PREDICTED BY RF-SCORE:    0.00 PKD
ROOT
HETATM    1  C   UNL     1     -10.731   6.091  70.580  1.00  0.00    -0.349 C  
HETATM    2  C   UNL     1      -9.546   7.035  70.455  1.00  0.00    -0.169 C  
ENDROOT
BRANCH   2   3
HETATM    3  N   UNL     1      -9.891   8.534  70.624  1.00  0.00    -0.180 N  
HETATM    4  C   UNL     1     -10.249   8.840  72.075  1.00  0.00    -0.331 C  
HETATM    5  C   UNL     1      -8.717   9.402  70.201  1.00  0.00    -0.221 C  
BRANCH   3   6
HETATM    6  C   UNL     1     -11.138   8.789  69.713  1.00  0.00    -0.073 C  
BRANCH   6   7
HETATM    7  C   UNL     1     -11.189  10.035  68.852  1.00  0.00    -0.179 A  
HETATM    8  C   UNL     1     -11.645  11.245  69.414  1.00  0.00    -0.390 A  
HETATM    9  C   UNL     1     -11.667  12.432  68.676  1.00  0.00    -0.372 A  
HETATM   10  C   UNL     1     -11.183  12.452  67.375  1.00  0.00    -0.351 A  
HETATM   11  C   UNL     1     -10.694  11.279  66.806  1.00  0.00    -0.323 A  
HETATM   12  C   UNL     1     -10.705  10.079  67.530  1.00  0.00    -0.281 A  
HETATM   13 BR   UNL     1     -10.013   8.552  66.634  1.00  0.00    -0.361 Br 
ENDBRANCH   6   7
ENDBRANCH   3   6
ENDBRANCH   2   3
TORSDOF 3
ENDMDL
MODEL      107
REMARK 921   NORMALIZED FREE ENERGY PREDICTED BY IDOCK:   -3.00 KCAL/MOL
REMARK 922        TOTAL FREE ENERGY PREDICTED BY IDOCK:   -3.72 KCAL/MOL
REMARK 923 INTER-LIGAND FREE ENERGY PREDICTED BY IDOCK:   -3.83 KCAL/MOL
REMARK 924 INTRA-LIGAND FREE ENERGY PREDICTED BY IDOCK:    0.10 KCAL/MOL
REMARK 927      BINDING AFFINITY PREDICTED BY RF-SCORE:    0.00 PKD
ROOT
HETATM    1  C   UNL     1     -11.809  10.890  70.582  1.00  0.00    -0.453 C  
HETATM    2  C   UNL     1     -11.471  11.764  69.385  1.00  0.00    -0.307 C  
ENDROOT
BRANCH   2   3
HETATM    3  N   UNL     1     -10.326  11.228  68.492  1.00  0.00    -0.195 N  
HETATM    4  C   UNL     1      -9.451  12.374  67.999  1.00  0.00    -0.208 C  
HETATM    5  C   UNL     1      -9.471  10.235  69.263  1.00  0.00    -0.215 C  
BRANCH   3   6
HETATM    6  C   UNL     1     -11.025  10.540  67.271  1.00  0.00    -0.260 C  
BRANCH   6   7
HETATM    7  C   UNL     1     -10.508  10.804  65.872  1.00  0.00    -0.270 A  
HETATM    8  C   UNL     1     -10.867  12.000  65.217  1.00  0.00    -0.340 A  
HETATM    9  C   UNL     1     -10.380  12.313  63.945  1.00  0.00    -0.455 A  
HETATM   10  C   UNL     1      -9.479  11.464  63.317  1.00  0.00    -0.330 A  
HETATM   11  C   UNL     1      -9.079  10.293  63.955  1.00  0.00    -0.283 A  
HETATM   12  C   UNL     1      -9.595   9.958  65.215  1.00  0.00    -0.295 A  
HETATM   13 BR   UNL     1      -8.969   8.330  65.971  1.00  0.00    -0.217 Br 
ENDBRANCH   6   7
ENDBRANCH   3   6
ENDBRANCH   2   3
TORSDOF 3
ENDMDL
MODEL      108
REMARK 921   NORMALIZED FREE ENERGY PREDICTED BY IDOCK:   -2.98 KCAL/MOL
REMARK 922        TOTAL FREE ENERGY PREDICTED BY IDOCK:   -3.71 KCAL/MOL
REMARK 923 INTER-LIGAND FREE ENERGY PREDICTED BY IDOCK:   -3.67 KCAL/MOL
REMARK 924 INTRA-LIGAND FREE ENERGY PREDICTED BY IDOCK:   -0.04 KCAL/MOL
REMARK 927      BINDING AFFINITY PREDICTED BY RF-SCORE:    0.00 PKD
ROOT
HETATM    1  C   UNL     1     -10.341  14.762  65.182  1.00  0.00    -0.439 C  
HETATM    2  C   UNL     1     -10.321  13.347  65.736  1.00  0.00    -0.293 C  
ENDROOT
BRANCH   2   3
HETATM    3  N   UNL     1     -10.844  13.211  67.187  1.00  0.00    -0.255 N  
HETATM    4  C   UNL     1      -9.716  13.441  68.187  1.00  0.00    -0.226 C  
HETATM    5  C   UNL     1     -11.960  14.209  67.446  1.00  0.00    -0.404 C  
BRANCH   3   6
HETATM    6  C   UNL     1     -11.364  11.739  67.316  1.00  0.00    -0.315 C  
BRANCH   6   7
HETATM    7  C   UNL     1     -10.581  10.743  68.145  1.00  0.00    -0.238 A  
HETATM    8  C   UNL     1      -9.515  10.036  67.551  1.00  0.00    -0.169 A  
HETATM    9  C   UNL     1      -8.731   9.140  68.284  1.00  0.00    -0.129 A  
HETATM   10  C   UNL     1      -8.958   8.968  69.642  1.00  0.00    -0.153 A  
HETATM   11  C   UNL     1      -9.981   9.680  70.264  1.00  0.00    -0.326 A  
HETATM   12  C   UNL     1     -10.793  10.551  69.523  1.00  0.00    -0.256 A  
HETATM   13 BR   UNL     1     -12.155  11.455  70.493  1.00  0.00    -0.466 Br 
ENDBRANCH   6   7
ENDBRANCH   3   6
ENDBRANCH   2   3
TORSDOF 3
ENDMDL
MODEL      109
REMARK 921   NORMALIZED FREE ENERGY PREDICTED BY IDOCK:   -2.98 KCAL/MOL
REMARK 922        TOTAL FREE ENERGY PREDICTED BY IDOCK:   -3.71 KCAL/MOL
REMARK 923 INTER-LIGAND FREE ENERGY PREDICTED BY IDOCK:   -3.57 KCAL/MOL
REMARK 924 INTRA-LIGAND FREE ENERGY PREDICTED BY IDOCK:   -0.14 KCAL/MOL
REMARK 927      BINDING AFFINITY PREDICTED BY RF-SCORE:    0.00 PKD
ROOT
HETATM    1  C   UNL     1      -9.524   4.043  68.405  1.00  0.00    -0.211 C  
HETATM    2  C   UNL     1     -10.187   5.220  67.707  1.00  0.00    -0.156 C  
ENDROOT
BRANCH   2   3
HETATM    3  N   UNL     1     -10.287   6.507  68.561  1.00  0.00    -0.175 N  
HETATM    4  C   UNL     1      -8.966   6.782  69.271  1.00  0.00    -0.137 C  
HETATM    5  C   UNL     1     -10.649   7.698  67.688  1.00  0.00    -0.224 C  
BRANCH   3   6
HETATM    6  C   UNL     1     -11.404   6.228  69.623  1.00  0.00    -0.422 C  
BRANCH   6   7
HETATM    7  C   UNL     1     -11.084   6.375  71.096  1.00  0.00    -0.344 A  
HETATM    8  C   UNL     1     -10.636   5.252  71.821  1.00  0.00    -0.268 A  
HETATM    9  C   UNL     1     -10.283   5.344  73.171  1.00  0.00    -0.216 A  
HETATM   10  C   UNL     1     -10.317   6.573  73.816  1.00  0.00    -0.346 A  
HETATM   11  C   UNL     1     -10.721   7.707  73.114  1.00  0.00    -0.445 A  
HETATM   12  C   UNL     1     -11.112   7.610  71.771  1.00  0.00    -0.242 A  
HETATM   13 BR   UNL     1     -11.646   9.231  70.935  1.00  0.00    -0.383 Br 
ENDBRANCH   6   7
ENDBRANCH   3   6
ENDBRANCH   2   3
TORSDOF 3
ENDMDL
MODEL      110
REMARK 921   NORMALIZED FREE ENERGY PREDICTED BY IDOCK:   -2.97 KCAL/MOL
REMARK 922        TOTAL FREE ENERGY PREDICTED BY IDOCK:   -3.70 KCAL/MOL
REMARK 923 INTER-LIGAND FREE ENERGY PREDICTED BY IDOCK:   -3.66 KCAL/MOL
REMARK 924 INTRA-LIGAND FREE ENERGY PREDICTED BY IDOCK:   -0.04 KCAL/MOL
REMARK 927      BINDING AFFINITY PREDICTED BY RF-SCORE:    0.00 PKD
ROOT
HETATM    1  C   UNL     1      -6.515  19.385  69.497  1.00  0.00    -0.356 C  
HETATM    2  C   UNL     1      -7.279  19.774  68.242  1.00  0.00    -0.306 C  
ENDROOT
BRANCH   2   3
HETATM    3  N   UNL     1      -6.570  19.413  66.914  1.00  0.00    -0.194 N  
HETATM    4  C   UNL     1      -6.555  20.613  65.972  1.00  0.00    -0.219 C  
HETATM    5  C   UNL     1      -5.143  18.961  67.178  1.00  0.00    -0.144 C  
BRANCH   3   6
HETATM    6  C   UNL     1      -7.418  18.260  66.278  1.00  0.00    -0.260 C  
BRANCH   6   7
HETATM    7  C   UNL     1      -8.503  17.595  67.099  1.00  0.00    -0.239 A  
HETATM    8  C   UNL     1      -8.164  16.535  67.964  1.00  0.00    -0.172 A  
HETATM    9  C   UNL     1      -9.119  15.918  68.777  1.00  0.00    -0.219 A  
HETATM   10  C   UNL     1     -10.427  16.381  68.787  1.00  0.00    -0.300 A  
HETATM   11  C   UNL     1     -10.784  17.451  67.969  1.00  0.00    -0.359 A  
HETATM   12  C   UNL     1      -9.836  18.047  67.125  1.00  0.00    -0.316 A  
HETATM   13 BR   UNL     1     -10.457  19.493  66.058  1.00  0.00    -0.575 Br 
ENDBRANCH   6   7
ENDBRANCH   3   6
ENDBRANCH   2   3
TORSDOF 3
ENDMDL
MODEL      111
REMARK 921   NORMALIZED FREE ENERGY PREDICTED BY IDOCK:   -2.97 KCAL/MOL
REMARK 922        TOTAL FREE ENERGY PREDICTED BY IDOCK:   -3.69 KCAL/MOL
REMARK 923 INTER-LIGAND FREE ENERGY PREDICTED BY IDOCK:   -3.46 KCAL/MOL
REMARK 924 INTRA-LIGAND FREE ENERGY PREDICTED BY IDOCK:   -0.23 KCAL/MOL
REMARK 927      BINDING AFFINITY PREDICTED BY RF-SCORE:    0.00 PKD
ROOT
HETATM    1  C   UNL     1      -8.889  12.745  68.075  1.00  0.00    -0.195 C  
HETATM    2  C   UNL     1      -9.082  12.262  66.647  1.00  0.00    -0.203 C  
ENDROOT
BRANCH   2   3
HETATM    3  N   UNL     1      -9.997  11.022  66.500  1.00  0.00    -0.206 N  
HETATM    4  C   UNL     1     -11.253  11.179  67.351  1.00  0.00    -0.294 C  
HETATM    5  C   UNL     1     -10.394  10.821  65.047  1.00  0.00    -0.287 C  
BRANCH   3   6
HETATM    6  C   UNL     1      -9.158   9.809  67.027  1.00  0.00    -0.138 C  
BRANCH   6   7
HETATM    7  C   UNL     1      -9.872   8.598  67.591  1.00  0.00    -0.229 A  
HETATM    8  C   UNL     1     -10.304   7.581  66.715  1.00  0.00    -0.332 A  
HETATM    9  C   UNL     1     -10.926   6.422  67.188  1.00  0.00    -0.476 A  
HETATM   10  C   UNL     1     -11.083   6.225  68.553  1.00  0.00    -0.397 A  
HETATM   11  C   UNL     1     -10.634   7.196  69.444  1.00  0.00    -0.246 A  
HETATM   12  C   UNL     1     -10.044   8.377  68.970  1.00  0.00    -0.203 A  
HETATM   13 BR   UNL     1      -9.480   9.621  70.293  1.00  0.00    -0.259 Br 
ENDBRANCH   6   7
ENDBRANCH   3   6
ENDBRANCH   2   3
TORSDOF 3
ENDMDL
MODEL      112
REMARK 921   NORMALIZED FREE ENERGY PREDICTED BY IDOCK:   -2.96 KCAL/MOL
REMARK 922        TOTAL FREE ENERGY PREDICTED BY IDOCK:   -3.68 KCAL/MOL
REMARK 923 INTER-LIGAND FREE ENERGY PREDICTED BY IDOCK:   -3.54 KCAL/MOL
REMARK 924 INTRA-LIGAND FREE ENERGY PREDICTED BY IDOCK:   -0.14 KCAL/MOL
REMARK 927      BINDING AFFINITY PREDICTED BY RF-SCORE:    0.00 PKD
ROOT
HETATM    1  C   UNL     1     -14.407   8.279  72.076  1.00  0.00    -0.541 C  
HETATM    2  C   UNL     1     -13.427   7.353  71.374  1.00  0.00    -0.330 C  
ENDROOT
BRANCH   2   3
HETATM    3  N   UNL     1     -11.947   7.801  71.447  1.00  0.00    -0.299 N  
HETATM    4  C   UNL     1     -11.099   7.010  70.456  1.00  0.00    -0.280 C  
HETATM    5  C   UNL     1     -11.824   9.285  71.145  1.00  0.00    -0.325 C  
BRANCH   3   6
HETATM    6  C   UNL     1     -11.477   7.482  72.907  1.00  0.00    -0.259 C  
BRANCH   6   7
HETATM    7  C   UNL     1     -10.027   7.129  73.162  1.00  0.00    -0.269 A  
HETATM    8  C   UNL     1      -9.055   8.151  73.156  1.00  0.00    -0.335 A  
HETATM    9  C   UNL     1      -7.711   7.886  73.432  1.00  0.00    -0.194 A  
HETATM   10  C   UNL     1      -7.312   6.601  73.774  1.00  0.00    -0.083 A  
HETATM   11  C   UNL     1      -8.256   5.578  73.823  1.00  0.00    -0.111 A  
HETATM   12  C   UNL     1      -9.598   5.834  73.510  1.00  0.00    -0.140 A  
HETATM   13 BR   UNL     1     -10.780   4.348  73.611  1.00  0.00    -0.371 Br 
ENDBRANCH   6   7
ENDBRANCH   3   6
ENDBRANCH   2   3
TORSDOF 3
ENDMDL
MODEL      113
REMARK 921   NORMALIZED FREE ENERGY PREDICTED BY IDOCK:   -2.96 KCAL/MOL
REMARK 922        TOTAL FREE ENERGY PREDICTED BY IDOCK:   -3.68 KCAL/MOL
REMARK 923 INTER-LIGAND FREE ENERGY PREDICTED BY IDOCK:   -3.72 KCAL/MOL
REMARK 924 INTRA-LIGAND FREE ENERGY PREDICTED BY IDOCK:    0.04 KCAL/MOL
REMARK 927      BINDING AFFINITY PREDICTED BY RF-SCORE:    0.00 PKD
ROOT
HETATM    1  C   UNL     1     -13.447   9.239  72.414  1.00  0.00    -0.526 C  
HETATM    2  C   UNL     1     -12.201   9.630  71.635  1.00  0.00    -0.402 C  
ENDROOT
BRANCH   2   3
HETATM    3  N   UNL     1     -11.163   8.495  71.460  1.00  0.00    -0.261 N  
HETATM    4  C   UNL     1     -10.660   8.016  72.817  1.00  0.00    -0.351 C  
HETATM    5  C   UNL     1     -11.776   7.326  70.707  1.00  0.00    -0.299 C  
BRANCH   3   6
HETATM    6  C   UNL     1      -9.977   9.125  70.654  1.00  0.00    -0.248 C  
BRANCH   6   7
HETATM    7  C   UNL     1      -9.794   8.764  69.194  1.00  0.00    -0.181 A  
HETATM    8  C   UNL     1      -9.137   7.563  68.857  1.00  0.00    -0.140 A  
HETATM    9  C   UNL     1      -8.983   7.161  67.527  1.00  0.00    -0.121 A  
HETATM   10  C   UNL     1      -9.530   7.922  66.502  1.00  0.00    -0.277 A  
HETATM   11  C   UNL     1     -10.215   9.095  66.809  1.00  0.00    -0.331 A  
HETATM   12  C   UNL     1     -10.339   9.520  68.139  1.00  0.00    -0.208 A  
HETATM   13 BR   UNL     1     -11.293  11.140  68.416  1.00  0.00    -0.380 Br 
ENDBRANCH   6   7
ENDBRANCH   3   6
ENDBRANCH   2   3
TORSDOF 3
ENDMDL
MODEL      114
REMARK 921   NORMALIZED FREE ENERGY PREDICTED BY IDOCK:   -2.94 KCAL/MOL
REMARK 922        TOTAL FREE ENERGY PREDICTED BY IDOCK:   -3.66 KCAL/MOL
REMARK 923 INTER-LIGAND FREE ENERGY PREDICTED BY IDOCK:   -3.68 KCAL/MOL
REMARK 924 INTRA-LIGAND FREE ENERGY PREDICTED BY IDOCK:    0.01 KCAL/MOL
REMARK 927      BINDING AFFINITY PREDICTED BY RF-SCORE:    0.00 PKD
ROOT
HETATM    1  C   UNL     1     -10.147  13.274  68.187  1.00  0.00    -0.241 C  
HETATM    2  C   UNL     1      -9.541  11.880  68.224  1.00  0.00    -0.201 C  
ENDROOT
BRANCH   2   3
HETATM    3  N   UNL     1     -10.562  10.735  68.435  1.00  0.00    -0.184 N  
HETATM    4  C   UNL     1     -11.988  11.260  68.309  1.00  0.00    -0.145 C  
HETATM    5  C   UNL     1     -10.339   9.629  67.416  1.00  0.00    -0.247 C  
BRANCH   3   6
HETATM    6  C   UNL     1     -10.323  10.214  69.892  1.00  0.00    -0.261 C  
BRANCH   6   7
HETATM    7  C   UNL     1     -11.282   9.206  70.489  1.00  0.00    -0.309 A  
HETATM    8  C   UNL     1     -11.068   7.831  70.261  1.00  0.00    -0.242 A  
HETATM    9  C   UNL     1     -11.896   6.856  70.827  1.00  0.00    -0.427 A  
HETATM   10  C   UNL     1     -12.926   7.229  71.679  1.00  0.00    -0.417 A  
HETATM   11  C   UNL     1     -13.138   8.579  71.952  1.00  0.00    -0.391 A  
HETATM   12  C   UNL     1     -12.333   9.560  71.356  1.00  0.00    -0.364 A  
HETATM   13 BR   UNL     1     -12.734  11.362  71.809  1.00  0.00    -0.249 Br 
ENDBRANCH   6   7
ENDBRANCH   3   6
ENDBRANCH   2   3
TORSDOF 3
ENDMDL
MODEL      115
REMARK 921   NORMALIZED FREE ENERGY PREDICTED BY IDOCK:   -2.93 KCAL/MOL
REMARK 922        TOTAL FREE ENERGY PREDICTED BY IDOCK:   -3.65 KCAL/MOL
REMARK 923 INTER-LIGAND FREE ENERGY PREDICTED BY IDOCK:   -3.62 KCAL/MOL
REMARK 924 INTRA-LIGAND FREE ENERGY PREDICTED BY IDOCK:   -0.03 KCAL/MOL
REMARK 927      BINDING AFFINITY PREDICTED BY RF-SCORE:    0.00 PKD
ROOT
HETATM    1  C   UNL     1     -10.668  10.709  66.969  1.00  0.00    -0.317 C  
HETATM    2  C   UNL     1      -9.412  10.220  67.671  1.00  0.00    -0.151 C  
ENDROOT
BRANCH   2   3
HETATM    3  N   UNL     1      -9.313   8.683  67.827  1.00  0.00    -0.140 N  
HETATM    4  C   UNL     1     -10.586   8.011  67.324  1.00  0.00    -0.290 C  
HETATM    5  C   UNL     1      -8.120   8.145  67.056  1.00  0.00    -0.108 C  
BRANCH   3   6
HETATM    6  C   UNL     1      -9.156   8.422  69.364  1.00  0.00    -0.154 C  
BRANCH   6   7
HETATM    7  C   UNL     1     -10.392   8.323  70.232  1.00  0.00    -0.211 A  
HETATM    8  C   UNL     1     -10.974   9.502  70.742  1.00  0.00    -0.389 A  
HETATM    9  C   UNL     1     -12.142   9.471  71.510  1.00  0.00    -0.468 A  
HETATM   10  C   UNL     1     -12.788   8.264  71.743  1.00  0.00    -0.362 A  
HETATM   11  C   UNL     1     -12.256   7.087  71.222  1.00  0.00    -0.419 A  
HETATM   12  C   UNL     1     -11.064   7.112  70.483  1.00  0.00    -0.271 A  
HETATM   13 BR   UNL     1     -10.446   5.436  69.834  1.00  0.00    -0.342 Br 
ENDBRANCH   6   7
ENDBRANCH   3   6
ENDBRANCH   2   3
TORSDOF 3
ENDMDL
MODEL      116
REMARK 921   NORMALIZED FREE ENERGY PREDICTED BY IDOCK:   -2.93 KCAL/MOL
REMARK 922        TOTAL FREE ENERGY PREDICTED BY IDOCK:   -3.64 KCAL/MOL
REMARK 923 INTER-LIGAND FREE ENERGY PREDICTED BY IDOCK:   -3.56 KCAL/MOL
REMARK 924 INTRA-LIGAND FREE ENERGY PREDICTED BY IDOCK:   -0.08 KCAL/MOL
REMARK 927      BINDING AFFINITY PREDICTED BY RF-SCORE:    0.00 PKD
ROOT
HETATM    1  C   UNL     1      -7.392  10.818  67.043  1.00  0.00    -0.110 C  
HETATM    2  C   UNL     1      -7.920   9.454  67.458  1.00  0.00    -0.102 C  
ENDROOT
BRANCH   2   3
HETATM    3  N   UNL     1      -9.408   9.437  67.883  1.00  0.00    -0.129 N  
HETATM    4  C   UNL     1     -10.278  10.083  66.810  1.00  0.00    -0.232 C  
HETATM    5  C   UNL     1      -9.877   8.011  68.121  1.00  0.00    -0.170 C  
BRANCH   3   6
HETATM    6  C   UNL     1      -9.485  10.283  69.198  1.00  0.00    -0.215 C  
BRANCH   6   7
HETATM    7  C   UNL     1     -10.657  10.093  70.138  1.00  0.00    -0.337 A  
HETATM    8  C   UNL     1     -11.907  10.655  69.806  1.00  0.00    -0.377 A  
HETATM    9  C   UNL     1     -13.032  10.470  70.615  1.00  0.00    -0.362 A  
HETATM   10  C   UNL     1     -12.950   9.674  71.749  1.00  0.00    -0.514 A  
HETATM   11  C   UNL     1     -11.736   9.077  72.083  1.00  0.00    -0.366 A  
HETATM   12  C   UNL     1     -10.598   9.291  71.293  1.00  0.00    -0.347 A  
HETATM   13 BR   UNL     1      -9.007   8.421  71.865  1.00  0.00    -0.302 Br 
ENDBRANCH   6   7
ENDBRANCH   3   6
ENDBRANCH   2   3
TORSDOF 3
ENDMDL
MODEL      117
REMARK 921   NORMALIZED FREE ENERGY PREDICTED BY IDOCK:   -2.93 KCAL/MOL
REMARK 922        TOTAL FREE ENERGY PREDICTED BY IDOCK:   -3.64 KCAL/MOL
REMARK 923 INTER-LIGAND FREE ENERGY PREDICTED BY IDOCK:   -3.47 KCAL/MOL
REMARK 924 INTRA-LIGAND FREE ENERGY PREDICTED BY IDOCK:   -0.17 KCAL/MOL
REMARK 927      BINDING AFFINITY PREDICTED BY RF-SCORE:    0.00 PKD
ROOT
HETATM    1  C   UNL     1      -8.503   5.695  67.114  1.00  0.00    -0.110 C  
HETATM    2  C   UNL     1      -8.333   7.045  67.791  1.00  0.00    -0.117 C  
ENDROOT
BRANCH   2   3
HETATM    3  N   UNL     1      -9.277   8.156  67.269  1.00  0.00    -0.136 N  
HETATM    4  C   UNL     1      -8.880   8.576  65.858  1.00  0.00    -0.182 C  
HETATM    5  C   UNL     1     -10.717   7.672  67.266  1.00  0.00    -0.274 C  
BRANCH   3   6
HETATM    6  C   UNL     1      -9.091   9.365  68.247  1.00  0.00    -0.128 C  
BRANCH   6   7
HETATM    7  C   UNL     1     -10.209   9.730  69.201  1.00  0.00    -0.211 A  
HETATM    8  C   UNL     1     -10.247   9.137  70.480  1.00  0.00    -0.288 A  
HETATM    9  C   UNL     1     -11.231   9.474  71.415  1.00  0.00    -0.452 A  
HETATM   10  C   UNL     1     -12.169  10.451  71.115  1.00  0.00    -0.498 A  
HETATM   11  C   UNL     1     -12.135  11.080  69.872  1.00  0.00    -0.435 A  
HETATM   12  C   UNL     1     -11.172  10.717  68.919  1.00  0.00    -0.268 A  
HETATM   13 BR   UNL     1     -11.240  11.649  67.263  1.00  0.00    -0.372 Br 
ENDBRANCH   6   7
ENDBRANCH   3   6
ENDBRANCH   2   3
TORSDOF 3
ENDMDL
MODEL      118
REMARK 921   NORMALIZED FREE ENERGY PREDICTED BY IDOCK:   -2.92 KCAL/MOL
REMARK 922        TOTAL FREE ENERGY PREDICTED BY IDOCK:   -3.64 KCAL/MOL
REMARK 923 INTER-LIGAND FREE ENERGY PREDICTED BY IDOCK:   -3.51 KCAL/MOL
REMARK 924 INTRA-LIGAND FREE ENERGY PREDICTED BY IDOCK:   -0.13 KCAL/MOL
REMARK 927      BINDING AFFINITY PREDICTED BY RF-SCORE:    0.00 PKD
ROOT
HETATM    1  C   UNL     1      -9.813   7.606  67.163  1.00  0.00    -0.265 C  
HETATM    2  C   UNL     1     -10.574   8.767  67.783  1.00  0.00    -0.191 C  
ENDROOT
BRANCH   2   3
HETATM    3  N   UNL     1      -9.816  10.116  67.777  1.00  0.00    -0.159 N  
HETATM    4  C   UNL     1      -8.507   9.991  67.004  1.00  0.00    -0.125 C  
HETATM    5  C   UNL     1     -10.671  11.205  67.149  1.00  0.00    -0.259 C  
BRANCH   3   6
HETATM    6  C   UNL     1      -9.507  10.438  69.279  1.00  0.00    -0.198 C  
BRANCH   6   7
HETATM    7  C   UNL     1      -9.969   9.478  70.355  1.00  0.00    -0.325 A  
HETATM    8  C   UNL     1      -9.085   8.481  70.818  1.00  0.00    -0.196 A  
HETATM    9  C   UNL     1      -9.445   7.600  71.842  1.00  0.00    -0.183 A  
HETATM   10  C   UNL     1     -10.678   7.727  72.467  1.00  0.00    -0.372 A  
HETATM   11  C   UNL     1     -11.558   8.725  72.055  1.00  0.00    -0.436 A  
HETATM   12  C   UNL     1     -11.214   9.586  71.003  1.00  0.00    -0.362 A  
HETATM   13 BR   UNL     1     -12.508  10.899  70.538  1.00  0.00    -0.436 Br 
ENDBRANCH   6   7
ENDBRANCH   3   6
ENDBRANCH   2   3
TORSDOF 3
ENDMDL
MODEL      119
REMARK 921   NORMALIZED FREE ENERGY PREDICTED BY IDOCK:   -2.92 KCAL/MOL
REMARK 922        TOTAL FREE ENERGY PREDICTED BY IDOCK:   -3.64 KCAL/MOL
REMARK 923 INTER-LIGAND FREE ENERGY PREDICTED BY IDOCK:   -3.52 KCAL/MOL
REMARK 924 INTRA-LIGAND FREE ENERGY PREDICTED BY IDOCK:   -0.11 KCAL/MOL
REMARK 927      BINDING AFFINITY PREDICTED BY RF-SCORE:    0.00 PKD
ROOT
HETATM    1  C   UNL     1     -10.642  17.064  68.258  1.00  0.00    -0.372 C  
HETATM    2  C   UNL     1      -9.632  18.195  68.364  1.00  0.00    -0.337 C  
ENDROOT
BRANCH   2   3
HETATM    3  N   UNL     1      -9.569  19.126  67.129  1.00  0.00    -0.312 N  
HETATM    4  C   UNL     1     -10.623  18.726  66.103  1.00  0.00    -0.377 C  
HETATM    5  C   UNL     1      -9.789  20.572  67.541  1.00  0.00    -0.394 C  
BRANCH   3   6
HETATM    6  C   UNL     1      -8.141  18.925  66.518  1.00  0.00    -0.287 C  
BRANCH   6   7
HETATM    7  C   UNL     1      -7.136  18.056  67.245  1.00  0.00    -0.204 A  
HETATM    8  C   UNL     1      -7.076  16.678  66.954  1.00  0.00    -0.264 A  
HETATM    9  C   UNL     1      -6.136  15.841  67.562  1.00  0.00    -0.162 A  
HETATM   10  C   UNL     1      -5.196  16.370  68.436  1.00  0.00    -0.103 A  
HETATM   11  C   UNL     1      -5.208  17.735  68.715  1.00  0.00    -0.156 A  
HETATM   12  C   UNL     1      -6.174  18.570  68.135  1.00  0.00    -0.195 A  
HETATM   13 BR   UNL     1      -6.080  20.410  68.605  1.00  0.00    -0.359 Br 
ENDBRANCH   6   7
ENDBRANCH   3   6
ENDBRANCH   2   3
TORSDOF 3
ENDMDL
MODEL      120
REMARK 921   NORMALIZED FREE ENERGY PREDICTED BY IDOCK:   -2.90 KCAL/MOL
REMARK 922        TOTAL FREE ENERGY PREDICTED BY IDOCK:   -3.62 KCAL/MOL
REMARK 923 INTER-LIGAND FREE ENERGY PREDICTED BY IDOCK:   -3.60 KCAL/MOL
REMARK 924 INTRA-LIGAND FREE ENERGY PREDICTED BY IDOCK:   -0.02 KCAL/MOL
REMARK 927      BINDING AFFINITY PREDICTED BY RF-SCORE:    0.00 PKD
ROOT
HETATM    1  C   UNL     1     -12.350   9.752  71.425  1.00  0.00    -0.480 C  
HETATM    2  C   UNL     1     -11.193   8.833  71.068  1.00  0.00    -0.273 C  
ENDROOT
BRANCH   2   3
HETATM    3  N   UNL     1     -11.251   7.432  71.726  1.00  0.00    -0.241 N  
HETATM    4  C   UNL     1     -10.852   7.515  73.195  1.00  0.00    -0.395 C  
HETATM    5  C   UNL     1     -12.650   6.849  71.615  1.00  0.00    -0.367 C  
BRANCH   3   6
HETATM    6  C   UNL     1     -10.212   6.555  70.950  1.00  0.00    -0.190 C  
BRANCH   6   7
HETATM    7  C   UNL     1     -10.066   6.724  69.452  1.00  0.00    -0.183 A  
HETATM    8  C   UNL     1     -11.080   6.238  68.600  1.00  0.00    -0.409 A  
HETATM    9  C   UNL     1     -11.017   6.410  67.214  1.00  0.00    -0.474 A  
HETATM   10  C   UNL     1      -9.965   7.118  66.648  1.00  0.00    -0.234 A  
HETATM   11  C   UNL     1      -8.968   7.640  67.469  1.00  0.00    -0.128 A  
HETATM   12  C   UNL     1      -9.009   7.437  68.856  1.00  0.00    -0.130 A  
HETATM   13 BR   UNL     1      -7.584   8.198  69.857  1.00  0.00    -0.091 Br 
ENDBRANCH   6   7
ENDBRANCH   3   6
ENDBRANCH   2   3
TORSDOF 3
ENDMDL
MODEL      121
REMARK 921   NORMALIZED FREE ENERGY PREDICTED BY IDOCK:   -2.90 KCAL/MOL
REMARK 922        TOTAL FREE ENERGY PREDICTED BY IDOCK:   -3.61 KCAL/MOL
REMARK 923 INTER-LIGAND FREE ENERGY PREDICTED BY IDOCK:   -3.46 KCAL/MOL
REMARK 924 INTRA-LIGAND FREE ENERGY PREDICTED BY IDOCK:   -0.16 KCAL/MOL
REMARK 927      BINDING AFFINITY PREDICTED BY RF-SCORE:    0.00 PKD
ROOT
HETATM    1  C   UNL     1     -10.116  11.753  64.167  1.00  0.00    -0.344 C  
HETATM    2  C   UNL     1     -11.230  12.021  65.166  1.00  0.00    -0.315 C  
ENDROOT
BRANCH   2   3
HETATM    3  N   UNL     1     -11.343  13.493  65.633  1.00  0.00    -0.297 N  
HETATM    4  C   UNL     1     -10.373  14.376  64.855  1.00  0.00    -0.389 C  
HETATM    5  C   UNL     1     -12.760  14.006  65.438  1.00  0.00    -0.471 C  
BRANCH   3   6
HETATM    6  C   UNL     1     -10.948  13.490  67.148  1.00  0.00    -0.291 C  
BRANCH   6   7
HETATM    7  C   UNL     1      -9.789  12.634  67.614  1.00  0.00    -0.210 A  
HETATM    8  C   UNL     1      -8.469  13.060  67.358  1.00  0.00    -0.200 A  
HETATM    9  C   UNL     1      -7.364  12.330  67.807  1.00  0.00    -0.118 A  
HETATM   10  C   UNL     1      -7.550  11.186  68.570  1.00  0.00    -0.120 A  
HETATM   11  C   UNL     1      -8.842  10.761  68.869  1.00  0.00    -0.154 A  
HETATM   12  C   UNL     1      -9.953  11.470  68.388  1.00  0.00    -0.206 A  
HETATM   13 BR   UNL     1     -11.658  10.780  68.866  1.00  0.00    -0.342 Br 
ENDBRANCH   6   7
ENDBRANCH   3   6
ENDBRANCH   2   3
TORSDOF 3
ENDMDL
MODEL      122
REMARK 921   NORMALIZED FREE ENERGY PREDICTED BY IDOCK:   -2.90 KCAL/MOL
REMARK 922        TOTAL FREE ENERGY PREDICTED BY IDOCK:   -3.61 KCAL/MOL
REMARK 923 INTER-LIGAND FREE ENERGY PREDICTED BY IDOCK:   -3.85 KCAL/MOL
REMARK 924 INTRA-LIGAND FREE ENERGY PREDICTED BY IDOCK:    0.24 KCAL/MOL
REMARK 927      BINDING AFFINITY PREDICTED BY RF-SCORE:    0.00 PKD
ROOT
HETATM    1  C   UNL     1     -10.259  14.188  65.478  1.00  0.00    -0.371 C  
HETATM    2  C   UNL     1      -9.649  13.326  66.572  1.00  0.00    -0.264 C  
ENDROOT
BRANCH   2   3
HETATM    3  N   UNL     1     -10.391  11.993  66.837  1.00  0.00    -0.211 N  
HETATM    4  C   UNL     1     -11.897  12.182  66.691  1.00  0.00    -0.237 C  
HETATM    5  C   UNL     1      -9.920  10.920  65.869  1.00  0.00    -0.243 C  
BRANCH   3   6
HETATM    6  C   UNL     1     -10.054  11.606  68.316  1.00  0.00    -0.202 C  
BRANCH   6   7
HETATM    7  C   UNL     1     -11.045  11.928  69.415  1.00  0.00    -0.218 A  
HETATM    8  C   UNL     1     -11.508  13.252  69.562  1.00  0.00    -0.299 A  
HETATM    9  C   UNL     1     -12.457  13.593  70.529  1.00  0.00    -0.394 A  
HETATM   10  C   UNL     1     -13.010  12.609  71.339  1.00  0.00    -0.353 A  
HETATM   11  C   UNL     1     -12.598  11.287  71.192  1.00  0.00    -0.501 A  
HETATM   12  C   UNL     1     -11.618  10.948  70.248  1.00  0.00    -0.334 A  
HETATM   13 BR   UNL     1     -11.145   9.109  70.154  1.00  0.00    -0.220 Br 
ENDBRANCH   6   7
ENDBRANCH   3   6
ENDBRANCH   2   3
TORSDOF 3
ENDMDL
MODEL      123
REMARK 921   NORMALIZED FREE ENERGY PREDICTED BY IDOCK:   -2.89 KCAL/MOL
REMARK 922        TOTAL FREE ENERGY PREDICTED BY IDOCK:   -3.60 KCAL/MOL
REMARK 923 INTER-LIGAND FREE ENERGY PREDICTED BY IDOCK:   -3.36 KCAL/MOL
REMARK 924 INTRA-LIGAND FREE ENERGY PREDICTED BY IDOCK:   -0.24 KCAL/MOL
REMARK 927      BINDING AFFINITY PREDICTED BY RF-SCORE:    0.00 PKD
ROOT
HETATM    1  C   UNL     1     -11.572  15.874  68.586  1.00  0.00    -0.383 C  
HETATM    2  C   UNL     1     -10.126  16.342  68.588  1.00  0.00    -0.233 C  
ENDROOT
BRANCH   2   3
HETATM    3  N   UNL     1      -9.103  15.289  68.095  1.00  0.00    -0.173 N  
HETATM    4  C   UNL     1      -8.706  15.565  66.649  1.00  0.00    -0.291 C  
HETATM    5  C   UNL     1      -7.862  15.301  68.972  1.00  0.00    -0.184 C  
BRANCH   3   6
HETATM    6  C   UNL     1      -9.839  13.909  68.181  1.00  0.00    -0.240 C  
BRANCH   6   7
HETATM    7  C   UNL     1      -9.547  12.844  67.145  1.00  0.00    -0.225 A  
HETATM    8  C   UNL     1      -8.354  12.098  67.239  1.00  0.00    -0.179 A  
HETATM    9  C   UNL     1      -8.058  11.072  66.336  1.00  0.00    -0.166 A  
HETATM   10  C   UNL     1      -8.972  10.730  65.349  1.00  0.00    -0.211 A  
HETATM   11  C   UNL     1     -10.174  11.426  65.254  1.00  0.00    -0.320 A  
HETATM   12  C   UNL     1     -10.457  12.480  66.135  1.00  0.00    -0.249 A  
HETATM   13 BR   UNL     1     -12.131  13.348  65.892  1.00  0.00    -0.506 Br 
ENDBRANCH   6   7
ENDBRANCH   3   6
ENDBRANCH   2   3
TORSDOF 3
ENDMDL
MODEL      124
REMARK 921   NORMALIZED FREE ENERGY PREDICTED BY IDOCK:   -2.89 KCAL/MOL
REMARK 922        TOTAL FREE ENERGY PREDICTED BY IDOCK:   -3.60 KCAL/MOL
REMARK 923 INTER-LIGAND FREE ENERGY PREDICTED BY IDOCK:   -3.70 KCAL/MOL
REMARK 924 INTRA-LIGAND FREE ENERGY PREDICTED BY IDOCK:    0.09 KCAL/MOL
REMARK 927      BINDING AFFINITY PREDICTED BY RF-SCORE:    0.00 PKD
ROOT
HETATM    1  C   UNL     1     -10.938  15.798  69.366  1.00  0.00    -0.296 C  
HETATM    2  C   UNL     1     -10.091  14.641  68.860  1.00  0.00    -0.234 C  
ENDROOT
BRANCH   2   3
HETATM    3  N   UNL     1     -10.783  13.746  67.803  1.00  0.00    -0.244 N  
HETATM    4  C   UNL     1     -11.191  12.411  68.418  1.00  0.00    -0.273 C  
HETATM    5  C   UNL     1     -12.012  14.439  67.240  1.00  0.00    -0.377 C  
BRANCH   3   6
HETATM    6  C   UNL     1      -9.712  13.502  66.686  1.00  0.00    -0.280 C  
BRANCH   6   7
HETATM    7  C   UNL     1      -9.541  12.111  66.111  1.00  0.00    -0.250 A  
HETATM    8  C   UNL     1      -8.759  11.167  66.807  1.00  0.00    -0.157 A  
HETATM    9  C   UNL     1      -8.607   9.857  66.343  1.00  0.00    -0.136 A  
HETATM   10  C   UNL     1      -9.277   9.442  65.200  1.00  0.00    -0.287 A  
HETATM   11  C   UNL     1     -10.085  10.344  64.511  1.00  0.00    -0.365 A  
HETATM   12  C   UNL     1     -10.209  11.669  64.953  1.00  0.00    -0.270 A  
HETATM   13 BR   UNL     1     -11.338  12.795  63.919  1.00  0.00    -0.529 Br 
ENDBRANCH   6   7
ENDBRANCH   3   6
ENDBRANCH   2   3
TORSDOF 3
ENDMDL
MODEL      125
REMARK 921   NORMALIZED FREE ENERGY PREDICTED BY IDOCK:   -2.89 KCAL/MOL
REMARK 922        TOTAL FREE ENERGY PREDICTED BY IDOCK:   -3.60 KCAL/MOL
REMARK 923 INTER-LIGAND FREE ENERGY PREDICTED BY IDOCK:   -3.39 KCAL/MOL
REMARK 924 INTRA-LIGAND FREE ENERGY PREDICTED BY IDOCK:   -0.22 KCAL/MOL
REMARK 927      BINDING AFFINITY PREDICTED BY RF-SCORE:    0.00 PKD
ROOT
HETATM    1  C   UNL     1      -7.234   6.999  70.100  1.00  0.00    -0.075 C  
HETATM    2  C   UNL     1      -8.710   6.995  70.463  1.00  0.00    -0.153 C  
ENDROOT
BRANCH   2   3
HETATM    3  N   UNL     1      -9.361   8.397  70.543  1.00  0.00    -0.158 N  
HETATM    4  C   UNL     1      -9.963   8.630  71.925  1.00  0.00    -0.322 C  
HETATM    5  C   UNL     1      -8.334   9.479  70.251  1.00  0.00    -0.195 C  
BRANCH   3   6
HETATM    6  C   UNL     1     -10.501   8.399  69.469  1.00  0.00    -0.224 C  
BRANCH   6   7
HETATM    7  C   UNL     1     -10.449   9.394  68.329  1.00  0.00    -0.260 A  
HETATM    8  C   UNL     1      -9.879   9.007  67.099  1.00  0.00    -0.262 A  
HETATM    9  C   UNL     1      -9.848   9.872  66.001  1.00  0.00    -0.330 A  
HETATM   10  C   UNL     1     -10.434  11.127  66.088  1.00  0.00    -0.307 A  
HETATM   11  C   UNL     1     -11.037  11.523  67.280  1.00  0.00    -0.351 A  
HETATM   12  C   UNL     1     -11.036  10.672  68.394  1.00  0.00    -0.272 A  
HETATM   13 BR   UNL     1     -11.887  11.339  69.958  1.00  0.00    -0.475 Br 
ENDBRANCH   6   7
ENDBRANCH   3   6
ENDBRANCH   2   3
TORSDOF 3
ENDMDL
MODEL      126
REMARK 921   NORMALIZED FREE ENERGY PREDICTED BY IDOCK:   -2.89 KCAL/MOL
REMARK 922        TOTAL FREE ENERGY PREDICTED BY IDOCK:   -3.60 KCAL/MOL
REMARK 923 INTER-LIGAND FREE ENERGY PREDICTED BY IDOCK:   -3.52 KCAL/MOL
REMARK 924 INTRA-LIGAND FREE ENERGY PREDICTED BY IDOCK:   -0.08 KCAL/MOL
REMARK 927      BINDING AFFINITY PREDICTED BY RF-SCORE:    0.00 PKD
ROOT
HETATM    1  C   UNL     1     -12.810  13.622  65.441  1.00  0.00    -0.440 C  
HETATM    2  C   UNL     1     -11.937  12.941  66.482  1.00  0.00    -0.377 C  
ENDROOT
BRANCH   2   3
HETATM    3  N   UNL     1     -10.414  13.100  66.256  1.00  0.00    -0.280 N  
HETATM    4  C   UNL     1      -9.811  11.798  65.738  1.00  0.00    -0.240 C  
HETATM    5  C   UNL     1     -10.137  14.215  65.262  1.00  0.00    -0.335 C  
BRANCH   3   6
HETATM    6  C   UNL     1      -9.808  13.434  67.661  1.00  0.00    -0.226 C  
BRANCH   6   7
HETATM    7  C   UNL     1      -9.030  14.719  67.850  1.00  0.00    -0.172 A  
HETATM    8  C   UNL     1      -7.691  14.787  67.412  1.00  0.00    -0.230 A  
HETATM    9  C   UNL     1      -6.943  15.963  67.520  1.00  0.00    -0.209 A  
HETATM   10  C   UNL     1      -7.531  17.118  68.019  1.00  0.00    -0.197 A  
HETATM   11  C   UNL     1      -8.863  17.090  68.426  1.00  0.00    -0.247 A  
HETATM   12  C   UNL     1      -9.604  15.902  68.353  1.00  0.00    -0.208 A  
HETATM   13 BR   UNL     1     -11.408  16.002  68.946  1.00  0.00    -0.363 Br 
ENDBRANCH   6   7
ENDBRANCH   3   6
ENDBRANCH   2   3
TORSDOF 3
ENDMDL
MODEL      127
REMARK 921   NORMALIZED FREE ENERGY PREDICTED BY IDOCK:   -2.89 KCAL/MOL
REMARK 922        TOTAL FREE ENERGY PREDICTED BY IDOCK:   -3.60 KCAL/MOL
REMARK 923 INTER-LIGAND FREE ENERGY PREDICTED BY IDOCK:   -3.44 KCAL/MOL
REMARK 924 INTRA-LIGAND FREE ENERGY PREDICTED BY IDOCK:   -0.16 KCAL/MOL
REMARK 927      BINDING AFFINITY PREDICTED BY RF-SCORE:    0.00 PKD
ROOT
HETATM    1  C   UNL     1      -7.134  15.846  67.124  1.00  0.00    -0.240 C  
HETATM    2  C   UNL     1      -8.397  16.226  66.368  1.00  0.00    -0.330 C  
ENDROOT
BRANCH   2   3
HETATM    3  N   UNL     1      -9.684  15.518  66.857  1.00  0.00    -0.228 N  
HETATM    4  C   UNL     1     -10.661  16.530  67.445  1.00  0.00    -0.300 C  
HETATM    5  C   UNL     1     -10.352  14.778  65.711  1.00  0.00    -0.340 C  
BRANCH   3   6
HETATM    6  C   UNL     1      -9.223  14.524  67.976  1.00  0.00    -0.190 C  
BRANCH   6   7
HETATM    7  C   UNL     1     -10.099  13.340  68.327  1.00  0.00    -0.250 A  
HETATM    8  C   UNL     1     -11.271  13.547  69.084  1.00  0.00    -0.310 A  
HETATM    9  C   UNL     1     -12.138  12.496  69.396  1.00  0.00    -0.237 A  
HETATM   10  C   UNL     1     -11.885  11.220  68.912  1.00  0.00    -0.413 A  
HETATM   11  C   UNL     1     -10.754  10.992  68.132  1.00  0.00    -0.246 A  
HETATM   12  C   UNL     1      -9.863  12.037  67.849  1.00  0.00    -0.196 A  
HETATM   13 BR   UNL     1      -8.358  11.588  66.778  1.00  0.00    -0.159 Br 
ENDBRANCH   6   7
ENDBRANCH   3   6
ENDBRANCH   2   3
TORSDOF 3
ENDMDL
MODEL      128
REMARK 921   NORMALIZED FREE ENERGY PREDICTED BY IDOCK:   -2.89 KCAL/MOL
REMARK 922        TOTAL FREE ENERGY PREDICTED BY IDOCK:   -3.60 KCAL/MOL
REMARK 923 INTER-LIGAND FREE ENERGY PREDICTED BY IDOCK:   -3.48 KCAL/MOL
REMARK 924 INTRA-LIGAND FREE ENERGY PREDICTED BY IDOCK:   -0.12 KCAL/MOL
REMARK 927      BINDING AFFINITY PREDICTED BY RF-SCORE:    0.00 PKD
ROOT
HETATM    1  C   UNL     1     -10.843  10.800  68.209  1.00  0.00    -0.276 C  
HETATM    2  C   UNL     1     -10.508  12.257  68.488  1.00  0.00    -0.232 C  
ENDROOT
BRANCH   2   3
HETATM    3  N   UNL     1     -11.048  13.258  67.439  1.00  0.00    -0.271 N  
HETATM    4  C   UNL     1     -11.459  12.529  66.164  1.00  0.00    -0.377 C  
HETATM    5  C   UNL     1     -12.242  14.018  67.992  1.00  0.00    -0.153 C  
BRANCH   3   6
HETATM    6  C   UNL     1      -9.859  14.229  67.126  1.00  0.00    -0.252 C  
BRANCH   6   7
HETATM    7  C   UNL     1     -10.057  15.722  67.281  1.00  0.00    -0.247 A  
HETATM    8  C   UNL     1      -9.624  16.357  68.464  1.00  0.00    -0.229 A  
HETATM    9  C   UNL     1      -9.741  17.739  68.638  1.00  0.00    -0.346 A  
HETATM   10  C   UNL     1     -10.242  18.530  67.613  1.00  0.00    -0.417 A  
HETATM   11  C   UNL     1     -10.645  17.934  66.420  1.00  0.00    -0.238 A  
HETATM   12  C   UNL     1     -10.564  16.544  66.257  1.00  0.00    -0.223 A  
HETATM   13 BR   UNL     1     -11.150  15.861  64.582  1.00  0.00    -0.217 Br 
ENDBRANCH   6   7
ENDBRANCH   3   6
ENDBRANCH   2   3
TORSDOF 3
ENDMDL
MODEL      129
REMARK 921   NORMALIZED FREE ENERGY PREDICTED BY IDOCK:   -2.88 KCAL/MOL
REMARK 922        TOTAL FREE ENERGY PREDICTED BY IDOCK:   -3.59 KCAL/MOL
REMARK 923 INTER-LIGAND FREE ENERGY PREDICTED BY IDOCK:   -3.54 KCAL/MOL
REMARK 924 INTRA-LIGAND FREE ENERGY PREDICTED BY IDOCK:   -0.05 KCAL/MOL
REMARK 927      BINDING AFFINITY PREDICTED BY RF-SCORE:    0.00 PKD
ROOT
HETATM    1  C   UNL     1      -9.590  19.150  68.516  1.00  0.00    -0.454 C  
HETATM    2  C   UNL     1      -8.159  18.642  68.578  1.00  0.00    -0.341 C  
ENDROOT
BRANCH   2   3
HETATM    3  N   UNL     1      -7.265  19.075  67.391  1.00  0.00    -0.213 N  
HETATM    4  C   UNL     1      -7.658  20.466  66.905  1.00  0.00    -0.298 C  
HETATM    5  C   UNL     1      -5.801  19.078  67.800  1.00  0.00    -0.193 C  
BRANCH   3   6
HETATM    6  C   UNL     1      -7.531  18.030  66.255  1.00  0.00    -0.277 C  
BRANCH   6   7
HETATM    7  C   UNL     1      -7.711  16.570  66.615  1.00  0.00    -0.318 A  
HETATM    8  C   UNL     1      -6.663  15.883  67.262  1.00  0.00    -0.221 A  
HETATM    9  C   UNL     1      -6.795  14.549  67.657  1.00  0.00    -0.203 A  
HETATM   10  C   UNL     1      -7.998  13.882  67.464  1.00  0.00    -0.190 A  
HETATM   11  C   UNL     1      -9.062  14.547  66.859  1.00  0.00    -0.274 A  
HETATM   12  C   UNL     1      -8.920  15.873  66.428  1.00  0.00    -0.326 A  
HETATM   13 BR   UNL     1     -10.448  16.658  65.614  1.00  0.00    -0.237 Br 
ENDBRANCH   6   7
ENDBRANCH   3   6
ENDBRANCH   2   3
TORSDOF 3
ENDMDL
MODEL      130
REMARK 921   NORMALIZED FREE ENERGY PREDICTED BY IDOCK:   -2.87 KCAL/MOL
REMARK 922        TOTAL FREE ENERGY PREDICTED BY IDOCK:   -3.58 KCAL/MOL
REMARK 923 INTER-LIGAND FREE ENERGY PREDICTED BY IDOCK:   -3.53 KCAL/MOL
REMARK 924 INTRA-LIGAND FREE ENERGY PREDICTED BY IDOCK:   -0.05 KCAL/MOL
REMARK 927      BINDING AFFINITY PREDICTED BY RF-SCORE:    0.00 PKD
ROOT
HETATM    1  C   UNL     1      -6.387  10.126  65.149  1.00  0.00    -0.121 C  
HETATM    2  C   UNL     1      -7.471  10.116  66.215  1.00  0.00    -0.112 C  
ENDROOT
BRANCH   2   3
HETATM    3  N   UNL     1      -8.257   8.788  66.327  1.00  0.00    -0.113 N  
HETATM    4  C   UNL     1      -7.838   7.823  65.223  1.00  0.00    -0.117 C  
HETATM    5  C   UNL     1      -8.018   8.140  67.681  1.00  0.00    -0.122 C  
BRANCH   3   6
HETATM    6  C   UNL     1      -9.765   9.169  66.144  1.00  0.00    -0.287 C  
BRANCH   6   7
HETATM    7  C   UNL     1     -10.126  10.459  65.436  1.00  0.00    -0.354 A  
HETATM    8  C   UNL     1      -9.867  10.585  64.055  1.00  0.00    -0.387 A  
HETATM    9  C   UNL     1     -10.222  11.736  63.345  1.00  0.00    -0.482 A  
HETATM   10  C   UNL     1     -10.895  12.768  63.985  1.00  0.00    -0.458 A  
HETATM   11  C   UNL     1     -11.195  12.656  65.341  1.00  0.00    -0.334 A  
HETATM   12  C   UNL     1     -10.807  11.519  66.064  1.00  0.00    -0.276 A  
HETATM   13 BR   UNL     1     -11.275  11.497  67.906  1.00  0.00    -0.370 Br 
ENDBRANCH   6   7
ENDBRANCH   3   6
ENDBRANCH   2   3
TORSDOF 3
ENDMDL
MODEL      131
REMARK 921   NORMALIZED FREE ENERGY PREDICTED BY IDOCK:   -2.87 KCAL/MOL
REMARK 922        TOTAL FREE ENERGY PREDICTED BY IDOCK:   -3.57 KCAL/MOL
REMARK 923 INTER-LIGAND FREE ENERGY PREDICTED BY IDOCK:   -3.53 KCAL/MOL
REMARK 924 INTRA-LIGAND FREE ENERGY PREDICTED BY IDOCK:   -0.04 KCAL/MOL
REMARK 927      BINDING AFFINITY PREDICTED BY RF-SCORE:    0.00 PKD
ROOT
HETATM    1  C   UNL     1     -10.936  13.649  64.508  1.00  0.00    -0.405 C  
HETATM    2  C   UNL     1     -10.158  13.923  65.785  1.00  0.00    -0.320 C  
ENDROOT
BRANCH   2   3
HETATM    3  N   UNL     1     -10.307  12.839  66.880  1.00  0.00    -0.237 N  
HETATM    4  C   UNL     1     -11.634  12.103  66.727  1.00  0.00    -0.345 C  
HETATM    5  C   UNL     1      -9.164  11.841  66.800  1.00  0.00    -0.194 C  
BRANCH   3   6
HETATM    6  C   UNL     1     -10.289  13.608  68.244  1.00  0.00    -0.251 C  
BRANCH   6   7
HETATM    7  C   UNL     1      -9.916  15.076  68.266  1.00  0.00    -0.225 A  
HETATM    8  C   UNL     1     -10.934  16.048  68.176  1.00  0.00    -0.339 A  
HETATM    9  C   UNL     1     -10.648  17.415  68.238  1.00  0.00    -0.366 A  
HETATM   10  C   UNL     1      -9.345  17.845  68.448  1.00  0.00    -0.290 A  
HETATM   11  C   UNL     1      -8.324  16.905  68.577  1.00  0.00    -0.257 A  
HETATM   12  C   UNL     1      -8.602  15.535  68.477  1.00  0.00    -0.176 A  
HETATM   13 BR   UNL     1      -7.118  14.363  68.666  1.00  0.00    -0.125 Br 
ENDBRANCH   6   7
ENDBRANCH   3   6
ENDBRANCH   2   3
TORSDOF 3
ENDMDL
MODEL      132
REMARK 921   NORMALIZED FREE ENERGY PREDICTED BY IDOCK:   -2.86 KCAL/MOL
REMARK 922        TOTAL FREE ENERGY PREDICTED BY IDOCK:   -3.57 KCAL/MOL
REMARK 923 INTER-LIGAND FREE ENERGY PREDICTED BY IDOCK:   -3.60 KCAL/MOL
REMARK 924 INTRA-LIGAND FREE ENERGY PREDICTED BY IDOCK:    0.03 KCAL/MOL
REMARK 927      BINDING AFFINITY PREDICTED BY RF-SCORE:    0.00 PKD
ROOT
HETATM    1  C   UNL     1      -9.709   9.526  65.581  1.00  0.00    -0.361 C  
HETATM    2  C   UNL     1     -10.256  10.722  66.344  1.00  0.00    -0.240 C  
ENDROOT
BRANCH   2   3
HETATM    3  N   UNL     1     -10.134  10.620  67.884  1.00  0.00    -0.164 N  
HETATM    4  C   UNL     1      -9.189  11.691  68.418  1.00  0.00    -0.182 C  
HETATM    5  C   UNL     1     -11.497  10.778  68.537  1.00  0.00    -0.292 C  
BRANCH   3   6
HETATM    6  C   UNL     1      -9.533   9.202  68.169  1.00  0.00    -0.142 C  
BRANCH   6   7
HETATM    7  C   UNL     1     -10.133   8.346  69.265  1.00  0.00    -0.202 A  
HETATM    8  C   UNL     1     -10.148   8.829  70.590  1.00  0.00    -0.248 A  
HETATM    9  C   UNL     1     -10.732   8.099  71.629  1.00  0.00    -0.299 A  
HETATM   10  C   UNL     1     -11.364   6.892  71.362  1.00  0.00    -0.308 A  
HETATM   11  C   UNL     1     -11.396   6.407  70.056  1.00  0.00    -0.496 A  
HETATM   12  C   UNL     1     -10.779   7.119  69.018  1.00  0.00    -0.184 A  
HETATM   13 BR   UNL     1     -10.893   6.343  67.287  1.00  0.00    -0.483 Br 
ENDBRANCH   6   7
ENDBRANCH   3   6
ENDBRANCH   2   3
TORSDOF 3
ENDMDL
MODEL      133
REMARK 921   NORMALIZED FREE ENERGY PREDICTED BY IDOCK:   -2.86 KCAL/MOL
REMARK 922        TOTAL FREE ENERGY PREDICTED BY IDOCK:   -3.57 KCAL/MOL
REMARK 923 INTER-LIGAND FREE ENERGY PREDICTED BY IDOCK:   -3.65 KCAL/MOL
REMARK 924 INTRA-LIGAND FREE ENERGY PREDICTED BY IDOCK:    0.08 KCAL/MOL
REMARK 927      BINDING AFFINITY PREDICTED BY RF-SCORE:    0.00 PKD
ROOT
HETATM    1  C   UNL     1      -8.746   6.362  68.169  1.00  0.00    -0.116 C  
HETATM    2  C   UNL     1      -9.481   7.377  69.031  1.00  0.00    -0.148 C  
ENDROOT
BRANCH   2   3
HETATM    3  N   UNL     1      -8.858   8.794  69.037  1.00  0.00    -0.136 N  
HETATM    4  C   UNL     1      -7.368   8.725  68.720  1.00  0.00    -0.083 C  
HETATM    5  C   UNL     1      -9.550   9.684  68.018  1.00  0.00    -0.143 C  
BRANCH   3   6
HETATM    6  C   UNL     1      -9.059   9.341  70.491  1.00  0.00    -0.259 C  
BRANCH   6   7
HETATM    7  C   UNL     1     -10.447   9.353  71.096  1.00  0.00    -0.392 A  
HETATM    8  C   UNL     1     -11.418  10.236  70.580  1.00  0.00    -0.427 A  
HETATM    9  C   UNL     1     -12.727  10.255  71.071  1.00  0.00    -0.491 A  
HETATM   10  C   UNL     1     -13.113   9.354  72.054  1.00  0.00    -0.516 A  
HETATM   11  C   UNL     1     -12.184   8.447  72.559  1.00  0.00    -0.381 A  
HETATM   12  C   UNL     1     -10.861   8.451  72.094  1.00  0.00    -0.337 A  
HETATM   13 BR   UNL     1      -9.697   7.164  72.869  1.00  0.00    -0.221 Br 
ENDBRANCH   6   7
ENDBRANCH   3   6
ENDBRANCH   2   3
TORSDOF 3
ENDMDL
MODEL      134
REMARK 921   NORMALIZED FREE ENERGY PREDICTED BY IDOCK:   -2.85 KCAL/MOL
REMARK 922        TOTAL FREE ENERGY PREDICTED BY IDOCK:   -3.55 KCAL/MOL
REMARK 923 INTER-LIGAND FREE ENERGY PREDICTED BY IDOCK:   -3.69 KCAL/MOL
REMARK 924 INTRA-LIGAND FREE ENERGY PREDICTED BY IDOCK:    0.14 KCAL/MOL
REMARK 927      BINDING AFFINITY PREDICTED BY RF-SCORE:    0.00 PKD
ROOT
HETATM    1  C   UNL     1     -10.444   8.538  67.216  1.00  0.00    -0.366 C  
HETATM    2  C   UNL     1      -9.402   8.153  68.254  1.00  0.00    -0.134 C  
ENDROOT
BRANCH   2   3
HETATM    3  N   UNL     1      -9.886   7.130  69.310  1.00  0.00    -0.159 N  
HETATM    4  C   UNL     1     -11.131   6.400  68.816  1.00  0.00    -0.326 C  
HETATM    5  C   UNL     1      -8.794   6.118  69.612  1.00  0.00    -0.134 C  
BRANCH   3   6
HETATM    6  C   UNL     1     -10.243   7.970  70.583  1.00  0.00    -0.196 C  
BRANCH   6   7
HETATM    7  C   UNL     1     -11.697   8.186  70.949  1.00  0.00    -0.259 A  
HETATM    8  C   UNL     1     -12.457   7.100  71.429  1.00  0.00    -0.427 A  
HETATM    9  C   UNL     1     -13.790   7.256  71.824  1.00  0.00    -0.420 A  
HETATM   10  C   UNL     1     -14.379   8.512  71.801  1.00  0.00    -0.522 A  
HETATM   11  C   UNL     1     -13.641   9.610  71.364  1.00  0.00    -0.343 A  
HETATM   12  C   UNL     1     -12.317   9.450  70.932  1.00  0.00    -0.193 A  
HETATM   13 BR   UNL     1     -11.426  11.028  70.358  1.00  0.00    -0.214 Br 
ENDBRANCH   6   7
ENDBRANCH   3   6
ENDBRANCH   2   3
TORSDOF 3
ENDMDL
MODEL      135
REMARK 921   NORMALIZED FREE ENERGY PREDICTED BY IDOCK:   -2.85 KCAL/MOL
REMARK 922        TOTAL FREE ENERGY PREDICTED BY IDOCK:   -3.55 KCAL/MOL
REMARK 923 INTER-LIGAND FREE ENERGY PREDICTED BY IDOCK:   -3.32 KCAL/MOL
REMARK 924 INTRA-LIGAND FREE ENERGY PREDICTED BY IDOCK:   -0.22 KCAL/MOL
REMARK 927      BINDING AFFINITY PREDICTED BY RF-SCORE:    0.00 PKD
ROOT
HETATM    1  C   UNL     1      -9.807   6.717  67.068  1.00  0.00    -0.207 C  
HETATM    2  C   UNL     1      -8.662   7.612  66.622  1.00  0.00    -0.141 C  
ENDROOT
BRANCH   2   3
HETATM    3  N   UNL     1      -8.914   9.128  66.812  1.00  0.00    -0.126 N  
HETATM    4  C   UNL     1      -8.103   9.661  67.988  1.00  0.00    -0.105 C  
HETATM    5  C   UNL     1      -8.538   9.892  65.553  1.00  0.00    -0.145 C  
BRANCH   3   6
HETATM    6  C   UNL     1     -10.442   9.270  67.122  1.00  0.00    -0.249 C  
BRANCH   6   7
HETATM    7  C   UNL     1     -10.931  10.455  67.930  1.00  0.00    -0.354 A  
HETATM    8  C   UNL     1     -11.250  11.658  67.268  1.00  0.00    -0.365 A  
HETATM    9  C   UNL     1     -11.749  12.765  67.960  1.00  0.00    -0.405 A  
HETATM   10  C   UNL     1     -11.993  12.681  69.324  1.00  0.00    -0.301 A  
HETATM   11  C   UNL     1     -11.720  11.493  69.998  1.00  0.00    -0.414 A  
HETATM   12  C   UNL     1     -11.184  10.393  69.313  1.00  0.00    -0.248 A  
HETATM   13 BR   UNL     1     -10.855   8.837  70.354  1.00  0.00    -0.265 Br 
ENDBRANCH   6   7
ENDBRANCH   3   6
ENDBRANCH   2   3
TORSDOF 3
ENDMDL
MODEL      136
REMARK 921   NORMALIZED FREE ENERGY PREDICTED BY IDOCK:   -2.82 KCAL/MOL
REMARK 922        TOTAL FREE ENERGY PREDICTED BY IDOCK:   -3.52 KCAL/MOL
REMARK 923 INTER-LIGAND FREE ENERGY PREDICTED BY IDOCK:   -3.47 KCAL/MOL
REMARK 924 INTRA-LIGAND FREE ENERGY PREDICTED BY IDOCK:   -0.04 KCAL/MOL
REMARK 927      BINDING AFFINITY PREDICTED BY RF-SCORE:    0.00 PKD
ROOT
HETATM    1  C   UNL     1      -6.544   6.912  70.513  1.00  0.00    -0.052 C  
HETATM    2  C   UNL     1      -7.822   7.165  71.297  1.00  0.00    -0.098 C  
ENDROOT
BRANCH   2   3
HETATM    3  N   UNL     1      -8.750   8.246  70.692  1.00  0.00    -0.133 N  
HETATM    4  C   UNL     1      -7.927   9.364  70.060  1.00  0.00    -0.137 C  
HETATM    5  C   UNL     1      -9.664   7.637  69.643  1.00  0.00    -0.171 C  
BRANCH   3   6
HETATM    6  C   UNL     1      -9.574   8.819  71.894  1.00  0.00    -0.302 C  
BRANCH   6   7
HETATM    7  C   UNL     1     -11.088   8.784  71.842  1.00  0.00    -0.434 A  
HETATM    8  C   UNL     1     -11.788   9.903  71.347  1.00  0.00    -0.476 A  
HETATM    9  C   UNL     1     -13.182   9.905  71.235  1.00  0.00    -0.465 A  
HETATM   10  C   UNL     1     -13.907   8.768  71.564  1.00  0.00    -0.391 A  
HETATM   11  C   UNL     1     -13.238   7.635  72.022  1.00  0.00    -0.207 A  
HETATM   12  C   UNL     1     -11.844   7.643  72.171  1.00  0.00    -0.309 A  
HETATM   13 BR   UNL     1     -11.060   6.034  72.810  1.00  0.00    -0.299 Br 
ENDBRANCH   6   7
ENDBRANCH   3   6
ENDBRANCH   2   3
TORSDOF 3
ENDMDL
MODEL      137
REMARK 921   NORMALIZED FREE ENERGY PREDICTED BY IDOCK:   -2.81 KCAL/MOL
REMARK 922        TOTAL FREE ENERGY PREDICTED BY IDOCK:   -3.51 KCAL/MOL
REMARK 923 INTER-LIGAND FREE ENERGY PREDICTED BY IDOCK:   -3.32 KCAL/MOL
REMARK 924 INTRA-LIGAND FREE ENERGY PREDICTED BY IDOCK:   -0.20 KCAL/MOL
REMARK 927      BINDING AFFINITY PREDICTED BY RF-SCORE:    0.00 PKD
ROOT
HETATM    1  C   UNL     1      -9.986  15.597  68.227  1.00  0.00    -0.213 C  
HETATM    2  C   UNL     1     -11.179  15.316  67.328  1.00  0.00    -0.306 C  
ENDROOT
BRANCH   2   3
HETATM    3  N   UNL     1     -11.045  14.047  66.452  1.00  0.00    -0.312 N  
HETATM    4  C   UNL     1     -12.413  13.596  65.951  1.00  0.00    -0.452 C  
HETATM    5  C   UNL     1     -10.136  14.314  65.264  1.00  0.00    -0.349 C  
BRANCH   3   6
HETATM    6  C   UNL     1     -10.441  12.945  67.387  1.00  0.00    -0.233 C  
BRANCH   6   7
HETATM    7  C   UNL     1      -9.687  11.782  66.777  1.00  0.00    -0.213 A  
HETATM    8  C   UNL     1     -10.407  10.750  66.140  1.00  0.00    -0.300 A  
HETATM    9  C   UNL     1      -9.757   9.678  65.521  1.00  0.00    -0.372 A  
HETATM   10  C   UNL     1      -8.370   9.638  65.475  1.00  0.00    -0.143 A  
HETATM   11  C   UNL     1      -7.633  10.663  66.065  1.00  0.00    -0.142 A  
HETATM   12  C   UNL     1      -8.282  11.720  66.719  1.00  0.00    -0.147 A  
HETATM   13 BR   UNL     1      -7.158  13.048  67.484  1.00  0.00    -0.135 Br 
ENDBRANCH   6   7
ENDBRANCH   3   6
ENDBRANCH   2   3
TORSDOF 3
ENDMDL
MODEL      138
REMARK 921   NORMALIZED FREE ENERGY PREDICTED BY IDOCK:   -2.81 KCAL/MOL
REMARK 922        TOTAL FREE ENERGY PREDICTED BY IDOCK:   -3.51 KCAL/MOL
REMARK 923 INTER-LIGAND FREE ENERGY PREDICTED BY IDOCK:   -3.27 KCAL/MOL
REMARK 924 INTRA-LIGAND FREE ENERGY PREDICTED BY IDOCK:   -0.24 KCAL/MOL
REMARK 927      BINDING AFFINITY PREDICTED BY RF-SCORE:    0.00 PKD
ROOT
HETATM    1  C   UNL     1      -8.653   5.838  70.688  1.00  0.00    -0.132 C  
HETATM    2  C   UNL     1      -8.921   6.281  72.117  1.00  0.00    -0.137 C  
ENDROOT
BRANCH   2   3
HETATM    3  N   UNL     1     -10.414   6.288  72.524  1.00  0.00    -0.197 N  
HETATM    4  C   UNL     1     -10.865   4.890  72.932  1.00  0.00    -0.248 C  
HETATM    5  C   UNL     1     -10.647   7.250  73.677  1.00  0.00    -0.307 C  
BRANCH   3   6
HETATM    6  C   UNL     1     -11.201   6.739  71.247  1.00  0.00    -0.276 C  
BRANCH   6   7
HETATM    7  C   UNL     1     -11.931   8.066  71.252  1.00  0.00    -0.321 A  
HETATM    8  C   UNL     1     -11.238   9.238  70.884  1.00  0.00    -0.372 A  
HETATM    9  C   UNL     1     -11.877  10.480  70.828  1.00  0.00    -0.465 A  
HETATM   10  C   UNL     1     -13.238  10.574  71.085  1.00  0.00    -0.358 A  
HETATM   11  C   UNL     1     -13.956   9.427  71.416  1.00  0.00    -0.172 A  
HETATM   12  C   UNL     1     -13.310   8.186  71.510  1.00  0.00    -0.284 A  
HETATM   13 BR   UNL     1     -14.406   6.704  71.975  1.00  0.00     0.000 Br 
ENDBRANCH   6   7
ENDBRANCH   3   6
ENDBRANCH   2   3
TORSDOF 3
ENDMDL
MODEL      139
REMARK 921   NORMALIZED FREE ENERGY PREDICTED BY IDOCK:   -2.81 KCAL/MOL
REMARK 922        TOTAL FREE ENERGY PREDICTED BY IDOCK:   -3.51 KCAL/MOL
REMARK 923 INTER-LIGAND FREE ENERGY PREDICTED BY IDOCK:   -3.50 KCAL/MOL
REMARK 924 INTRA-LIGAND FREE ENERGY PREDICTED BY IDOCK:   -0.01 KCAL/MOL
REMARK 927      BINDING AFFINITY PREDICTED BY RF-SCORE:    0.00 PKD
ROOT
HETATM    1  C   UNL     1     -13.402   7.331  71.523  1.00  0.00    -0.435 C  
HETATM    2  C   UNL     1     -12.148   6.912  70.772  1.00  0.00    -0.349 C  
ENDROOT
BRANCH   2   3
HETATM    3  N   UNL     1     -10.878   6.791  71.649  1.00  0.00    -0.226 N  
HETATM    4  C   UNL     1     -11.077   7.507  72.980  1.00  0.00    -0.362 C  
HETATM    5  C   UNL     1     -10.547   5.330  71.906  1.00  0.00    -0.209 C  
BRANCH   3   6
HETATM    6  C   UNL     1      -9.735   7.494  70.842  1.00  0.00    -0.173 C  
BRANCH   6   7
HETATM    7  C   UNL     1     -10.065   8.194  69.540  1.00  0.00    -0.193 A  
HETATM    8  C   UNL     1     -10.203   9.598  69.526  1.00  0.00    -0.233 A  
HETATM    9  C   UNL     1     -10.461  10.297  68.344  1.00  0.00    -0.228 A  
HETATM   10  C   UNL     1     -10.535   9.617  67.136  1.00  0.00    -0.317 A  
HETATM   11  C   UNL     1     -10.367   8.234  67.114  1.00  0.00    -0.387 A  
HETATM   12  C   UNL     1     -10.146   7.526  68.304  1.00  0.00    -0.183 A  
HETATM   13 BR   UNL     1      -9.940   5.644  68.133  1.00  0.00    -0.205 Br 
ENDBRANCH   6   7
ENDBRANCH   3   6
ENDBRANCH   2   3
TORSDOF 3
ENDMDL
MODEL      140
REMARK 921   NORMALIZED FREE ENERGY PREDICTED BY IDOCK:   -2.80 KCAL/MOL
REMARK 922        TOTAL FREE ENERGY PREDICTED BY IDOCK:   -3.49 KCAL/MOL
REMARK 923 INTER-LIGAND FREE ENERGY PREDICTED BY IDOCK:   -3.48 KCAL/MOL
REMARK 924 INTRA-LIGAND FREE ENERGY PREDICTED BY IDOCK:   -0.01 KCAL/MOL
REMARK 927      BINDING AFFINITY PREDICTED BY RF-SCORE:    0.00 PKD
ROOT
HETATM    1  C   UNL     1     -11.015   5.959  70.298  1.00  0.00    -0.390 C  
HETATM    2  C   UNL     1     -10.779   7.294  69.612  1.00  0.00    -0.236 C  
ENDROOT
BRANCH   2   3
HETATM    3  N   UNL     1     -10.015   7.207  68.268  1.00  0.00    -0.152 N  
HETATM    4  C   UNL     1      -9.041   6.034  68.282  1.00  0.00    -0.111 C  
HETATM    5  C   UNL     1     -10.989   7.041  67.113  1.00  0.00    -0.323 C  
BRANCH   3   6
HETATM    6  C   UNL     1      -9.217   8.549  68.144  1.00  0.00    -0.137 C  
BRANCH   6   7
HETATM    7  C   UNL     1      -9.586   9.536  67.057  1.00  0.00    -0.214 A  
HETATM    8  C   UNL     1      -9.081   9.350  65.754  1.00  0.00    -0.249 A  
HETATM    9  C   UNL     1      -9.428  10.206  64.704  1.00  0.00    -0.357 A  
HETATM   10  C   UNL     1     -10.331  11.238  64.918  1.00  0.00    -0.362 A  
HETATM   11  C   UNL     1     -10.873  11.424  66.187  1.00  0.00    -0.310 A  
HETATM   12  C   UNL     1     -10.499  10.591  67.250  1.00  0.00    -0.250 A  
HETATM   13 BR   UNL     1     -11.310  10.958  68.930  1.00  0.00    -0.388 Br 
ENDBRANCH   6   7
ENDBRANCH   3   6
ENDBRANCH   2   3
TORSDOF 3
ENDMDL
MODEL      141
REMARK 921   NORMALIZED FREE ENERGY PREDICTED BY IDOCK:   -2.78 KCAL/MOL
REMARK 922        TOTAL FREE ENERGY PREDICTED BY IDOCK:   -3.48 KCAL/MOL
REMARK 923 INTER-LIGAND FREE ENERGY PREDICTED BY IDOCK:   -3.39 KCAL/MOL
REMARK 924 INTRA-LIGAND FREE ENERGY PREDICTED BY IDOCK:   -0.08 KCAL/MOL
REMARK 927      BINDING AFFINITY PREDICTED BY RF-SCORE:    0.00 PKD
ROOT
HETATM    1  C   UNL     1     -12.738  12.229  63.916  1.00  0.00    -0.490 C  
HETATM    2  C   UNL     1     -12.351  12.826  65.259  1.00  0.00    -0.488 C  
ENDROOT
BRANCH   2   3
HETATM    3  N   UNL     1     -10.993  13.569  65.271  1.00  0.00    -0.287 N  
HETATM    4  C   UNL     1     -10.042  12.962  64.245  1.00  0.00    -0.226 C  
HETATM    5  C   UNL     1     -11.190  15.044  64.965  1.00  0.00    -0.409 C  
BRANCH   3   6
HETATM    6  C   UNL     1     -10.410  13.365  66.710  1.00  0.00    -0.263 C  
BRANCH   6   7
HETATM    7  C   UNL     1      -8.949  13.668  66.971  1.00  0.00    -0.244 A  
HETATM    8  C   UNL     1      -8.546  15.005  67.170  1.00  0.00    -0.246 A  
HETATM    9  C   UNL     1      -7.218  15.334  67.460  1.00  0.00    -0.224 A  
HETATM   10  C   UNL     1      -6.271  14.331  67.613  1.00  0.00    -0.099 A  
HETATM   11  C   UNL     1      -6.648  12.999  67.457  1.00  0.00    -0.160 A  
HETATM   12  C   UNL     1      -7.971  12.669  67.129  1.00  0.00    -0.122 A  
HETATM   13 BR   UNL     1      -8.350  10.815  66.941  1.00  0.00    -0.137 Br 
ENDBRANCH   6   7
ENDBRANCH   3   6
ENDBRANCH   2   3
TORSDOF 3
ENDMDL
MODEL      142
REMARK 921   NORMALIZED FREE ENERGY PREDICTED BY IDOCK:   -2.78 KCAL/MOL
REMARK 922        TOTAL FREE ENERGY PREDICTED BY IDOCK:   -3.47 KCAL/MOL
REMARK 923 INTER-LIGAND FREE ENERGY PREDICTED BY IDOCK:   -3.31 KCAL/MOL
REMARK 924 INTRA-LIGAND FREE ENERGY PREDICTED BY IDOCK:   -0.16 KCAL/MOL
REMARK 927      BINDING AFFINITY PREDICTED BY RF-SCORE:    0.00 PKD
ROOT
HETATM    1  C   UNL     1     -10.415   8.520  67.350  1.00  0.00    -0.351 C  
HETATM    2  C   UNL     1      -9.405   8.220  68.445  1.00  0.00    -0.135 C  
ENDROOT
BRANCH   2   3
HETATM    3  N   UNL     1      -9.987   8.218  69.880  1.00  0.00    -0.187 N  
HETATM    4  C   UNL     1      -8.870   8.078  70.909  1.00  0.00    -0.139 C  
HETATM    5  C   UNL     1     -10.759   9.499  70.143  1.00  0.00    -0.257 C  
BRANCH   3   6
HETATM    6  C   UNL     1     -10.927   6.967  69.956  1.00  0.00    -0.270 C  
BRANCH   6   7
HETATM    7  C   UNL     1     -10.719   5.945  71.053  1.00  0.00    -0.331 A  
HETATM    8  C   UNL     1     -11.386   6.108  72.285  1.00  0.00    -0.346 A  
HETATM    9  C   UNL     1     -11.265   5.169  73.314  1.00  0.00    -0.389 A  
HETATM   10  C   UNL     1     -10.517   4.016  73.119  1.00  0.00    -0.251 A  
HETATM   11  C   UNL     1      -9.876   3.811  71.899  1.00  0.00    -0.248 A  
HETATM   12  C   UNL     1      -9.965   4.769  70.879  1.00  0.00    -0.213 A  
HETATM   13 BR   UNL     1      -9.038   4.367  69.269  1.00  0.00    -0.193 Br 
ENDBRANCH   6   7
ENDBRANCH   3   6
ENDBRANCH   2   3
TORSDOF 3
ENDMDL
MODEL      143
REMARK 921   NORMALIZED FREE ENERGY PREDICTED BY IDOCK:   -2.77 KCAL/MOL
REMARK 922        TOTAL FREE ENERGY PREDICTED BY IDOCK:   -3.47 KCAL/MOL
REMARK 923 INTER-LIGAND FREE ENERGY PREDICTED BY IDOCK:   -3.33 KCAL/MOL
REMARK 924 INTRA-LIGAND FREE ENERGY PREDICTED BY IDOCK:   -0.14 KCAL/MOL
REMARK 927      BINDING AFFINITY PREDICTED BY RF-SCORE:    0.00 PKD
ROOT
HETATM    1  C   UNL     1      -7.657  11.349  67.704  1.00  0.00    -0.108 C  
HETATM    2  C   UNL     1      -8.443  11.626  66.432  1.00  0.00    -0.114 C  
ENDROOT
BRANCH   2   3
HETATM    3  N   UNL     1      -9.258  10.424  65.899  1.00  0.00    -0.164 N  
HETATM    4  C   UNL     1      -8.934  10.166  64.431  1.00  0.00    -0.233 C  
HETATM    5  C   UNL     1      -8.956   9.174  66.710  1.00  0.00    -0.128 C  
BRANCH   3   6
HETATM    6  C   UNL     1     -10.763  10.835  66.038  1.00  0.00    -0.098 C  
BRANCH   6   7
HETATM    7  C   UNL     1     -11.113  12.215  66.555  1.00  0.00    -0.352 A  
HETATM    8  C   UNL     1     -11.152  13.300  65.656  1.00  0.00    -0.299 A  
HETATM    9  C   UNL     1     -11.514  14.585  66.073  1.00  0.00    -0.348 A  
HETATM   10  C   UNL     1     -11.899  14.806  67.388  1.00  0.00    -0.320 A  
HETATM   11  C   UNL     1     -11.904  13.745  68.290  1.00  0.00    -0.413 A  
HETATM   12  C   UNL     1     -11.505  12.464  67.884  1.00  0.00    -0.328 A  
HETATM   13 BR   UNL     1     -11.554  11.109  69.216  1.00  0.00    -0.425 Br 
ENDBRANCH   6   7
ENDBRANCH   3   6
ENDBRANCH   2   3
TORSDOF 3
ENDMDL
MODEL      144
REMARK 921   NORMALIZED FREE ENERGY PREDICTED BY IDOCK:   -2.74 KCAL/MOL
REMARK 922        TOTAL FREE ENERGY PREDICTED BY IDOCK:   -3.42 KCAL/MOL
REMARK 923 INTER-LIGAND FREE ENERGY PREDICTED BY IDOCK:   -3.43 KCAL/MOL
REMARK 924 INTRA-LIGAND FREE ENERGY PREDICTED BY IDOCK:    0.01 KCAL/MOL
REMARK 927      BINDING AFFINITY PREDICTED BY RF-SCORE:    0.00 PKD
ROOT
HETATM    1  C   UNL     1      -9.495  15.860  65.755  1.00  0.00    -0.316 C  
HETATM    2  C   UNL     1     -10.099  14.519  65.369  1.00  0.00    -0.364 C  
ENDROOT
BRANCH   2   3
HETATM    3  N   UNL     1     -11.232  14.026  66.301  1.00  0.00    -0.315 N  
HETATM    4  C   UNL     1     -11.462  15.019  67.435  1.00  0.00    -0.317 C  
HETATM    5  C   UNL     1     -12.523  13.844  65.520  1.00  0.00    -0.511 C  
BRANCH   3   6
HETATM    6  C   UNL     1     -10.735  12.664  66.892  1.00  0.00    -0.242 C  
BRANCH   6   7
HETATM    7  C   UNL     1      -9.256  12.337  66.867  1.00  0.00    -0.209 A  
HETATM    8  C   UNL     1      -8.372  13.073  67.682  1.00  0.00    -0.181 A  
HETATM    9  C   UNL     1      -7.005  12.781  67.731  1.00  0.00    -0.131 A  
HETATM   10  C   UNL     1      -6.496  11.711  67.008  1.00  0.00    -0.148 A  
HETATM   11  C   UNL     1      -7.353  10.945  66.221  1.00  0.00    -0.127 A  
HETATM   12  C   UNL     1      -8.717  11.258  66.141  1.00  0.00    -0.179 A  
HETATM   13 BR   UNL     1      -9.771  10.134  65.028  1.00  0.00    -0.391 Br 
ENDBRANCH   6   7
ENDBRANCH   3   6
ENDBRANCH   2   3
TORSDOF 3
ENDMDL
MODEL      145
REMARK 921   NORMALIZED FREE ENERGY PREDICTED BY IDOCK:   -2.74 KCAL/MOL
REMARK 922        TOTAL FREE ENERGY PREDICTED BY IDOCK:   -3.42 KCAL/MOL
REMARK 923 INTER-LIGAND FREE ENERGY PREDICTED BY IDOCK:   -3.50 KCAL/MOL
REMARK 924 INTRA-LIGAND FREE ENERGY PREDICTED BY IDOCK:    0.08 KCAL/MOL
REMARK 927      BINDING AFFINITY PREDICTED BY RF-SCORE:    0.00 PKD
ROOT
HETATM    1  C   UNL     1     -11.665  11.090  68.508  1.00  0.00    -0.348 C  
HETATM    2  C   UNL     1     -11.077  12.413  68.970  1.00  0.00    -0.235 C  
ENDROOT
BRANCH   2   3
HETATM    3  N   UNL     1     -11.165  13.559  67.932  1.00  0.00    -0.263 N  
HETATM    4  C   UNL     1     -12.390  13.381  67.041  1.00  0.00    -0.177 C  
HETATM    5  C   UNL     1     -11.242  14.906  68.632  1.00  0.00    -0.275 C  
BRANCH   3   6
HETATM    6  C   UNL     1      -9.866  13.448  67.065  1.00  0.00    -0.250 C  
BRANCH   6   7
HETATM    7  C   UNL     1      -8.922  14.629  66.984  1.00  0.00    -0.258 A  
HETATM    8  C   UNL     1      -7.678  14.566  67.646  1.00  0.00    -0.194 A  
HETATM    9  C   UNL     1      -6.751  15.609  67.565  1.00  0.00    -0.221 A  
HETATM   10  C   UNL     1      -7.021  16.719  66.775  1.00  0.00    -0.269 A  
HETATM   11  C   UNL     1      -8.226  16.793  66.082  1.00  0.00    -0.300 A  
HETATM   12  C   UNL     1      -9.174  15.765  66.191  1.00  0.00    -0.350 A  
HETATM   13 BR   UNL     1     -10.777  15.994  65.196  1.00  0.00    -0.356 Br 
ENDBRANCH   6   7
ENDBRANCH   3   6
ENDBRANCH   2   3
TORSDOF 3
ENDMDL
MODEL      146
REMARK 921   NORMALIZED FREE ENERGY PREDICTED BY IDOCK:   -2.71 KCAL/MOL
REMARK 922        TOTAL FREE ENERGY PREDICTED BY IDOCK:   -3.39 KCAL/MOL
REMARK 923 INTER-LIGAND FREE ENERGY PREDICTED BY IDOCK:   -3.40 KCAL/MOL
REMARK 924 INTRA-LIGAND FREE ENERGY PREDICTED BY IDOCK:    0.01 KCAL/MOL
REMARK 927      BINDING AFFINITY PREDICTED BY RF-SCORE:    0.00 PKD
ROOT
HETATM    1  C   UNL     1      -9.288   5.012  70.131  1.00  0.00    -0.215 C  
HETATM    2  C   UNL     1      -9.028   6.178  69.191  1.00  0.00    -0.126 C  
ENDROOT
BRANCH   2   3
HETATM    3  N   UNL     1     -10.208   7.169  69.046  1.00  0.00    -0.184 N  
HETATM    4  C   UNL     1     -10.952   6.929  67.737  1.00  0.00    -0.207 C  
HETATM    5  C   UNL     1     -11.174   7.020  70.210  1.00  0.00    -0.298 C  
BRANCH   3   6
HETATM    6  C   UNL     1      -9.564   8.597  69.028  1.00  0.00    -0.163 C  
BRANCH   6   7
HETATM    7  C   UNL     1     -10.448   9.809  68.824  1.00  0.00    -0.240 A  
HETATM    8  C   UNL     1     -11.162  10.336  69.920  1.00  0.00    -0.360 A  
HETATM    9  C   UNL     1     -11.955  11.481  69.797  1.00  0.00    -0.415 A  
HETATM   10  C   UNL     1     -12.012  12.160  68.588  1.00  0.00    -0.290 A  
HETATM   11  C   UNL     1     -11.288  11.683  67.497  1.00  0.00    -0.364 A  
HETATM   12  C   UNL     1     -10.522  10.514  67.608  1.00  0.00    -0.234 A  
HETATM   13 BR   UNL     1      -9.589   9.972  66.043  1.00  0.00    -0.301 Br 
ENDBRANCH   6   7
ENDBRANCH   3   6
ENDBRANCH   2   3
TORSDOF 3
ENDMDL
MODEL      147
REMARK 921   NORMALIZED FREE ENERGY PREDICTED BY IDOCK:   -2.70 KCAL/MOL
REMARK 922        TOTAL FREE ENERGY PREDICTED BY IDOCK:   -3.37 KCAL/MOL
REMARK 923 INTER-LIGAND FREE ENERGY PREDICTED BY IDOCK:   -3.13 KCAL/MOL
REMARK 924 INTRA-LIGAND FREE ENERGY PREDICTED BY IDOCK:   -0.24 KCAL/MOL
REMARK 927      BINDING AFFINITY PREDICTED BY RF-SCORE:    0.00 PKD
ROOT
HETATM    1  C   UNL     1      -8.781   6.094  66.778  1.00  0.00    -0.116 C  
HETATM    2  C   UNL     1      -8.235   7.308  67.513  1.00  0.00    -0.113 C  
ENDROOT
BRANCH   2   3
HETATM    3  N   UNL     1      -9.260   8.446  67.735  1.00  0.00    -0.131 N  
HETATM    4  C   UNL     1      -8.827   9.708  66.996  1.00  0.00    -0.131 C  
HETATM    5  C   UNL     1     -10.637   8.025  67.249  1.00  0.00    -0.290 C  
BRANCH   3   6
HETATM    6  C   UNL     1      -9.266   8.719  69.277  1.00  0.00    -0.149 C  
BRANCH   6   7
HETATM    7  C   UNL     1     -10.319   8.064  70.145  1.00  0.00    -0.215 A  
HETATM    8  C   UNL     1     -10.169   6.710  70.511  1.00  0.00    -0.215 A  
HETATM    9  C   UNL     1     -11.088   6.071  71.348  1.00  0.00    -0.336 A  
HETATM   10  C   UNL     1     -12.152   6.783  71.885  1.00  0.00    -0.375 A  
HETATM   11  C   UNL     1     -12.306   8.131  71.569  1.00  0.00    -0.335 A  
HETATM   12  C   UNL     1     -11.406   8.765  70.700  1.00  0.00    -0.254 A  
HETATM   13 BR   UNL     1     -11.735  10.605  70.350  1.00  0.00    -0.471 Br 
ENDBRANCH   6   7
ENDBRANCH   3   6
ENDBRANCH   2   3
TORSDOF 3
ENDMDL
MODEL      148
REMARK 921   NORMALIZED FREE ENERGY PREDICTED BY IDOCK:   -2.69 KCAL/MOL
REMARK 922        TOTAL FREE ENERGY PREDICTED BY IDOCK:   -3.37 KCAL/MOL
REMARK 923 INTER-LIGAND FREE ENERGY PREDICTED BY IDOCK:   -3.23 KCAL/MOL
REMARK 924 INTRA-LIGAND FREE ENERGY PREDICTED BY IDOCK:   -0.14 KCAL/MOL
REMARK 927      BINDING AFFINITY PREDICTED BY RF-SCORE:    0.00 PKD
ROOT
HETATM    1  C   UNL     1     -12.447  13.364  64.436  1.00  0.00    -0.338 C  
HETATM    2  C   UNL     1     -11.880  12.239  65.286  1.00  0.00    -0.355 C  
ENDROOT
BRANCH   2   3
HETATM    3  N   UNL     1     -10.397  11.897  65.001  1.00  0.00    -0.277 N  
HETATM    4  C   UNL     1     -10.282  10.530  64.336  1.00  0.00    -0.267 C  
HETATM    5  C   UNL     1      -9.770  12.950  64.103  1.00  0.00     0.308 C  
BRANCH   3   6
HETATM    6  C   UNL     1      -9.693  11.858  66.400  1.00  0.00    -0.221 C  
BRANCH   6   7
HETATM    7  C   UNL     1     -10.473  12.256  67.636  1.00  0.00    -0.230 A  
HETATM    8  C   UNL     1     -11.075  11.254  68.425  1.00  0.00    -0.296 A  
HETATM    9  C   UNL     1     -11.766  11.563  69.600  1.00  0.00    -0.419 A  
HETATM   10  C   UNL     1     -11.826  12.876  70.047  1.00  0.00    -0.356 A  
HETATM   11  C   UNL     1     -11.209  13.882  69.307  1.00  0.00    -0.296 A  
HETATM   12  C   UNL     1     -10.548  13.580  68.108  1.00  0.00    -0.245 A  
HETATM   13 BR   UNL     1      -9.755  15.047  67.195  1.00  0.00    -0.235 Br 
ENDBRANCH   6   7
ENDBRANCH   3   6
ENDBRANCH   2   3
TORSDOF 3
ENDMDL
MODEL      149
REMARK 921   NORMALIZED FREE ENERGY PREDICTED BY IDOCK:   -2.69 KCAL/MOL
REMARK 922        TOTAL FREE ENERGY PREDICTED BY IDOCK:   -3.36 KCAL/MOL
REMARK 923 INTER-LIGAND FREE ENERGY PREDICTED BY IDOCK:   -3.20 KCAL/MOL
REMARK 924 INTRA-LIGAND FREE ENERGY PREDICTED BY IDOCK:   -0.16 KCAL/MOL
REMARK 927      BINDING AFFINITY PREDICTED BY RF-SCORE:    0.00 PKD
ROOT
HETATM    1  C   UNL     1      -9.470   5.336  72.719  1.00  0.00    -0.157 C  
HETATM    2  C   UNL     1     -10.142   4.677  71.526  1.00  0.00    -0.185 C  
ENDROOT
BRANCH   2   3
HETATM    3  N   UNL     1      -9.836   5.341  70.161  1.00  0.00    -0.200 N  
HETATM    4  C   UNL     1      -8.634   6.271  70.276  1.00  0.00    -0.138 C  
HETATM    5  C   UNL     1      -9.558   4.284  69.105  1.00  0.00    -0.179 C  
BRANCH   3   6
HETATM    6  C   UNL     1     -11.111   6.176  69.800  1.00  0.00    -0.416 C  
BRANCH   6   7
HETATM    7  C   UNL     1     -11.041   7.689  69.825  1.00  0.00    -0.115 A  
HETATM    8  C   UNL     1     -11.270   8.371  71.037  1.00  0.00    -0.304 A  
HETATM    9  C   UNL     1     -11.172   9.763  71.124  1.00  0.00    -0.444 A  
HETATM   10  C   UNL     1     -10.789  10.504  70.015  1.00  0.00    -0.320 A  
HETATM   11  C   UNL     1     -10.522   9.853  68.812  1.00  0.00    -0.234 A  
HETATM   12  C   UNL     1     -10.656   8.461  68.713  1.00  0.00    -0.125 A  
HETATM   13 BR   UNL     1     -10.265   7.701  67.014  1.00  0.00    -0.386 Br 
ENDBRANCH   6   7
ENDBRANCH   3   6
ENDBRANCH   2   3
TORSDOF 3
ENDMDL
MODEL      150
REMARK 921   NORMALIZED FREE ENERGY PREDICTED BY IDOCK:   -2.68 KCAL/MOL
REMARK 922        TOTAL FREE ENERGY PREDICTED BY IDOCK:   -3.35 KCAL/MOL
REMARK 923 INTER-LIGAND FREE ENERGY PREDICTED BY IDOCK:   -3.24 KCAL/MOL
REMARK 924 INTRA-LIGAND FREE ENERGY PREDICTED BY IDOCK:   -0.11 KCAL/MOL
REMARK 927      BINDING AFFINITY PREDICTED BY RF-SCORE:    0.00 PKD
ROOT
HETATM    1  C   UNL     1     -11.024   5.958  70.454  1.00  0.00    -0.376 C  
HETATM    2  C   UNL     1     -10.831   7.200  69.599  1.00  0.00    -0.234 C  
ENDROOT
BRANCH   2   3
HETATM    3  N   UNL     1     -10.002   6.979  68.311  1.00  0.00    -0.148 N  
HETATM    4  C   UNL     1      -8.985   5.861  68.515  1.00  0.00    -0.113 C  
HETATM    5  C   UNL     1     -10.912   6.627  67.146  1.00  0.00    -0.408 C  
BRANCH   3   6
HETATM    6  C   UNL     1      -9.251   8.328  68.052  1.00  0.00    -0.136 C  
BRANCH   6   7
HETATM    7  C   UNL     1      -9.635   9.176  66.858  1.00  0.00    -0.233 A  
HETATM    8  C   UNL     1     -10.494  10.279  67.041  1.00  0.00    -0.304 A  
HETATM    9  C   UNL     1     -10.842  11.121  65.981  1.00  0.00    -0.230 A  
HETATM   10  C   UNL     1     -10.297  10.915  64.721  1.00  0.00    -0.391 A  
HETATM   11  C   UNL     1      -9.418   9.854  64.518  1.00  0.00    -0.328 A  
HETATM   12  C   UNL     1      -9.096   8.986  65.571  1.00  0.00    -0.214 A  
HETATM   13 BR   UNL     1      -7.888   7.578  65.157  1.00  0.00    -0.128 Br 
ENDBRANCH   6   7
ENDBRANCH   3   6
ENDBRANCH   2   3
TORSDOF 3
ENDMDL
MODEL      151
REMARK 921   NORMALIZED FREE ENERGY PREDICTED BY IDOCK:   -2.68 KCAL/MOL
REMARK 922        TOTAL FREE ENERGY PREDICTED BY IDOCK:   -3.35 KCAL/MOL
REMARK 923 INTER-LIGAND FREE ENERGY PREDICTED BY IDOCK:   -3.28 KCAL/MOL
REMARK 924 INTRA-LIGAND FREE ENERGY PREDICTED BY IDOCK:   -0.06 KCAL/MOL
REMARK 927      BINDING AFFINITY PREDICTED BY RF-SCORE:    0.00 PKD
ROOT
HETATM    1  C   UNL     1      -8.931   4.409  70.835  1.00  0.00    -0.161 C  
HETATM    2  C   UNL     1      -9.317   5.741  71.455  1.00  0.00    -0.146 C  
ENDROOT
BRANCH   2   3
HETATM    3  N   UNL     1      -8.584   6.078  72.777  1.00  0.00    -0.125 N  
HETATM    4  C   UNL     1      -9.009   5.119  73.884  1.00  0.00    -0.116 C  
HETATM    5  C   UNL     1      -7.079   5.994  72.587  1.00  0.00    -0.084 C  
BRANCH   3   6
HETATM    6  C   UNL     1      -9.024   7.534  73.148  1.00  0.00    -0.169 C  
BRANCH   6   7
HETATM    7  C   UNL     1     -10.089   8.224  72.321  1.00  0.00    -0.370 A  
HETATM    8  C   UNL     1     -11.444   8.090  72.687  1.00  0.00    -0.465 A  
HETATM    9  C   UNL     1     -12.461   8.743  71.985  1.00  0.00    -0.452 A  
HETATM   10  C   UNL     1     -12.146   9.591  70.932  1.00  0.00    -0.357 A  
HETATM   11  C   UNL     1     -10.813   9.770  70.570  1.00  0.00    -0.387 A  
HETATM   12  C   UNL     1      -9.793   9.087  71.249  1.00  0.00    -0.306 A  
HETATM   13 BR   UNL     1      -8.020   9.419  70.650  1.00  0.00    -0.147 Br 
ENDBRANCH   6   7
ENDBRANCH   3   6
ENDBRANCH   2   3
TORSDOF 3
ENDMDL
MODEL      152
REMARK 921   NORMALIZED FREE ENERGY PREDICTED BY IDOCK:   -2.67 KCAL/MOL
REMARK 922        TOTAL FREE ENERGY PREDICTED BY IDOCK:   -3.34 KCAL/MOL
REMARK 923 INTER-LIGAND FREE ENERGY PREDICTED BY IDOCK:   -3.23 KCAL/MOL
REMARK 924 INTRA-LIGAND FREE ENERGY PREDICTED BY IDOCK:   -0.11 KCAL/MOL
REMARK 927      BINDING AFFINITY PREDICTED BY RF-SCORE:    0.00 PKD
ROOT
HETATM    1  C   UNL     1     -14.369   8.302  71.996  1.00  0.00    -0.541 C  
HETATM    2  C   UNL     1     -13.434   7.292  71.351  1.00  0.00    -0.321 C  
ENDROOT
BRANCH   2   3
HETATM    3  N   UNL     1     -11.929   7.644  71.454  1.00  0.00    -0.300 N  
HETATM    4  C   UNL     1     -11.635   8.951  70.726  1.00  0.00    -0.259 C  
HETATM    5  C   UNL     1     -11.510   7.770  72.909  1.00  0.00    -0.303 C  
BRANCH   3   6
HETATM    6  C   UNL     1     -11.170   6.470  70.748  1.00  0.00    -0.321 C  
BRANCH   6   7
HETATM    7  C   UNL     1      -9.788   6.714  70.177  1.00  0.00    -0.180 A  
HETATM    8  C   UNL     1      -8.687   6.813  71.051  1.00  0.00    -0.137 A  
HETATM    9  C   UNL     1      -7.385   6.992  70.573  1.00  0.00    -0.076 A  
HETATM   10  C   UNL     1      -7.144   7.021  69.206  1.00  0.00    -0.083 A  
HETATM   11  C   UNL     1      -8.209   6.890  68.318  1.00  0.00    -0.123 A  
HETATM   12  C   UNL     1      -9.520   6.749  68.795  1.00  0.00    -0.130 A  
HETATM   13 BR   UNL     1     -10.879   6.585  67.476  1.00  0.00    -0.454 Br 
ENDBRANCH   6   7
ENDBRANCH   3   6
ENDBRANCH   2   3
TORSDOF 3
ENDMDL
MODEL      153
REMARK 921   NORMALIZED FREE ENERGY PREDICTED BY IDOCK:   -2.67 KCAL/MOL
REMARK 922        TOTAL FREE ENERGY PREDICTED BY IDOCK:   -3.34 KCAL/MOL
REMARK 923 INTER-LIGAND FREE ENERGY PREDICTED BY IDOCK:   -3.68 KCAL/MOL
REMARK 924 INTRA-LIGAND FREE ENERGY PREDICTED BY IDOCK:    0.34 KCAL/MOL
REMARK 927      BINDING AFFINITY PREDICTED BY RF-SCORE:    0.00 PKD
ROOT
HETATM    1  C   UNL     1     -13.747  15.071  71.239  1.00  0.00    -0.523 C  
HETATM    2  C   UNL     1     -12.635  15.778  70.480  1.00  0.00    -0.295 C  
ENDROOT
BRANCH   2   3
HETATM    3  N   UNL     1     -11.655  14.836  69.740  1.00  0.00    -0.281 N  
HETATM    4  C   UNL     1     -11.812  13.403  70.237  1.00  0.00    -0.245 C  
HETATM    5  C   UNL     1     -11.901  14.881  68.242  1.00  0.00    -0.278 C  
BRANCH   3   6
HETATM    6  C   UNL     1     -10.220  15.356  70.091  1.00  0.00    -0.196 C  
BRANCH   6   7
HETATM    7  C   UNL     1      -9.592  16.439  69.239  1.00  0.00    -0.198 A  
HETATM    8  C   UNL     1     -10.353  17.575  68.893  1.00  0.00    -0.338 A  
HETATM    9  C   UNL     1      -9.807  18.624  68.148  1.00  0.00    -0.391 A  
HETATM   10  C   UNL     1      -8.470  18.590  67.776  1.00  0.00    -0.285 A  
HETATM   11  C   UNL     1      -7.684  17.497  68.134  1.00  0.00    -0.231 A  
HETATM   12  C   UNL     1      -8.239  16.426  68.849  1.00  0.00    -0.235 A  
HETATM   13 BR   UNL     1      -7.058  14.997  69.268  1.00  0.00    -0.183 Br 
ENDBRANCH   6   7
ENDBRANCH   3   6
ENDBRANCH   2   3
TORSDOF 3
ENDMDL
MODEL      154
REMARK 921   NORMALIZED FREE ENERGY PREDICTED BY IDOCK:   -2.66 KCAL/MOL
REMARK 922        TOTAL FREE ENERGY PREDICTED BY IDOCK:   -3.33 KCAL/MOL
REMARK 923 INTER-LIGAND FREE ENERGY PREDICTED BY IDOCK:   -3.29 KCAL/MOL
REMARK 924 INTRA-LIGAND FREE ENERGY PREDICTED BY IDOCK:   -0.04 KCAL/MOL
REMARK 927      BINDING AFFINITY PREDICTED BY RF-SCORE:    0.00 PKD
ROOT
HETATM    1  C   UNL     1      -7.538   5.411  71.790  1.00  0.00    -0.098 C  
HETATM    2  C   UNL     1      -8.705   6.324  72.127  1.00  0.00    -0.133 C  
ENDROOT
BRANCH   2   3
HETATM    3  N   UNL     1      -9.983   5.594  72.608  1.00  0.00    -0.172 N  
HETATM    4  C   UNL     1      -9.772   4.084  72.595  1.00  0.00    -0.145 C  
HETATM    5  C   UNL     1     -10.355   6.040  74.012  1.00  0.00    -0.291 C  
BRANCH   3   6
HETATM    6  C   UNL     1     -11.102   5.974  71.580  1.00  0.00    -0.275 C  
BRANCH   6   7
HETATM    7  C   UNL     1     -11.205   7.402  71.087  1.00  0.00    -0.279 A  
HETATM    8  C   UNL     1     -11.731   8.393  71.942  1.00  0.00    -0.398 A  
HETATM    9  C   UNL     1     -11.805   9.733  71.552  1.00  0.00    -0.476 A  
HETATM   10  C   UNL     1     -11.304  10.128  70.319  1.00  0.00    -0.387 A  
HETATM   11  C   UNL     1     -10.746   9.177  69.468  1.00  0.00    -0.226 A  
HETATM   12  C   UNL     1     -10.705   7.826  69.841  1.00  0.00    -0.245 A  
HETATM   13 BR   UNL     1      -9.921   6.633  68.585  1.00  0.00    -0.163 Br 
ENDBRANCH   6   7
ENDBRANCH   3   6
ENDBRANCH   2   3
TORSDOF 3
ENDMDL
MODEL      155
REMARK 921   NORMALIZED FREE ENERGY PREDICTED BY IDOCK:   -2.64 KCAL/MOL
REMARK 922        TOTAL FREE ENERGY PREDICTED BY IDOCK:   -3.31 KCAL/MOL
REMARK 923 INTER-LIGAND FREE ENERGY PREDICTED BY IDOCK:   -3.33 KCAL/MOL
REMARK 924 INTRA-LIGAND FREE ENERGY PREDICTED BY IDOCK:    0.02 KCAL/MOL
REMARK 927      BINDING AFFINITY PREDICTED BY RF-SCORE:    0.00 PKD
ROOT
HETATM    1  C   UNL     1     -10.452   9.137  66.963  1.00  0.00    -0.311 C  
HETATM    2  C   UNL     1      -9.230   8.234  66.943  1.00  0.00    -0.158 C  
ENDROOT
BRANCH   2   3
HETATM    3  N   UNL     1      -9.504   6.763  67.341  1.00  0.00    -0.131 N  
HETATM    4  C   UNL     1     -11.000   6.471  67.312  1.00  0.00    -0.400 C  
HETATM    5  C   UNL     1      -8.785   5.813  66.398  1.00  0.00    -0.128 C  
BRANCH   3   6
HETATM    6  C   UNL     1      -8.971   6.613  68.806  1.00  0.00    -0.125 C  
BRANCH   6   7
HETATM    7  C   UNL     1      -9.836   7.067  69.964  1.00  0.00    -0.181 A  
HETATM    8  C   UNL     1     -10.824   6.198  70.470  1.00  0.00    -0.364 A  
HETATM    9  C   UNL     1     -11.617   6.549  71.566  1.00  0.00    -0.366 A  
HETATM   10  C   UNL     1     -11.406   7.756  72.218  1.00  0.00    -0.374 A  
HETATM   11  C   UNL     1     -10.413   8.620  71.762  1.00  0.00    -0.394 A  
HETATM   12  C   UNL     1      -9.641   8.286  70.640  1.00  0.00    -0.171 A  
HETATM   13 BR   UNL     1      -8.324   9.555  70.121  1.00  0.00    -0.227 Br 
ENDBRANCH   6   7
ENDBRANCH   3   6
ENDBRANCH   2   3
TORSDOF 3
ENDMDL
MODEL      156
REMARK 921   NORMALIZED FREE ENERGY PREDICTED BY IDOCK:   -2.64 KCAL/MOL
REMARK 922        TOTAL FREE ENERGY PREDICTED BY IDOCK:   -3.31 KCAL/MOL
REMARK 923 INTER-LIGAND FREE ENERGY PREDICTED BY IDOCK:   -3.09 KCAL/MOL
REMARK 924 INTRA-LIGAND FREE ENERGY PREDICTED BY IDOCK:   -0.22 KCAL/MOL
REMARK 927      BINDING AFFINITY PREDICTED BY RF-SCORE:    0.00 PKD
ROOT
HETATM    1  C   UNL     1      -9.739   7.758  68.560  1.00  0.00    -0.165 C  
HETATM    2  C   UNL     1     -10.602   7.515  69.787  1.00  0.00    -0.241 C  
ENDROOT
BRANCH   2   3
HETATM    3  N   UNL     1     -10.850   8.766  70.663  1.00  0.00    -0.224 N  
HETATM    4  C   UNL     1     -11.338   8.360  72.050  1.00  0.00    -0.342 C  
HETATM    5  C   UNL     1      -9.577   9.584  70.796  1.00  0.00    -0.192 C  
BRANCH   3   6
HETATM    6  C   UNL     1     -11.970   9.582  69.933  1.00  0.00     0.278 C  
BRANCH   6   7
HETATM    7  C   UNL     1     -11.733  11.041  69.603  1.00  0.00    -0.401 A  
HETATM    8  C   UNL     1     -11.103  11.380  68.388  1.00  0.00    -0.296 A  
HETATM    9  C   UNL     1     -10.902  12.713  68.014  1.00  0.00    -0.249 A  
HETATM   10  C   UNL     1     -11.375  13.740  68.819  1.00  0.00    -0.318 A  
HETATM   11  C   UNL     1     -12.033  13.433  70.008  1.00  0.00    -0.407 A  
HETATM   12  C   UNL     1     -12.203  12.099  70.404  1.00  0.00    -0.294 A  
HETATM   13 BR   UNL     1     -13.113  11.822  72.049  1.00  0.00    -0.237 Br 
ENDBRANCH   6   7
ENDBRANCH   3   6
ENDBRANCH   2   3
TORSDOF 3
ENDMDL
MODEL      157
REMARK 921   NORMALIZED FREE ENERGY PREDICTED BY IDOCK:   -2.64 KCAL/MOL
REMARK 922        TOTAL FREE ENERGY PREDICTED BY IDOCK:   -3.31 KCAL/MOL
REMARK 923 INTER-LIGAND FREE ENERGY PREDICTED BY IDOCK:   -3.19 KCAL/MOL
REMARK 924 INTRA-LIGAND FREE ENERGY PREDICTED BY IDOCK:   -0.12 KCAL/MOL
REMARK 927      BINDING AFFINITY PREDICTED BY RF-SCORE:    0.00 PKD
ROOT
HETATM    1  C   UNL     1      -9.489   5.276  72.868  1.00  0.00    -0.157 C  
HETATM    2  C   UNL     1     -10.130   4.577  71.680  1.00  0.00    -0.179 C  
ENDROOT
BRANCH   2   3
HETATM    3  N   UNL     1      -9.818   5.216  70.305  1.00  0.00    -0.205 N  
HETATM    4  C   UNL     1      -8.571   6.090  70.392  1.00  0.00    -0.133 C  
HETATM    5  C   UNL     1      -9.609   4.141  69.253  1.00  0.00    -0.186 C  
BRANCH   3   6
HETATM    6  C   UNL     1     -11.059   6.109  69.961  1.00  0.00    -0.392 C  
BRANCH   6   7
HETATM    7  C   UNL     1     -10.856   7.576  69.645  1.00  0.00    -0.210 A  
HETATM    8  C   UNL     1     -10.606   7.968  68.314  1.00  0.00    -0.155 A  
HETATM    9  C   UNL     1     -10.457   9.313  67.962  1.00  0.00    -0.275 A  
HETATM   10  C   UNL     1     -10.609  10.304  68.922  1.00  0.00    -0.242 A  
HETATM   11  C   UNL     1     -10.891   9.948  70.239  1.00  0.00    -0.367 A  
HETATM   12  C   UNL     1     -11.003   8.598  70.602  1.00  0.00    -0.240 A  
HETATM   13 BR   UNL     1     -11.385   8.251  72.431  1.00  0.00    -0.450 Br 
ENDBRANCH   6   7
ENDBRANCH   3   6
ENDBRANCH   2   3
TORSDOF 3
ENDMDL
MODEL      158
REMARK 921   NORMALIZED FREE ENERGY PREDICTED BY IDOCK:   -2.64 KCAL/MOL
REMARK 922        TOTAL FREE ENERGY PREDICTED BY IDOCK:   -3.30 KCAL/MOL
REMARK 923 INTER-LIGAND FREE ENERGY PREDICTED BY IDOCK:   -3.18 KCAL/MOL
REMARK 924 INTRA-LIGAND FREE ENERGY PREDICTED BY IDOCK:   -0.13 KCAL/MOL
REMARK 927      BINDING AFFINITY PREDICTED BY RF-SCORE:    0.00 PKD
ROOT
HETATM    1  C   UNL     1      -7.941   7.328  68.924  1.00  0.00    -0.123 C  
HETATM    2  C   UNL     1      -8.814   6.098  68.738  1.00  0.00    -0.121 C  
ENDROOT
BRANCH   2   3
HETATM    3  N   UNL     1     -10.253   6.392  68.251  1.00  0.00    -0.156 N  
HETATM    4  C   UNL     1     -10.405   7.864  67.886  1.00  0.00    -0.221 C  
HETATM    5  C   UNL     1     -10.591   5.535  67.042  1.00  0.00    -0.260 C  
BRANCH   3   6
HETATM    6  C   UNL     1     -11.190   6.054  69.460  1.00  0.00    -0.346 C  
BRANCH   6   7
HETATM    7  C   UNL     1     -10.779   6.468  70.858  1.00  0.00    -0.289 A  
HETATM    8  C   UNL     1     -11.035   7.786  71.291  1.00  0.00    -0.259 A  
HETATM    9  C   UNL     1     -10.718   8.206  72.586  1.00  0.00    -0.421 A  
HETATM   10  C   UNL     1     -10.188   7.305  73.499  1.00  0.00    -0.404 A  
HETATM   11  C   UNL     1      -9.957   5.987  73.110  1.00  0.00    -0.187 A  
HETATM   12  C   UNL     1     -10.239   5.573  71.800  1.00  0.00    -0.202 A  
HETATM   13 BR   UNL     1      -9.872   3.751  71.400  1.00  0.00    -0.186 Br 
ENDBRANCH   6   7
ENDBRANCH   3   6
ENDBRANCH   2   3
TORSDOF 3
ENDMDL
MODEL      159
REMARK 921   NORMALIZED FREE ENERGY PREDICTED BY IDOCK:   -2.63 KCAL/MOL
REMARK 922        TOTAL FREE ENERGY PREDICTED BY IDOCK:   -3.30 KCAL/MOL
REMARK 923 INTER-LIGAND FREE ENERGY PREDICTED BY IDOCK:   -3.56 KCAL/MOL
REMARK 924 INTRA-LIGAND FREE ENERGY PREDICTED BY IDOCK:    0.26 KCAL/MOL
REMARK 927      BINDING AFFINITY PREDICTED BY RF-SCORE:    0.00 PKD
ROOT
HETATM    1  C   UNL     1     -12.705  13.298  65.243  1.00  0.00    -0.474 C  
HETATM    2  C   UNL     1     -12.098  13.899  66.500  1.00  0.00    -0.449 C  
ENDROOT
BRANCH   2   3
HETATM    3  N   UNL     1     -10.671  14.472  66.321  1.00  0.00    -0.303 N  
HETATM    4  C   UNL     1      -9.627  13.459  66.778  1.00  0.00    -0.262 C  
HETATM    5  C   UNL     1     -10.421  14.833  64.866  1.00  0.00    -0.369 C  
BRANCH   3   6
HETATM    6  C   UNL     1     -10.605  15.741  67.236  1.00  0.00    -0.313 C  
BRANCH   6   7
HETATM    7  C   UNL     1     -10.993  15.627  68.696  1.00  0.00    -0.294 A  
HETATM    8  C   UNL     1     -12.358  15.572  69.045  1.00  0.00    -0.016 A  
HETATM    9  C   UNL     1     -12.769  15.421  70.373  1.00  0.00    -0.407 A  
HETATM   10  C   UNL     1     -11.825  15.266  71.380  1.00  0.00    -0.430 A  
HETATM   11  C   UNL     1     -10.470  15.281  71.059  1.00  0.00     0.258 A  
HETATM   12  C   UNL     1     -10.055  15.470  69.733  1.00  0.00    -0.285 A  
HETATM   13 BR   UNL     1      -8.177  15.474  69.436  1.00  0.00    -0.214 Br 
ENDBRANCH   6   7
ENDBRANCH   3   6
ENDBRANCH   2   3
TORSDOF 3
ENDMDL
MODEL      160
REMARK 921   NORMALIZED FREE ENERGY PREDICTED BY IDOCK:   -2.60 KCAL/MOL
REMARK 922        TOTAL FREE ENERGY PREDICTED BY IDOCK:   -3.26 KCAL/MOL
REMARK 923 INTER-LIGAND FREE ENERGY PREDICTED BY IDOCK:   -3.54 KCAL/MOL
REMARK 924 INTRA-LIGAND FREE ENERGY PREDICTED BY IDOCK:    0.29 KCAL/MOL
REMARK 927      BINDING AFFINITY PREDICTED BY RF-SCORE:    0.00 PKD
ROOT
HETATM    1  C   UNL     1      -8.592  14.278  68.166  1.00  0.00    -0.172 C  
HETATM    2  C   UNL     1      -9.747  14.626  69.091  1.00  0.00    -0.103 C  
ENDROOT
BRANCH   2   3
HETATM    3  N   UNL     1     -10.616  15.818  68.622  1.00  0.00    -0.241 N  
HETATM    4  C   UNL     1     -10.257  17.080  69.399  1.00  0.00    -0.190 C  
HETATM    5  C   UNL     1     -10.420  16.068  67.136  1.00  0.00    -0.308 C  
BRANCH   3   6
HETATM    6  C   UNL     1     -12.096  15.415  68.935  1.00  0.00    -0.198 C  
BRANCH   6   7
HETATM    7  C   UNL     1     -12.370  14.206  69.805  1.00  0.00    -0.350 A  
HETATM    8  C   UNL     1     -12.094  12.917  69.304  1.00  0.00    -0.234 A  
HETATM    9  C   UNL     1     -12.285  11.771  70.083  1.00  0.00    -0.342 A  
HETATM   10  C   UNL     1     -12.704  11.889  71.401  1.00  0.00    -0.395 A  
HETATM   11  C   UNL     1     -12.951  13.152  71.934  1.00  0.00    -0.414 A  
HETATM   12  C   UNL     1     -12.796  14.300  71.144  1.00  0.00    -0.359 A  
HETATM   13 BR   UNL     1     -13.170  15.959  71.994  1.00  0.00    -0.238 Br 
ENDBRANCH   6   7
ENDBRANCH   3   6
ENDBRANCH   2   3
TORSDOF 3
ENDMDL
MODEL      161
REMARK 921   NORMALIZED FREE ENERGY PREDICTED BY IDOCK:   -2.59 KCAL/MOL
REMARK 922        TOTAL FREE ENERGY PREDICTED BY IDOCK:   -3.25 KCAL/MOL
REMARK 923 INTER-LIGAND FREE ENERGY PREDICTED BY IDOCK:   -3.25 KCAL/MOL
REMARK 924 INTRA-LIGAND FREE ENERGY PREDICTED BY IDOCK:   -0.00 KCAL/MOL
REMARK 927      BINDING AFFINITY PREDICTED BY RF-SCORE:    0.00 PKD
ROOT
HETATM    1  C   UNL     1      -9.866  14.351  67.892  1.00  0.00    -0.224 C  
HETATM    2  C   UNL     1     -10.986  13.374  67.572  1.00  0.00    -0.267 C  
ENDROOT
BRANCH   2   3
HETATM    3  N   UNL     1     -10.854  11.990  68.253  1.00  0.00    -0.217 N  
HETATM    4  C   UNL     1      -9.394  11.687  68.569  1.00  0.00    -0.167 C  
HETATM    5  C   UNL     1     -11.668  11.948  69.535  1.00  0.00    -0.345 C  
BRANCH   3   6
HETATM    6  C   UNL     1     -11.390  10.951  67.210  1.00  0.00    -0.151 C  
BRANCH   6   7
HETATM    7  C   UNL     1     -10.405  10.149  66.385  1.00  0.00    -0.258 A  
HETATM    8  C   UNL     1      -9.998   8.878  66.838  1.00  0.00    -0.315 A  
HETATM    9  C   UNL     1      -9.128   8.078  66.092  1.00  0.00    -0.224 A  
HETATM   10  C   UNL     1      -8.685   8.505  64.848  1.00  0.00    -0.090 A  
HETATM   11  C   UNL     1      -9.099   9.742  64.358  1.00  0.00    -0.296 A  
HETATM   12  C   UNL     1      -9.942  10.563  65.122  1.00  0.00    -0.309 A  
HETATM   13 BR   UNL     1     -10.426  12.226  64.338  1.00  0.00    -0.385 Br 
ENDBRANCH   6   7
ENDBRANCH   3   6
ENDBRANCH   2   3
TORSDOF 3
ENDMDL
MODEL      162
REMARK 921   NORMALIZED FREE ENERGY PREDICTED BY IDOCK:   -2.59 KCAL/MOL
REMARK 922        TOTAL FREE ENERGY PREDICTED BY IDOCK:   -3.25 KCAL/MOL
REMARK 923 INTER-LIGAND FREE ENERGY PREDICTED BY IDOCK:   -3.01 KCAL/MOL
REMARK 924 INTRA-LIGAND FREE ENERGY PREDICTED BY IDOCK:   -0.24 KCAL/MOL
REMARK 927      BINDING AFFINITY PREDICTED BY RF-SCORE:    0.00 PKD
ROOT
HETATM    1  C   UNL     1     -10.534   9.045  67.649  1.00  0.00    -0.324 C  
HETATM    2  C   UNL     1      -9.313   8.140  67.664  1.00  0.00    -0.140 C  
ENDROOT
BRANCH   2   3
HETATM    3  N   UNL     1      -9.564   6.721  68.230  1.00  0.00    -0.127 N  
HETATM    4  C   UNL     1     -11.059   6.432  68.307  1.00  0.00    -0.267 C  
HETATM    5  C   UNL     1      -8.891   5.673  67.359  1.00  0.00    -0.105 C  
BRANCH   3   6
HETATM    6  C   UNL     1      -8.957   6.727  69.674  1.00  0.00    -0.143 C  
BRANCH   6   7
HETATM    7  C   UNL     1      -9.706   6.043  70.799  1.00  0.00    -0.208 A  
HETATM    8  C   UNL     1      -9.511   4.664  71.022  1.00  0.00    -0.227 A  
HETATM    9  C   UNL     1     -10.142   3.995  72.075  1.00  0.00    -0.227 A  
HETATM   10  C   UNL     1     -10.942   4.698  72.965  1.00  0.00    -0.329 A  
HETATM   11  C   UNL     1     -11.125   6.068  72.790  1.00  0.00    -0.305 A  
HETATM   12  C   UNL     1     -10.523   6.735  71.713  1.00  0.00    -0.207 A  
HETATM   13 BR   UNL     1     -10.859   8.601  71.590  1.00  0.00    -0.401 Br 
ENDBRANCH   6   7
ENDBRANCH   3   6
ENDBRANCH   2   3
TORSDOF 3
ENDMDL
MODEL      163
REMARK 921   NORMALIZED FREE ENERGY PREDICTED BY IDOCK:   -2.58 KCAL/MOL
REMARK 922        TOTAL FREE ENERGY PREDICTED BY IDOCK:   -3.24 KCAL/MOL
REMARK 923 INTER-LIGAND FREE ENERGY PREDICTED BY IDOCK:   -3.12 KCAL/MOL
REMARK 924 INTRA-LIGAND FREE ENERGY PREDICTED BY IDOCK:   -0.12 KCAL/MOL
REMARK 927      BINDING AFFINITY PREDICTED BY RF-SCORE:    0.00 PKD
ROOT
HETATM    1  C   UNL     1      -7.147   5.749  72.281  1.00  0.00    -0.084 C  
HETATM    2  C   UNL     1      -8.546   6.339  72.362  1.00  0.00    -0.121 C  
ENDROOT
BRANCH   2   3
HETATM    3  N   UNL     1      -9.521   5.571  73.288  1.00  0.00    -0.145 N  
HETATM    4  C   UNL     1      -8.770   4.526  74.106  1.00  0.00    -0.103 C  
HETATM    5  C   UNL     1     -10.231   6.531  74.227  1.00  0.00    -0.350 C  
BRANCH   3   6
HETATM    6  C   UNL     1     -10.539   4.857  72.335  1.00  0.00    -0.200 C  
BRANCH   6   7
HETATM    7  C   UNL     1     -10.460   5.103  70.843  1.00  0.00    -0.258 A  
HETATM    8  C   UNL     1      -9.717   4.218  70.035  1.00  0.00    -0.287 A  
HETATM    9  C   UNL     1      -9.651   4.374  68.647  1.00  0.00    -0.216 A  
HETATM   10  C   UNL     1     -10.370   5.386  68.026  1.00  0.00    -0.215 A  
HETATM   11  C   UNL     1     -11.141   6.254  68.796  1.00  0.00    -0.424 A  
HETATM   12  C   UNL     1     -11.179   6.123  70.191  1.00  0.00    -0.382 A  
HETATM   13 BR   UNL     1     -12.266   7.376  71.120  1.00  0.00    -0.339 Br 
ENDBRANCH   6   7
ENDBRANCH   3   6
ENDBRANCH   2   3
TORSDOF 3
ENDMDL
MODEL      164
REMARK 921   NORMALIZED FREE ENERGY PREDICTED BY IDOCK:   -2.58 KCAL/MOL
REMARK 922        TOTAL FREE ENERGY PREDICTED BY IDOCK:   -3.24 KCAL/MOL
REMARK 923 INTER-LIGAND FREE ENERGY PREDICTED BY IDOCK:   -3.16 KCAL/MOL
REMARK 924 INTRA-LIGAND FREE ENERGY PREDICTED BY IDOCK:   -0.07 KCAL/MOL
REMARK 927      BINDING AFFINITY PREDICTED BY RF-SCORE:    0.00 PKD
ROOT
HETATM    1  C   UNL     1     -11.677  15.099  68.585  1.00  0.00    -0.364 C  
HETATM    2  C   UNL     1     -11.465  14.739  67.124  1.00  0.00    -0.364 C  
ENDROOT
BRANCH   2   3
HETATM    3  N   UNL     1      -9.991  14.773  66.654  1.00  0.00    -0.256 N  
HETATM    4  C   UNL     1      -9.375  13.380  66.725  1.00  0.00    -0.256 C  
HETATM    5  C   UNL     1      -9.897  15.295  65.230  1.00  0.00    -0.215 C  
BRANCH   3   6
HETATM    6  C   UNL     1      -9.248  15.724  67.653  1.00  0.00    -0.200 C  
BRANCH   6   7
HETATM    7  C   UNL     1      -8.382  16.842  67.111  1.00  0.00    -0.217 A  
HETATM    8  C   UNL     1      -8.989  18.040  66.682  1.00  0.00    -0.285 A  
HETATM    9  C   UNL     1      -8.232  19.120  66.217  1.00  0.00    -0.309 A  
HETATM   10  C   UNL     1      -6.846  19.050  66.222  1.00  0.00    -0.242 A  
HETATM   11  C   UNL     1      -6.217  17.892  66.674  1.00  0.00    -0.203 A  
HETATM   12  C   UNL     1      -6.975  16.794  67.105  1.00  0.00    -0.191 A  
HETATM   13 BR   UNL     1      -5.992  15.276  67.692  1.00  0.00    -0.062 Br 
ENDBRANCH   6   7
ENDBRANCH   3   6
ENDBRANCH   2   3
TORSDOF 3
ENDMDL
MODEL      165
REMARK 921   NORMALIZED FREE ENERGY PREDICTED BY IDOCK:   -2.57 KCAL/MOL
REMARK 922        TOTAL FREE ENERGY PREDICTED BY IDOCK:   -3.22 KCAL/MOL
REMARK 923 INTER-LIGAND FREE ENERGY PREDICTED BY IDOCK:   -3.06 KCAL/MOL
REMARK 924 INTRA-LIGAND FREE ENERGY PREDICTED BY IDOCK:   -0.16 KCAL/MOL
REMARK 927      BINDING AFFINITY PREDICTED BY RF-SCORE:    0.00 PKD
ROOT
HETATM    1  C   UNL     1      -9.762   7.474  66.802  1.00  0.00    -0.283 C  
HETATM    2  C   UNL     1     -10.332   8.806  67.263  1.00  0.00    -0.290 C  
ENDROOT
BRANCH   2   3
HETATM    3  N   UNL     1      -9.438  10.033  66.962  1.00  0.00    -0.160 N  
HETATM    4  C   UNL     1      -8.057   9.587  66.494  1.00  0.00    -0.112 C  
HETATM    5  C   UNL     1     -10.075  10.906  65.894  1.00  0.00    -0.252 C  
BRANCH   3   6
HETATM    6  C   UNL     1      -9.306  10.806  68.318  1.00  0.00    -0.161 C  
BRANCH   6   7
HETATM    7  C   UNL     1     -10.081  12.091  68.520  1.00  0.00    -0.201 A  
HETATM    8  C   UNL     1     -11.362  12.040  69.108  1.00  0.00    -0.338 A  
HETATM    9  C   UNL     1     -12.100  13.200  69.359  1.00  0.00    -0.285 A  
HETATM   10  C   UNL     1     -11.554  14.446  69.080  1.00  0.00    -0.344 A  
HETATM   11  C   UNL     1     -10.276  14.528  68.532  1.00  0.00    -0.240 A  
HETATM   12  C   UNL     1      -9.549  13.365  68.244  1.00  0.00    -0.220 A  
HETATM   13 BR   UNL     1      -7.821  13.620  67.494  1.00  0.00    -0.176 Br 
ENDBRANCH   6   7
ENDBRANCH   3   6
ENDBRANCH   2   3
TORSDOF 3
ENDMDL
MODEL      166
REMARK 921   NORMALIZED FREE ENERGY PREDICTED BY IDOCK:   -2.55 KCAL/MOL
REMARK 922        TOTAL FREE ENERGY PREDICTED BY IDOCK:   -3.21 KCAL/MOL
REMARK 923 INTER-LIGAND FREE ENERGY PREDICTED BY IDOCK:   -3.12 KCAL/MOL
REMARK 924 INTRA-LIGAND FREE ENERGY PREDICTED BY IDOCK:   -0.09 KCAL/MOL
REMARK 927      BINDING AFFINITY PREDICTED BY RF-SCORE:    0.00 PKD
ROOT
HETATM    1  C   UNL     1      -6.408  10.396  65.679  1.00  0.00    -0.126 C  
HETATM    2  C   UNL     1      -7.639   9.928  64.921  1.00  0.00    -0.135 C  
ENDROOT
BRANCH   2   3
HETATM    3  N   UNL     1      -8.969  10.058  65.701  1.00  0.00    -0.163 N  
HETATM    4  C   UNL     1     -10.063  10.629  64.805  1.00  0.00    -0.344 C  
HETATM    5  C   UNL     1      -9.409   8.704  66.233  1.00  0.00    -0.220 C  
BRANCH   3   6
HETATM    6  C   UNL     1      -8.680  11.056  66.873  1.00  0.00    -0.148 C  
BRANCH   6   7
HETATM    7  C   UNL     1      -9.824  11.538  67.741  1.00  0.00    -0.186 A  
HETATM    8  C   UNL     1     -10.335  10.689  68.743  1.00  0.00    -0.210 A  
HETATM    9  C   UNL     1     -11.359  11.102  69.601  1.00  0.00    -0.366 A  
HETATM   10  C   UNL     1     -11.860  12.394  69.515  1.00  0.00    -0.368 A  
HETATM   11  C   UNL     1     -11.348  13.266  68.557  1.00  0.00    -0.319 A  
HETATM   12  C   UNL     1     -10.348  12.843  67.670  1.00  0.00    -0.218 A  
HETATM   13 BR   UNL     1      -9.744  14.131  66.411  1.00  0.00    -0.314 Br 
ENDBRANCH   6   7
ENDBRANCH   3   6
ENDBRANCH   2   3
TORSDOF 3
ENDMDL
MODEL      167
REMARK 921   NORMALIZED FREE ENERGY PREDICTED BY IDOCK:   -2.55 KCAL/MOL
REMARK 922        TOTAL FREE ENERGY PREDICTED BY IDOCK:   -3.20 KCAL/MOL
REMARK 923 INTER-LIGAND FREE ENERGY PREDICTED BY IDOCK:   -3.11 KCAL/MOL
REMARK 924 INTRA-LIGAND FREE ENERGY PREDICTED BY IDOCK:   -0.09 KCAL/MOL
REMARK 927      BINDING AFFINITY PREDICTED BY RF-SCORE:    0.00 PKD
ROOT
HETATM    1  C   UNL     1     -10.654  18.108  66.431  1.00  0.00    -0.288 C  
HETATM    2  C   UNL     1     -10.175  16.764  65.907  1.00  0.00    -0.328 C  
ENDROOT
BRANCH   2   3
HETATM    3  N   UNL     1      -9.540  15.841  66.976  1.00  0.00    -0.223 N  
HETATM    4  C   UNL     1      -9.939  16.292  68.377  1.00  0.00    -0.234 C  
HETATM    5  C   UNL     1      -9.979  14.401  66.765  1.00  0.00    -0.263 C  
BRANCH   3   6
HETATM    6  C   UNL     1      -7.991  15.989  66.800  1.00  0.00    -0.267 C  
BRANCH   6   7
HETATM    7  C   UNL     1      -7.241  17.006  67.636  1.00  0.00    -0.169 A  
HETATM    8  C   UNL     1      -7.172  18.344  67.198  1.00  0.00    -0.217 A  
HETATM    9  C   UNL     1      -6.532  19.331  67.954  1.00  0.00    -0.254 A  
HETATM   10  C   UNL     1      -5.992  19.016  69.193  1.00  0.00    -0.251 A  
HETATM   11  C   UNL     1      -6.077  17.709  69.668  1.00  0.00    -0.245 A  
HETATM   12  C   UNL     1      -6.685  16.709  68.895  1.00  0.00    -0.184 A  
HETATM   13 BR   UNL     1      -6.728  14.969  69.658  1.00  0.00    -0.186 Br 
ENDBRANCH   6   7
ENDBRANCH   3   6
ENDBRANCH   2   3
TORSDOF 3
ENDMDL
MODEL      168
REMARK 921   NORMALIZED FREE ENERGY PREDICTED BY IDOCK:   -2.53 KCAL/MOL
REMARK 922        TOTAL FREE ENERGY PREDICTED BY IDOCK:   -3.18 KCAL/MOL
REMARK 923 INTER-LIGAND FREE ENERGY PREDICTED BY IDOCK:   -3.37 KCAL/MOL
REMARK 924 INTRA-LIGAND FREE ENERGY PREDICTED BY IDOCK:    0.19 KCAL/MOL
REMARK 927      BINDING AFFINITY PREDICTED BY RF-SCORE:    0.00 PKD
ROOT
HETATM    1  C   UNL     1     -12.265  11.689  70.390  1.00  0.00    -0.434 C  
HETATM    2  C   UNL     1     -11.774  12.764  69.434  1.00  0.00    -0.319 C  
ENDROOT
BRANCH   2   3
HETATM    3  N   UNL     1     -11.056  12.230  68.171  1.00  0.00    -0.224 N  
HETATM    4  C   UNL     1     -11.436  13.058  66.948  1.00  0.00    -0.339 C  
HETATM    5  C   UNL     1      -9.548  12.269  68.358  1.00  0.00    -0.183 C  
BRANCH   3   6
HETATM    6  C   UNL     1     -11.562  10.759  67.984  1.00  0.00    -0.163 C  
BRANCH   6   7
HETATM    7  C   UNL     1     -10.578   9.678  67.589  1.00  0.00    -0.334 A  
HETATM    8  C   UNL     1     -10.256   8.665  68.516  1.00  0.00    -0.221 A  
HETATM    9  C   UNL     1      -9.390   7.618  68.186  1.00  0.00    -0.146 A  
HETATM   10  C   UNL     1      -8.865   7.528  66.904  1.00  0.00    -0.145 A  
HETATM   11  C   UNL     1      -9.193   8.495  65.957  1.00  0.00    -0.262 A  
HETATM   12  C   UNL     1     -10.032   9.566  66.296  1.00  0.00    -0.274 A  
HETATM   13 BR   UNL     1     -10.395  10.817  64.912  1.00  0.00    -0.326 Br 
ENDBRANCH   6   7
ENDBRANCH   3   6
ENDBRANCH   2   3
TORSDOF 3
ENDMDL
MODEL      169
REMARK 921   NORMALIZED FREE ENERGY PREDICTED BY IDOCK:   -2.53 KCAL/MOL
REMARK 922        TOTAL FREE ENERGY PREDICTED BY IDOCK:   -3.17 KCAL/MOL
REMARK 923 INTER-LIGAND FREE ENERGY PREDICTED BY IDOCK:   -3.05 KCAL/MOL
REMARK 924 INTRA-LIGAND FREE ENERGY PREDICTED BY IDOCK:   -0.12 KCAL/MOL
REMARK 927      BINDING AFFINITY PREDICTED BY RF-SCORE:    0.00 PKD
ROOT
HETATM    1  C   UNL     1      -8.674  11.901  67.327  1.00  0.00    -0.171 C  
HETATM    2  C   UNL     1      -9.638  12.237  68.453  1.00  0.00    -0.183 C  
ENDROOT
BRANCH   2   3
HETATM    3  N   UNL     1     -10.692  11.143  68.752  1.00  0.00    -0.188 N  
HETATM    4  C   UNL     1     -12.019  11.775  69.157  1.00  0.00    -0.293 C  
HETATM    5  C   UNL     1     -10.904  10.262  67.532  1.00  0.00    -0.298 C  
BRANCH   3   6
HETATM    6  C   UNL     1     -10.119  10.316  69.952  1.00  0.00    -0.171 C  
BRANCH   6   7
HETATM    7  C   UNL     1     -10.562   8.881  70.145  1.00  0.00    -0.243 A  
HETATM    8  C   UNL     1     -11.784   8.617  70.797  1.00  0.00    -0.239 A  
HETATM    9  C   UNL     1     -12.262   7.313  70.960  1.00  0.00    -0.350 A  
HETATM   10  C   UNL     1     -11.555   6.243  70.428  1.00  0.00    -0.371 A  
HETATM   11  C   UNL     1     -10.362   6.476  69.749  1.00  0.00    -0.234 A  
HETATM   12  C   UNL     1      -9.862   7.780  69.616  1.00  0.00    -0.182 A  
HETATM   13 BR   UNL     1      -8.223   7.956  68.671  1.00  0.00    -0.128 Br 
ENDBRANCH   6   7
ENDBRANCH   3   6
ENDBRANCH   2   3
TORSDOF 3
ENDMDL
MODEL      170
REMARK 921   NORMALIZED FREE ENERGY PREDICTED BY IDOCK:   -2.51 KCAL/MOL
REMARK 922        TOTAL FREE ENERGY PREDICTED BY IDOCK:   -3.16 KCAL/MOL
REMARK 923 INTER-LIGAND FREE ENERGY PREDICTED BY IDOCK:   -2.91 KCAL/MOL
REMARK 924 INTRA-LIGAND FREE ENERGY PREDICTED BY IDOCK:   -0.25 KCAL/MOL
REMARK 927      BINDING AFFINITY PREDICTED BY RF-SCORE:    0.00 PKD
ROOT
HETATM    1  C   UNL     1     -10.124   8.838  66.854  1.00  0.00    -0.348 C  
HETATM    2  C   UNL     1      -8.759   9.185  67.427  1.00  0.00    -0.115 C  
ENDROOT
BRANCH   2   3
HETATM    3  N   UNL     1      -8.727   9.358  68.965  1.00  0.00    -0.132 N  
HETATM    4  C   UNL     1      -7.414   9.995  69.404  1.00  0.00    -0.113 C  
HETATM    5  C   UNL     1      -9.888  10.223  69.427  1.00  0.00    -0.227 C  
BRANCH   3   6
HETATM    6  C   UNL     1      -8.831   7.912  69.558  1.00  0.00    -0.142 C  
BRANCH   6   7
HETATM    7  C   UNL     1      -9.970   7.573  70.497  1.00  0.00    -0.184 A  
HETATM    8  C   UNL     1     -11.189   7.104  69.965  1.00  0.00    -0.271 A  
HETATM    9  C   UNL     1     -12.255   6.733  70.790  1.00  0.00    -0.353 A  
HETATM   10  C   UNL     1     -12.111   6.770  72.170  1.00  0.00    -0.289 A  
HETATM   11  C   UNL     1     -10.906   7.196  72.725  1.00  0.00    -0.337 A  
HETATM   12  C   UNL     1      -9.848   7.603  71.899  1.00  0.00    -0.165 A  
HETATM   13 BR   UNL     1      -8.263   8.165  72.785  1.00  0.00    -0.229 Br 
ENDBRANCH   6   7
ENDBRANCH   3   6
ENDBRANCH   2   3
TORSDOF 3
ENDMDL
MODEL      171
REMARK 921   NORMALIZED FREE ENERGY PREDICTED BY IDOCK:   -2.51 KCAL/MOL
REMARK 922        TOTAL FREE ENERGY PREDICTED BY IDOCK:   -3.16 KCAL/MOL
REMARK 923 INTER-LIGAND FREE ENERGY PREDICTED BY IDOCK:   -3.31 KCAL/MOL
REMARK 924 INTRA-LIGAND FREE ENERGY PREDICTED BY IDOCK:    0.16 KCAL/MOL
REMARK 927      BINDING AFFINITY PREDICTED BY RF-SCORE:    0.00 PKD
ROOT
HETATM    1  C   UNL     1      -9.548   6.866  66.399  1.00  0.00    -0.152 C  
HETATM    2  C   UNL     1     -10.038   8.199  66.942  1.00  0.00    -0.297 C  
ENDROOT
BRANCH   2   3
HETATM    3  N   UNL     1      -9.364   8.648  68.262  1.00  0.00    -0.137 N  
HETATM    4  C   UNL     1     -10.317   8.465  69.438  1.00  0.00    -0.215 C  
HETATM    5  C   UNL     1      -8.096   7.849  68.511  1.00  0.00    -0.123 C  
BRANCH   3   6
HETATM    6  C   UNL     1      -9.045  10.170  68.079  1.00  0.00    -0.131 C  
BRANCH   6   7
HETATM    7  C   UNL     1      -9.794  10.968  67.032  1.00  0.00    -0.211 A  
HETATM    8  C   UNL     1      -9.375  10.907  65.687  1.00  0.00    -0.236 A  
HETATM    9  C   UNL     1     -10.060  11.586  64.675  1.00  0.00    -0.318 A  
HETATM   10  C   UNL     1     -11.212  12.301  64.974  1.00  0.00    -0.367 A  
HETATM   11  C   UNL     1     -11.669  12.349  66.289  1.00  0.00    -0.457 A  
HETATM   12  C   UNL     1     -10.964  11.699  67.312  1.00  0.00    -0.267 A  
HETATM   13 BR   UNL     1     -11.694  11.850  69.060  1.00  0.00    -0.402 Br 
ENDBRANCH   6   7
ENDBRANCH   3   6
ENDBRANCH   2   3
TORSDOF 3
ENDMDL
MODEL      172
REMARK 921   NORMALIZED FREE ENERGY PREDICTED BY IDOCK:   -2.51 KCAL/MOL
REMARK 922        TOTAL FREE ENERGY PREDICTED BY IDOCK:   -3.16 KCAL/MOL
REMARK 923 INTER-LIGAND FREE ENERGY PREDICTED BY IDOCK:   -3.11 KCAL/MOL
REMARK 924 INTRA-LIGAND FREE ENERGY PREDICTED BY IDOCK:   -0.04 KCAL/MOL
REMARK 927      BINDING AFFINITY PREDICTED BY RF-SCORE:    0.00 PKD
ROOT
HETATM    1  C   UNL     1     -12.438  10.611  70.507  1.00  0.00    -0.445 C  
HETATM    2  C   UNL     1     -11.380  11.328  69.683  1.00  0.00    -0.287 C  
ENDROOT
BRANCH   2   3
HETATM    3  N   UNL     1     -10.327  10.399  69.032  1.00  0.00    -0.201 N  
HETATM    4  C   UNL     1     -10.899   9.732  67.786  1.00  0.00    -0.246 C  
HETATM    5  C   UNL     1      -9.082  11.186  68.657  1.00  0.00    -0.166 C  
BRANCH   3   6
HETATM    6  C   UNL     1     -10.001   9.307  70.106  1.00  0.00    -0.215 C  
BRANCH   6   7
HETATM    7  C   UNL     1      -9.831   7.865  69.674  1.00  0.00    -0.179 A  
HETATM    8  C   UNL     1      -8.660   7.482  68.988  1.00  0.00    -0.136 A  
HETATM    9  C   UNL     1      -8.433   6.156  68.609  1.00  0.00    -0.114 A  
HETATM   10  C   UNL     1      -9.346   5.168  68.953  1.00  0.00    -0.168 A  
HETATM   11  C   UNL     1     -10.495   5.512  69.663  1.00  0.00    -0.379 A  
HETATM   12  C   UNL     1     -10.743   6.847  70.012  1.00  0.00    -0.243 A  
HETATM   13 BR   UNL     1     -12.349   7.177  70.974  1.00  0.00    -0.334 Br 
ENDBRANCH   6   7
ENDBRANCH   3   6
ENDBRANCH   2   3
TORSDOF 3
ENDMDL
MODEL      173
REMARK 921   NORMALIZED FREE ENERGY PREDICTED BY IDOCK:   -2.51 KCAL/MOL
REMARK 922        TOTAL FREE ENERGY PREDICTED BY IDOCK:   -3.15 KCAL/MOL
REMARK 923 INTER-LIGAND FREE ENERGY PREDICTED BY IDOCK:   -3.15 KCAL/MOL
REMARK 924 INTRA-LIGAND FREE ENERGY PREDICTED BY IDOCK:   -0.00 KCAL/MOL
REMARK 927      BINDING AFFINITY PREDICTED BY RF-SCORE:    0.00 PKD
ROOT
HETATM    1  C   UNL     1     -13.149   7.030  71.503  1.00  0.00    -0.395 C  
HETATM    2  C   UNL     1     -11.853   7.136  70.715  1.00  0.00    -0.325 C  
ENDROOT
BRANCH   2   3
HETATM    3  N   UNL     1     -10.682   7.800  71.480  1.00  0.00    -0.221 N  
HETATM    4  C   UNL     1     -10.549   9.267  71.087  1.00  0.00    -0.332 C  
HETATM    5  C   UNL     1     -10.900   7.697  72.981  1.00  0.00    -0.400 C  
BRANCH   3   6
HETATM    6  C   UNL     1      -9.394   7.023  71.043  1.00  0.00    -0.159 C  
BRANCH   6   7
HETATM    7  C   UNL     1      -9.418   5.509  70.998  1.00  0.00    -0.203 A  
HETATM    8  C   UNL     1      -9.586   4.784  72.195  1.00  0.00    -0.202 A  
HETATM    9  C   UNL     1      -9.661   3.388  72.202  1.00  0.00    -0.206 A  
HETATM   10  C   UNL     1      -9.625   2.684  71.007  1.00  0.00    -0.210 A  
HETATM   11  C   UNL     1      -9.496   3.376  69.805  1.00  0.00    -0.229 A  
HETATM   12  C   UNL     1      -9.382   4.773  69.798  1.00  0.00    -0.141 A  
HETATM   13 BR   UNL     1      -9.207   5.591  68.091  1.00  0.00    -0.124 Br 
ENDBRANCH   6   7
ENDBRANCH   3   6
ENDBRANCH   2   3
TORSDOF 3
ENDMDL
MODEL      174
REMARK 921   NORMALIZED FREE ENERGY PREDICTED BY IDOCK:   -2.50 KCAL/MOL
REMARK 922        TOTAL FREE ENERGY PREDICTED BY IDOCK:   -3.14 KCAL/MOL
REMARK 923 INTER-LIGAND FREE ENERGY PREDICTED BY IDOCK:   -2.96 KCAL/MOL
REMARK 924 INTRA-LIGAND FREE ENERGY PREDICTED BY IDOCK:   -0.18 KCAL/MOL
REMARK 927      BINDING AFFINITY PREDICTED BY RF-SCORE:    0.00 PKD
ROOT
HETATM    1  C   UNL     1     -12.219  11.761  70.254  1.00  0.00    -0.381 C  
HETATM    2  C   UNL     1     -12.160  13.117  69.569  1.00  0.00    -0.238 C  
ENDROOT
BRANCH   2   3
HETATM    3  N   UNL     1     -11.392  13.131  68.225  1.00  0.00    -0.277 N  
HETATM    4  C   UNL     1     -12.238  13.774  67.132  1.00  0.00    -0.313 C  
HETATM    5  C   UNL     1     -10.085  13.893  68.367  1.00  0.00    -0.237 C  
BRANCH   3   6
HETATM    6  C   UNL     1     -11.131  11.628  67.868  1.00  0.00    -0.247 C  
BRANCH   6   7
HETATM    7  C   UNL     1      -9.764  11.208  67.371  1.00  0.00    -0.191 A  
HETATM    8  C   UNL     1      -8.815  10.715  68.290  1.00  0.00    -0.139 A  
HETATM    9  C   UNL     1      -7.556  10.270  67.877  1.00  0.00    -0.089 A  
HETATM   10  C   UNL     1      -7.233  10.255  66.527  1.00  0.00    -0.109 A  
HETATM   11  C   UNL     1      -8.164  10.703  65.592  1.00  0.00    -0.154 A  
HETATM   12  C   UNL     1      -9.413  11.185  66.007  1.00  0.00    -0.208 A  
HETATM   13 BR   UNL     1     -10.586  11.769  64.630  1.00  0.00    -0.382 Br 
ENDBRANCH   6   7
ENDBRANCH   3   6
ENDBRANCH   2   3
TORSDOF 3
ENDMDL
MODEL      175
REMARK 921   NORMALIZED FREE ENERGY PREDICTED BY IDOCK:   -2.49 KCAL/MOL
REMARK 922        TOTAL FREE ENERGY PREDICTED BY IDOCK:   -3.14 KCAL/MOL
REMARK 923 INTER-LIGAND FREE ENERGY PREDICTED BY IDOCK:   -3.22 KCAL/MOL
REMARK 924 INTRA-LIGAND FREE ENERGY PREDICTED BY IDOCK:    0.09 KCAL/MOL
REMARK 927      BINDING AFFINITY PREDICTED BY RF-SCORE:    0.00 PKD
ROOT
HETATM    1  C   UNL     1      -7.171  11.653  67.706  1.00  0.00    -0.101 C  
HETATM    2  C   UNL     1      -8.353  10.713  67.531  1.00  0.00    -0.115 C  
ENDROOT
BRANCH   2   3
HETATM    3  N   UNL     1      -8.473   9.614  68.615  1.00  0.00    -0.117 N  
HETATM    4  C   UNL     1      -7.825   8.319  68.137  1.00  0.00    -0.118 C  
HETATM    5  C   UNL     1      -7.808  10.064  69.905  1.00  0.00    -0.174 C  
BRANCH   3   6
HETATM    6  C   UNL     1     -10.008   9.386  68.822  1.00  0.00    -0.179 C  
BRANCH   6   7
HETATM    7  C   UNL     1     -10.484   8.517  69.967  1.00  0.00    -0.226 A  
HETATM    8  C   UNL     1     -10.623   9.082  71.252  1.00  0.00    -0.378 A  
HETATM    9  C   UNL     1     -11.103   8.336  72.332  1.00  0.00    -0.447 A  
HETATM   10  C   UNL     1     -11.507   7.021  72.145  1.00  0.00    -0.312 A  
HETATM   11  C   UNL     1     -11.414   6.447  70.879  1.00  0.00    -0.406 A  
HETATM   12  C   UNL     1     -10.898   7.182  69.801  1.00  0.00    -0.240 A  
HETATM   13 BR   UNL     1     -10.822   6.277  68.131  1.00  0.00    -0.409 Br 
ENDBRANCH   6   7
ENDBRANCH   3   6
ENDBRANCH   2   3
TORSDOF 3
ENDMDL
MODEL      176
REMARK 921   NORMALIZED FREE ENERGY PREDICTED BY IDOCK:   -2.48 KCAL/MOL
REMARK 922        TOTAL FREE ENERGY PREDICTED BY IDOCK:   -3.12 KCAL/MOL
REMARK 923 INTER-LIGAND FREE ENERGY PREDICTED BY IDOCK:   -2.90 KCAL/MOL
REMARK 924 INTRA-LIGAND FREE ENERGY PREDICTED BY IDOCK:   -0.22 KCAL/MOL
REMARK 927      BINDING AFFINITY PREDICTED BY RF-SCORE:    0.00 PKD
ROOT
HETATM    1  C   UNL     1      -7.057   7.257  74.186  1.00  0.00    -0.098 C  
HETATM    2  C   UNL     1      -7.038   5.756  73.946  1.00  0.00    -0.082 C  
ENDROOT
BRANCH   2   3
HETATM    3  N   UNL     1      -7.999   5.264  72.837  1.00  0.00    -0.102 N  
HETATM    4  C   UNL     1      -7.293   4.273  71.918  1.00  0.00    -0.068 C  
HETATM    5  C   UNL     1      -9.223   4.603  73.448  1.00  0.00    -0.113 C  
BRANCH   3   6
HETATM    6  C   UNL     1      -8.397   6.541  72.022  1.00  0.00    -0.107 C  
BRANCH   6   7
HETATM    7  C   UNL     1      -9.862   6.877  71.833  1.00  0.00    -0.173 A  
HETATM    8  C   UNL     1     -10.459   7.854  72.656  1.00  0.00    -0.384 A  
HETATM    9  C   UNL     1     -11.794   8.234  72.491  1.00  0.00    -0.439 A  
HETATM   10  C   UNL     1     -12.552   7.686  71.465  1.00  0.00    -0.369 A  
HETATM   11  C   UNL     1     -11.977   6.745  70.614  1.00  0.00    -0.418 A  
HETATM   12  C   UNL     1     -10.650   6.334  70.800  1.00  0.00    -0.243 A  
HETATM   13 BR   UNL     1      -9.993   5.041  69.572  1.00  0.00    -0.303 Br 
ENDBRANCH   6   7
ENDBRANCH   3   6
ENDBRANCH   2   3
TORSDOF 3
ENDMDL
MODEL      177
REMARK 921   NORMALIZED FREE ENERGY PREDICTED BY IDOCK:   -2.48 KCAL/MOL
REMARK 922        TOTAL FREE ENERGY PREDICTED BY IDOCK:   -3.11 KCAL/MOL
REMARK 923 INTER-LIGAND FREE ENERGY PREDICTED BY IDOCK:   -3.12 KCAL/MOL
REMARK 924 INTRA-LIGAND FREE ENERGY PREDICTED BY IDOCK:    0.01 KCAL/MOL
REMARK 927      BINDING AFFINITY PREDICTED BY RF-SCORE:    0.00 PKD
ROOT
HETATM    1  C   UNL     1     -10.438   9.227  68.159  1.00  0.00    -0.263 C  
HETATM    2  C   UNL     1      -9.622   8.162  68.872  1.00  0.00    -0.153 C  
ENDROOT
BRANCH   2   3
HETATM    3  N   UNL     1     -10.415   7.317  69.899  1.00  0.00    -0.220 N  
HETATM    4  C   UNL     1     -11.342   8.205  70.721  1.00  0.00    -0.270 C  
HETATM    5  C   UNL     1     -11.234   6.250  69.191  1.00  0.00    -0.371 C  
BRANCH   3   6
HETATM    6  C   UNL     1      -9.341   6.671  70.838  1.00  0.00    -0.157 C  
BRANCH   6   7
HETATM    7  C   UNL     1      -9.782   6.001  72.123  1.00  0.00    -0.171 A  
HETATM    8  C   UNL     1     -10.526   4.805  72.059  1.00  0.00    -0.225 A  
HETATM    9  C   UNL     1     -10.918   4.123  73.214  1.00  0.00    -0.324 A  
HETATM   10  C   UNL     1     -10.529   4.589  74.463  1.00  0.00    -0.298 A  
HETATM   11  C   UNL     1      -9.763   5.749  74.555  1.00  0.00    -0.226 A  
HETATM   12  C   UNL     1      -9.401   6.456  73.400  1.00  0.00    -0.132 A  
HETATM   13 BR   UNL     1      -8.360   8.024  73.669  1.00  0.00    -0.314 Br 
ENDBRANCH   6   7
ENDBRANCH   3   6
ENDBRANCH   2   3
TORSDOF 3
ENDMDL
MODEL      178
REMARK 921   NORMALIZED FREE ENERGY PREDICTED BY IDOCK:   -2.46 KCAL/MOL
REMARK 922        TOTAL FREE ENERGY PREDICTED BY IDOCK:   -3.10 KCAL/MOL
REMARK 923 INTER-LIGAND FREE ENERGY PREDICTED BY IDOCK:   -3.12 KCAL/MOL
REMARK 924 INTRA-LIGAND FREE ENERGY PREDICTED BY IDOCK:    0.02 KCAL/MOL
REMARK 927      BINDING AFFINITY PREDICTED BY RF-SCORE:    0.00 PKD
ROOT
HETATM    1  C   UNL     1      -6.305   8.268  68.732  1.00  0.00    -0.049 C  
HETATM    2  C   UNL     1      -7.793   8.489  68.517  1.00  0.00    -0.108 C  
ENDROOT
BRANCH   2   3
HETATM    3  N   UNL     1      -8.684   8.132  69.732  1.00  0.00    -0.134 N  
HETATM    4  C   UNL     1      -8.499   6.668  70.119  1.00  0.00    -0.136 C  
HETATM    5  C   UNL     1      -8.343   9.015  70.921  1.00  0.00    -0.197 C  
BRANCH   3   6
HETATM    6  C   UNL     1     -10.159   8.365  69.261  1.00  0.00    -0.202 C  
BRANCH   6   7
HETATM    7  C   UNL     1     -10.764   9.750  69.367  1.00  0.00    -0.250 A  
HETATM    8  C   UNL     1     -10.709  10.615  68.254  1.00  0.00    -0.260 A  
HETATM    9  C   UNL     1     -11.292  11.885  68.284  1.00  0.00    -0.335 A  
HETATM   10  C   UNL     1     -11.992  12.303  69.407  1.00  0.00    -0.318 A  
HETATM   11  C   UNL     1     -12.094  11.455  70.508  1.00  0.00    -0.487 A  
HETATM   12  C   UNL     1     -11.478  10.196  70.495  1.00  0.00    -0.337 A  
HETATM   13 BR   UNL     1     -11.690   9.143  72.064  1.00  0.00    -0.306 Br 
ENDBRANCH   6   7
ENDBRANCH   3   6
ENDBRANCH   2   3
TORSDOF 3
ENDMDL
MODEL      179
REMARK 921   NORMALIZED FREE ENERGY PREDICTED BY IDOCK:   -2.44 KCAL/MOL
REMARK 922        TOTAL FREE ENERGY PREDICTED BY IDOCK:   -3.07 KCAL/MOL
REMARK 923 INTER-LIGAND FREE ENERGY PREDICTED BY IDOCK:   -3.16 KCAL/MOL
REMARK 924 INTRA-LIGAND FREE ENERGY PREDICTED BY IDOCK:    0.08 KCAL/MOL
REMARK 927      BINDING AFFINITY PREDICTED BY RF-SCORE:    0.00 PKD
ROOT
HETATM    1  C   UNL     1      -8.749   8.939  70.615  1.00  0.00    -0.230 C  
HETATM    2  C   UNL     1      -8.547   9.979  69.525  1.00  0.00    -0.186 C  
ENDROOT
BRANCH   2   3
HETATM    3  N   UNL     1      -9.760  10.174  68.583  1.00  0.00    -0.157 N  
HETATM    4  C   UNL     1     -10.061   8.887  67.824  1.00  0.00    -0.210 C  
HETATM    5  C   UNL     1     -10.988  10.592  69.375  1.00  0.00    -0.255 C  
BRANCH   3   6
HETATM    6  C   UNL     1      -9.336  11.291  67.570  1.00  0.00    -0.162 C  
BRANCH   6   7
HETATM    7  C   UNL     1      -9.486  11.044  66.083  1.00  0.00    -0.230 A  
HETATM    8  C   UNL     1      -8.522  10.265  65.412  1.00  0.00    -0.166 A  
HETATM    9  C   UNL     1      -8.638   9.968  64.050  1.00  0.00    -0.196 A  
HETATM   10  C   UNL     1      -9.749  10.397  63.338  1.00  0.00    -0.318 A  
HETATM   11  C   UNL     1     -10.736  11.139  63.984  1.00  0.00    -0.409 A  
HETATM   12  C   UNL     1     -10.603  11.469  65.340  1.00  0.00    -0.282 A  
HETATM   13 BR   UNL     1     -12.018  12.489  66.096  1.00  0.00    -0.355 Br 
ENDBRANCH   6   7
ENDBRANCH   3   6
ENDBRANCH   2   3
TORSDOF 3
ENDMDL
MODEL      180
REMARK 921   NORMALIZED FREE ENERGY PREDICTED BY IDOCK:   -2.41 KCAL/MOL
REMARK 922        TOTAL FREE ENERGY PREDICTED BY IDOCK:   -3.04 KCAL/MOL
REMARK 923 INTER-LIGAND FREE ENERGY PREDICTED BY IDOCK:   -2.95 KCAL/MOL
REMARK 924 INTRA-LIGAND FREE ENERGY PREDICTED BY IDOCK:   -0.08 KCAL/MOL
REMARK 927      BINDING AFFINITY PREDICTED BY RF-SCORE:    0.00 PKD
ROOT
HETATM    1  C   UNL     1      -6.747  10.143  65.161  1.00  0.00    -0.131 C  
HETATM    2  C   UNL     1      -7.995  10.004  66.017  1.00  0.00    -0.118 C  
ENDROOT
BRANCH   2   3
HETATM    3  N   UNL     1      -8.406   8.545  66.333  1.00  0.00    -0.111 N  
HETATM    4  C   UNL     1      -8.227   7.661  65.104  1.00  0.00    -0.128 C  
HETATM    5  C   UNL     1      -7.572   7.994  67.477  1.00  0.00    -0.101 C  
BRANCH   3   6
HETATM    6  C   UNL     1      -9.922   8.605  66.719  1.00  0.00    -0.273 C  
BRANCH   6   7
HETATM    7  C   UNL     1     -10.370   8.071  68.064  1.00  0.00    -0.262 A  
HETATM    8  C   UNL     1     -10.651   8.976  69.108  1.00  0.00    -0.219 A  
HETATM    9  C   UNL     1     -11.112   8.539  70.353  1.00  0.00    -0.246 A  
HETATM   10  C   UNL     1     -11.355   7.189  70.570  1.00  0.00    -0.333 A  
HETATM   11  C   UNL     1     -11.119   6.276  69.545  1.00  0.00    -0.476 A  
HETATM   12  C   UNL     1     -10.622   6.708  68.307  1.00  0.00    -0.241 A  
HETATM   13 BR   UNL     1     -10.341   5.357  66.999  1.00  0.00    -0.313 Br 
ENDBRANCH   6   7
ENDBRANCH   3   6
ENDBRANCH   2   3
TORSDOF 3
ENDMDL
MODEL      181
REMARK 921   NORMALIZED FREE ENERGY PREDICTED BY IDOCK:   -2.38 KCAL/MOL
REMARK 922        TOTAL FREE ENERGY PREDICTED BY IDOCK:   -3.00 KCAL/MOL
REMARK 923 INTER-LIGAND FREE ENERGY PREDICTED BY IDOCK:   -3.04 KCAL/MOL
REMARK 924 INTRA-LIGAND FREE ENERGY PREDICTED BY IDOCK:    0.04 KCAL/MOL
REMARK 927      BINDING AFFINITY PREDICTED BY RF-SCORE:    0.00 PKD
ROOT
HETATM    1  C   UNL     1     -10.514  17.328  67.456  1.00  0.00    -0.356 C  
HETATM    2  C   UNL     1     -10.036  15.938  67.067  1.00  0.00    -0.268 C  
ENDROOT
BRANCH   2   3
HETATM    3  N   UNL     1     -10.256  14.851  68.146  1.00  0.00    -0.223 N  
HETATM    4  C   UNL     1      -9.262  15.024  69.290  1.00  0.00    -0.159 C  
HETATM    5  C   UNL     1     -11.672  14.922  68.694  1.00  0.00    -0.330 C  
BRANCH   3   6
HETATM    6  C   UNL     1      -9.996  13.482  67.430  1.00  0.00    -0.234 C  
BRANCH   6   7
HETATM    7  C   UNL     1     -10.062  12.199  68.232  1.00  0.00    -0.210 A  
HETATM    8  C   UNL     1     -11.312  11.585  68.453  1.00  0.00    -0.342 A  
HETATM    9  C   UNL     1     -11.423  10.376  69.146  1.00  0.00    -0.261 A  
HETATM   10  C   UNL     1     -10.281   9.721  69.589  1.00  0.00    -0.254 A  
HETATM   11  C   UNL     1      -9.030  10.287  69.354  1.00  0.00    -0.190 A  
HETATM   12  C   UNL     1      -8.919  11.518  68.692  1.00  0.00    -0.112 A  
HETATM   13 BR   UNL     1      -7.154  12.178  68.441  1.00  0.00    -0.096 Br 
ENDBRANCH   6   7
ENDBRANCH   3   6
ENDBRANCH   2   3
TORSDOF 3
ENDMDL
MODEL      182
REMARK 921   NORMALIZED FREE ENERGY PREDICTED BY IDOCK:   -2.37 KCAL/MOL
REMARK 922        TOTAL FREE ENERGY PREDICTED BY IDOCK:   -2.99 KCAL/MOL
REMARK 923 INTER-LIGAND FREE ENERGY PREDICTED BY IDOCK:   -2.74 KCAL/MOL
REMARK 924 INTRA-LIGAND FREE ENERGY PREDICTED BY IDOCK:   -0.26 KCAL/MOL
REMARK 927      BINDING AFFINITY PREDICTED BY RF-SCORE:    0.00 PKD
ROOT
HETATM    1  C   UNL     1      -8.052   9.773  64.970  1.00  0.00    -0.134 C  
HETATM    2  C   UNL     1      -7.561   9.514  66.385  1.00  0.00    -0.097 C  
ENDROOT
BRANCH   2   3
HETATM    3  N   UNL     1      -8.652   9.613  67.478  1.00  0.00    -0.125 N  
HETATM    4  C   UNL     1      -9.118   8.223  67.896  1.00  0.00    -0.133 C  
HETATM    5  C   UNL     1      -8.121  10.354  68.695  1.00  0.00    -0.118 C  
BRANCH   3   6
HETATM    6  C   UNL     1      -9.843  10.389  66.822  1.00  0.00    -0.195 C  
BRANCH   6   7
HETATM    7  C   UNL     1     -10.103  11.827  67.218  1.00  0.00    -0.211 A  
HETATM    8  C   UNL     1      -9.543  12.868  66.449  1.00  0.00    -0.252 A  
HETATM    9  C   UNL     1      -9.790  14.212  66.744  1.00  0.00    -0.275 A  
HETATM   10  C   UNL     1     -10.647  14.550  67.782  1.00  0.00    -0.250 A  
HETATM   11  C   UNL     1     -11.243  13.542  68.537  1.00  0.00    -0.310 A  
HETATM   12  C   UNL     1     -10.967  12.194  68.267  1.00  0.00    -0.234 A  
HETATM   13 BR   UNL     1     -11.843  10.922  69.375  1.00  0.00    -0.400 Br 
ENDBRANCH   6   7
ENDBRANCH   3   6
ENDBRANCH   2   3
TORSDOF 3
ENDMDL
MODEL      183
REMARK 921   NORMALIZED FREE ENERGY PREDICTED BY IDOCK:   -2.37 KCAL/MOL
REMARK 922        TOTAL FREE ENERGY PREDICTED BY IDOCK:   -2.99 KCAL/MOL
REMARK 923 INTER-LIGAND FREE ENERGY PREDICTED BY IDOCK:   -2.72 KCAL/MOL
REMARK 924 INTRA-LIGAND FREE ENERGY PREDICTED BY IDOCK:   -0.27 KCAL/MOL
REMARK 927      BINDING AFFINITY PREDICTED BY RF-SCORE:    0.00 PKD
ROOT
HETATM    1  C   UNL     1     -10.008   6.346  72.592  1.00  0.00    -0.184 C  
HETATM    2  C   UNL     1     -11.084   7.408  72.430  1.00  0.00    -0.287 C  
ENDROOT
BRANCH   2   3
HETATM    3  N   UNL     1     -10.834   8.413  71.278  1.00  0.00    -0.230 N  
HETATM    4  C   UNL     1     -11.753   9.622  71.414  1.00  0.00    -0.404 C  
HETATM    5  C   UNL     1      -9.387   8.876  71.281  1.00  0.00    -0.266 C  
BRANCH   3   6
HETATM    6  C   UNL     1     -11.176   7.641  69.959  1.00  0.00    -0.134 C  
BRANCH   6   7
HETATM    7  C   UNL     1     -10.120   7.501  68.883  1.00  0.00    -0.195 A  
HETATM    8  C   UNL     1      -9.368   6.310  68.805  1.00  0.00    -0.124 A  
HETATM    9  C   UNL     1      -8.413   6.111  67.803  1.00  0.00    -0.115 A  
HETATM   10  C   UNL     1      -8.224   7.075  66.821  1.00  0.00    -0.111 A  
HETATM   11  C   UNL     1      -8.978   8.246  66.854  1.00  0.00    -0.169 A  
HETATM   12  C   UNL     1      -9.909   8.464  67.879  1.00  0.00    -0.170 A  
HETATM   13 BR   UNL     1     -10.866  10.105  67.806  1.00  0.00    -0.335 Br 
ENDBRANCH   6   7
ENDBRANCH   3   6
ENDBRANCH   2   3
TORSDOF 3
ENDMDL
MODEL      184
REMARK 921   NORMALIZED FREE ENERGY PREDICTED BY IDOCK:   -2.35 KCAL/MOL
REMARK 922        TOTAL FREE ENERGY PREDICTED BY IDOCK:   -2.97 KCAL/MOL
REMARK 923 INTER-LIGAND FREE ENERGY PREDICTED BY IDOCK:   -2.91 KCAL/MOL
REMARK 924 INTRA-LIGAND FREE ENERGY PREDICTED BY IDOCK:   -0.06 KCAL/MOL
REMARK 927      BINDING AFFINITY PREDICTED BY RF-SCORE:    0.00 PKD
ROOT
HETATM    1  C   UNL     1      -8.235   5.265  70.065  1.00  0.00    -0.084 C  
HETATM    2  C   UNL     1      -8.434   6.747  69.791  1.00  0.00    -0.133 C  
ENDROOT
BRANCH   2   3
HETATM    3  N   UNL     1      -7.307   7.662  70.329  1.00  0.00    -0.070 N  
HETATM    4  C   UNL     1      -6.495   6.940  71.398  1.00  0.00    -0.042 C  
HETATM    5  C   UNL     1      -6.385   8.091  69.199  1.00  0.00    -0.039 C  
BRANCH   3   6
HETATM    6  C   UNL     1      -8.029   8.897  70.965  1.00  0.00    -0.151 C  
BRANCH   6   7
HETATM    7  C   UNL     1      -9.531   8.862  71.161  1.00  0.00    -0.335 A  
HETATM    8  C   UNL     1     -10.070   8.133  72.240  1.00  0.00    -0.338 A  
HETATM    9  C   UNL     1     -11.445   8.106  72.492  1.00  0.00    -0.470 A  
HETATM   10  C   UNL     1     -12.311   8.852  71.704  1.00  0.00    -0.405 A  
HETATM   11  C   UNL     1     -11.803   9.610  70.651  1.00  0.00    -0.331 A  
HETATM   12  C   UNL     1     -10.428   9.609  70.374  1.00  0.00    -0.293 A  
HETATM   13 BR   UNL     1      -9.869  10.682  68.908  1.00  0.00    -0.217 Br 
ENDBRANCH   6   7
ENDBRANCH   3   6
ENDBRANCH   2   3
TORSDOF 3
ENDMDL
MODEL      185
REMARK 921   NORMALIZED FREE ENERGY PREDICTED BY IDOCK:   -2.33 KCAL/MOL
REMARK 922        TOTAL FREE ENERGY PREDICTED BY IDOCK:   -2.94 KCAL/MOL
REMARK 923 INTER-LIGAND FREE ENERGY PREDICTED BY IDOCK:   -2.89 KCAL/MOL
REMARK 924 INTRA-LIGAND FREE ENERGY PREDICTED BY IDOCK:   -0.05 KCAL/MOL
REMARK 927      BINDING AFFINITY PREDICTED BY RF-SCORE:    0.00 PKD
ROOT
HETATM    1  C   UNL     1      -7.540  10.273  66.082  1.00  0.00    -0.124 C  
HETATM    2  C   UNL     1      -8.639   9.390  66.651  1.00  0.00    -0.130 C  
ENDROOT
BRANCH   2   3
HETATM    3  N   UNL     1      -9.141   9.804  68.056  1.00  0.00    -0.125 N  
HETATM    4  C   UNL     1      -8.177   9.321  69.133  1.00  0.00    -0.111 C  
HETATM    5  C   UNL     1      -9.284  11.315  68.146  1.00  0.00    -0.170 C  
BRANCH   3   6
HETATM    6  C   UNL     1     -10.526   9.096  68.238  1.00  0.00    -0.208 C  
BRANCH   6   7
HETATM    7  C   UNL     1     -10.618   7.850  69.094  1.00  0.00    -0.184 A  
HETATM    8  C   UNL     1     -10.249   6.605  68.544  1.00  0.00    -0.185 A  
HETATM    9  C   UNL     1     -10.271   5.432  69.305  1.00  0.00    -0.315 A  
HETATM   10  C   UNL     1     -10.611   5.483  70.650  1.00  0.00    -0.329 A  
HETATM   11  C   UNL     1     -10.946   6.704  71.229  1.00  0.00    -0.296 A  
HETATM   12  C   UNL     1     -10.961   7.876  70.459  1.00  0.00    -0.248 A  
HETATM   13 BR   UNL     1     -11.441   9.473  71.372  1.00  0.00    -0.464 Br 
ENDBRANCH   6   7
ENDBRANCH   3   6
ENDBRANCH   2   3
TORSDOF 3
ENDMDL
MODEL      186
REMARK 921   NORMALIZED FREE ENERGY PREDICTED BY IDOCK:   -2.32 KCAL/MOL
REMARK 922        TOTAL FREE ENERGY PREDICTED BY IDOCK:   -2.93 KCAL/MOL
REMARK 923 INTER-LIGAND FREE ENERGY PREDICTED BY IDOCK:   -2.72 KCAL/MOL
REMARK 924 INTRA-LIGAND FREE ENERGY PREDICTED BY IDOCK:   -0.22 KCAL/MOL
REMARK 927      BINDING AFFINITY PREDICTED BY RF-SCORE:    0.00 PKD
ROOT
HETATM    1  C   UNL     1      -5.819  14.579  69.862  1.00  0.00    -0.122 C  
HETATM    2  C   UNL     1      -7.160  15.270  70.050  1.00  0.00    -0.030 C  
ENDROOT
BRANCH   2   3
HETATM    3  N   UNL     1      -7.840  15.732  68.738  1.00  0.00    -0.166 N  
HETATM    4  C   UNL     1      -7.779  17.250  68.610  1.00  0.00    -0.265 C  
HETATM    5  C   UNL     1      -7.164  15.096  67.535  1.00  0.00    -0.200 C  
BRANCH   3   6
HETATM    6  C   UNL     1      -9.335  15.277  68.851  1.00  0.00    -0.213 C  
BRANCH   6   7
HETATM    7  C   UNL     1      -9.833  14.139  67.985  1.00  0.00    -0.223 A  
HETATM    8  C   UNL     1      -9.723  12.814  68.454  1.00  0.00    -0.186 A  
HETATM    9  C   UNL     1     -10.210  11.732  67.715  1.00  0.00    -0.205 A  
HETATM   10  C   UNL     1     -10.868  11.951  66.513  1.00  0.00    -0.317 A  
HETATM   11  C   UNL     1     -11.023  13.253  66.041  1.00  0.00    -0.292 A  
HETATM   12  C   UNL     1     -10.503  14.337  66.763  1.00  0.00    -0.273 A  
HETATM   13 BR   UNL     1     -10.780  16.058  66.004  1.00  0.00    -0.226 Br 
ENDBRANCH   6   7
ENDBRANCH   3   6
ENDBRANCH   2   3
TORSDOF 3
ENDMDL
MODEL      187
REMARK 921   NORMALIZED FREE ENERGY PREDICTED BY IDOCK:   -2.30 KCAL/MOL
REMARK 922        TOTAL FREE ENERGY PREDICTED BY IDOCK:   -2.91 KCAL/MOL
REMARK 923 INTER-LIGAND FREE ENERGY PREDICTED BY IDOCK:   -2.94 KCAL/MOL
REMARK 924 INTRA-LIGAND FREE ENERGY PREDICTED BY IDOCK:    0.03 KCAL/MOL
REMARK 927      BINDING AFFINITY PREDICTED BY RF-SCORE:    0.00 PKD
ROOT
HETATM    1  C   UNL     1     -10.191  11.427  67.820  1.00  0.00    -0.202 C  
HETATM    2  C   UNL     1     -10.197  10.020  68.395  1.00  0.00    -0.172 C  
ENDROOT
BRANCH   2   3
HETATM    3  N   UNL     1      -9.793   8.909  67.396  1.00  0.00    -0.179 N  
HETATM    4  C   UNL     1      -9.819   9.439  65.967  1.00  0.00    -0.296 C  
HETATM    5  C   UNL     1      -8.402   8.386  67.715  1.00  0.00    -0.130 C  
BRANCH   3   6
HETATM    6  C   UNL     1     -10.869   7.782  67.555  1.00  0.00    -0.112 C  
BRANCH   6   7
HETATM    7  C   UNL     1     -10.460   6.437  68.121  1.00  0.00    -0.267 A  
HETATM    8  C   UNL     1      -9.791   5.513  67.292  1.00  0.00    -0.169 A  
HETATM    9  C   UNL     1      -9.352   4.278  67.777  1.00  0.00    -0.200 A  
HETATM   10  C   UNL     1      -9.521   3.957  69.117  1.00  0.00    -0.246 A  
HETATM   11  C   UNL     1     -10.147   4.866  69.968  1.00  0.00    -0.337 A  
HETATM   12  C   UNL     1     -10.622   6.090  69.476  1.00  0.00    -0.296 A  
HETATM   13 BR   UNL     1     -11.460   7.234  70.741  1.00  0.00    -0.336 Br 
ENDBRANCH   6   7
ENDBRANCH   3   6
ENDBRANCH   2   3
TORSDOF 3
ENDMDL
MODEL      188
REMARK 921   NORMALIZED FREE ENERGY PREDICTED BY IDOCK:   -2.29 KCAL/MOL
REMARK 922        TOTAL FREE ENERGY PREDICTED BY IDOCK:   -2.90 KCAL/MOL
REMARK 923 INTER-LIGAND FREE ENERGY PREDICTED BY IDOCK:   -2.73 KCAL/MOL
REMARK 924 INTRA-LIGAND FREE ENERGY PREDICTED BY IDOCK:   -0.17 KCAL/MOL
REMARK 927      BINDING AFFINITY PREDICTED BY RF-SCORE:    0.00 PKD
ROOT
HETATM    1  C   UNL     1      -9.564   9.748  65.228  1.00  0.00    -0.368 C  
HETATM    2  C   UNL     1      -9.767  10.153  66.679  1.00  0.00    -0.192 C  
ENDROOT
BRANCH   2   3
HETATM    3  N   UNL     1      -8.618   9.746  67.633  1.00  0.00    -0.125 N  
HETATM    4  C   UNL     1      -7.346   9.455  66.845  1.00  0.00    -0.090 C  
HETATM    5  C   UNL     1      -8.346  10.851  68.641  1.00  0.00    -0.148 C  
BRANCH   3   6
HETATM    6  C   UNL     1      -9.101   8.439  68.347  1.00  0.00    -0.135 C  
BRANCH   6   7
HETATM    7  C   UNL     1      -9.684   8.524  69.743  1.00  0.00    -0.179 A  
HETATM    8  C   UNL     1     -11.034   8.897  69.906  1.00  0.00    -0.190 A  
HETATM    9  C   UNL     1     -11.633   8.946  71.169  1.00  0.00    -0.360 A  
HETATM   10  C   UNL     1     -10.912   8.572  72.295  1.00  0.00    -0.426 A  
HETATM   11  C   UNL     1      -9.587   8.166  72.160  1.00  0.00    -0.308 A  
HETATM   12  C   UNL     1      -8.973   8.151  70.899  1.00  0.00    -0.146 A  
HETATM   13 BR   UNL     1      -7.160   7.580  70.857  1.00  0.00    -0.059 Br 
ENDBRANCH   6   7
ENDBRANCH   3   6
ENDBRANCH   2   3
TORSDOF 3
ENDMDL
MODEL      189
REMARK 921   NORMALIZED FREE ENERGY PREDICTED BY IDOCK:   -2.27 KCAL/MOL
REMARK 922        TOTAL FREE ENERGY PREDICTED BY IDOCK:   -2.88 KCAL/MOL
REMARK 923 INTER-LIGAND FREE ENERGY PREDICTED BY IDOCK:   -2.71 KCAL/MOL
REMARK 924 INTRA-LIGAND FREE ENERGY PREDICTED BY IDOCK:   -0.17 KCAL/MOL
REMARK 927      BINDING AFFINITY PREDICTED BY RF-SCORE:    0.00 PKD
ROOT
HETATM    1  C   UNL     1      -9.192   7.844  67.638  1.00  0.00    -0.147 C  
HETATM    2  C   UNL     1     -10.130   8.893  67.063  1.00  0.00    -0.261 C  
ENDROOT
BRANCH   2   3
HETATM    3  N   UNL     1     -10.122  10.249  67.809  1.00  0.00    -0.172 N  
HETATM    4  C   UNL     1     -11.525  10.606  68.287  1.00  0.00    -0.245 C  
HETATM    5  C   UNL     1      -9.181  10.195  69.002  1.00  0.00    -0.185 C  
BRANCH   3   6
HETATM    6  C   UNL     1      -9.641  11.309  66.761  1.00  0.00    -0.193 C  
BRANCH   6   7
HETATM    7  C   UNL     1      -9.187  10.848  65.391  1.00  0.00    -0.231 A  
HETATM    8  C   UNL     1     -10.091  10.899  64.310  1.00  0.00    -0.413 A  
HETATM    9  C   UNL     1      -9.708  10.530  63.017  1.00  0.00    -0.337 A  
HETATM   10  C   UNL     1      -8.397  10.152  62.761  1.00  0.00    -0.171 A  
HETATM   11  C   UNL     1      -7.473  10.126  63.804  1.00  0.00    -0.126 A  
HETATM   12  C   UNL     1      -7.864  10.460  65.108  1.00  0.00    -0.122 A  
HETATM   13 BR   UNL     1      -6.506  10.378  66.436  1.00  0.00    -0.106 Br 
ENDBRANCH   6   7
ENDBRANCH   3   6
ENDBRANCH   2   3
TORSDOF 3
ENDMDL
MODEL      190
REMARK 921   NORMALIZED FREE ENERGY PREDICTED BY IDOCK:   -2.27 KCAL/MOL
REMARK 922        TOTAL FREE ENERGY PREDICTED BY IDOCK:   -2.87 KCAL/MOL
REMARK 923 INTER-LIGAND FREE ENERGY PREDICTED BY IDOCK:   -2.62 KCAL/MOL
REMARK 924 INTRA-LIGAND FREE ENERGY PREDICTED BY IDOCK:   -0.24 KCAL/MOL
REMARK 927      BINDING AFFINITY PREDICTED BY RF-SCORE:    0.00 PKD
ROOT
HETATM    1  C   UNL     1      -7.927   7.902  74.510  1.00  0.00    -0.280 C  
HETATM    2  C   UNL     1      -7.865   6.410  74.230  1.00  0.00    -0.104 C  
ENDROOT
BRANCH   2   3
HETATM    3  N   UNL     1      -9.099   5.838  73.490  1.00  0.00    -0.132 N  
HETATM    4  C   UNL     1      -8.679   4.742  72.516  1.00  0.00    -0.116 C  
HETATM    5  C   UNL     1     -10.100   5.273  74.484  1.00  0.00    -0.262 C  
BRANCH   3   6
HETATM    6  C   UNL     1      -9.713   7.039  72.694  1.00  0.00    -0.150 C  
BRANCH   6   7
HETATM    7  C   UNL     1      -9.915   6.914  71.198  1.00  0.00    -0.187 A  
HETATM    8  C   UNL     1     -11.150   6.445  70.705  1.00  0.00    -0.365 A  
HETATM    9  C   UNL     1     -11.405   6.355  69.333  1.00  0.00    -0.443 A  
HETATM   10  C   UNL     1     -10.452   6.783  68.420  1.00  0.00    -0.238 A  
HETATM   11  C   UNL     1      -9.236   7.285  68.879  1.00  0.00    -0.141 A  
HETATM   12  C   UNL     1      -8.964   7.341  70.253  1.00  0.00    -0.151 A  
HETATM   13 BR   UNL     1      -7.266   8.043  70.743  1.00  0.00    -0.054 Br 
ENDBRANCH   6   7
ENDBRANCH   3   6
ENDBRANCH   2   3
TORSDOF 3
ENDMDL
MODEL      191
REMARK 921   NORMALIZED FREE ENERGY PREDICTED BY IDOCK:   -2.24 KCAL/MOL
REMARK 922        TOTAL FREE ENERGY PREDICTED BY IDOCK:   -2.84 KCAL/MOL
REMARK 923 INTER-LIGAND FREE ENERGY PREDICTED BY IDOCK:   -2.67 KCAL/MOL
REMARK 924 INTRA-LIGAND FREE ENERGY PREDICTED BY IDOCK:   -0.18 KCAL/MOL
REMARK 927      BINDING AFFINITY PREDICTED BY RF-SCORE:    0.00 PKD
ROOT
HETATM    1  C   UNL     1      -5.944  10.941  66.274  1.00  0.00    -0.139 C  
HETATM    2  C   UNL     1      -7.445  10.701  66.250  1.00  0.00    -0.137 C  
ENDROOT
BRANCH   2   3
HETATM    3  N   UNL     1      -7.991   9.892  67.451  1.00  0.00    -0.106 N  
HETATM    4  C   UNL     1      -8.822   8.709  66.966  1.00  0.00    -0.132 C  
HETATM    5  C   UNL     1      -6.849   9.385  68.316  1.00  0.00    -0.063 C  
BRANCH   3   6
HETATM    6  C   UNL     1      -8.907  10.881  68.250  1.00  0.00    -0.140 C  
BRANCH   6   7
HETATM    7  C   UNL     1      -9.700  11.930  67.500  1.00  0.00    -0.185 A  
HETATM    8  C   UNL     1     -10.913  11.567  66.880  1.00  0.00    -0.350 A  
HETATM    9  C   UNL     1     -11.707  12.507  66.215  1.00  0.00    -0.462 A  
HETATM   10  C   UNL     1     -11.335  13.844  66.200  1.00  0.00    -0.323 A  
HETATM   11  C   UNL     1     -10.160  14.238  66.835  1.00  0.00    -0.264 A  
HETATM   12  C   UNL     1      -9.343  13.292  67.470  1.00  0.00    -0.218 A  
HETATM   13 BR   UNL     1      -7.766  13.963  68.292  1.00  0.00    -0.148 Br 
ENDBRANCH   6   7
ENDBRANCH   3   6
ENDBRANCH   2   3
TORSDOF 3
ENDMDL
MODEL      192
REMARK 921   NORMALIZED FREE ENERGY PREDICTED BY IDOCK:   -2.24 KCAL/MOL
REMARK 922        TOTAL FREE ENERGY PREDICTED BY IDOCK:   -2.84 KCAL/MOL
REMARK 923 INTER-LIGAND FREE ENERGY PREDICTED BY IDOCK:   -3.09 KCAL/MOL
REMARK 924 INTRA-LIGAND FREE ENERGY PREDICTED BY IDOCK:    0.25 KCAL/MOL
REMARK 927      BINDING AFFINITY PREDICTED BY RF-SCORE:    0.00 PKD
ROOT
HETATM    1  C   UNL     1     -12.109  11.192  70.012  1.00  0.00    -0.437 C  
HETATM    2  C   UNL     1     -11.388  12.380  69.396  1.00  0.00    -0.220 C  
ENDROOT
BRANCH   2   3
HETATM    3  N   UNL     1     -10.637  12.071  68.079  1.00  0.00    -0.201 N  
HETATM    4  C   UNL     1      -9.222  11.583  68.372  1.00  0.00    -0.190 C  
HETATM    5  C   UNL     1     -11.379  11.014  67.278  1.00  0.00    -0.188 C  
BRANCH   3   6
HETATM    6  C   UNL     1     -10.571  13.427  67.298  1.00  0.00    -0.255 C  
BRANCH   6   7
HETATM    7  C   UNL     1      -9.634  14.516  67.776  1.00  0.00    -0.215 A  
HETATM    8  C   UNL     1      -8.307  14.545  67.300  1.00  0.00    -0.232 A  
HETATM    9  C   UNL     1      -7.416  15.555  67.674  1.00  0.00    -0.189 A  
HETATM   10  C   UNL     1      -7.845  16.593  68.490  1.00  0.00    -0.218 A  
HETATM   11  C   UNL     1      -9.160  16.610  68.947  1.00  0.00    -0.238 A  
HETATM   12  C   UNL     1     -10.046  15.578  68.604  1.00  0.00    -0.210 A  
HETATM   13 BR   UNL     1     -11.809  15.722  69.299  1.00  0.00    -0.298 Br 
ENDBRANCH   6   7
ENDBRANCH   3   6
ENDBRANCH   2   3
TORSDOF 3
ENDMDL
MODEL      193
REMARK 921   NORMALIZED FREE ENERGY PREDICTED BY IDOCK:   -2.24 KCAL/MOL
REMARK 922        TOTAL FREE ENERGY PREDICTED BY IDOCK:   -2.84 KCAL/MOL
REMARK 923 INTER-LIGAND FREE ENERGY PREDICTED BY IDOCK:   -2.84 KCAL/MOL
REMARK 924 INTRA-LIGAND FREE ENERGY PREDICTED BY IDOCK:    0.00 KCAL/MOL
REMARK 927      BINDING AFFINITY PREDICTED BY RF-SCORE:    0.00 PKD
ROOT
HETATM    1  C   UNL     1      -9.429   5.397  69.606  1.00  0.00    -0.194 C  
HETATM    2  C   UNL     1      -9.569   5.651  71.098  1.00  0.00    -0.168 C  
ENDROOT
BRANCH   2   3
HETATM    3  N   UNL     1     -10.873   6.377  71.512  1.00  0.00    -0.245 N  
HETATM    4  C   UNL     1     -11.844   6.443  70.338  1.00  0.00    -0.234 C  
HETATM    5  C   UNL     1     -11.535   5.658  72.675  1.00  0.00    -0.285 C  
BRANCH   3   6
HETATM    6  C   UNL     1     -10.441   7.827  71.917  1.00  0.00    -0.220 C  
BRANCH   6   7
HETATM    7  C   UNL     1      -9.924   8.774  70.854  1.00  0.00    -0.279 A  
HETATM    8  C   UNL     1     -10.842   9.436  70.012  1.00  0.00    -0.271 A  
HETATM    9  C   UNL     1     -10.420  10.354  69.047  1.00  0.00    -0.240 A  
HETATM   10  C   UNL     1      -9.075  10.677  68.935  1.00  0.00    -0.181 A  
HETATM   11  C   UNL     1      -8.149  10.065  69.777  1.00  0.00    -0.188 A  
HETATM   12  C   UNL     1      -8.565   9.115  70.721  1.00  0.00    -0.219 A  
HETATM   13 BR   UNL     1      -7.199   8.355  71.803  1.00  0.00    -0.115 Br 
ENDBRANCH   6   7
ENDBRANCH   3   6
ENDBRANCH   2   3
TORSDOF 3
ENDMDL
MODEL      194
REMARK 921   NORMALIZED FREE ENERGY PREDICTED BY IDOCK:   -2.22 KCAL/MOL
REMARK 922        TOTAL FREE ENERGY PREDICTED BY IDOCK:   -2.81 KCAL/MOL
REMARK 923 INTER-LIGAND FREE ENERGY PREDICTED BY IDOCK:   -2.65 KCAL/MOL
REMARK 924 INTRA-LIGAND FREE ENERGY PREDICTED BY IDOCK:   -0.16 KCAL/MOL
REMARK 927      BINDING AFFINITY PREDICTED BY RF-SCORE:    0.00 PKD
ROOT
HETATM    1  C   UNL     1      -6.830  16.201  67.284  1.00  0.00    -0.236 C  
HETATM    2  C   UNL     1      -8.149  16.282  66.533  1.00  0.00    -0.302 C  
ENDROOT
BRANCH   2   3
HETATM    3  N   UNL     1      -9.262  15.353  67.075  1.00  0.00    -0.214 N  
HETATM    4  C   UNL     1      -9.200  15.276  68.597  1.00  0.00    -0.201 C  
HETATM    5  C   UNL     1     -10.631  15.858  66.651  1.00  0.00    -0.305 C  
BRANCH   3   6
HETATM    6  C   UNL     1      -8.970  13.940  66.468  1.00  0.00    -0.073 C  
BRANCH   6   7
HETATM    7  C   UNL     1      -8.716  12.769  67.395  1.00  0.00    -0.196 A  
HETATM    8  C   UNL     1      -7.399  12.495  67.817  1.00  0.00    -0.124 A  
HETATM    9  C   UNL     1      -7.116  11.456  68.709  1.00  0.00    -0.102 A  
HETATM   10  C   UNL     1      -8.149  10.698  69.243  1.00  0.00    -0.133 A  
HETATM   11  C   UNL     1      -9.464  10.969  68.871  1.00  0.00    -0.166 A  
HETATM   12  C   UNL     1      -9.747  11.986  67.948  1.00  0.00    -0.194 A  
HETATM   13 BR   UNL     1     -11.581  12.247  67.525  1.00  0.00    -0.409 Br 
ENDBRANCH   6   7
ENDBRANCH   3   6
ENDBRANCH   2   3
TORSDOF 3
ENDMDL
MODEL      195
REMARK 921   NORMALIZED FREE ENERGY PREDICTED BY IDOCK:   -2.22 KCAL/MOL
REMARK 922        TOTAL FREE ENERGY PREDICTED BY IDOCK:   -2.81 KCAL/MOL
REMARK 923 INTER-LIGAND FREE ENERGY PREDICTED BY IDOCK:   -2.67 KCAL/MOL
REMARK 924 INTRA-LIGAND FREE ENERGY PREDICTED BY IDOCK:   -0.14 KCAL/MOL
REMARK 927      BINDING AFFINITY PREDICTED BY RF-SCORE:    0.00 PKD
ROOT
HETATM    1  C   UNL     1     -11.164  12.289  66.100  1.00  0.00    -0.372 C  
HETATM    2  C   UNL     1     -10.340  13.565  66.039  1.00  0.00    -0.303 C  
ENDROOT
BRANCH   2   3
HETATM    3  N   UNL     1      -9.516  13.865  67.315  1.00  0.00    -0.230 N  
HETATM    4  C   UNL     1     -10.335  14.695  68.297  1.00  0.00    -0.230 C  
HETATM    5  C   UNL     1      -9.082  12.572  67.985  1.00  0.00    -0.200 C  
BRANCH   3   6
HETATM    6  C   UNL     1      -8.277  14.695  66.835  1.00  0.00    -0.076 C  
BRANCH   6   7
HETATM    7  C   UNL     1      -7.749  15.815  67.707  1.00  0.00    -0.159 A  
HETATM    8  C   UNL     1      -6.807  15.521  68.714  1.00  0.00    -0.116 A  
HETATM    9  C   UNL     1      -6.253  16.525  69.515  1.00  0.00    -0.206 A  
HETATM   10  C   UNL     1      -6.586  17.854  69.293  1.00  0.00    -0.235 A  
HETATM   11  C   UNL     1      -7.487  18.177  68.281  1.00  0.00    -0.280 A  
HETATM   12  C   UNL     1      -8.072  17.170  67.501  1.00  0.00    -0.184 A  
HETATM   13 BR   UNL     1      -9.288  17.748  66.159  1.00  0.00    -0.082 Br 
ENDBRANCH   6   7
ENDBRANCH   3   6
ENDBRANCH   2   3
TORSDOF 3
ENDMDL
MODEL      196
REMARK 921   NORMALIZED FREE ENERGY PREDICTED BY IDOCK:   -2.18 KCAL/MOL
REMARK 922        TOTAL FREE ENERGY PREDICTED BY IDOCK:   -2.76 KCAL/MOL
REMARK 923 INTER-LIGAND FREE ENERGY PREDICTED BY IDOCK:   -2.77 KCAL/MOL
REMARK 924 INTRA-LIGAND FREE ENERGY PREDICTED BY IDOCK:    0.01 KCAL/MOL
REMARK 927      BINDING AFFINITY PREDICTED BY RF-SCORE:    0.00 PKD
ROOT
HETATM    1  C   UNL     1      -8.710  10.524  65.838  1.00  0.00    -0.178 C  
HETATM    2  C   UNL     1      -8.512   9.864  67.192  1.00  0.00    -0.121 C  
ENDROOT
BRANCH   2   3
HETATM    3  N   UNL     1      -9.813   9.370  67.870  1.00  0.00    -0.158 N  
HETATM    4  C   UNL     1     -11.034   9.809  67.068  1.00  0.00     0.011 C  
HETATM    5  C   UNL     1      -9.808   7.855  67.992  1.00  0.00    -0.165 C  
BRANCH   3   6
HETATM    6  C   UNL     1      -9.842  10.049  69.281  1.00  0.00    -0.214 C  
BRANCH   6   7
HETATM    7  C   UNL     1      -9.428   9.251  70.499  1.00  0.00    -0.317 A  
HETATM    8  C   UNL     1      -8.083   8.851  70.639  1.00  0.00    -0.161 A  
HETATM    9  C   UNL     1      -7.639   8.153  71.766  1.00  0.00    -0.105 A  
HETATM   10  C   UNL     1      -8.516   7.885  72.808  1.00  0.00    -0.212 A  
HETATM   11  C   UNL     1      -9.843   8.299  72.713  1.00  0.00    -0.333 A  
HETATM   12  C   UNL     1     -10.300   8.966  71.568  1.00  0.00    -0.324 A  
HETATM   13 BR   UNL     1     -12.132   9.472  71.567  1.00  0.00    -0.493 Br 
ENDBRANCH   6   7
ENDBRANCH   3   6
ENDBRANCH   2   3
TORSDOF 3
ENDMDL
MODEL      197
REMARK 921   NORMALIZED FREE ENERGY PREDICTED BY IDOCK:   -2.16 KCAL/MOL
REMARK 922        TOTAL FREE ENERGY PREDICTED BY IDOCK:   -2.74 KCAL/MOL
REMARK 923 INTER-LIGAND FREE ENERGY PREDICTED BY IDOCK:   -2.75 KCAL/MOL
REMARK 924 INTRA-LIGAND FREE ENERGY PREDICTED BY IDOCK:    0.01 KCAL/MOL
REMARK 927      BINDING AFFINITY PREDICTED BY RF-SCORE:    0.00 PKD
ROOT
HETATM    1  C   UNL     1      -5.128  15.015  70.733  1.00  0.00    -0.130 C  
HETATM    2  C   UNL     1      -6.346  14.180  70.372  1.00  0.00    -0.103 C  
ENDROOT
BRANCH   2   3
HETATM    3  N   UNL     1      -6.804  14.305  68.899  1.00  0.00    -0.098 N  
HETATM    4  C   UNL     1      -5.938  15.315  68.153  1.00  0.00    -0.133 C  
HETATM    5  C   UNL     1      -6.723  12.958  68.200  1.00  0.00    -0.096 C  
BRANCH   3   6
HETATM    6  C   UNL     1      -8.281  14.823  68.955  1.00  0.00    -0.165 C  
BRANCH   6   7
HETATM    7  C   UNL     1      -8.995  15.178  67.667  1.00  0.00    -0.183 A  
HETATM    8  C   UNL     1      -9.627  14.159  66.924  1.00  0.00    -0.275 A  
HETATM    9  C   UNL     1     -10.338  14.440  65.754  1.00  0.00    -0.340 A  
HETATM   10  C   UNL     1     -10.482  15.753  65.326  1.00  0.00    -0.427 A  
HETATM   11  C   UNL     1      -9.898  16.783  66.059  1.00  0.00    -0.311 A  
HETATM   12  C   UNL     1      -9.153  16.501  67.213  1.00  0.00    -0.204 A  
HETATM   13 BR   UNL     1      -8.407  17.998  68.115  1.00  0.00    -0.282 Br 
ENDBRANCH   6   7
ENDBRANCH   3   6
ENDBRANCH   2   3
TORSDOF 3
ENDMDL
MODEL      198
REMARK 921   NORMALIZED FREE ENERGY PREDICTED BY IDOCK:   -2.15 KCAL/MOL
REMARK 922        TOTAL FREE ENERGY PREDICTED BY IDOCK:   -2.73 KCAL/MOL
REMARK 923 INTER-LIGAND FREE ENERGY PREDICTED BY IDOCK:   -2.60 KCAL/MOL
REMARK 924 INTRA-LIGAND FREE ENERGY PREDICTED BY IDOCK:   -0.13 KCAL/MOL
REMARK 927      BINDING AFFINITY PREDICTED BY RF-SCORE:    0.00 PKD
ROOT
HETATM    1  C   UNL     1      -7.284   5.254  71.443  1.00  0.00    -0.074 C  
HETATM    2  C   UNL     1      -8.449   6.229  71.389  1.00  0.00    -0.127 C  
ENDROOT
BRANCH   2   3
HETATM    3  N   UNL     1      -9.818   5.625  71.783  1.00  0.00    -0.165 N  
HETATM    4  C   UNL     1      -9.757   4.102  71.763  1.00  0.00    -0.175 C  
HETATM    5  C   UNL     1     -10.229   6.096  73.169  1.00  0.00    -0.199 C  
BRANCH   3   6
HETATM    6  C   UNL     1     -10.831   6.122  70.697  1.00  0.00    -0.292 C  
BRANCH   6   7
HETATM    7  C   UNL     1     -10.307   6.767  69.431  1.00  0.00    -0.221 A  
HETATM    8  C   UNL     1      -9.977   5.954  68.326  1.00  0.00    -0.177 A  
HETATM    9  C   UNL     1      -9.534   6.502  67.119  1.00  0.00    -0.150 A  
HETATM   10  C   UNL     1      -9.460   7.880  66.967  1.00  0.00    -0.222 A  
HETATM   11  C   UNL     1      -9.812   8.709  68.029  1.00  0.00    -0.201 A  
HETATM   12  C   UNL     1     -10.222   8.161  69.253  1.00  0.00    -0.214 A  
HETATM   13 BR   UNL     1     -10.670   9.404  70.620  1.00  0.00    -0.383 Br 
ENDBRANCH   6   7
ENDBRANCH   3   6
ENDBRANCH   2   3
TORSDOF 3
ENDMDL
MODEL      199
REMARK 921   NORMALIZED FREE ENERGY PREDICTED BY IDOCK:   -2.14 KCAL/MOL
REMARK 922        TOTAL FREE ENERGY PREDICTED BY IDOCK:   -2.71 KCAL/MOL
REMARK 923 INTER-LIGAND FREE ENERGY PREDICTED BY IDOCK:   -2.56 KCAL/MOL
REMARK 924 INTRA-LIGAND FREE ENERGY PREDICTED BY IDOCK:   -0.15 KCAL/MOL
REMARK 927      BINDING AFFINITY PREDICTED BY RF-SCORE:    0.00 PKD
ROOT
HETATM    1  C   UNL     1      -8.568   5.163  66.824  1.00  0.00    -0.109 C  
HETATM    2  C   UNL     1      -8.493   6.399  67.707  1.00  0.00    -0.117 C  
ENDROOT
BRANCH   2   3
HETATM    3  N   UNL     1      -9.575   7.468  67.420  1.00  0.00    -0.143 N  
HETATM    4  C   UNL     1      -9.253   8.225  66.136  1.00  0.00    -0.192 C  
HETATM    5  C   UNL     1     -10.944   6.819  67.293  1.00  0.00    -0.363 C  
BRANCH   3   6
HETATM    6  C   UNL     1      -9.530   8.455  68.635  1.00  0.00    -0.147 C  
BRANCH   6   7
HETATM    7  C   UNL     1      -9.811   9.926  68.409  1.00  0.00    -0.166 A  
HETATM    8  C   UNL     1     -11.146  10.378  68.379  1.00  0.00    -0.322 A  
HETATM    9  C   UNL     1     -11.459  11.732  68.221  1.00  0.00    -0.370 A  
HETATM   10  C   UNL     1     -10.443  12.675  68.143  1.00  0.00    -0.239 A  
HETATM   11  C   UNL     1      -9.114  12.261  68.206  1.00  0.00    -0.187 A  
HETATM   12  C   UNL     1      -8.798  10.900  68.327  1.00  0.00    -0.140 A  
HETATM   13 BR   UNL     1      -6.947  10.473  68.396  1.00  0.00    -0.067 Br 
ENDBRANCH   6   7
ENDBRANCH   3   6
ENDBRANCH   2   3
TORSDOF 3
ENDMDL
MODEL      200
REMARK 921   NORMALIZED FREE ENERGY PREDICTED BY IDOCK:   -2.12 KCAL/MOL
REMARK 922        TOTAL FREE ENERGY PREDICTED BY IDOCK:   -2.70 KCAL/MOL
REMARK 923 INTER-LIGAND FREE ENERGY PREDICTED BY IDOCK:   -3.24 KCAL/MOL
REMARK 924 INTRA-LIGAND FREE ENERGY PREDICTED BY IDOCK:    0.54 KCAL/MOL
REMARK 927      BINDING AFFINITY PREDICTED BY RF-SCORE:    0.00 PKD
ROOT
HETATM    1  C   UNL     1     -12.485  14.025  66.703  1.00  0.00    -0.296 C  
HETATM    2  C   UNL     1     -11.630  12.810  66.383  1.00  0.00    -0.378 C  
ENDROOT
BRANCH   2   3
HETATM    3  N   UNL     1     -10.315  13.123  65.629  1.00  0.00    -0.281 N  
HETATM    4  C   UNL     1     -10.374  12.584  64.203  1.00  0.00    -0.390 C  
HETATM    5  C   UNL     1     -10.067  14.622  65.592  1.00  0.00    -0.363 C  
BRANCH   3   6
HETATM    6  C   UNL     1      -9.184  12.384  66.421  1.00  0.00    -0.192 C  
BRANCH   6   7
HETATM    7  C   UNL     1      -9.213  10.873  66.524  1.00  0.00    -0.189 A  
HETATM    8  C   UNL     1     -10.437  10.222  66.780  1.00  0.00    -0.279 A  
HETATM    9  C   UNL     1     -10.527   8.828  66.839  1.00  0.00    -0.319 A  
HETATM   10  C   UNL     1      -9.406   8.048  66.590  1.00  0.00    -0.249 A  
HETATM   11  C   UNL     1      -8.191   8.664  66.299  1.00  0.00    -0.116 A  
HETATM   12  C   UNL     1      -8.090  10.062  66.276  1.00  0.00    -0.117 A  
HETATM   13 BR   UNL     1      -6.373  10.771  65.871  1.00  0.00    -0.073 Br 
ENDBRANCH   6   7
ENDBRANCH   3   6
ENDBRANCH   2   3
TORSDOF 3
ENDMDL
MODEL      201
REMARK 921   NORMALIZED FREE ENERGY PREDICTED BY IDOCK:   -2.12 KCAL/MOL
REMARK 922        TOTAL FREE ENERGY PREDICTED BY IDOCK:   -2.70 KCAL/MOL
REMARK 923 INTER-LIGAND FREE ENERGY PREDICTED BY IDOCK:   -2.67 KCAL/MOL
REMARK 924 INTRA-LIGAND FREE ENERGY PREDICTED BY IDOCK:   -0.02 KCAL/MOL
REMARK 927      BINDING AFFINITY PREDICTED BY RF-SCORE:    0.00 PKD
ROOT
HETATM    1  C   UNL     1      -6.115   9.865  65.207  1.00  0.00    -0.091 C  
HETATM    2  C   UNL     1      -7.326   9.808  66.124  1.00  0.00    -0.101 C  
ENDROOT
BRANCH   2   3
HETATM    3  N   UNL     1      -8.093   8.464  66.103  1.00  0.00    -0.102 N  
HETATM    4  C   UNL     1      -7.716   7.652  64.868  1.00  0.00    -0.107 C  
HETATM    5  C   UNL     1      -7.784   7.655  67.352  1.00  0.00    -0.117 C  
BRANCH   3   6
HETATM    6  C   UNL     1      -9.612   8.842  66.037  1.00  0.00    -0.226 C  
BRANCH   6   7
HETATM    7  C   UNL     1     -10.040  10.260  66.351  1.00  0.00    -0.296 A  
HETATM    8  C   UNL     1     -10.189  11.186  65.298  1.00  0.00    -0.337 A  
HETATM    9  C   UNL     1     -10.626  12.493  65.528  1.00  0.00    -0.304 A  
HETATM   10  C   UNL     1     -10.979  12.893  66.809  1.00  0.00    -0.300 A  
HETATM   11  C   UNL     1     -10.876  11.989  67.864  1.00  0.00    -0.254 A  
HETATM   12  C   UNL     1     -10.401  10.689  67.642  1.00  0.00    -0.209 A  
HETATM   13 BR   UNL     1     -10.306   9.560  69.169  1.00  0.00    -0.232 Br 
ENDBRANCH   6   7
ENDBRANCH   3   6
ENDBRANCH   2   3
TORSDOF 3
ENDMDL
MODEL      202
REMARK 921   NORMALIZED FREE ENERGY PREDICTED BY IDOCK:   -2.12 KCAL/MOL
REMARK 922        TOTAL FREE ENERGY PREDICTED BY IDOCK:   -2.70 KCAL/MOL
REMARK 923 INTER-LIGAND FREE ENERGY PREDICTED BY IDOCK:   -2.65 KCAL/MOL
REMARK 924 INTRA-LIGAND FREE ENERGY PREDICTED BY IDOCK:   -0.04 KCAL/MOL
REMARK 927      BINDING AFFINITY PREDICTED BY RF-SCORE:    0.00 PKD
ROOT
HETATM    1  C   UNL     1      -5.975  10.004  64.561  1.00  0.00    -0.120 C  
HETATM    2  C   UNL     1      -7.106   9.813  65.559  1.00  0.00    -0.108 C  
ENDROOT
BRANCH   2   3
HETATM    3  N   UNL     1      -7.669   8.373  65.633  1.00  0.00    -0.095 N  
HETATM    4  C   UNL     1      -6.906   7.451  64.688  1.00  0.00    -0.047 C  
HETATM    5  C   UNL     1      -7.570   7.836  67.051  1.00  0.00    -0.100 C  
BRANCH   3   6
HETATM    6  C   UNL     1      -9.162   8.476  65.173  1.00  0.00     0.194 C  
BRANCH   6   7
HETATM    7  C   UNL     1     -10.029   9.599  65.703  1.00  0.00    -0.321 A  
HETATM    8  C   UNL     1     -10.462   9.563  67.044  1.00  0.00    -0.302 A  
HETATM    9  C   UNL     1     -11.225  10.597  67.595  1.00  0.00    -0.361 A  
HETATM   10  C   UNL     1     -11.528  11.719  66.836  1.00  0.00    -0.364 A  
HETATM   11  C   UNL     1     -11.083  11.797  65.518  1.00  0.00    -0.336 A  
HETATM   12  C   UNL     1     -10.350  10.745  64.951  1.00  0.00    -0.299 A  
HETATM   13 BR   UNL     1      -9.808  10.980  63.144  1.00  0.00    -0.396 Br 
ENDBRANCH   6   7
ENDBRANCH   3   6
ENDBRANCH   2   3
TORSDOF 3
ENDMDL
MODEL      203
REMARK 921   NORMALIZED FREE ENERGY PREDICTED BY IDOCK:   -2.09 KCAL/MOL
REMARK 922        TOTAL FREE ENERGY PREDICTED BY IDOCK:   -2.66 KCAL/MOL
REMARK 923 INTER-LIGAND FREE ENERGY PREDICTED BY IDOCK:   -2.77 KCAL/MOL
REMARK 924 INTRA-LIGAND FREE ENERGY PREDICTED BY IDOCK:    0.11 KCAL/MOL
REMARK 927      BINDING AFFINITY PREDICTED BY RF-SCORE:    0.00 PKD
ROOT
HETATM    1  C   UNL     1      -8.962   7.677  66.050  1.00  0.00    -0.178 C  
HETATM    2  C   UNL     1      -9.745   7.610  67.351  1.00  0.00    -0.161 C  
ENDROOT
BRANCH   2   3
HETATM    3  N   UNL     1      -9.383   8.705  68.384  1.00  0.00    -0.138 N  
HETATM    4  C   UNL     1      -8.551   9.803  67.729  1.00  0.00    -0.125 C  
HETATM    5  C   UNL     1     -10.642   9.312  68.979  1.00  0.00    -0.205 C  
BRANCH   3   6
HETATM    6  C   UNL     1      -8.529   7.987  69.483  1.00  0.00    -0.131 C  
BRANCH   6   7
HETATM    7  C   UNL     1      -9.199   7.519  70.758  1.00  0.00    -0.158 A  
HETATM    8  C   UNL     1      -9.362   8.424  71.826  1.00  0.00    -0.293 A  
HETATM    9  C   UNL     1     -10.014   8.056  73.007  1.00  0.00    -0.349 A  
HETATM   10  C   UNL     1     -10.570   6.790  73.128  1.00  0.00    -0.315 A  
HETATM   11  C   UNL     1     -10.456   5.886  72.074  1.00  0.00    -0.259 A  
HETATM   12  C   UNL     1      -9.769   6.240  70.904  1.00  0.00    -0.176 A  
HETATM   13 BR   UNL     1      -9.684   4.911  69.548  1.00  0.00    -0.283 Br 
ENDBRANCH   6   7
ENDBRANCH   3   6
ENDBRANCH   2   3
TORSDOF 3
ENDMDL
MODEL      204
REMARK 921   NORMALIZED FREE ENERGY PREDICTED BY IDOCK:   -2.05 KCAL/MOL
REMARK 922        TOTAL FREE ENERGY PREDICTED BY IDOCK:   -2.61 KCAL/MOL
REMARK 923 INTER-LIGAND FREE ENERGY PREDICTED BY IDOCK:   -2.50 KCAL/MOL
REMARK 924 INTRA-LIGAND FREE ENERGY PREDICTED BY IDOCK:   -0.12 KCAL/MOL
REMARK 927      BINDING AFFINITY PREDICTED BY RF-SCORE:    0.00 PKD
ROOT
HETATM    1  C   UNL     1      -8.041  10.913  68.456  1.00  0.00    -0.137 C  
HETATM    2  C   UNL     1      -7.757   9.458  68.793  1.00  0.00    -0.080 C  
ENDROOT
BRANCH   2   3
HETATM    3  N   UNL     1      -9.011   8.610  69.113  1.00  0.00    -0.141 N  
HETATM    4  C   UNL     1     -10.198   9.073  68.276  1.00  0.00    -0.204 C  
HETATM    5  C   UNL     1      -8.743   7.139  68.839  1.00  0.00    -0.128 C  
BRANCH   3   6
HETATM    6  C   UNL     1      -9.314   8.854  70.630  1.00  0.00    -0.212 C  
BRANCH   6   7
HETATM    7  C   UNL     1      -9.935   7.745  71.453  1.00  0.00    -0.207 A  
HETATM    8  C   UNL     1     -11.320   7.501  71.350  1.00  0.00    -0.284 A  
HETATM    9  C   UNL     1     -11.936   6.460  72.052  1.00  0.00    -0.375 A  
HETATM   10  C   UNL     1     -11.173   5.602  72.833  1.00  0.00    -0.338 A  
HETATM   11  C   UNL     1      -9.797   5.797  72.925  1.00  0.00    -0.174 A  
HETATM   12  C   UNL     1      -9.183   6.863  72.252  1.00  0.00    -0.134 A  
HETATM   13 BR   UNL     1      -7.301   7.017  72.468  1.00  0.00    -0.081 Br 
ENDBRANCH   6   7
ENDBRANCH   3   6
ENDBRANCH   2   3
TORSDOF 3
ENDMDL
MODEL      205
REMARK 921   NORMALIZED FREE ENERGY PREDICTED BY IDOCK:   -2.04 KCAL/MOL
REMARK 922        TOTAL FREE ENERGY PREDICTED BY IDOCK:   -2.60 KCAL/MOL
REMARK 923 INTER-LIGAND FREE ENERGY PREDICTED BY IDOCK:   -2.59 KCAL/MOL
REMARK 924 INTRA-LIGAND FREE ENERGY PREDICTED BY IDOCK:   -0.01 KCAL/MOL
REMARK 927      BINDING AFFINITY PREDICTED BY RF-SCORE:    0.00 PKD
ROOT
HETATM    1  C   UNL     1     -10.786   6.333  71.093  1.00  0.00    -0.320 C  
HETATM    2  C   UNL     1     -11.282   6.291  69.657  1.00  0.00    -0.437 C  
ENDROOT
BRANCH   2   3
HETATM    3  N   UNL     1     -10.301   6.882  68.615  1.00  0.00    -0.177 N  
HETATM    4  C   UNL     1      -9.112   5.949  68.411  1.00  0.00    -0.115 C  
HETATM    5  C   UNL     1     -11.004   7.102  67.286  1.00  0.00    -0.263 C  
BRANCH   3   6
HETATM    6  C   UNL     1      -9.803   8.238  69.220  1.00  0.00    -0.186 C  
BRANCH   6   7
HETATM    7  C   UNL     1      -9.006   9.191  68.355  1.00  0.00    -0.133 A  
HETATM    8  C   UNL     1      -7.656   8.899  68.067  1.00  0.00    -0.093 A  
HETATM    9  C   UNL     1      -6.890   9.722  67.236  1.00  0.00    -0.083 A  
HETATM   10  C   UNL     1      -7.468  10.827  66.627  1.00  0.00    -0.135 A  
HETATM   11  C   UNL     1      -8.809  11.120  66.864  1.00  0.00    -0.157 A  
HETATM   12  C   UNL     1      -9.570  10.318  67.727  1.00  0.00    -0.152 A  
HETATM   13 BR   UNL     1     -11.384  10.832  67.967  1.00  0.00    -0.336 Br 
ENDBRANCH   6   7
ENDBRANCH   3   6
ENDBRANCH   2   3
TORSDOF 3
ENDMDL
MODEL      206
REMARK 921   NORMALIZED FREE ENERGY PREDICTED BY IDOCK:   -2.04 KCAL/MOL
REMARK 922        TOTAL FREE ENERGY PREDICTED BY IDOCK:   -2.60 KCAL/MOL
REMARK 923 INTER-LIGAND FREE ENERGY PREDICTED BY IDOCK:   -2.39 KCAL/MOL
REMARK 924 INTRA-LIGAND FREE ENERGY PREDICTED BY IDOCK:   -0.21 KCAL/MOL
REMARK 927      BINDING AFFINITY PREDICTED BY RF-SCORE:    0.00 PKD
ROOT
HETATM    1  C   UNL     1      -9.779   8.621  67.305  1.00  0.00    -0.241 C  
HETATM    2  C   UNL     1     -10.791   9.754  67.254  1.00  0.00    -0.177 C  
ENDROOT
BRANCH   2   3
HETATM    3  N   UNL     1     -10.212  11.121  66.816  1.00  0.00    -0.224 N  
HETATM    4  C   UNL     1      -9.033  10.925  65.870  1.00  0.00    -0.192 C  
HETATM    5  C   UNL     1     -11.279  11.955  66.127  1.00  0.00    -0.333 C  
BRANCH   3   6
HETATM    6  C   UNL     1      -9.718  11.814  68.131  1.00  0.00    -0.192 C  
BRANCH   6   7
HETATM    7  C   UNL     1      -8.378  12.521  68.141  1.00  0.00    -0.175 A  
HETATM    8  C   UNL     1      -8.270  13.805  67.568  1.00  0.00    -0.194 A  
HETATM    9  C   UNL     1      -7.069  14.520  67.593  1.00  0.00    -0.202 A  
HETATM   10  C   UNL     1      -5.959  13.993  68.239  1.00  0.00    -0.118 A  
HETATM   11  C   UNL     1      -6.047  12.742  68.845  1.00  0.00    -0.079 A  
HETATM   12  C   UNL     1      -7.239  12.007  68.789  1.00  0.00    -0.108 A  
HETATM   13 BR   UNL     1      -7.221  10.313  69.653  1.00  0.00    -0.154 Br 
ENDBRANCH   6   7
ENDBRANCH   3   6
ENDBRANCH   2   3
TORSDOF 3
ENDMDL
MODEL      207
REMARK 921   NORMALIZED FREE ENERGY PREDICTED BY IDOCK:   -2.00 KCAL/MOL
REMARK 922        TOTAL FREE ENERGY PREDICTED BY IDOCK:   -2.56 KCAL/MOL
REMARK 923 INTER-LIGAND FREE ENERGY PREDICTED BY IDOCK:   -2.36 KCAL/MOL
REMARK 924 INTRA-LIGAND FREE ENERGY PREDICTED BY IDOCK:   -0.19 KCAL/MOL
REMARK 927      BINDING AFFINITY PREDICTED BY RF-SCORE:    0.00 PKD
ROOT
HETATM    1  C   UNL     1      -6.027  10.574  65.610  1.00  0.00    -0.130 C  
HETATM    2  C   UNL     1      -6.693  10.020  64.362  1.00  0.00    -0.128 C  
ENDROOT
BRANCH   2   3
HETATM    3  N   UNL     1      -8.040   9.298  64.612  1.00  0.00    -0.128 N  
HETATM    4  C   UNL     1      -9.206  10.169  64.161  1.00  0.00    -0.270 C  
HETATM    5  C   UNL     1      -8.080   7.974  63.866  1.00  0.00    -0.097 C  
BRANCH   3   6
HETATM    6  C   UNL     1      -8.121   9.075  66.160  1.00  0.00    -0.111 C  
BRANCH   6   7
HETATM    7  C   UNL     1      -8.860   7.868  66.700  1.00  0.00    -0.166 A  
HETATM    8  C   UNL     1     -10.265   7.912  66.814  1.00  0.00    -0.358 A  
HETATM    9  C   UNL     1     -10.999   6.810  67.263  1.00  0.00    -0.433 A  
HETATM   10  C   UNL     1     -10.352   5.617  67.558  1.00  0.00    -0.277 A  
HETATM   11  C   UNL     1      -8.968   5.534  67.420  1.00  0.00    -0.107 A  
HETATM   12  C   UNL     1      -8.226   6.649  67.007  1.00  0.00    -0.113 A  
HETATM   13 BR   UNL     1      -6.347   6.400  66.866  1.00  0.00    -0.043 Br 
ENDBRANCH   6   7
ENDBRANCH   3   6
ENDBRANCH   2   3
TORSDOF 3
ENDMDL
MODEL      208
REMARK 921   NORMALIZED FREE ENERGY PREDICTED BY IDOCK:   -1.99 KCAL/MOL
REMARK 922        TOTAL FREE ENERGY PREDICTED BY IDOCK:   -2.54 KCAL/MOL
REMARK 923 INTER-LIGAND FREE ENERGY PREDICTED BY IDOCK:   -2.70 KCAL/MOL
REMARK 924 INTRA-LIGAND FREE ENERGY PREDICTED BY IDOCK:    0.16 KCAL/MOL
REMARK 927      BINDING AFFINITY PREDICTED BY RF-SCORE:    0.00 PKD
ROOT
HETATM    1  C   UNL     1      -7.812   6.173  70.824  1.00  0.00    -0.103 C  
HETATM    2  C   UNL     1      -7.091   6.989  69.764  1.00  0.00    -0.067 C  
ENDROOT
BRANCH   2   3
HETATM    3  N   UNL     1      -7.660   8.412  69.543  1.00  0.00    -0.088 N  
HETATM    4  C   UNL     1      -7.823   9.135  70.875  1.00  0.00    -0.132 C  
HETATM    5  C   UNL     1      -6.742   9.219  68.640  1.00  0.00    -0.054 C  
BRANCH   3   6
HETATM    6  C   UNL     1      -9.066   8.210  68.882  1.00  0.00    -0.147 C  
BRANCH   6   7
HETATM    7  C   UNL     1     -10.117   9.291  69.023  1.00  0.00    -0.207 A  
HETATM    8  C   UNL     1     -10.806   9.430  70.245  1.00  0.00    -0.303 A  
HETATM    9  C   UNL     1     -11.752  10.441  70.442  1.00  0.00    -0.419 A  
HETATM   10  C   UNL     1     -11.993  11.372  69.442  1.00  0.00    -0.407 A  
HETATM   11  C   UNL     1     -11.301  11.281  68.236  1.00  0.00    -0.359 A  
HETATM   12  C   UNL     1     -10.379  10.246  68.022  1.00  0.00    -0.181 A  
HETATM   13 BR   UNL     1      -9.508  10.236  66.333  1.00  0.00    -0.230 Br 
ENDBRANCH   6   7
ENDBRANCH   3   6
ENDBRANCH   2   3
TORSDOF 3
ENDMDL
MODEL      209
REMARK 921   NORMALIZED FREE ENERGY PREDICTED BY IDOCK:   -1.97 KCAL/MOL
REMARK 922        TOTAL FREE ENERGY PREDICTED BY IDOCK:   -2.52 KCAL/MOL
REMARK 923 INTER-LIGAND FREE ENERGY PREDICTED BY IDOCK:   -2.65 KCAL/MOL
REMARK 924 INTRA-LIGAND FREE ENERGY PREDICTED BY IDOCK:    0.13 KCAL/MOL
REMARK 927      BINDING AFFINITY PREDICTED BY RF-SCORE:    0.00 PKD
ROOT
HETATM    1  C   UNL     1      -9.973   7.343  67.999  1.00  0.00    -0.195 C  
HETATM    2  C   UNL     1      -9.079   7.764  69.154  1.00  0.00    -0.145 C  
ENDROOT
BRANCH   2   3
HETATM    3  N   UNL     1      -9.473   9.102  69.824  1.00  0.00    -0.172 N  
HETATM    4  C   UNL     1      -8.387  10.150  69.604  1.00  0.00    -0.161 C  
HETATM    5  C   UNL     1     -10.789   9.613  69.262  1.00  0.00    -0.205 C  
BRANCH   3   6
HETATM    6  C   UNL     1      -9.597   8.791  71.354  1.00  0.00    -0.267 C  
BRANCH   6   7
HETATM    7  C   UNL     1     -10.186   7.469  71.799  1.00  0.00    -0.216 A  
HETATM    8  C   UNL     1      -9.374   6.316  71.802  1.00  0.00    -0.155 A  
HETATM    9  C   UNL     1      -9.855   5.081  72.248  1.00  0.00    -0.214 A  
HETATM   10  C   UNL     1     -11.144   4.979  72.753  1.00  0.00    -0.310 A  
HETATM   11  C   UNL     1     -11.957   6.109  72.795  1.00  0.00     0.051 A  
HETATM   12  C   UNL     1     -11.490   7.340  72.314  1.00  0.00    -0.278 A  
HETATM   13 BR   UNL     1     -12.704   8.799  72.427  1.00  0.00    -0.378 Br 
ENDBRANCH   6   7
ENDBRANCH   3   6
ENDBRANCH   2   3
TORSDOF 3
ENDMDL
MODEL      210
REMARK 921   NORMALIZED FREE ENERGY PREDICTED BY IDOCK:   -1.97 KCAL/MOL
REMARK 922        TOTAL FREE ENERGY PREDICTED BY IDOCK:   -2.52 KCAL/MOL
REMARK 923 INTER-LIGAND FREE ENERGY PREDICTED BY IDOCK:   -2.29 KCAL/MOL
REMARK 924 INTRA-LIGAND FREE ENERGY PREDICTED BY IDOCK:   -0.23 KCAL/MOL
REMARK 927      BINDING AFFINITY PREDICTED BY RF-SCORE:    0.00 PKD
ROOT
HETATM    1  C   UNL     1     -10.421   7.638  67.945  1.00  0.00    -0.270 C  
HETATM    2  C   UNL     1      -8.993   7.550  68.458  1.00  0.00    -0.128 C  
ENDROOT
BRANCH   2   3
HETATM    3  N   UNL     1      -8.317   8.915  68.731  1.00  0.00    -0.122 N  
HETATM    4  C   UNL     1      -8.997   9.625  69.897  1.00  0.00    -0.221 C  
HETATM    5  C   UNL     1      -6.842   8.726  69.047  1.00  0.00    -0.059 C  
BRANCH   3   6
HETATM    6  C   UNL     1      -8.510   9.754  67.423  1.00  0.00    -0.121 C  
BRANCH   6   7
HETATM    7  C   UNL     1      -8.404  11.264  67.485  1.00  0.00    -0.131 A  
HETATM    8  C   UNL     1      -7.130  11.868  67.504  1.00  0.00    -0.123 A  
HETATM    9  C   UNL     1      -6.978  13.258  67.514  1.00  0.00    -0.152 A  
HETATM   10  C   UNL     1      -8.094  14.080  67.450  1.00  0.00    -0.199 A  
HETATM   11  C   UNL     1      -9.365  13.511  67.394  1.00  0.00    -0.228 A  
HETATM   12  C   UNL     1      -9.522  12.118  67.422  1.00  0.00    -0.179 A  
HETATM   13 BR   UNL     1     -11.309  11.475  67.345  1.00  0.00    -0.353 Br 
ENDBRANCH   6   7
ENDBRANCH   3   6
ENDBRANCH   2   3
TORSDOF 3
ENDMDL
MODEL      211
REMARK 921   NORMALIZED FREE ENERGY PREDICTED BY IDOCK:   -1.94 KCAL/MOL
REMARK 922        TOTAL FREE ENERGY PREDICTED BY IDOCK:   -2.48 KCAL/MOL
REMARK 923 INTER-LIGAND FREE ENERGY PREDICTED BY IDOCK:   -3.21 KCAL/MOL
REMARK 924 INTRA-LIGAND FREE ENERGY PREDICTED BY IDOCK:    0.73 KCAL/MOL
REMARK 927      BINDING AFFINITY PREDICTED BY RF-SCORE:    0.00 PKD
ROOT
HETATM    1  C   UNL     1     -10.470  10.993  64.185  1.00  0.00    -0.434 C  
HETATM    2  C   UNL     1     -10.222  12.384  64.745  1.00  0.00    -0.279 C  
ENDROOT
BRANCH   2   3
HETATM    3  N   UNL     1     -10.996  12.707  66.046  1.00  0.00    -0.275 N  
HETATM    4  C   UNL     1     -12.387  13.240  65.722  1.00  0.00    -0.447 C  
HETATM    5  C   UNL     1     -11.121  11.465  66.913  1.00  0.00    -0.295 C  
BRANCH   3   6
HETATM    6  C   UNL     1     -10.165  13.819  66.770  1.00  0.00    -0.268 C  
BRANCH   6   7
HETATM    7  C   UNL     1      -8.740  13.528  67.192  1.00  0.00    -0.222 A  
HETATM    8  C   UNL     1      -8.264  12.201  67.146  1.00  0.00    -0.182 A  
HETATM    9  C   UNL     1      -6.943  11.885  67.480  1.00  0.00    -0.123 A  
HETATM   10  C   UNL     1      -6.050  12.894  67.816  1.00  0.00    -0.143 A  
HETATM   11  C   UNL     1      -6.484  14.217  67.834  1.00  0.00    -0.175 A  
HETATM   12  C   UNL     1      -7.817  14.533  67.536  1.00  0.00    -0.193 A  
HETATM   13 BR   UNL     1      -8.276  16.377  67.603  1.00  0.00    -0.172 Br 
ENDBRANCH   6   7
ENDBRANCH   3   6
ENDBRANCH   2   3
TORSDOF 3
ENDMDL
MODEL      212
REMARK 921   NORMALIZED FREE ENERGY PREDICTED BY IDOCK:   -1.93 KCAL/MOL
REMARK 922        TOTAL FREE ENERGY PREDICTED BY IDOCK:   -2.47 KCAL/MOL
REMARK 923 INTER-LIGAND FREE ENERGY PREDICTED BY IDOCK:   -2.47 KCAL/MOL
REMARK 924 INTRA-LIGAND FREE ENERGY PREDICTED BY IDOCK:   -0.01 KCAL/MOL
REMARK 927      BINDING AFFINITY PREDICTED BY RF-SCORE:    0.00 PKD
ROOT
HETATM    1  C   UNL     1      -8.650  12.735  68.058  1.00  0.00    -0.186 C  
HETATM    2  C   UNL     1      -9.465  11.453  68.045  1.00  0.00    -0.181 C  
ENDROOT
BRANCH   2   3
HETATM    3  N   UNL     1      -8.945  10.364  67.075  1.00  0.00    -0.139 N  
HETATM    4  C   UNL     1     -10.025   9.985  66.067  1.00  0.00    -0.267 C  
HETATM    5  C   UNL     1      -7.712  10.855  66.334  1.00  0.00    -0.154 C  
BRANCH   3   6
HETATM    6  C   UNL     1      -8.607   9.124  67.970  1.00  0.00    -0.125 C  
BRANCH   6   7
HETATM    7  C   UNL     1      -9.218   7.778  67.639  1.00  0.00    -0.146 A  
HETATM    8  C   UNL     1     -10.466   7.430  68.194  1.00  0.00    -0.241 A  
HETATM    9  C   UNL     1     -11.095   6.221  67.884  1.00  0.00    -0.360 A  
HETATM   10  C   UNL     1     -10.518   5.352  66.968  1.00  0.00    -0.319 A  
HETATM   11  C   UNL     1      -9.302   5.685  66.376  1.00  0.00    -0.165 A  
HETATM   12  C   UNL     1      -8.651   6.880  66.714  1.00  0.00    -0.120 A  
HETATM   13 BR   UNL     1      -6.997   7.210  65.837  1.00  0.00    -0.066 Br 
ENDBRANCH   6   7
ENDBRANCH   3   6
ENDBRANCH   2   3
TORSDOF 3
ENDMDL
MODEL      213
REMARK 921   NORMALIZED FREE ENERGY PREDICTED BY IDOCK:   -1.93 KCAL/MOL
REMARK 922        TOTAL FREE ENERGY PREDICTED BY IDOCK:   -2.47 KCAL/MOL
REMARK 923 INTER-LIGAND FREE ENERGY PREDICTED BY IDOCK:   -2.57 KCAL/MOL
REMARK 924 INTRA-LIGAND FREE ENERGY PREDICTED BY IDOCK:    0.10 KCAL/MOL
REMARK 927      BINDING AFFINITY PREDICTED BY RF-SCORE:    0.00 PKD
ROOT
HETATM    1  C   UNL     1      -9.404   4.292  64.683  1.00  0.00    -0.162 C  
HETATM    2  C   UNL     1      -8.904   4.576  66.090  1.00  0.00    -0.118 C  
ENDROOT
BRANCH   2   3
HETATM    3  N   UNL     1      -9.275   5.974  66.641  1.00  0.00    -0.138 N  
HETATM    4  C   UNL     1      -8.653   7.070  65.783  1.00  0.00    -0.130 C  
HETATM    5  C   UNL     1     -10.784   6.151  66.670  1.00  0.00    -0.231 C  
BRANCH   3   6
HETATM    6  C   UNL     1      -8.673   6.035  68.085  1.00  0.00    -0.113 C  
BRANCH   6   7
HETATM    7  C   UNL     1      -9.571   6.392  69.252  1.00  0.00    -0.145 A  
HETATM    8  C   UNL     1     -10.090   7.700  69.349  1.00  0.00    -0.196 A  
HETATM    9  C   UNL     1     -10.960   8.068  70.379  1.00  0.00    -0.248 A  
HETATM   10  C   UNL     1     -11.377   7.125  71.308  1.00  0.00    -0.298 A  
HETATM   11  C   UNL     1     -10.908   5.816  71.216  1.00  0.00    -0.313 A  
HETATM   12  C   UNL     1     -10.006   5.453  70.206  1.00  0.00    -0.230 A  
HETATM   13 BR   UNL     1      -9.443   3.638  70.198  1.00  0.00    -0.246 Br 
ENDBRANCH   6   7
ENDBRANCH   3   6
ENDBRANCH   2   3
TORSDOF 3
ENDMDL
MODEL      214
REMARK 921   NORMALIZED FREE ENERGY PREDICTED BY IDOCK:   -1.92 KCAL/MOL
REMARK 922        TOTAL FREE ENERGY PREDICTED BY IDOCK:   -2.46 KCAL/MOL
REMARK 923 INTER-LIGAND FREE ENERGY PREDICTED BY IDOCK:   -2.39 KCAL/MOL
REMARK 924 INTRA-LIGAND FREE ENERGY PREDICTED BY IDOCK:   -0.07 KCAL/MOL
REMARK 927      BINDING AFFINITY PREDICTED BY RF-SCORE:    0.00 PKD
ROOT
HETATM    1  C   UNL     1      -7.146   5.699  72.301  1.00  0.00    -0.087 C  
HETATM    2  C   UNL     1      -8.455   6.472  72.339  1.00  0.00    -0.118 C  
ENDROOT
BRANCH   2   3
HETATM    3  N   UNL     1      -9.644   5.702  72.963  1.00  0.00    -0.150 N  
HETATM    4  C   UNL     1      -9.186   4.348  73.494  1.00  0.00    -0.108 C  
HETATM    5  C   UNL     1     -10.263   6.505  74.095  1.00  0.00    -0.358 C  
BRANCH   3   6
HETATM    6  C   UNL     1     -10.669   5.487  71.798  1.00  0.00    -0.226 C  
BRANCH   6   7
HETATM    7  C   UNL     1     -10.277   5.858  70.383  1.00  0.00    -0.273 A  
HETATM    8  C   UNL     1     -10.460   7.185  69.941  1.00  0.00    -0.237 A  
HETATM    9  C   UNL     1     -10.072   7.591  68.661  1.00  0.00    -0.194 A  
HETATM   10  C   UNL     1      -9.442   6.694  67.809  1.00  0.00    -0.121 A  
HETATM   11  C   UNL     1      -9.216   5.386  68.232  1.00  0.00    -0.125 A  
HETATM   12  C   UNL     1      -9.638   4.967  69.501  1.00  0.00    -0.170 A  
HETATM   13 BR   UNL     1      -9.271   3.156  69.950  1.00  0.00    -0.227 Br 
ENDBRANCH   6   7
ENDBRANCH   3   6
ENDBRANCH   2   3
TORSDOF 3
ENDMDL
MODEL      215
REMARK 921   NORMALIZED FREE ENERGY PREDICTED BY IDOCK:   -1.91 KCAL/MOL
REMARK 922        TOTAL FREE ENERGY PREDICTED BY IDOCK:   -2.44 KCAL/MOL
REMARK 923 INTER-LIGAND FREE ENERGY PREDICTED BY IDOCK:   -2.24 KCAL/MOL
REMARK 924 INTRA-LIGAND FREE ENERGY PREDICTED BY IDOCK:   -0.20 KCAL/MOL
REMARK 927      BINDING AFFINITY PREDICTED BY RF-SCORE:    0.00 PKD
ROOT
HETATM    1  C   UNL     1      -9.417  11.096  66.251  1.00  0.00    -0.220 C  
HETATM    2  C   UNL     1     -10.295  12.322  66.057  1.00  0.00    -0.245 C  
ENDROOT
BRANCH   2   3
HETATM    3  N   UNL     1     -10.174  13.389  67.172  1.00  0.00    -0.245 N  
HETATM    4  C   UNL     1     -11.130  14.548  66.909  1.00  0.00    -0.325 C  
HETATM    5  C   UNL     1     -10.483  12.778  68.529  1.00  0.00    -0.238 C  
BRANCH   3   6
HETATM    6  C   UNL     1      -8.697  13.905  67.109  1.00  0.00    -0.221 C  
BRANCH   6   7
HETATM    7  C   UNL     1      -7.872  13.955  68.377  1.00  0.00    -0.138 A  
HETATM    8  C   UNL     1      -7.166  12.806  68.789  1.00  0.00    -0.077 A  
HETATM    9  C   UNL     1      -6.353  12.814  69.927  1.00  0.00    -0.030 A  
HETATM   10  C   UNL     1      -6.181  13.986  70.651  1.00  0.00    -0.096 A  
HETATM   11  C   UNL     1      -6.838  15.146  70.246  1.00  0.00     0.048 A  
HETATM   12  C   UNL     1      -7.683  15.132  69.128  1.00  0.00    -0.195 A  
HETATM   13 BR   UNL     1      -8.520  16.781  68.689  1.00  0.00    -0.260 Br 
ENDBRANCH   6   7
ENDBRANCH   3   6
ENDBRANCH   2   3
TORSDOF 3
ENDMDL
MODEL      216
REMARK 921   NORMALIZED FREE ENERGY PREDICTED BY IDOCK:   -1.89 KCAL/MOL
REMARK 922        TOTAL FREE ENERGY PREDICTED BY IDOCK:   -2.43 KCAL/MOL
REMARK 923 INTER-LIGAND FREE ENERGY PREDICTED BY IDOCK:   -2.26 KCAL/MOL
REMARK 924 INTRA-LIGAND FREE ENERGY PREDICTED BY IDOCK:   -0.16 KCAL/MOL
REMARK 927      BINDING AFFINITY PREDICTED BY RF-SCORE:    0.00 PKD
ROOT
HETATM    1  C   UNL     1      -7.490  10.815  69.090  1.00  0.00    -0.123 C  
HETATM    2  C   UNL     1      -8.915  10.483  68.678  1.00  0.00    -0.162 C  
ENDROOT
BRANCH   2   3
HETATM    3  N   UNL     1      -9.057   9.214  67.802  1.00  0.00    -0.127 N  
HETATM    4  C   UNL     1     -10.494   8.703  67.830  1.00  0.00    -0.224 C  
HETATM    5  C   UNL     1      -8.655   9.510  66.367  1.00  0.00    -0.134 C  
BRANCH   3   6
HETATM    6  C   UNL     1      -8.109   8.146  68.444  1.00  0.00    -0.128 C  
BRANCH   6   7
HETATM    7  C   UNL     1      -8.707   6.917  69.098  1.00  0.00    -0.135 A  
HETATM    8  C   UNL     1      -8.847   5.733  68.345  1.00  0.00    -0.109 A  
HETATM    9  C   UNL     1      -9.350   4.559  68.913  1.00  0.00    -0.209 A  
HETATM   10  C   UNL     1      -9.674   4.522  70.262  1.00  0.00    -0.287 A  
HETATM   11  C   UNL     1      -9.512   5.668  71.039  1.00  0.00    -0.200 A  
HETATM   12  C   UNL     1      -9.044   6.857  70.463  1.00  0.00    -0.156 A  
HETATM   13 BR   UNL     1      -8.875   8.345  71.634  1.00  0.00    -0.269 Br 
ENDBRANCH   6   7
ENDBRANCH   3   6
ENDBRANCH   2   3
TORSDOF 3
ENDMDL
MODEL      217
REMARK 921   NORMALIZED FREE ENERGY PREDICTED BY IDOCK:   -1.86 KCAL/MOL
REMARK 922        TOTAL FREE ENERGY PREDICTED BY IDOCK:   -2.39 KCAL/MOL
REMARK 923 INTER-LIGAND FREE ENERGY PREDICTED BY IDOCK:   -2.19 KCAL/MOL
REMARK 924 INTRA-LIGAND FREE ENERGY PREDICTED BY IDOCK:   -0.20 KCAL/MOL
REMARK 927      BINDING AFFINITY PREDICTED BY RF-SCORE:    0.00 PKD
ROOT
HETATM    1  C   UNL     1      -9.977   4.321  68.978  1.00  0.00    -0.044 C  
HETATM    2  C   UNL     1      -9.062   3.895  67.841  1.00  0.00    -0.149 C  
ENDROOT
BRANCH   2   3
HETATM    3  N   UNL     1      -9.168   4.764  66.564  1.00  0.00    -0.127 N  
HETATM    4  C   UNL     1      -8.582   4.026  65.366  1.00  0.00    -0.114 C  
HETATM    5  C   UNL     1     -10.618   5.118  66.280  1.00  0.00    -0.266 C  
BRANCH   3   6
HETATM    6  C   UNL     1      -8.320   6.049  66.853  1.00  0.00    -0.105 C  
BRANCH   6   7
HETATM    7  C   UNL     1      -8.685   7.350  66.170  1.00  0.00    -0.172 A  
HETATM    8  C   UNL     1      -8.284   7.566  64.835  1.00  0.00    -0.086 A  
HETATM    9  C   UNL     1      -8.635   8.730  64.144  1.00  0.00    -0.085 A  
HETATM   10  C   UNL     1      -9.442   9.683  64.751  1.00  0.00    -0.256 A  
HETATM   11  C   UNL     1      -9.883   9.479  66.056  1.00  0.00    -0.353 A  
HETATM   12  C   UNL     1      -9.501   8.331  66.765  1.00  0.00    -0.198 A  
HETATM   13 BR   UNL     1     -10.169   8.181  68.538  1.00  0.00    -0.235 Br 
ENDBRANCH   6   7
ENDBRANCH   3   6
ENDBRANCH   2   3
TORSDOF 3
ENDMDL
MODEL      218
REMARK 921   NORMALIZED FREE ENERGY PREDICTED BY IDOCK:   -1.85 KCAL/MOL
REMARK 922        TOTAL FREE ENERGY PREDICTED BY IDOCK:   -2.38 KCAL/MOL
REMARK 923 INTER-LIGAND FREE ENERGY PREDICTED BY IDOCK:   -2.30 KCAL/MOL
REMARK 924 INTRA-LIGAND FREE ENERGY PREDICTED BY IDOCK:   -0.09 KCAL/MOL
REMARK 927      BINDING AFFINITY PREDICTED BY RF-SCORE:    0.00 PKD
ROOT
HETATM    1  C   UNL     1      -8.395   6.308  71.468  1.00  0.00    -0.126 C  
HETATM    2  C   UNL     1      -9.020   7.055  70.302  1.00  0.00    -0.149 C  
ENDROOT
BRANCH   2   3
HETATM    3  N   UNL     1      -8.148   8.193  69.718  1.00  0.00    -0.114 N  
HETATM    4  C   UNL     1      -6.749   8.158  70.322  1.00  0.00    -0.037 C  
HETATM    5  C   UNL     1      -8.049   8.065  68.207  1.00  0.00    -0.126 C  
BRANCH   3   6
HETATM    6  C   UNL     1      -8.861   9.526  70.125  1.00  0.00    -0.235 C  
BRANCH   6   7
HETATM    7  C   UNL     1      -9.439  10.420  69.047  1.00  0.00    -0.205 A  
HETATM    8  C   UNL     1     -10.828  10.402  68.806  1.00  0.00    -0.269 A  
HETATM    9  C   UNL     1     -11.418  11.241  67.855  1.00  0.00    -0.360 A  
HETATM   10  C   UNL     1     -10.642  12.158  67.160  1.00  0.00    -0.254 A  
HETATM   11  C   UNL     1      -9.272  12.224  67.404  1.00  0.00    -0.182 A  
HETATM   12  C   UNL     1      -8.672  11.358  68.330  1.00  0.00    -0.160 A  
HETATM   13 BR   UNL     1      -6.795  11.550  68.562  1.00  0.00    -0.081 Br 
ENDBRANCH   6   7
ENDBRANCH   3   6
ENDBRANCH   2   3
TORSDOF 3
ENDMDL
MODEL      219
REMARK 921   NORMALIZED FREE ENERGY PREDICTED BY IDOCK:   -1.85 KCAL/MOL
REMARK 922        TOTAL FREE ENERGY PREDICTED BY IDOCK:   -2.38 KCAL/MOL
REMARK 923 INTER-LIGAND FREE ENERGY PREDICTED BY IDOCK:   -2.25 KCAL/MOL
REMARK 924 INTRA-LIGAND FREE ENERGY PREDICTED BY IDOCK:   -0.12 KCAL/MOL
REMARK 927      BINDING AFFINITY PREDICTED BY RF-SCORE:    0.00 PKD
ROOT
HETATM    1  C   UNL     1      -6.272  10.159  63.900  1.00  0.00    -0.133 C  
HETATM    2  C   UNL     1      -7.369   9.533  64.747  1.00  0.00    -0.112 C  
ENDROOT
BRANCH   2   3
HETATM    3  N   UNL     1      -7.115   9.578  66.273  1.00  0.00    -0.091 N  
HETATM    4  C   UNL     1      -5.775   8.933  66.611  1.00  0.00    -0.047 C  
HETATM    5  C   UNL     1      -7.124  11.013  66.773  1.00  0.00    -0.135 C  
BRANCH   3   6
HETATM    6  C   UNL     1      -8.273   8.748  66.922  1.00  0.00    -0.108 C  
BRANCH   6   7
HETATM    7  C   UNL     1      -9.178   9.405  67.943  1.00  0.00    -0.139 A  
HETATM    8  C   UNL     1     -10.332  10.087  67.506  1.00  0.00    -0.282 A  
HETATM    9  C   UNL     1     -11.225  10.671  68.410  1.00  0.00    -0.347 A  
HETATM   10  C   UNL     1     -11.016  10.540  69.776  1.00  0.00    -0.350 A  
HETATM   11  C   UNL     1      -9.903   9.841  70.237  1.00  0.00    -0.296 A  
HETATM   12  C   UNL     1      -8.986   9.287  69.333  1.00  0.00    -0.147 A  
HETATM   13 BR   UNL     1      -7.510   8.363  70.096  1.00  0.00    -0.065 Br 
ENDBRANCH   6   7
ENDBRANCH   3   6
ENDBRANCH   2   3
TORSDOF 3
ENDMDL
MODEL      220
REMARK 921   NORMALIZED FREE ENERGY PREDICTED BY IDOCK:   -1.85 KCAL/MOL
REMARK 922        TOTAL FREE ENERGY PREDICTED BY IDOCK:   -2.38 KCAL/MOL
REMARK 923 INTER-LIGAND FREE ENERGY PREDICTED BY IDOCK:   -2.51 KCAL/MOL
REMARK 924 INTRA-LIGAND FREE ENERGY PREDICTED BY IDOCK:    0.13 KCAL/MOL
REMARK 927      BINDING AFFINITY PREDICTED BY RF-SCORE:    0.00 PKD
ROOT
HETATM    1  C   UNL     1     -13.512   6.921  71.647  1.00  0.00    -0.284 C  
HETATM    2  C   UNL     1     -12.474   7.243  70.583  1.00  0.00    -0.055 C  
ENDROOT
BRANCH   2   3
HETATM    3  N   UNL     1     -11.038   6.771  70.914  1.00  0.00    -0.262 N  
HETATM    4  C   UNL     1     -10.656   5.574  70.049  1.00  0.00    -0.314 C  
HETATM    5  C   UNL     1     -10.042   7.896  70.688  1.00  0.00    -0.194 C  
BRANCH   3   6
HETATM    6  C   UNL     1     -11.068   6.339  72.419  1.00  0.00    -0.270 C  
BRANCH   6   7
HETATM    7  C   UNL     1     -10.000   5.405  72.948  1.00  0.00    -0.193 A  
HETATM    8  C   UNL     1     -10.107   4.021  72.700  1.00  0.00    -0.225 A  
HETATM    9  C   UNL     1      -9.125   3.122  73.125  1.00  0.00    -0.103 A  
HETATM   10  C   UNL     1      -7.983   3.589  73.761  1.00  0.00    -0.074 A  
HETATM   11  C   UNL     1      -7.833   4.955  73.988  1.00  0.00    -0.101 A  
HETATM   12  C   UNL     1      -8.834   5.856  73.596  1.00  0.00    -0.124 A  
HETATM   13 BR   UNL     1      -8.504   7.690  73.969  1.00  0.00    -0.308 Br 
ENDBRANCH   6   7
ENDBRANCH   3   6
ENDBRANCH   2   3
TORSDOF 3
ENDMDL
MODEL      221
REMARK 921   NORMALIZED FREE ENERGY PREDICTED BY IDOCK:   -1.83 KCAL/MOL
REMARK 922        TOTAL FREE ENERGY PREDICTED BY IDOCK:   -2.35 KCAL/MOL
REMARK 923 INTER-LIGAND FREE ENERGY PREDICTED BY IDOCK:   -2.11 KCAL/MOL
REMARK 924 INTRA-LIGAND FREE ENERGY PREDICTED BY IDOCK:   -0.24 KCAL/MOL
REMARK 927      BINDING AFFINITY PREDICTED BY RF-SCORE:    0.00 PKD
ROOT
HETATM    1  C   UNL     1     -11.028   6.147  71.249  1.00  0.00    -0.340 C  
HETATM    2  C   UNL     1     -11.494   6.235  69.804  1.00  0.00    -0.379 C  
ENDROOT
BRANCH   2   3
HETATM    3  N   UNL     1     -10.552   7.028  68.866  1.00  0.00    -0.213 N  
HETATM    4  C   UNL     1     -10.847   6.697  67.407  1.00  0.00    -0.363 C  
HETATM    5  C   UNL     1     -10.715   8.523  69.088  1.00  0.00    -0.110 C  
BRANCH   3   6
HETATM    6  C   UNL     1      -9.101   6.560  69.225  1.00  0.00    -0.137 C  
BRANCH   6   7
HETATM    7  C   UNL     1      -8.042   7.596  69.541  1.00  0.00    -0.127 A  
HETATM    8  C   UNL     1      -7.826   7.977  70.881  1.00  0.00    -0.089 A  
HETATM    9  C   UNL     1      -6.830   8.894  71.231  1.00  0.00    -0.090 A  
HETATM   10  C   UNL     1      -5.988   9.411  70.256  1.00  0.00    -0.040 A  
HETATM   11  C   UNL     1      -6.154   9.024  68.928  1.00  0.00    -0.044 A  
HETATM   12  C   UNL     1      -7.177   8.134  68.570  1.00  0.00    -0.088 A  
HETATM   13 BR   UNL     1      -7.296   7.695  66.724  1.00  0.00    -0.090 Br 
ENDBRANCH   6   7
ENDBRANCH   3   6
ENDBRANCH   2   3
TORSDOF 3
ENDMDL
MODEL      222
REMARK 921   NORMALIZED FREE ENERGY PREDICTED BY IDOCK:   -1.79 KCAL/MOL
REMARK 922        TOTAL FREE ENERGY PREDICTED BY IDOCK:   -2.31 KCAL/MOL
REMARK 923 INTER-LIGAND FREE ENERGY PREDICTED BY IDOCK:   -2.12 KCAL/MOL
REMARK 924 INTRA-LIGAND FREE ENERGY PREDICTED BY IDOCK:   -0.19 KCAL/MOL
REMARK 927      BINDING AFFINITY PREDICTED BY RF-SCORE:    0.00 PKD
ROOT
HETATM    1  C   UNL     1     -10.893   6.613  70.783  1.00  0.00    -0.299 C  
HETATM    2  C   UNL     1     -11.390   6.386  69.365  1.00  0.00    -0.377 C  
ENDROOT
BRANCH   2   3
HETATM    3  N   UNL     1     -10.437   6.893  68.255  1.00  0.00    -0.193 N  
HETATM    4  C   UNL     1     -10.673   6.129  66.957  1.00  0.00    -0.350 C  
HETATM    5  C   UNL     1     -10.645   8.378  68.012  1.00  0.00    -0.130 C  
BRANCH   3   6
HETATM    6  C   UNL     1      -8.988   6.605  68.775  1.00  0.00    -0.125 C  
BRANCH   6   7
HETATM    7  C   UNL     1      -7.847   7.497  68.332  1.00  0.00    -0.122 A  
HETATM    8  C   UNL     1      -7.280   7.311  67.054  1.00  0.00    -0.092 A  
HETATM    9  C   UNL     1      -6.257   8.137  66.579  1.00  0.00    -0.050 A  
HETATM   10  C   UNL     1      -5.812   9.204  67.346  1.00  0.00    -0.046 A  
HETATM   11  C   UNL     1      -6.378   9.434  68.598  1.00  0.00    -0.048 A  
HETATM   12  C   UNL     1      -7.378   8.584  69.093  1.00  0.00    -0.079 A  
HETATM   13 BR   UNL     1      -8.061   9.009  70.816  1.00  0.00    -0.209 Br 
ENDBRANCH   6   7
ENDBRANCH   3   6
ENDBRANCH   2   3
TORSDOF 3
ENDMDL
MODEL      223
REMARK 921   NORMALIZED FREE ENERGY PREDICTED BY IDOCK:   -1.78 KCAL/MOL
REMARK 922        TOTAL FREE ENERGY PREDICTED BY IDOCK:   -2.30 KCAL/MOL
REMARK 923 INTER-LIGAND FREE ENERGY PREDICTED BY IDOCK:   -2.40 KCAL/MOL
REMARK 924 INTRA-LIGAND FREE ENERGY PREDICTED BY IDOCK:    0.10 KCAL/MOL
REMARK 927      BINDING AFFINITY PREDICTED BY RF-SCORE:    0.00 PKD
ROOT
HETATM    1  C   UNL     1      -8.538   5.586  67.339  1.00  0.00    -0.108 C  
HETATM    2  C   UNL     1      -8.766   6.928  68.015  1.00  0.00    -0.125 C  
ENDROOT
BRANCH   2   3
HETATM    3  N   UNL     1     -10.253   7.332  68.169  1.00  0.00    -0.180 N  
HETATM    4  C   UNL     1     -10.755   8.018  66.903  1.00  0.00    -0.131 C  
HETATM    5  C   UNL     1     -11.110   6.110  68.454  1.00  0.00    -0.248 C  
BRANCH   3   6
HETATM    6  C   UNL     1     -10.297   8.343  69.365  1.00  0.00    -0.215 C  
BRANCH   6   7
HETATM    7  C   UNL     1      -9.682   7.953  70.692  1.00  0.00    -0.175 A  
HETATM    8  C   UNL     1      -8.294   8.115  70.885  1.00  0.00    -0.124 A  
HETATM    9  C   UNL     1      -7.684   7.814  72.106  1.00  0.00    -0.107 A  
HETATM   10  C   UNL     1      -8.453   7.395  73.183  1.00  0.00    -0.164 A  
HETATM   11  C   UNL     1      -9.831   7.260  73.033  1.00  0.00    -0.254 A  
HETATM   12  C   UNL     1     -10.441   7.525  71.798  1.00  0.00    -0.193 A  
HETATM   13 BR   UNL     1     -12.327   7.296  71.729  1.00  0.00    -0.378 Br 
ENDBRANCH   6   7
ENDBRANCH   3   6
ENDBRANCH   2   3
TORSDOF 3
ENDMDL
MODEL      224
REMARK 921   NORMALIZED FREE ENERGY PREDICTED BY IDOCK:   -1.77 KCAL/MOL
REMARK 922        TOTAL FREE ENERGY PREDICTED BY IDOCK:   -2.28 KCAL/MOL
REMARK 923 INTER-LIGAND FREE ENERGY PREDICTED BY IDOCK:   -2.27 KCAL/MOL
REMARK 924 INTRA-LIGAND FREE ENERGY PREDICTED BY IDOCK:   -0.01 KCAL/MOL
REMARK 927      BINDING AFFINITY PREDICTED BY RF-SCORE:    0.00 PKD
ROOT
HETATM    1  C   UNL     1      -7.178  10.404  69.367  1.00  0.00    -0.109 C  
HETATM    2  C   UNL     1      -7.465   8.912  69.399  1.00  0.00    -0.077 C  
ENDROOT
BRANCH   2   3
HETATM    3  N   UNL     1      -6.717   8.131  70.507  1.00  0.00    -0.037 N  
HETATM    4  C   UNL     1      -7.002   6.637  70.394  1.00  0.00    -0.063 C  
HETATM    5  C   UNL     1      -5.220   8.369  70.407  1.00  0.00    -0.022 C  
BRANCH   3   6
HETATM    6  C   UNL     1      -7.284   8.669  71.864  1.00  0.00    -0.065 C  
BRANCH   6   7
HETATM    7  C   UNL     1      -8.347   7.875  72.595  1.00  0.00    -0.198 A  
HETATM    8  C   UNL     1      -7.959   6.960  73.596  1.00  0.00    -0.114 A  
HETATM    9  C   UNL     1      -8.902   6.236  74.332  1.00  0.00    -0.149 A  
HETATM   10  C   UNL     1     -10.258   6.449  74.124  1.00  0.00    -0.361 A  
HETATM   11  C   UNL     1     -10.670   7.372  73.166  1.00  0.00    -0.436 A  
HETATM   12  C   UNL     1      -9.727   8.072  72.401  1.00  0.00    -0.240 A  
HETATM   13 BR   UNL     1     -10.425   9.298  71.126  1.00  0.00    -0.403 Br 
ENDBRANCH   6   7
ENDBRANCH   3   6
ENDBRANCH   2   3
TORSDOF 3
ENDMDL
MODEL      225
REMARK 921   NORMALIZED FREE ENERGY PREDICTED BY IDOCK:   -1.75 KCAL/MOL
REMARK 922        TOTAL FREE ENERGY PREDICTED BY IDOCK:   -2.26 KCAL/MOL
REMARK 923 INTER-LIGAND FREE ENERGY PREDICTED BY IDOCK:   -2.04 KCAL/MOL
REMARK 924 INTRA-LIGAND FREE ENERGY PREDICTED BY IDOCK:   -0.22 KCAL/MOL
REMARK 927      BINDING AFFINITY PREDICTED BY RF-SCORE:    0.00 PKD
ROOT
HETATM    1  C   UNL     1      -8.656   9.294  64.549  1.00  0.00    -0.217 C  
HETATM    2  C   UNL     1      -7.535   8.955  65.517  1.00  0.00    -0.086 C  
ENDROOT
BRANCH   2   3
HETATM    3  N   UNL     1      -7.905   7.908  66.596  1.00  0.00    -0.100 N  
HETATM    4  C   UNL     1      -9.278   7.309  66.312  1.00  0.00    -0.130 C  
HETATM    5  C   UNL     1      -6.869   6.797  66.638  1.00  0.00    -0.061 C  
BRANCH   3   6
HETATM    6  C   UNL     1      -7.946   8.691  67.952  1.00  0.00    -0.107 C  
BRANCH   6   7
HETATM    7  C   UNL     1      -9.113   8.484  68.896  1.00  0.00    -0.146 A  
HETATM    8  C   UNL     1      -9.066   7.430  69.831  1.00  0.00    -0.141 A  
HETATM    9  C   UNL     1     -10.095   7.224  70.755  1.00  0.00    -0.193 A  
HETATM   10  C   UNL     1     -11.171   8.100  70.804  1.00  0.00    -0.275 A  
HETATM   11  C   UNL     1     -11.226   9.171  69.916  1.00  0.00    -0.118 A  
HETATM   12  C   UNL     1     -10.214   9.358  68.963  1.00  0.00    -0.205 A  
HETATM   13 BR   UNL     1     -10.415  10.856  67.810  1.00  0.00    -0.256 Br 
ENDBRANCH   6   7
ENDBRANCH   3   6
ENDBRANCH   2   3
TORSDOF 3
ENDMDL
MODEL      226
REMARK 921   NORMALIZED FREE ENERGY PREDICTED BY IDOCK:   -1.72 KCAL/MOL
REMARK 922        TOTAL FREE ENERGY PREDICTED BY IDOCK:   -2.23 KCAL/MOL
REMARK 923 INTER-LIGAND FREE ENERGY PREDICTED BY IDOCK:   -2.06 KCAL/MOL
REMARK 924 INTRA-LIGAND FREE ENERGY PREDICTED BY IDOCK:   -0.17 KCAL/MOL
REMARK 927      BINDING AFFINITY PREDICTED BY RF-SCORE:    0.00 PKD
ROOT
HETATM    1  C   UNL     1      -7.539  11.463  68.611  1.00  0.00    -0.130 C  
HETATM    2  C   UNL     1      -9.025  11.522  68.295  1.00  0.00    -0.177 C  
ENDROOT
BRANCH   2   3
HETATM    3  N   UNL     1      -9.556  10.341  67.448  1.00  0.00    -0.156 N  
HETATM    4  C   UNL     1     -11.081  10.317  67.460  1.00  0.00    -0.232 C  
HETATM    5  C   UNL     1      -9.063  10.449  66.015  1.00  0.00    -0.162 C  
BRANCH   3   6
HETATM    6  C   UNL     1      -9.008   9.045  68.136  1.00  0.00    -0.133 C  
BRANCH   6   7
HETATM    7  C   UNL     1      -8.377   7.961  67.286  1.00  0.00    -0.122 A  
HETATM    8  C   UNL     1      -7.007   8.045  66.965  1.00  0.00    -0.074 A  
HETATM    9  C   UNL     1      -6.366   7.048  66.223  1.00  0.00    -0.050 A  
HETATM   10  C   UNL     1      -7.065   5.916  65.829  1.00  0.00    -0.070 A  
HETATM   11  C   UNL     1      -8.412   5.789  66.163  1.00  0.00    -0.130 A  
HETATM   12  C   UNL     1      -9.066   6.804  66.875  1.00  0.00    -0.137 A  
HETATM   13 BR   UNL     1     -10.904   6.507  67.260  1.00  0.00    -0.483 Br 
ENDBRANCH   6   7
ENDBRANCH   3   6
ENDBRANCH   2   3
TORSDOF 3
ENDMDL
MODEL      227
REMARK 921   NORMALIZED FREE ENERGY PREDICTED BY IDOCK:   -1.72 KCAL/MOL
REMARK 922        TOTAL FREE ENERGY PREDICTED BY IDOCK:   -2.23 KCAL/MOL
REMARK 923 INTER-LIGAND FREE ENERGY PREDICTED BY IDOCK:   -2.16 KCAL/MOL
REMARK 924 INTRA-LIGAND FREE ENERGY PREDICTED BY IDOCK:   -0.07 KCAL/MOL
REMARK 927      BINDING AFFINITY PREDICTED BY RF-SCORE:    0.00 PKD
ROOT
HETATM    1  C   UNL     1      -9.695   4.269  70.069  1.00  0.00    -0.287 C  
HETATM    2  C   UNL     1     -10.161   5.328  71.055  1.00  0.00    -0.221 C  
ENDROOT
BRANCH   2   3
HETATM    3  N   UNL     1     -10.793   6.584  70.407  1.00  0.00    -0.252 N  
HETATM    4  C   UNL     1     -11.185   6.300  68.962  1.00  0.00    -0.343 C  
HETATM    5  C   UNL     1     -12.021   7.024  71.187  1.00  0.00    -0.356 C  
BRANCH   3   6
HETATM    6  C   UNL     1      -9.680   7.685  70.441  1.00  0.00    -0.179 C  
BRANCH   6   7
HETATM    7  C   UNL     1      -8.261   7.323  70.054  1.00  0.00    -0.132 A  
HETATM    8  C   UNL     1      -7.926   7.206  68.689  1.00  0.00    -0.123 A  
HETATM    9  C   UNL     1      -6.621   6.918  68.278  1.00  0.00    -0.058 A  
HETATM   10  C   UNL     1      -5.607   6.795  69.217  1.00  0.00    -0.014 A  
HETATM   11  C   UNL     1      -5.902   6.941  70.571  1.00  0.00    -0.024 A  
HETATM   12  C   UNL     1      -7.217   7.192  70.989  1.00  0.00    -0.074 A  
HETATM   13 BR   UNL     1      -7.482   7.364  72.863  1.00  0.00    -0.095 Br 
ENDBRANCH   6   7
ENDBRANCH   3   6
ENDBRANCH   2   3
TORSDOF 3
ENDMDL
MODEL      228
REMARK 921   NORMALIZED FREE ENERGY PREDICTED BY IDOCK:   -1.72 KCAL/MOL
REMARK 922        TOTAL FREE ENERGY PREDICTED BY IDOCK:   -2.22 KCAL/MOL
REMARK 923 INTER-LIGAND FREE ENERGY PREDICTED BY IDOCK:   -2.09 KCAL/MOL
REMARK 924 INTRA-LIGAND FREE ENERGY PREDICTED BY IDOCK:   -0.13 KCAL/MOL
REMARK 927      BINDING AFFINITY PREDICTED BY RF-SCORE:    0.00 PKD
ROOT
HETATM    1  C   UNL     1      -8.912   3.921  63.857  1.00  0.00    -0.118 C  
HETATM    2  C   UNL     1      -8.277   3.990  65.236  1.00  0.00    -0.101 C  
ENDROOT
BRANCH   2   3
HETATM    3  N   UNL     1      -8.845   5.098  66.157  1.00  0.00    -0.128 N  
HETATM    4  C   UNL     1      -8.645   6.472  65.527  1.00  0.00    -0.102 C  
HETATM    5  C   UNL     1     -10.325   4.870  66.413  1.00  0.00    -0.288 C  
BRANCH   3   6
HETATM    6  C   UNL     1      -8.023   5.008  67.487  1.00  0.00    -0.095 C  
BRANCH   6   7
HETATM    7  C   UNL     1      -8.755   4.880  68.807  1.00  0.00    -0.105 A  
HETATM    8  C   UNL     1      -8.995   3.598  69.343  1.00  0.00    -0.175 A  
HETATM    9  C   UNL     1      -9.625   3.426  70.579  1.00  0.00    -0.231 A  
HETATM   10  C   UNL     1      -9.981   4.533  71.337  1.00  0.00    -0.259 A  
HETATM   11  C   UNL     1      -9.724   5.812  70.849  1.00  0.00    -0.218 A  
HETATM   12  C   UNL     1      -9.127   5.987  69.593  1.00  0.00    -0.135 A  
HETATM   13 BR   UNL     1      -8.837   7.785  69.046  1.00  0.00    -0.137 Br 
ENDBRANCH   6   7
ENDBRANCH   3   6
ENDBRANCH   2   3
TORSDOF 3
ENDMDL
MODEL      229
REMARK 921   NORMALIZED FREE ENERGY PREDICTED BY IDOCK:   -1.70 KCAL/MOL
REMARK 922        TOTAL FREE ENERGY PREDICTED BY IDOCK:   -2.20 KCAL/MOL
REMARK 923 INTER-LIGAND FREE ENERGY PREDICTED BY IDOCK:   -2.36 KCAL/MOL
REMARK 924 INTRA-LIGAND FREE ENERGY PREDICTED BY IDOCK:    0.16 KCAL/MOL
REMARK 927      BINDING AFFINITY PREDICTED BY RF-SCORE:    0.00 PKD
ROOT
HETATM    1  C   UNL     1     -11.379   5.542  72.493  1.00  0.00    -0.323 C  
HETATM    2  C   UNL     1     -10.604   5.704  71.195  1.00  0.00    -0.245 C  
ENDROOT
BRANCH   2   3
HETATM    3  N   UNL     1      -9.069   5.806  71.365  1.00  0.00    -0.140 N  
HETATM    4  C   UNL     1      -8.712   6.930  72.332  1.00  0.00    -0.126 C  
HETATM    5  C   UNL     1      -8.502   4.495  71.884  1.00  0.00    -0.112 C  
BRANCH   3   6
HETATM    6  C   UNL     1      -8.505   6.141  69.943  1.00  0.00    -0.129 C  
BRANCH   6   7
HETATM    7  C   UNL     1      -8.757   7.509  69.345  1.00  0.00    -0.137 A  
HETATM    8  C   UNL     1      -7.948   8.595  69.740  1.00  0.00    -0.095 A  
HETATM    9  C   UNL     1      -8.109   9.868  69.185  1.00  0.00    -0.118 A  
HETATM   10  C   UNL     1      -9.045  10.076  68.181  1.00  0.00    -0.121 A  
HETATM   11  C   UNL     1      -9.833   9.014  67.746  1.00  0.00    -0.209 A  
HETATM   12  C   UNL     1      -9.701   7.745  68.327  1.00  0.00    -0.159 A  
HETATM   13 BR   UNL     1     -10.841   6.386  67.644  1.00  0.00    -0.447 Br 
ENDBRANCH   6   7
ENDBRANCH   3   6
ENDBRANCH   2   3
TORSDOF 3
ENDMDL
MODEL      230
REMARK 921   NORMALIZED FREE ENERGY PREDICTED BY IDOCK:   -1.69 KCAL/MOL
REMARK 922        TOTAL FREE ENERGY PREDICTED BY IDOCK:   -2.19 KCAL/MOL
REMARK 923 INTER-LIGAND FREE ENERGY PREDICTED BY IDOCK:   -2.08 KCAL/MOL
REMARK 924 INTRA-LIGAND FREE ENERGY PREDICTED BY IDOCK:   -0.11 KCAL/MOL
REMARK 927      BINDING AFFINITY PREDICTED BY RF-SCORE:    0.00 PKD
ROOT
HETATM    1  C   UNL     1     -10.113  13.235  68.180  1.00  0.00    -0.241 C  
HETATM    2  C   UNL     1      -9.390  11.901  68.281  1.00  0.00    -0.193 C  
ENDROOT
BRANCH   2   3
HETATM    3  N   UNL     1     -10.318  10.670  68.419  1.00  0.00    -0.167 N  
HETATM    4  C   UNL     1     -10.282  10.130  69.845  1.00  0.00    -0.237 C  
HETATM    5  C   UNL     1     -11.747  11.036  68.054  1.00  0.00    -0.179 C  
BRANCH   3   6
HETATM    6  C   UNL     1      -9.744   9.593  67.438  1.00  0.00    -0.156 C  
BRANCH   6   7
HETATM    7  C   UNL     1      -8.457   9.876  66.692  1.00  0.00    -0.126 A  
HETATM    8  C   UNL     1      -7.225   9.526  67.282  1.00  0.00    -0.087 A  
HETATM    9  C   UNL     1      -6.011   9.724  66.616  1.00  0.00    -0.059 A  
HETATM   10  C   UNL     1      -6.001  10.226  65.322  1.00  0.00    -0.127 A  
HETATM   11  C   UNL     1      -7.206  10.547  64.701  1.00  0.00     0.068 A  
HETATM   12  C   UNL     1      -8.422  10.385  65.380  1.00  0.00    -0.168 A  
HETATM   13 BR   UNL     1      -9.990  10.867  64.418  1.00  0.00    -0.411 Br 
ENDBRANCH   6   7
ENDBRANCH   3   6
ENDBRANCH   2   3
TORSDOF 3
ENDMDL
MODEL      231
REMARK 921   NORMALIZED FREE ENERGY PREDICTED BY IDOCK:   -1.67 KCAL/MOL
REMARK 922        TOTAL FREE ENERGY PREDICTED BY IDOCK:   -2.17 KCAL/MOL
REMARK 923 INTER-LIGAND FREE ENERGY PREDICTED BY IDOCK:   -2.20 KCAL/MOL
REMARK 924 INTRA-LIGAND FREE ENERGY PREDICTED BY IDOCK:    0.03 KCAL/MOL
REMARK 927      BINDING AFFINITY PREDICTED BY RF-SCORE:    0.00 PKD
ROOT
HETATM    1  C   UNL     1      -6.965   9.680  64.927  1.00  0.00    -0.113 C  
HETATM    2  C   UNL     1      -7.999   8.678  65.415  1.00  0.00    -0.111 C  
ENDROOT
BRANCH   2   3
HETATM    3  N   UNL     1      -7.869   8.288  66.908  1.00  0.00    -0.095 N  
HETATM    4  C   UNL     1      -6.404   8.269  67.331  1.00  0.00    -0.057 C  
HETATM    5  C   UNL     1      -8.634   9.268  67.782  1.00  0.00    -0.117 C  
BRANCH   3   6
HETATM    6  C   UNL     1      -8.466   6.845  67.024  1.00  0.00    -0.121 C  
BRANCH   6   7
HETATM    7  C   UNL     1      -9.206   6.445  68.284  1.00  0.00    -0.112 A  
HETATM    8  C   UNL     1     -10.594   6.673  68.371  1.00  0.00    -0.289 A  
HETATM    9  C   UNL     1     -11.332   6.280  69.492  1.00  0.00    -0.475 A  
HETATM   10  C   UNL     1     -10.711   5.600  70.531  1.00  0.00    -0.344 A  
HETATM   11  C   UNL     1      -9.346   5.330  70.455  1.00  0.00    -0.205 A  
HETATM   12  C   UNL     1      -8.597   5.755  69.349  1.00  0.00    -0.111 A  
HETATM   13 BR   UNL     1      -6.745   5.324  69.376  1.00  0.00    -0.054 Br 
ENDBRANCH   6   7
ENDBRANCH   3   6
ENDBRANCH   2   3
TORSDOF 3
ENDMDL
MODEL      232
REMARK 921   NORMALIZED FREE ENERGY PREDICTED BY IDOCK:   -1.65 KCAL/MOL
REMARK 922        TOTAL FREE ENERGY PREDICTED BY IDOCK:   -2.15 KCAL/MOL
REMARK 923 INTER-LIGAND FREE ENERGY PREDICTED BY IDOCK:   -2.06 KCAL/MOL
REMARK 924 INTRA-LIGAND FREE ENERGY PREDICTED BY IDOCK:   -0.09 KCAL/MOL
REMARK 927      BINDING AFFINITY PREDICTED BY RF-SCORE:    0.00 PKD
ROOT
HETATM    1  C   UNL     1      -6.467   7.885  72.118  1.00  0.00    -0.056 C  
HETATM    2  C   UNL     1      -6.202   6.593  71.363  1.00  0.00    -0.041 C  
ENDROOT
BRANCH   2   3
HETATM    3  N   UNL     1      -7.473   5.817  70.940  1.00  0.00    -0.088 N  
HETATM    4  C   UNL     1      -7.270   5.158  69.581  1.00  0.00    -0.056 C  
HETATM    5  C   UNL     1      -7.815   4.754  71.971  1.00  0.00    -0.100 C  
BRANCH   3   6
HETATM    6  C   UNL     1      -8.611   6.888  70.837  1.00  0.00    -0.136 C  
BRANCH   6   7
HETATM    7  C   UNL     1      -9.282   7.136  69.502  1.00  0.00    -0.149 A  
HETATM    8  C   UNL     1     -10.329   6.287  69.087  1.00  0.00    -0.262 A  
HETATM    9  C   UNL     1     -11.012   6.500  67.886  1.00  0.00    -0.382 A  
HETATM   10  C   UNL     1     -10.702   7.597  67.095  1.00  0.00    -0.361 A  
HETATM   11  C   UNL     1      -9.696   8.472  67.497  1.00  0.00    -0.209 A  
HETATM   12  C   UNL     1      -8.984   8.241  68.682  1.00  0.00    -0.137 A  
HETATM   13 BR   UNL     1      -7.634   9.509  69.111  1.00  0.00    -0.079 Br 
ENDBRANCH   6   7
ENDBRANCH   3   6
ENDBRANCH   2   3
TORSDOF 3
ENDMDL
MODEL      233
REMARK 921   NORMALIZED FREE ENERGY PREDICTED BY IDOCK:   -1.64 KCAL/MOL
REMARK 922        TOTAL FREE ENERGY PREDICTED BY IDOCK:   -2.13 KCAL/MOL
REMARK 923 INTER-LIGAND FREE ENERGY PREDICTED BY IDOCK:   -2.13 KCAL/MOL
REMARK 924 INTRA-LIGAND FREE ENERGY PREDICTED BY IDOCK:   -0.00 KCAL/MOL
REMARK 927      BINDING AFFINITY PREDICTED BY RF-SCORE:    0.00 PKD
ROOT
HETATM    1  C   UNL     1     -11.003   6.143  71.244  1.00  0.00    -0.340 C  
HETATM    2  C   UNL     1     -11.526   6.245  69.820  1.00  0.00    -0.379 C  
ENDROOT
BRANCH   2   3
HETATM    3  N   UNL     1     -10.570   6.949  68.827  1.00  0.00    -0.211 N  
HETATM    4  C   UNL     1     -11.021   6.711  67.390  1.00  0.00    -0.360 C  
HETATM    5  C   UNL     1     -10.524   8.443  69.101  1.00  0.00    -0.206 C  
BRANCH   3   6
HETATM    6  C   UNL     1      -9.166   6.292  69.050  1.00  0.00    -0.127 C  
BRANCH   6   7
HETATM    7  C   UNL     1      -7.976   6.793  68.259  1.00  0.00    -0.111 A  
HETATM    8  C   UNL     1      -7.283   7.938  68.703  1.00  0.00    -0.081 A  
HETATM    9  C   UNL     1      -6.151   8.414  68.036  1.00  0.00    -0.051 A  
HETATM   10  C   UNL     1      -5.649   7.726  66.940  1.00  0.00    -0.032 A  
HETATM   11  C   UNL     1      -6.292   6.571  66.500  1.00  0.00    -0.042 A  
HETATM   12  C   UNL     1      -7.449   6.113  67.144  1.00  0.00    -0.081 A  
HETATM   13 BR   UNL     1      -8.229   4.529  66.440  1.00  0.00    -0.106 Br 
ENDBRANCH   6   7
ENDBRANCH   3   6
ENDBRANCH   2   3
TORSDOF 3
ENDMDL
MODEL      234
REMARK 921   NORMALIZED FREE ENERGY PREDICTED BY IDOCK:   -1.62 KCAL/MOL
REMARK 922        TOTAL FREE ENERGY PREDICTED BY IDOCK:   -2.11 KCAL/MOL
REMARK 923 INTER-LIGAND FREE ENERGY PREDICTED BY IDOCK:   -2.55 KCAL/MOL
REMARK 924 INTRA-LIGAND FREE ENERGY PREDICTED BY IDOCK:    0.45 KCAL/MOL
REMARK 927      BINDING AFFINITY PREDICTED BY RF-SCORE:    0.00 PKD
ROOT
HETATM    1  C   UNL     1     -10.601  14.315  67.436  1.00  0.00    -0.276 C  
HETATM    2  C   UNL     1      -9.941  13.275  66.546  1.00  0.00    -0.280 C  
ENDROOT
BRANCH   2   3
HETATM    3  N   UNL     1     -10.902  12.551  65.571  1.00  0.00    -0.271 N  
HETATM    4  C   UNL     1     -12.331  12.593  66.100  1.00  0.00    -0.028 C  
HETATM    5  C   UNL     1     -10.853  13.199  64.197  1.00  0.00    -0.380 C  
BRANCH   3   6
HETATM    6  C   UNL     1     -10.409  11.066  65.512  1.00  0.00    -0.260 C  
BRANCH   6   7
HETATM    7  C   UNL     1      -8.933  10.765  65.669  1.00  0.00    -0.205 A  
HETATM    8  C   UNL     1      -8.312  10.981  66.916  1.00  0.00    -0.138 A  
HETATM    9  C   UNL     1      -6.964  10.676  67.127  1.00  0.00    -0.088 A  
HETATM   10  C   UNL     1      -6.216  10.095  66.112  1.00  0.00    -0.082 A  
HETATM   11  C   UNL     1      -6.813   9.837  64.880  1.00  0.00    -0.117 A  
HETATM   12  C   UNL     1      -8.154  10.177  64.654  1.00  0.00    -0.153 A  
HETATM   13 BR   UNL     1      -8.841   9.775  62.928  1.00  0.00    -0.275 Br 
ENDBRANCH   6   7
ENDBRANCH   3   6
ENDBRANCH   2   3
TORSDOF 3
ENDMDL
MODEL      235
REMARK 921   NORMALIZED FREE ENERGY PREDICTED BY IDOCK:   -1.60 KCAL/MOL
REMARK 922        TOTAL FREE ENERGY PREDICTED BY IDOCK:   -2.08 KCAL/MOL
REMARK 923 INTER-LIGAND FREE ENERGY PREDICTED BY IDOCK:   -2.09 KCAL/MOL
REMARK 924 INTRA-LIGAND FREE ENERGY PREDICTED BY IDOCK:    0.01 KCAL/MOL
REMARK 927      BINDING AFFINITY PREDICTED BY RF-SCORE:    0.00 PKD
ROOT
HETATM    1  C   UNL     1      -8.465  12.160  67.845  1.00  0.00    -0.163 C  
HETATM    2  C   UNL     1      -8.993  10.915  67.150  1.00  0.00    -0.138 C  
ENDROOT
BRANCH   2   3
HETATM    3  N   UNL     1      -9.841   9.982  68.048  1.00  0.00    -0.140 N  
HETATM    4  C   UNL     1      -9.127   9.715  69.368  1.00  0.00    -0.188 C  
HETATM    5  C   UNL     1     -11.200  10.602  68.325  1.00  0.00    -0.301 C  
BRANCH   3   6
HETATM    6  C   UNL     1      -9.985   8.641  67.251  1.00  0.00    -0.219 C  
BRANCH   6   7
HETATM    7  C   UNL     1      -9.235   7.412  67.720  1.00  0.00    -0.133 A  
HETATM    8  C   UNL     1      -7.953   7.145  67.200  1.00  0.00    -0.110 A  
HETATM    9  C   UNL     1      -7.199   6.050  67.634  1.00  0.00    -0.076 A  
HETATM   10  C   UNL     1      -7.686   5.225  68.639  1.00  0.00    -0.083 A  
HETATM   11  C   UNL     1      -8.936   5.486  69.197  1.00  0.00    -0.120 A  
HETATM   12  C   UNL     1      -9.709   6.561  68.737  1.00  0.00    -0.129 A  
HETATM   13 BR   UNL     1     -11.396   6.802  69.581  1.00  0.00    -0.292 Br 
ENDBRANCH   6   7
ENDBRANCH   3   6
ENDBRANCH   2   3
TORSDOF 3
ENDMDL
MODEL      236
REMARK 921   NORMALIZED FREE ENERGY PREDICTED BY IDOCK:   -1.59 KCAL/MOL
REMARK 922        TOTAL FREE ENERGY PREDICTED BY IDOCK:   -2.07 KCAL/MOL
REMARK 923 INTER-LIGAND FREE ENERGY PREDICTED BY IDOCK:   -1.93 KCAL/MOL
REMARK 924 INTRA-LIGAND FREE ENERGY PREDICTED BY IDOCK:   -0.14 KCAL/MOL
REMARK 927      BINDING AFFINITY PREDICTED BY RF-SCORE:    0.00 PKD
ROOT
HETATM    1  C   UNL     1     -10.504  11.650  65.065  1.00  0.00    -0.336 C  
HETATM    2  C   UNL     1     -10.556  11.747  66.581  1.00  0.00    -0.240 C  
ENDROOT
BRANCH   2   3
HETATM    3  N   UNL     1      -9.742  10.664  67.329  1.00  0.00    -0.166 N  
HETATM    4  C   UNL     1      -9.724  10.946  68.827  1.00  0.00    -0.189 C  
HETATM    5  C   UNL     1     -10.336   9.287  67.082  1.00  0.00    -0.260 C  
BRANCH   3   6
HETATM    6  C   UNL     1      -8.285  10.759  66.761  1.00  0.00    -0.135 C  
BRANCH   6   7
HETATM    7  C   UNL     1      -7.254  11.592  67.493  1.00  0.00    -0.119 A  
HETATM    8  C   UNL     1      -7.266  12.994  67.345  1.00  0.00    -0.123 A  
HETATM    9  C   UNL     1      -6.367  13.813  68.034  1.00  0.00    -0.141 A  
HETATM   10  C   UNL     1      -5.467  13.254  68.932  1.00  0.00    -0.073 A  
HETATM   11  C   UNL     1      -5.456  11.875  69.126  1.00  0.00    -0.052 A  
HETATM   12  C   UNL     1      -6.332  11.049  68.408  1.00  0.00    -0.052 A  
HETATM   13 BR   UNL     1      -6.209   9.186  68.765  1.00  0.00    -0.044 Br 
ENDBRANCH   6   7
ENDBRANCH   3   6
ENDBRANCH   2   3
TORSDOF 3
ENDMDL
MODEL      237
REMARK 921   NORMALIZED FREE ENERGY PREDICTED BY IDOCK:   -1.58 KCAL/MOL
REMARK 922        TOTAL FREE ENERGY PREDICTED BY IDOCK:   -2.07 KCAL/MOL
REMARK 923 INTER-LIGAND FREE ENERGY PREDICTED BY IDOCK:   -2.31 KCAL/MOL
REMARK 924 INTRA-LIGAND FREE ENERGY PREDICTED BY IDOCK:    0.25 KCAL/MOL
REMARK 927      BINDING AFFINITY PREDICTED BY RF-SCORE:    0.00 PKD
ROOT
HETATM    1  C   UNL     1      -9.905   4.378  69.032  1.00  0.00    -0.182 C  
HETATM    2  C   UNL     1      -8.933   4.264  67.869  1.00  0.00    -0.122 C  
ENDROOT
BRANCH   2   3
HETATM    3  N   UNL     1      -9.159   5.291  66.733  1.00  0.00    -0.117 N  
HETATM    4  C   UNL     1      -8.653   4.739  65.404  1.00  0.00    -0.134 C  
HETATM    5  C   UNL     1     -10.635   5.631  66.608  1.00  0.00    -0.295 C  
BRANCH   3   6
HETATM    6  C   UNL     1      -8.321   6.553  67.128  1.00  0.00    -0.113 C  
BRANCH   6   7
HETATM    7  C   UNL     1      -9.035   7.850  67.448  1.00  0.00    -0.133 A  
HETATM    8  C   UNL     1      -9.850   8.450  66.467  1.00  0.00    -0.338 A  
HETATM    9  C   UNL     1     -10.568   9.622  66.726  1.00  0.00    -0.209 A  
HETATM   10  C   UNL     1     -10.531  10.194  67.991  1.00  0.00    -0.249 A  
HETATM   11  C   UNL     1      -9.762   9.603  68.990  1.00  0.00    -0.169 A  
HETATM   12  C   UNL     1      -9.012   8.449  68.722  1.00  0.00    -0.140 A  
HETATM   13 BR   UNL     1      -8.003   7.749  70.173  1.00  0.00    -0.113 Br 
ENDBRANCH   6   7
ENDBRANCH   3   6
ENDBRANCH   2   3
TORSDOF 3
ENDMDL
MODEL      238
REMARK 921   NORMALIZED FREE ENERGY PREDICTED BY IDOCK:   -1.57 KCAL/MOL
REMARK 922        TOTAL FREE ENERGY PREDICTED BY IDOCK:   -2.05 KCAL/MOL
REMARK 923 INTER-LIGAND FREE ENERGY PREDICTED BY IDOCK:   -2.06 KCAL/MOL
REMARK 924 INTRA-LIGAND FREE ENERGY PREDICTED BY IDOCK:    0.00 KCAL/MOL
REMARK 927      BINDING AFFINITY PREDICTED BY RF-SCORE:    0.00 PKD
ROOT
HETATM    1  C   UNL     1      -9.954   5.432  71.502  1.00  0.00    -0.237 C  
HETATM    2  C   UNL     1      -9.672   4.822  70.139  1.00  0.00    -0.217 C  
ENDROOT
BRANCH   2   3
HETATM    3  N   UNL     1      -8.187   4.469  69.882  1.00  0.00    -0.066 N  
HETATM    4  C   UNL     1      -7.331   4.846  71.085  1.00  0.00    -0.068 C  
HETATM    5  C   UNL     1      -8.035   2.983  69.600  1.00  0.00    -0.045 C  
BRANCH   3   6
HETATM    6  C   UNL     1      -7.754   5.324  68.643  1.00  0.00    -0.083 C  
BRANCH   6   7
HETATM    7  C   UNL     1      -8.661   6.434  68.152  1.00  0.00    -0.117 A  
HETATM    8  C   UNL     1      -9.752   6.116  67.317  1.00  0.00    -0.146 A  
HETATM    9  C   UNL     1     -10.646   7.095  66.874  1.00  0.00    -0.371 A  
HETATM   10  C   UNL     1     -10.503   8.409  67.298  1.00  0.00    -0.373 A  
HETATM   11  C   UNL     1      -9.455   8.746  68.152  1.00  0.00    -0.152 A  
HETATM   12  C   UNL     1      -8.536   7.773  68.567  1.00  0.00    -0.129 A  
HETATM   13 BR   UNL     1      -7.152   8.368  69.727  1.00  0.00    -0.052 Br 
ENDBRANCH   6   7
ENDBRANCH   3   6
ENDBRANCH   2   3
TORSDOF 3
ENDMDL
MODEL      239
REMARK 921   NORMALIZED FREE ENERGY PREDICTED BY IDOCK:   -1.57 KCAL/MOL
REMARK 922        TOTAL FREE ENERGY PREDICTED BY IDOCK:   -2.05 KCAL/MOL
REMARK 923 INTER-LIGAND FREE ENERGY PREDICTED BY IDOCK:   -1.84 KCAL/MOL
REMARK 924 INTRA-LIGAND FREE ENERGY PREDICTED BY IDOCK:   -0.21 KCAL/MOL
REMARK 927      BINDING AFFINITY PREDICTED BY RF-SCORE:    0.00 PKD
ROOT
HETATM    1  C   UNL     1      -9.338   4.075  64.609  1.00  0.00    -0.161 C  
HETATM    2  C   UNL     1      -7.987   4.142  65.302  1.00  0.00    -0.097 C  
ENDROOT
BRANCH   2   3
HETATM    3  N   UNL     1      -7.663   5.504  65.961  1.00  0.00    -0.093 N  
HETATM    4  C   UNL     1      -6.261   5.964  65.578  1.00  0.00    -0.037 C  
HETATM    5  C   UNL     1      -8.674   6.556  65.534  1.00  0.00    -0.051 C  
BRANCH   3   6
HETATM    6  C   UNL     1      -7.728   5.256  67.506  1.00  0.00    -0.096 C  
BRANCH   6   7
HETATM    7  C   UNL     1      -8.669   6.086  68.355  1.00  0.00    -0.113 A  
HETATM    8  C   UNL     1      -9.933   5.563  68.697  1.00  0.00    -0.222 A  
HETATM    9  C   UNL     1     -10.820   6.268  69.516  1.00  0.00    -0.404 A  
HETATM   10  C   UNL     1     -10.445   7.490  70.058  1.00  0.00    -0.231 A  
HETATM   11  C   UNL     1      -9.188   8.015  69.765  1.00  0.00    -0.149 A  
HETATM   12  C   UNL     1      -8.311   7.327  68.914  1.00  0.00    -0.126 A  
HETATM   13 BR   UNL     1      -6.631   8.157  68.594  1.00  0.00    -0.059 Br 
ENDBRANCH   6   7
ENDBRANCH   3   6
ENDBRANCH   2   3
TORSDOF 3
ENDMDL
MODEL      240
REMARK 921   NORMALIZED FREE ENERGY PREDICTED BY IDOCK:   -1.54 KCAL/MOL
REMARK 922        TOTAL FREE ENERGY PREDICTED BY IDOCK:   -2.02 KCAL/MOL
REMARK 923 INTER-LIGAND FREE ENERGY PREDICTED BY IDOCK:   -1.76 KCAL/MOL
REMARK 924 INTRA-LIGAND FREE ENERGY PREDICTED BY IDOCK:   -0.26 KCAL/MOL
REMARK 927      BINDING AFFINITY PREDICTED BY RF-SCORE:    0.00 PKD
ROOT
HETATM    1  C   UNL     1      -5.695  10.588  65.265  1.00  0.00    -0.141 C  
HETATM    2  C   UNL     1      -6.559   9.970  64.178  1.00  0.00    -0.130 C  
ENDROOT
BRANCH   2   3
HETATM    3  N   UNL     1      -7.829   9.248  64.690  1.00  0.00    -0.114 N  
HETATM    4  C   UNL     1      -9.083   9.996  64.253  1.00  0.00    -0.255 C  
HETATM    5  C   UNL     1      -7.881   7.824  64.163  1.00  0.00    -0.133 C  
BRANCH   3   6
HETATM    6  C   UNL     1      -7.726   9.266  66.253  1.00  0.00    -0.096 C  
BRANCH   6   7
HETATM    7  C   UNL     1      -7.555   7.962  67.003  1.00  0.00    -0.100 A  
HETATM    8  C   UNL     1      -6.259   7.537  67.363  1.00  0.00    -0.049 A  
HETATM    9  C   UNL     1      -6.049   6.365  68.095  1.00  0.00    -0.027 A  
HETATM   10  C   UNL     1      -7.133   5.617  68.535  1.00  0.00    -0.070 A  
HETATM   11  C   UNL     1      -8.426   6.032  68.226  1.00  0.00    -0.112 A  
HETATM   12  C   UNL     1      -8.638   7.186  67.459  1.00  0.00    -0.122 A  
HETATM   13 BR   UNL     1     -10.450   7.636  67.105  1.00  0.00    -0.411 Br 
ENDBRANCH   6   7
ENDBRANCH   3   6
ENDBRANCH   2   3
TORSDOF 3
ENDMDL
MODEL      241
REMARK 921   NORMALIZED FREE ENERGY PREDICTED BY IDOCK:   -1.54 KCAL/MOL
REMARK 922        TOTAL FREE ENERGY PREDICTED BY IDOCK:   -2.01 KCAL/MOL
REMARK 923 INTER-LIGAND FREE ENERGY PREDICTED BY IDOCK:   -1.91 KCAL/MOL
REMARK 924 INTRA-LIGAND FREE ENERGY PREDICTED BY IDOCK:   -0.10 KCAL/MOL
REMARK 927      BINDING AFFINITY PREDICTED BY RF-SCORE:    0.00 PKD
ROOT
HETATM    1  C   UNL     1      -7.616   5.551  74.444  1.00  0.00    -0.095 C  
HETATM    2  C   UNL     1      -8.274   4.377  73.738  1.00  0.00    -0.097 C  
ENDROOT
BRANCH   2   3
HETATM    3  N   UNL     1      -8.759   4.675  72.298  1.00  0.00    -0.118 N  
HETATM    4  C   UNL     1      -7.579   4.714  71.333  1.00  0.00    -0.078 C  
HETATM    5  C   UNL     1      -9.750   3.617  71.841  1.00  0.00    -0.166 C  
BRANCH   3   6
HETATM    6  C   UNL     1      -9.431   6.088  72.360  1.00  0.00    -0.145 C  
BRANCH   6   7
HETATM    7  C   UNL     1      -9.065   7.132  71.326  1.00  0.00    -0.151 A  
HETATM    8  C   UNL     1      -7.948   7.963  71.549  1.00  0.00    -0.107 A  
HETATM    9  C   UNL     1      -7.540   8.911  70.606  1.00  0.00    -0.101 A  
HETATM   10  C   UNL     1      -8.205   9.015  69.392  1.00  0.00    -0.117 A  
HETATM   11  C   UNL     1      -9.291   8.183  69.130  1.00  0.00    -0.151 A  
HETATM   12  C   UNL     1      -9.725   7.257  70.089  1.00  0.00    -0.172 A  
HETATM   13 BR   UNL     1     -11.220   6.187  69.605  1.00  0.00    -0.418 Br 
ENDBRANCH   6   7
ENDBRANCH   3   6
ENDBRANCH   2   3
TORSDOF 3
ENDMDL
MODEL      242
REMARK 921   NORMALIZED FREE ENERGY PREDICTED BY IDOCK:   -1.53 KCAL/MOL
REMARK 922        TOTAL FREE ENERGY PREDICTED BY IDOCK:   -2.00 KCAL/MOL
REMARK 923 INTER-LIGAND FREE ENERGY PREDICTED BY IDOCK:   -2.07 KCAL/MOL
REMARK 924 INTRA-LIGAND FREE ENERGY PREDICTED BY IDOCK:    0.07 KCAL/MOL
REMARK 927      BINDING AFFINITY PREDICTED BY RF-SCORE:    0.00 PKD
ROOT
HETATM    1  C   UNL     1      -7.232  11.642  67.698  1.00  0.00    -0.107 C  
HETATM    2  C   UNL     1      -8.579  10.975  67.479  1.00  0.00    -0.128 C  
ENDROOT
BRANCH   2   3
HETATM    3  N   UNL     1      -8.984   9.956  68.573  1.00  0.00    -0.120 N  
HETATM    4  C   UNL     1      -8.130  10.146  69.822  1.00  0.00    -0.154 C  
HETATM    5  C   UNL     1     -10.451  10.117  68.934  1.00  0.00    -0.210 C  
BRANCH   3   6
HETATM    6  C   UNL     1      -8.706   8.542  67.960  1.00  0.00    -0.142 C  
BRANCH   6   7
HETATM    7  C   UNL     1      -9.213   7.308  68.676  1.00  0.00    -0.136 A  
HETATM    8  C   UNL     1     -10.554   6.908  68.501  1.00  0.00    -0.247 A  
HETATM    9  C   UNL     1     -11.059   5.751  69.102  1.00  0.00    -0.218 A  
HETATM   10  C   UNL     1     -10.222   4.935  69.850  1.00  0.00    -0.299 A  
HETATM   11  C   UNL     1      -8.883   5.286  70.012  1.00  0.00    -0.140 A  
HETATM   12  C   UNL     1      -8.384   6.465  69.441  1.00  0.00    -0.122 A  
HETATM   13 BR   UNL     1      -6.542   6.827  69.742  1.00  0.00    -0.050 Br 
ENDBRANCH   6   7
ENDBRANCH   3   6
ENDBRANCH   2   3
TORSDOF 3
ENDMDL
MODEL      243
REMARK 921   NORMALIZED FREE ENERGY PREDICTED BY IDOCK:   -1.50 KCAL/MOL
REMARK 922        TOTAL FREE ENERGY PREDICTED BY IDOCK:   -1.97 KCAL/MOL
REMARK 923 INTER-LIGAND FREE ENERGY PREDICTED BY IDOCK:   -1.99 KCAL/MOL
REMARK 924 INTRA-LIGAND FREE ENERGY PREDICTED BY IDOCK:    0.02 KCAL/MOL
REMARK 927      BINDING AFFINITY PREDICTED BY RF-SCORE:    0.00 PKD
ROOT
HETATM    1  C   UNL     1      -8.709   9.044  65.020  1.00  0.00    -0.217 C  
HETATM    2  C   UNL     1      -9.032   7.789  65.814  1.00  0.00    -0.066 C  
ENDROOT
BRANCH   2   3
HETATM    3  N   UNL     1      -9.404   8.037  67.296  1.00  0.00    -0.140 N  
HETATM    4  C   UNL     1      -9.124   9.486  67.682  1.00  0.00    -0.120 C  
HETATM    5  C   UNL     1     -10.871   7.725  67.537  1.00  0.00    -0.112 C  
BRANCH   3   6
HETATM    6  C   UNL     1      -8.481   7.086  68.131  1.00  0.00    -0.129 C  
BRANCH   6   7
HETATM    7  C   UNL     1      -9.028   6.425  69.379  1.00  0.00    -0.131 A  
HETATM    8  C   UNL     1      -9.710   5.196  69.267  1.00  0.00    -0.242 A  
HETATM    9  C   UNL     1     -10.194   4.521  70.391  1.00  0.00    -0.145 A  
HETATM   10  C   UNL     1      -9.961   5.030  71.662  1.00  0.00    -0.249 A  
HETATM   11  C   UNL     1      -9.259   6.225  71.805  1.00  0.00    -0.145 A  
HETATM   12  C   UNL     1      -8.805   6.923  70.677  1.00  0.00    -0.150 A  
HETATM   13 BR   UNL     1      -7.866   8.541  71.014  1.00  0.00    -0.141 Br 
ENDBRANCH   6   7
ENDBRANCH   3   6
ENDBRANCH   2   3
TORSDOF 3
ENDMDL
MODEL      244
REMARK 921   NORMALIZED FREE ENERGY PREDICTED BY IDOCK:   -1.49 KCAL/MOL
REMARK 922        TOTAL FREE ENERGY PREDICTED BY IDOCK:   -1.95 KCAL/MOL
REMARK 923 INTER-LIGAND FREE ENERGY PREDICTED BY IDOCK:   -2.39 KCAL/MOL
REMARK 924 INTRA-LIGAND FREE ENERGY PREDICTED BY IDOCK:    0.44 KCAL/MOL
REMARK 927      BINDING AFFINITY PREDICTED BY RF-SCORE:    0.00 PKD
ROOT
HETATM    1  C   UNL     1     -10.490  18.075  66.532  1.00  0.00    -0.341 C  
HETATM    2  C   UNL     1      -9.696  17.241  67.524  1.00  0.00    -0.264 C  
ENDROOT
BRANCH   2   3
HETATM    3  N   UNL     1      -9.914  15.713  67.408  1.00  0.00    -0.230 N  
HETATM    4  C   UNL     1     -11.403  15.388  67.349  1.00  0.00    -0.243 C  
HETATM    5  C   UNL     1      -9.229  15.171  66.164  1.00  0.00    -0.283 C  
BRANCH   3   6
HETATM    6  C   UNL     1      -9.294  15.095  68.707  1.00  0.00    -0.200 C  
BRANCH   6   7
HETATM    7  C   UNL     1      -7.863  15.423  69.078  1.00  0.00    -0.194 A  
HETATM    8  C   UNL     1      -7.504  16.764  69.324  1.00  0.00    -0.134 A  
HETATM    9  C   UNL     1      -6.208  17.116  69.715  1.00  0.00    -0.204 A  
HETATM   10  C   UNL     1      -5.253  16.130  69.922  1.00  0.00    -0.134 A  
HETATM   11  C   UNL     1      -5.590  14.793  69.721  1.00  0.00    -0.100 A  
HETATM   12  C   UNL     1      -6.878  14.441  69.293  1.00  0.00    -0.129 A  
HETATM   13 BR   UNL     1      -7.202  12.584  69.053  1.00  0.00     0.069 Br 
ENDBRANCH   6   7
ENDBRANCH   3   6
ENDBRANCH   2   3
TORSDOF 3
ENDMDL
MODEL      245
REMARK 921   NORMALIZED FREE ENERGY PREDICTED BY IDOCK:   -1.47 KCAL/MOL
REMARK 922        TOTAL FREE ENERGY PREDICTED BY IDOCK:   -1.93 KCAL/MOL
REMARK 923 INTER-LIGAND FREE ENERGY PREDICTED BY IDOCK:   -1.74 KCAL/MOL
REMARK 924 INTRA-LIGAND FREE ENERGY PREDICTED BY IDOCK:   -0.19 KCAL/MOL
REMARK 927      BINDING AFFINITY PREDICTED BY RF-SCORE:    0.00 PKD
ROOT
HETATM    1  C   UNL     1      -8.918   7.983  65.870  1.00  0.00    -0.181 C  
HETATM    2  C   UNL     1      -8.122   7.926  67.163  1.00  0.00    -0.117 C  
ENDROOT
BRANCH   2   3
HETATM    3  N   UNL     1      -8.960   7.611  68.427  1.00  0.00    -0.129 N  
HETATM    4  C   UNL     1      -9.360   8.898  69.138  1.00  0.00    -0.148 C  
HETATM    5  C   UNL     1     -10.209   6.829  68.056  1.00  0.00    -0.171 C  
BRANCH   3   6
HETATM    6  C   UNL     1      -8.024   6.768  69.358  1.00  0.00    -0.115 C  
BRANCH   6   7
HETATM    7  C   UNL     1      -8.313   5.296  69.569  1.00  0.00    -0.095 A  
HETATM    8  C   UNL     1      -7.675   4.343  68.749  1.00  0.00    -0.066 A  
HETATM    9  C   UNL     1      -7.871   2.970  68.932  1.00  0.00    -0.054 A  
HETATM   10  C   UNL     1      -8.667   2.515  69.974  1.00  0.00    -0.125 A  
HETATM   11  C   UNL     1      -9.281   3.434  70.822  1.00  0.00    -0.203 A  
HETATM   12  C   UNL     1      -9.116   4.811  70.617  1.00  0.00    -0.128 A  
HETATM   13 BR   UNL     1     -10.014   5.954  71.844  1.00  0.00    -0.212 Br 
ENDBRANCH   6   7
ENDBRANCH   3   6
ENDBRANCH   2   3
TORSDOF 3
ENDMDL
MODEL      246
REMARK 921   NORMALIZED FREE ENERGY PREDICTED BY IDOCK:   -1.45 KCAL/MOL
REMARK 922        TOTAL FREE ENERGY PREDICTED BY IDOCK:   -1.91 KCAL/MOL
REMARK 923 INTER-LIGAND FREE ENERGY PREDICTED BY IDOCK:   -1.69 KCAL/MOL
REMARK 924 INTRA-LIGAND FREE ENERGY PREDICTED BY IDOCK:   -0.22 KCAL/MOL
REMARK 927      BINDING AFFINITY PREDICTED BY RF-SCORE:    0.00 PKD
ROOT
HETATM    1  C   UNL     1      -9.044   4.436  64.872  1.00  0.00    -0.151 C  
HETATM    2  C   UNL     1      -7.526   4.382  64.843  1.00  0.00    -0.073 C  
ENDROOT
BRANCH   2   3
HETATM    3  N   UNL     1      -6.852   5.511  64.025  1.00  0.00    -0.045 N  
HETATM    4  C   UNL     1      -5.507   5.046  63.479  1.00  0.00    -0.013 C  
HETATM    5  C   UNL     1      -7.745   5.938  62.872  1.00  0.00    -0.088 C  
BRANCH   3   6
HETATM    6  C   UNL     1      -6.629   6.690  65.032  1.00  0.00    -0.046 C  
BRANCH   6   7
HETATM    7  C   UNL     1      -7.606   7.846  65.053  1.00  0.00    -0.098 A  
HETATM    8  C   UNL     1      -8.733   7.784  65.898  1.00  0.00    -0.175 A  
HETATM    9  C   UNL     1      -9.641   8.843  65.990  1.00  0.00    -0.320 A  
HETATM   10  C   UNL     1      -9.416  10.014  65.279  1.00  0.00    -0.323 A  
HETATM   11  C   UNL     1      -8.293  10.118  64.462  1.00  0.00    -0.168 A  
HETATM   12  C   UNL     1      -7.401   9.043  64.340  1.00  0.00    -0.099 A  
HETATM   13 BR   UNL     1      -5.912   9.316  63.190  1.00  0.00    -0.090 Br 
ENDBRANCH   6   7
ENDBRANCH   3   6
ENDBRANCH   2   3
TORSDOF 3
ENDMDL
MODEL      247
REMARK 921   NORMALIZED FREE ENERGY PREDICTED BY IDOCK:   -1.40 KCAL/MOL
REMARK 922        TOTAL FREE ENERGY PREDICTED BY IDOCK:   -1.85 KCAL/MOL
REMARK 923 INTER-LIGAND FREE ENERGY PREDICTED BY IDOCK:   -1.79 KCAL/MOL
REMARK 924 INTRA-LIGAND FREE ENERGY PREDICTED BY IDOCK:   -0.06 KCAL/MOL
REMARK 927      BINDING AFFINITY PREDICTED BY RF-SCORE:    0.00 PKD
ROOT
HETATM    1  C   UNL     1      -5.696   6.105  70.828  1.00  0.00    -0.018 C  
HETATM    2  C   UNL     1      -7.075   6.377  70.250  1.00  0.00    -0.078 C  
ENDROOT
BRANCH   2   3
HETATM    3  N   UNL     1      -7.576   7.831  70.426  1.00  0.00    -0.085 N  
HETATM    4  C   UNL     1      -8.770   7.875  71.373  1.00  0.00    -0.127 C  
HETATM    5  C   UNL     1      -6.467   8.715  70.971  1.00  0.00    -0.050 C  
BRANCH   3   6
HETATM    6  C   UNL     1      -8.023   8.302  69.000  1.00  0.00    -0.112 C  
BRANCH   6   7
HETATM    7  C   UNL     1      -8.858   7.378  68.139  1.00  0.00    -0.127 A  
HETATM    8  C   UNL     1     -10.227   7.210  68.432  1.00  0.00    -0.194 A  
HETATM    9  C   UNL     1     -11.053   6.406  67.641  1.00  0.00    -0.388 A  
HETATM   10  C   UNL     1     -10.544   5.792  66.505  1.00  0.00    -0.294 A  
HETATM   11  C   UNL     1      -9.203   5.969  66.170  1.00  0.00    -0.154 A  
HETATM   12  C   UNL     1      -8.364   6.745  66.983  1.00  0.00    -0.114 A  
HETATM   13 BR   UNL     1      -6.557   6.900  66.414  1.00  0.00    -0.053 Br 
ENDBRANCH   6   7
ENDBRANCH   3   6
ENDBRANCH   2   3
TORSDOF 3
ENDMDL
MODEL      248
REMARK 921   NORMALIZED FREE ENERGY PREDICTED BY IDOCK:   -1.36 KCAL/MOL
REMARK 922        TOTAL FREE ENERGY PREDICTED BY IDOCK:   -1.80 KCAL/MOL
REMARK 923 INTER-LIGAND FREE ENERGY PREDICTED BY IDOCK:   -1.85 KCAL/MOL
REMARK 924 INTRA-LIGAND FREE ENERGY PREDICTED BY IDOCK:    0.05 KCAL/MOL
REMARK 927      BINDING AFFINITY PREDICTED BY RF-SCORE:    0.00 PKD
ROOT
HETATM    1  C   UNL     1      -8.096   3.842  65.834  1.00  0.00    -0.101 C  
HETATM    2  C   UNL     1      -7.627   4.842  66.879  1.00  0.00    -0.088 C  
ENDROOT
BRANCH   2   3
HETATM    3  N   UNL     1      -8.157   6.283  66.680  1.00  0.00    -0.108 N  
HETATM    4  C   UNL     1      -7.910   6.751  65.250  1.00  0.00    -0.121 C  
HETATM    5  C   UNL     1      -9.644   6.351  66.983  1.00  0.00    -0.142 C  
BRANCH   3   6
HETATM    6  C   UNL     1      -7.338   7.178  67.672  1.00  0.00    -0.093 C  
BRANCH   6   7
HETATM    7  C   UNL     1      -8.036   7.795  68.866  1.00  0.00    -0.124 A  
HETATM    8  C   UNL     1      -8.532   9.111  68.772  1.00  0.00    -0.130 A  
HETATM    9  C   UNL     1      -9.224   9.711  69.829  1.00  0.00    -0.237 A  
HETATM   10  C   UNL     1      -9.485   8.991  70.986  1.00  0.00    -0.342 A  
HETATM   11  C   UNL     1      -9.038   7.676  71.093  1.00  0.00    -0.152 A  
HETATM   12  C   UNL     1      -8.312   7.084  70.050  1.00  0.00    -0.138 A  
HETATM   13 BR   UNL     1      -7.758   5.287  70.328  1.00  0.00    -0.073 Br 
ENDBRANCH   6   7
ENDBRANCH   3   6
ENDBRANCH   2   3
TORSDOF 3
ENDMDL
MODEL      249
REMARK 921   NORMALIZED FREE ENERGY PREDICTED BY IDOCK:   -1.35 KCAL/MOL
REMARK 922        TOTAL FREE ENERGY PREDICTED BY IDOCK:   -1.80 KCAL/MOL
REMARK 923 INTER-LIGAND FREE ENERGY PREDICTED BY IDOCK:   -1.62 KCAL/MOL
REMARK 924 INTRA-LIGAND FREE ENERGY PREDICTED BY IDOCK:   -0.18 KCAL/MOL
REMARK 927      BINDING AFFINITY PREDICTED BY RF-SCORE:    0.00 PKD
ROOT
HETATM    1  C   UNL     1      -5.513   6.039  70.575  1.00  0.00    -0.013 C  
HETATM    2  C   UNL     1      -6.892   5.762  70.000  1.00  0.00    -0.060 C  
ENDROOT
BRANCH   2   3
HETATM    3  N   UNL     1      -7.782   7.016  69.817  1.00  0.00    -0.106 N  
HETATM    4  C   UNL     1      -8.584   7.292  71.083  1.00  0.00    -0.130 C  
HETATM    5  C   UNL     1      -6.929   8.229  69.484  1.00  0.00    -0.046 C  
BRANCH   3   6
HETATM    6  C   UNL     1      -8.759   6.675  68.641  1.00  0.00    -0.124 C  
BRANCH   6   7
HETATM    7  C   UNL     1      -8.545   7.315  67.286  1.00  0.00    -0.121 A  
HETATM    8  C   UNL     1      -7.610   6.751  66.395  1.00  0.00    -0.089 A  
HETATM    9  C   UNL     1      -7.408   7.275  65.114  1.00  0.00    -0.081 A  
HETATM   10  C   UNL     1      -8.175   8.344  64.672  1.00  0.00    -0.157 A  
HETATM   11  C   UNL     1      -9.132   8.900  65.518  1.00  0.00    -0.248 A  
HETATM   12  C   UNL     1      -9.310   8.400  66.816  1.00  0.00    -0.184 A  
HETATM   13 BR   UNL     1     -10.645   9.253  67.867  1.00  0.00    -0.259 Br 
ENDBRANCH   6   7
ENDBRANCH   3   6
ENDBRANCH   2   3
TORSDOF 3
ENDMDL
MODEL      250
REMARK 921   NORMALIZED FREE ENERGY PREDICTED BY IDOCK:   -1.22 KCAL/MOL
REMARK 922        TOTAL FREE ENERGY PREDICTED BY IDOCK:   -1.63 KCAL/MOL
REMARK 923 INTER-LIGAND FREE ENERGY PREDICTED BY IDOCK:   -1.63 KCAL/MOL
REMARK 924 INTRA-LIGAND FREE ENERGY PREDICTED BY IDOCK:   -0.00 KCAL/MOL
REMARK 927      BINDING AFFINITY PREDICTED BY RF-SCORE:    0.00 PKD
ROOT
HETATM    1  C   UNL     1      -6.731  11.944  67.771  1.00  0.00    -0.087 C  
HETATM    2  C   UNL     1      -5.682  11.014  67.184  1.00  0.00    -0.059 C  
ENDROOT
BRANCH   2   3
HETATM    3  N   UNL     1      -6.243   9.906  66.259  1.00  0.00    -0.065 N  
HETATM    4  C   UNL     1      -7.592  10.322  65.683  1.00  0.00    -0.148 C  
HETATM    5  C   UNL     1      -5.275   9.622  65.122  1.00  0.00    -0.045 C  
BRANCH   3   6
HETATM    6  C   UNL     1      -6.429   8.646  67.169  1.00  0.00    -0.058 C  
BRANCH   6   7
HETATM    7  C   UNL     1      -7.826   8.149  67.476  1.00  0.00    -0.110 A  
HETATM    8  C   UNL     1      -8.443   8.524  68.688  1.00  0.00    -0.131 A  
HETATM    9  C   UNL     1      -9.748   8.131  68.999  1.00  0.00    -0.163 A  
HETATM   10  C   UNL     1     -10.490   7.399  68.082  1.00  0.00    -0.241 A  
HETATM   11  C   UNL     1      -9.920   7.044  66.862  1.00  0.00    -0.283 A  
HETATM   12  C   UNL     1      -8.598   7.405  66.564  1.00  0.00    -0.132 A  
HETATM   13 BR   UNL     1      -7.942   6.854  64.867  1.00  0.00    -0.110 Br 
ENDBRANCH   6   7
ENDBRANCH   3   6
ENDBRANCH   2   3
TORSDOF 3
ENDMDL
MODEL      251
REMARK 921   NORMALIZED FREE ENERGY PREDICTED BY IDOCK:   -1.21 KCAL/MOL
REMARK 922        TOTAL FREE ENERGY PREDICTED BY IDOCK:   -1.63 KCAL/MOL
REMARK 923 INTER-LIGAND FREE ENERGY PREDICTED BY IDOCK:   -1.47 KCAL/MOL
REMARK 924 INTRA-LIGAND FREE ENERGY PREDICTED BY IDOCK:   -0.16 KCAL/MOL
REMARK 927      BINDING AFFINITY PREDICTED BY RF-SCORE:    0.00 PKD
ROOT
HETATM    1  C   UNL     1      -9.800  10.717  65.450  1.00  0.00    -0.325 C  
HETATM    2  C   UNL     1     -10.071  10.817  66.942  1.00  0.00    -0.212 C  
ENDROOT
BRANCH   2   3
HETATM    3  N   UNL     1      -9.392   9.722  67.799  1.00  0.00    -0.134 N  
HETATM    4  C   UNL     1      -9.719   9.918  69.275  1.00  0.00    -0.208 C  
HETATM    5  C   UNL     1      -9.850   8.341  67.359  1.00  0.00    -0.188 C  
BRANCH   3   6
HETATM    6  C   UNL     1      -7.852   9.902  67.577  1.00  0.00    -0.098 C  
BRANCH   6   7
HETATM    7  C   UNL     1      -6.937   8.701  67.698  1.00  0.00    -0.075 A  
HETATM    8  C   UNL     1      -6.518   8.277  68.976  1.00  0.00    -0.047 A  
HETATM    9  C   UNL     1      -5.712   7.148  69.146  1.00  0.00    -0.019 A  
HETATM   10  C   UNL     1      -5.349   6.381  68.048  1.00  0.00    -0.008 A  
HETATM   11  C   UNL     1      -5.777   6.755  66.776  1.00  0.00    -0.018 A  
HETATM   12  C   UNL     1      -6.555   7.909  66.599  1.00  0.00    -0.058 A  
HETATM   13 BR   UNL     1      -7.067   8.307  64.812  1.00  0.00    -0.082 Br 
ENDBRANCH   6   7
ENDBRANCH   3   6
ENDBRANCH   2   3
TORSDOF 3
ENDMDL
MODEL      252
REMARK 921   NORMALIZED FREE ENERGY PREDICTED BY IDOCK:   -1.19 KCAL/MOL
REMARK 922        TOTAL FREE ENERGY PREDICTED BY IDOCK:   -1.60 KCAL/MOL
REMARK 923 INTER-LIGAND FREE ENERGY PREDICTED BY IDOCK:   -1.64 KCAL/MOL
REMARK 924 INTRA-LIGAND FREE ENERGY PREDICTED BY IDOCK:    0.04 KCAL/MOL
REMARK 927      BINDING AFFINITY PREDICTED BY RF-SCORE:    0.00 PKD
ROOT
HETATM    1  C   UNL     1      -6.735  11.908  67.778  1.00  0.00    -0.087 C  
HETATM    2  C   UNL     1      -5.747  10.907  67.202  1.00  0.00    -0.049 C  
ENDROOT
BRANCH   2   3
HETATM    3  N   UNL     1      -6.364   9.875  66.227  1.00  0.00    -0.069 N  
HETATM    4  C   UNL     1      -7.632  10.433  65.589  1.00  0.00    -0.150 C  
HETATM    5  C   UNL     1      -5.369   9.511  65.137  1.00  0.00    -0.045 C  
BRANCH   3   6
HETATM    6  C   UNL     1      -6.724   8.626  67.101  1.00  0.00    -0.063 C  
BRANCH   6   7
HETATM    7  C   UNL     1      -8.164   8.392  67.506  1.00  0.00    -0.125 A  
HETATM    8  C   UNL     1      -9.047   7.776  66.596  1.00  0.00    -0.195 A  
HETATM    9  C   UNL     1     -10.374   7.495  66.937  1.00  0.00    -0.379 A  
HETATM   10  C   UNL     1     -10.836   7.773  68.216  1.00  0.00     0.002 A  
HETATM   11  C   UNL     1      -9.976   8.349  69.148  1.00  0.00    -0.197 A  
HETATM   12  C   UNL     1      -8.656   8.666  68.797  1.00  0.00    -0.130 A  
HETATM   13 BR   UNL     1      -7.592   9.452  70.162  1.00  0.00    -0.153 Br 
ENDBRANCH   6   7
ENDBRANCH   3   6
ENDBRANCH   2   3
TORSDOF 3
ENDMDL
MODEL      253
REMARK 921   NORMALIZED FREE ENERGY PREDICTED BY IDOCK:   -1.13 KCAL/MOL
REMARK 922        TOTAL FREE ENERGY PREDICTED BY IDOCK:   -1.54 KCAL/MOL
REMARK 923 INTER-LIGAND FREE ENERGY PREDICTED BY IDOCK:   -1.49 KCAL/MOL
REMARK 924 INTRA-LIGAND FREE ENERGY PREDICTED BY IDOCK:   -0.05 KCAL/MOL
REMARK 927      BINDING AFFINITY PREDICTED BY RF-SCORE:    0.00 PKD
ROOT
HETATM    1  C   UNL     1      -8.922   7.986  65.874  1.00  0.00    -0.181 C  
HETATM    2  C   UNL     1      -8.155   7.936  67.185  1.00  0.00    -0.117 C  
ENDROOT
BRANCH   2   3
HETATM    3  N   UNL     1      -9.021   7.630  68.431  1.00  0.00    -0.129 N  
HETATM    4  C   UNL     1      -9.441   8.923  69.122  1.00  0.00    -0.157 C  
HETATM    5  C   UNL     1     -10.261   6.843  68.038  1.00  0.00    -0.176 C  
BRANCH   3   6
HETATM    6  C   UNL     1      -8.106   6.797  69.391  1.00  0.00    -0.123 C  
BRANCH   6   7
HETATM    7  C   UNL     1      -7.626   7.417  70.687  1.00  0.00    -0.086 A  
HETATM    8  C   UNL     1      -8.366   7.208  71.869  1.00  0.00    -0.106 A  
HETATM    9  C   UNL     1      -7.941   7.720  73.099  1.00  0.00    -0.168 A  
HETATM   10  C   UNL     1      -6.738   8.407  73.188  1.00  0.00    -0.113 A  
HETATM   11  C   UNL     1      -5.969   8.598  72.043  1.00  0.00    -0.065 A  
HETATM   12  C   UNL     1      -6.411   8.119  70.802  1.00  0.00    -0.036 A  
HETATM   13 BR   UNL     1      -5.268   8.452  69.320  1.00  0.00    -0.031 Br 
ENDBRANCH   6   7
ENDBRANCH   3   6
ENDBRANCH   2   3
TORSDOF 3
ENDMDL
MODEL      254
REMARK 921   NORMALIZED FREE ENERGY PREDICTED BY IDOCK:   -1.12 KCAL/MOL
REMARK 922        TOTAL FREE ENERGY PREDICTED BY IDOCK:   -1.52 KCAL/MOL
REMARK 923 INTER-LIGAND FREE ENERGY PREDICTED BY IDOCK:   -1.44 KCAL/MOL
REMARK 924 INTRA-LIGAND FREE ENERGY PREDICTED BY IDOCK:   -0.08 KCAL/MOL
REMARK 927      BINDING AFFINITY PREDICTED BY RF-SCORE:    0.00 PKD
ROOT
HETATM    1  C   UNL     1      -9.843   5.911  71.638  1.00  0.00    -0.197 C  
HETATM    2  C   UNL     1      -9.071   5.493  70.398  1.00  0.00    -0.139 C  
ENDROOT
BRANCH   2   3
HETATM    3  N   UNL     1      -7.675   6.144  70.252  1.00  0.00    -0.095 N  
HETATM    4  C   UNL     1      -6.814   5.842  71.473  1.00  0.00    -0.067 C  
HETATM    5  C   UNL     1      -6.976   5.633  69.003  1.00  0.00    -0.063 C  
BRANCH   3   6
HETATM    6  C   UNL     1      -7.933   7.687  70.162  1.00  0.00    -0.109 C  
BRANCH   6   7
HETATM    7  C   UNL     1      -7.605   8.423  68.880  1.00  0.00    -0.096 A  
HETATM    8  C   UNL     1      -6.269   8.790  68.617  1.00  0.00    -0.046 A  
HETATM    9  C   UNL     1      -5.906   9.430  67.427  1.00  0.00    -0.045 A  
HETATM   10  C   UNL     1      -6.859   9.669  66.447  1.00  0.00    -0.084 A  
HETATM   11  C   UNL     1      -8.180   9.284  66.665  1.00  0.00    -0.115 A  
HETATM   12  C   UNL     1      -8.554   8.677  67.872  1.00  0.00    -0.137 A  
HETATM   13 BR   UNL     1     -10.388   8.207  68.040  1.00  0.00    -0.250 Br 
ENDBRANCH   6   7
ENDBRANCH   3   6
ENDBRANCH   2   3
TORSDOF 3
ENDMDL
MODEL      255
REMARK 921   NORMALIZED FREE ENERGY PREDICTED BY IDOCK:   -1.03 KCAL/MOL
REMARK 922        TOTAL FREE ENERGY PREDICTED BY IDOCK:   -1.42 KCAL/MOL
REMARK 923 INTER-LIGAND FREE ENERGY PREDICTED BY IDOCK:   -1.25 KCAL/MOL
REMARK 924 INTRA-LIGAND FREE ENERGY PREDICTED BY IDOCK:   -0.16 KCAL/MOL
REMARK 927      BINDING AFFINITY PREDICTED BY RF-SCORE:    0.00 PKD
ROOT
HETATM    1  C   UNL     1      -9.022   4.571  65.843  1.00  0.00    -0.125 C  
HETATM    2  C   UNL     1      -7.608   4.946  66.255  1.00  0.00    -0.087 C  
ENDROOT
BRANCH   2   3
HETATM    3  N   UNL     1      -7.185   6.388  65.883  1.00  0.00    -0.076 N  
HETATM    4  C   UNL     1      -5.886   6.375  65.084  1.00  0.00    -0.022 C  
HETATM    5  C   UNL     1      -8.272   7.068  65.067  1.00  0.00    -0.090 C  
BRANCH   3   6
HETATM    6  C   UNL     1      -6.955   7.129  67.243  1.00  0.00    -0.078 C  
BRANCH   6   7
HETATM    7  C   UNL     1      -7.350   6.448  68.537  1.00  0.00    -0.087 A  
HETATM    8  C   UNL     1      -6.379   5.727  69.262  1.00  0.00    -0.040 A  
HETATM    9  C   UNL     1      -6.679   5.119  70.485  1.00  0.00    -0.040 A  
HETATM   10  C   UNL     1      -7.943   5.262  71.041  1.00  0.00    -0.103 A  
HETATM   11  C   UNL     1      -8.912   5.999  70.364  1.00  0.00    -0.153 A  
HETATM   12  C   UNL     1      -8.625   6.578  69.120  1.00  0.00    -0.129 A  
HETATM   13 BR   UNL     1     -10.038   7.552  68.303  1.00  0.00    -0.222 Br 
ENDBRANCH   6   7
ENDBRANCH   3   6
ENDBRANCH   2   3
TORSDOF 3
ENDMDL
MODEL      256
REMARK 921   NORMALIZED FREE ENERGY PREDICTED BY IDOCK:   -1.00 KCAL/MOL
REMARK 922        TOTAL FREE ENERGY PREDICTED BY IDOCK:   -1.38 KCAL/MOL
REMARK 923 INTER-LIGAND FREE ENERGY PREDICTED BY IDOCK:   -2.02 KCAL/MOL
REMARK 924 INTRA-LIGAND FREE ENERGY PREDICTED BY IDOCK:    0.64 KCAL/MOL
REMARK 927      BINDING AFFINITY PREDICTED BY RF-SCORE:    0.00 PKD
ROOT
HETATM    1  C   UNL     1     -10.278   4.475  64.895  1.00  0.00    -0.048 C  
HETATM    2  C   UNL     1      -8.908   4.649  65.530  1.00  0.00    -0.134 C  
ENDROOT
BRANCH   2   3
HETATM    3  N   UNL     1      -8.893   5.516  66.813  1.00  0.00    -0.113 N  
HETATM    4  C   UNL     1     -10.160   5.285  67.629  1.00  0.00    -0.171 C  
HETATM    5  C   UNL     1      -7.677   5.188  67.663  1.00  0.00    -0.088 C  
BRANCH   3   6
HETATM    6  C   UNL     1      -8.852   7.002  66.321  1.00  0.00    -0.148 C  
BRANCH   6   7
HETATM    7  C   UNL     1      -9.126   8.120  67.305  1.00  0.00    -0.156 A  
HETATM    8  C   UNL     1      -8.948   7.886  68.684  1.00  0.00    -0.134 A  
HETATM    9  C   UNL     1      -9.142   8.896  69.631  1.00  0.00    -0.151 A  
HETATM   10  C   UNL     1      -9.466  10.181  69.219  1.00  0.00    -0.231 A  
HETATM   11  C   UNL     1      -9.614  10.451  67.860  1.00  0.00    -0.157 A  
HETATM   12  C   UNL     1      -9.457   9.431  66.911  1.00  0.00    -0.156 A  
HETATM   13 BR   UNL     1      -9.691   9.934  65.093  1.00  0.00    -0.333 Br 
ENDBRANCH   6   7
ENDBRANCH   3   6
ENDBRANCH   2   3
TORSDOF 3
ENDMDL
MODEL      257
REMARK 921   NORMALIZED FREE ENERGY PREDICTED BY IDOCK:   -0.98 KCAL/MOL
REMARK 922        TOTAL FREE ENERGY PREDICTED BY IDOCK:   -1.36 KCAL/MOL
REMARK 923 INTER-LIGAND FREE ENERGY PREDICTED BY IDOCK:   -1.61 KCAL/MOL
REMARK 924 INTRA-LIGAND FREE ENERGY PREDICTED BY IDOCK:    0.25 KCAL/MOL
REMARK 927      BINDING AFFINITY PREDICTED BY RF-SCORE:    0.00 PKD
ROOT
HETATM    1  C   UNL     1     -10.958   5.513  72.858  1.00  0.00    -0.332 C  
HETATM    2  C   UNL     1     -10.838   5.622  71.347  1.00  0.00    -0.222 C  
ENDROOT
BRANCH   2   3
HETATM    3  N   UNL     1      -9.419   5.355  70.788  1.00  0.00    -0.161 N  
HETATM    4  C   UNL     1      -8.362   5.990  71.685  1.00  0.00    -0.127 C  
HETATM    5  C   UNL     1      -9.161   3.861  70.684  1.00  0.00    -0.127 C  
BRANCH   3   6
HETATM    6  C   UNL     1      -9.383   6.033  69.377  1.00  0.00    -0.131 C  
BRANCH   6   7
HETATM    7  C   UNL     1      -8.153   6.808  68.955  1.00  0.00    -0.120 A  
HETATM    8  C   UNL     1      -7.893   8.064  69.541  1.00  0.00    -0.105 A  
HETATM    9  C   UNL     1      -6.748   8.800  69.221  1.00  0.00    -0.050 A  
HETATM   10  C   UNL     1      -5.806   8.274  68.348  1.00  0.00    -0.041 A  
HETATM   11  C   UNL     1      -6.018   7.019  67.781  1.00  0.00    -0.029 A  
HETATM   12  C   UNL     1      -7.184   6.296  68.071  1.00  0.00    -0.087 A  
HETATM   13 BR   UNL     1      -7.351   4.602  67.226  1.00  0.00    -0.074 Br 
ENDBRANCH   6   7
ENDBRANCH   3   6
ENDBRANCH   2   3
TORSDOF 3
ENDMDL
MODEL      258
REMARK 921   NORMALIZED FREE ENERGY PREDICTED BY IDOCK:   -0.90 KCAL/MOL
REMARK 922        TOTAL FREE ENERGY PREDICTED BY IDOCK:   -1.26 KCAL/MOL
REMARK 923 INTER-LIGAND FREE ENERGY PREDICTED BY IDOCK:   -1.18 KCAL/MOL
REMARK 924 INTRA-LIGAND FREE ENERGY PREDICTED BY IDOCK:   -0.08 KCAL/MOL
REMARK 927      BINDING AFFINITY PREDICTED BY RF-SCORE:    0.00 PKD
ROOT
HETATM    1  C   UNL     1      -5.428   6.059  70.581  1.00  0.00    -0.013 C  
HETATM    2  C   UNL     1      -6.653   5.591  69.813  1.00  0.00    -0.050 C  
ENDROOT
BRANCH   2   3
HETATM    3  N   UNL     1      -7.690   6.699  69.509  1.00  0.00    -0.102 N  
HETATM    4  C   UNL     1      -8.780   6.718  70.575  1.00  0.00    -0.147 C  
HETATM    5  C   UNL     1      -7.015   8.059  69.453  1.00  0.00    -0.055 C  
BRANCH   3   6
HETATM    6  C   UNL     1      -8.319   6.325  68.125  1.00  0.00    -0.115 C  
BRANCH   6   7
HETATM    7  C   UNL     1      -8.156   4.918  67.589  1.00  0.00    -0.094 A  
HETATM    8  C   UNL     1      -8.997   3.894  68.069  1.00  0.00    -0.155 A  
HETATM    9  C   UNL     1      -8.919   2.588  67.574  1.00  0.00    -0.191 A  
HETATM   10  C   UNL     1      -8.035   2.286  66.547  1.00  0.00    -0.077 A  
HETATM   11  C   UNL     1      -7.216   3.287  66.028  1.00  0.00    -0.071 A  
HETATM   12  C   UNL     1      -7.266   4.588  66.549  1.00  0.00    -0.080 A  
HETATM   13 BR   UNL     1      -6.093   5.854  65.753  1.00  0.00    -0.033 Br 
ENDBRANCH   6   7
ENDBRANCH   3   6
ENDBRANCH   2   3
TORSDOF 3
ENDMDL
MODEL      259
REMARK 921   NORMALIZED FREE ENERGY PREDICTED BY IDOCK:   -0.66 KCAL/MOL
REMARK 922        TOTAL FREE ENERGY PREDICTED BY IDOCK:   -0.98 KCAL/MOL
REMARK 923 INTER-LIGAND FREE ENERGY PREDICTED BY IDOCK:   -1.15 KCAL/MOL
REMARK 924 INTRA-LIGAND FREE ENERGY PREDICTED BY IDOCK:    0.17 KCAL/MOL
REMARK 927      BINDING AFFINITY PREDICTED BY RF-SCORE:    0.00 PKD
ROOT
HETATM    1  C   UNL     1     -10.691  11.148  65.365  1.00  0.00    -0.259 C  
HETATM    2  C   UNL     1     -10.577  12.168  66.486  1.00  0.00    -0.237 C  
ENDROOT
BRANCH   2   3
HETATM    3  N   UNL     1      -9.129  12.481  66.934  1.00  0.00    -0.209 N  
HETATM    4  C   UNL     1      -8.145  11.525  66.267  1.00  0.00    -0.014 C  
HETATM    5  C   UNL     1      -8.759  13.912  66.581  1.00  0.00    -0.013 C  
BRANCH   3   6
HETATM    6  C   UNL     1      -9.105  12.259  68.484  1.00  0.00    -0.076 C  
BRANCH   6   7
HETATM    7  C   UNL     1      -7.843  11.742  69.143  1.00  0.00     0.159 A  
HETATM    8  C   UNL     1      -7.675  10.353  69.319  1.00  0.00    -0.140 A  
HETATM    9  C   UNL     1      -6.509   9.822  69.879  1.00  0.00    -0.062 A  
HETATM   10  C   UNL     1      -5.460  10.661  70.227  1.00  0.00    -0.067 A  
HETATM   11  C   UNL     1      -5.584  12.034  70.032  1.00  0.00    -0.123 A  
HETATM   12  C   UNL     1      -6.767  12.574  69.505  1.00  0.00     0.019 A  
HETATM   13 BR   UNL     1      -6.806  14.462  69.295  1.00  0.00    -0.130 Br 
ENDBRANCH   6   7
ENDBRANCH   3   6
ENDBRANCH   2   3
TORSDOF 3
ENDMDL
MODEL      260
REMARK 921   NORMALIZED FREE ENERGY PREDICTED BY IDOCK:   -0.49 KCAL/MOL
REMARK 922        TOTAL FREE ENERGY PREDICTED BY IDOCK:   -0.78 KCAL/MOL
REMARK 923 INTER-LIGAND FREE ENERGY PREDICTED BY IDOCK:   -1.46 KCAL/MOL
REMARK 924 INTRA-LIGAND FREE ENERGY PREDICTED BY IDOCK:    0.67 KCAL/MOL
REMARK 927      BINDING AFFINITY PREDICTED BY RF-SCORE:    0.00 PKD
ROOT
HETATM    1  C   UNL     1      -9.752  14.168  67.890  1.00  0.00    -0.224 C  
HETATM    2  C   UNL     1     -10.434  12.840  67.604  1.00  0.00    -0.220 C  
ENDROOT
BRANCH   2   3
HETATM    3  N   UNL     1      -9.962  11.664  68.494  1.00  0.00    -0.197 N  
HETATM    4  C   UNL     1      -8.557  11.927  69.026  1.00  0.00     0.291 C  
HETATM    5  C   UNL     1     -10.914  11.464  69.660  1.00  0.00    -0.110 C  
BRANCH   3   6
HETATM    6  C   UNL     1      -9.940  10.407  67.561  1.00  0.00    -0.181 C  
BRANCH   6   7
HETATM    7  C   UNL     1      -8.642   9.990  66.903  1.00  0.00    -0.128 A  
HETATM    8  C   UNL     1      -7.695  10.976  66.556  1.00  0.00    -0.154 A  
HETATM    9  C   UNL     1      -6.461  10.640  65.990  1.00  0.00    -0.129 A  
HETATM   10  C   UNL     1      -6.120   9.308  65.805  1.00  0.00    -0.056 A  
HETATM   11  C   UNL     1      -7.022   8.310  66.171  1.00  0.00    -0.062 A  
HETATM   12  C   UNL     1      -8.274   8.645  66.705  1.00  0.00    -0.107 A  
HETATM   13 BR   UNL     1      -9.409   7.188  67.156  1.00  0.00    -0.180 Br 
ENDBRANCH   6   7
ENDBRANCH   3   6
ENDBRANCH   2   3
TORSDOF 3
ENDMDL
MODEL      261
REMARK 921   NORMALIZED FREE ENERGY PREDICTED BY IDOCK:    6.60 KCAL/MOL
REMARK 922        TOTAL FREE ENERGY PREDICTED BY IDOCK:    7.55 KCAL/MOL
REMARK 923 INTER-LIGAND FREE ENERGY PREDICTED BY IDOCK:    7.13 KCAL/MOL
REMARK 924 INTRA-LIGAND FREE ENERGY PREDICTED BY IDOCK:    0.42 KCAL/MOL
REMARK 927      BINDING AFFINITY PREDICTED BY RF-SCORE:    0.00 PKD
ROOT
HETATM    1  C   UNL     1     -10.549   9.204  63.536  1.00  0.00     5.904 C  
HETATM    2  C   UNL     1      -9.612   8.234  64.236  1.00  0.00     2.302 C  
ENDROOT
BRANCH   2   3
HETATM    3  N   UNL     1      -9.274   8.601  65.701  1.00  0.00    -0.178 N  
HETATM    4  C   UNL     1      -9.349  10.111  65.905  1.00  0.00    -0.175 C  
HETATM    5  C   UNL     1     -10.236   7.915  66.657  1.00  0.00    -0.233 C  
BRANCH   3   6
HETATM    6  C   UNL     1      -7.804   8.114  65.934  1.00  0.00    -0.094 C  
BRANCH   6   7
HETATM    7  C   UNL     1      -6.937   7.769  64.742  1.00  0.00    -0.055 A  
HETATM    8  C   UNL     1      -7.272   6.658  63.941  1.00  0.00    -0.064 A  
HETATM    9  C   UNL     1      -6.531   6.325  62.803  1.00  0.00    -0.033 A  
HETATM   10  C   UNL     1      -5.469   7.125  62.405  1.00  0.00    -0.037 A  
HETATM   11  C   UNL     1      -5.137   8.250  63.157  1.00  0.00    -0.050 A  
HETATM   12  C   UNL     1      -5.855   8.565  64.320  1.00  0.00    -0.065 A  
HETATM   13 BR   UNL     1      -5.294  10.123  65.254  1.00  0.00    -0.088 Br 
ENDBRANCH   6   7
ENDBRANCH   3   6
ENDBRANCH   2   3
TORSDOF 3
ENDMDL
