MODEL        1
REMARK 921   NORMALIZED FREE ENERGY PREDICTED BY IDOCK:   -7.41 KCAL/MOL
REMARK 922        TOTAL FREE ENERGY PREDICTED BY IDOCK:   -7.45 KCAL/MOL
REMARK 923 INTER-LIGAND FREE ENERGY PREDICTED BY IDOCK:   -7.84 KCAL/MOL
REMARK 924 INTRA-LIGAND FREE ENERGY PREDICTED BY IDOCK:    0.39 KCAL/MOL
REMARK 927      BINDING AFFINITY PREDICTED BY RF-SCORE:    0.00 PKD
ROOT
HETATM    1  C   UNL     1     -10.311  14.672  65.371  1.00  0.00    -0.406 C  
HETATM    2  C   UNL     1     -12.341  13.886  63.984  1.00  0.00    -0.355 C  
HETATM    3  C   UNL     1     -10.250  14.655  66.891  1.00  0.00    -0.262 C  
HETATM    4  C   UNL     1     -11.703  14.331  67.229  1.00  0.00    -0.422 C  
HETATM    5  C   UNL     1     -11.305  13.414  65.045  1.00  0.00    -0.330 C  
HETATM    6  C   UNL     1     -10.761  12.072  64.421  1.00  0.00    -0.369 C  
HETATM    7  C   UNL     1     -11.919  13.033  66.447  1.00  0.00    -0.466 C  
HETATM    8  C   UNL     1     -11.177  11.925  67.287  1.00  0.00    -0.376 C  
HETATM    9  C   UNL     1     -11.908  11.672  68.584  1.00  0.00    -0.370 C  
HETATM   10  C   UNL     1     -10.948  11.000  69.547  1.00  0.00    -0.297 C  
HETATM   11  C   UNL     1     -10.687   9.584  69.048  1.00  0.00    -0.224 C  
HETATM   12  C   UNL     1      -9.937   8.812  70.157  1.00  0.00    -0.201 C  
HETATM   13  C   UNL     1      -8.417   8.869  70.142  1.00  0.00    -0.146 C  
HETATM   14  O   UNL     1      -7.939   9.962  70.906  1.00  0.00    -0.379 OA 
HETATM   15  C   UNL     1      -7.805   8.877  68.740  1.00  0.00    -0.101 C  
HETATM   16  H   UNL     1      -6.990   9.998  70.897  1.00  0.00     0.000 HD 
HETATM   17  C   UNL     1      -8.531   9.760  67.701  1.00  0.00    -0.122 C  
HETATM   18  C   UNL     1     -10.071   9.539  67.594  1.00  0.00    -0.254 C  
HETATM   19  C   UNL     1     -10.304   8.113  67.032  1.00  0.00    -0.403 C  
HETATM   20  C   UNL     1     -10.833  10.600  66.583  1.00  0.00    -0.197 C  
HETATM   21  C   UNL     1     -10.084  10.970  65.279  1.00  0.00    -0.332 C  
ENDROOT
BRANCH   1  22
HETATM   22  C   UNL     1     -10.725  16.203  65.155  1.00  0.00    -0.371 C  
HETATM   23  C   UNL     1     -10.384  17.190  66.283  1.00  0.00    -0.315 C  
HETATM   24  O   UNL     1     -11.362  16.619  64.200  1.00  0.00    -1.141 OA 
ENDBRANCH   1  22
TORSDOF 1
ENDMDL
MODEL        2
REMARK 921   NORMALIZED FREE ENERGY PREDICTED BY IDOCK:   -7.07 KCAL/MOL
REMARK 922        TOTAL FREE ENERGY PREDICTED BY IDOCK:   -7.09 KCAL/MOL
REMARK 923 INTER-LIGAND FREE ENERGY PREDICTED BY IDOCK:   -7.32 KCAL/MOL
REMARK 924 INTRA-LIGAND FREE ENERGY PREDICTED BY IDOCK:    0.22 KCAL/MOL
REMARK 927      BINDING AFFINITY PREDICTED BY RF-SCORE:    0.00 PKD
ROOT
HETATM    1  C   UNL     1      -8.503  18.022  67.172  1.00  0.00    -0.241 C  
HETATM    2  C   UNL     1     -10.595  19.352  66.455  1.00  0.00    -0.558 C  
HETATM    3  C   UNL     1      -8.456  17.065  68.355  1.00  0.00    -0.239 C  
HETATM    4  C   UNL     1      -9.799  17.365  69.015  1.00  0.00    -0.230 C  
HETATM    5  C   UNL     1     -10.062  17.909  66.690  1.00  0.00    -0.362 C  
HETATM    6  C   UNL     1     -10.462  17.172  65.354  1.00  0.00    -0.096 C  
HETATM    7  C   UNL     1     -10.772  17.122  67.859  1.00  0.00    -0.355 C  
HETATM    8  C   UNL     1     -10.862  15.554  67.727  1.00  0.00    -0.309 C  
HETATM    9  C   UNL     1     -11.587  14.968  68.916  1.00  0.00    -0.349 C  
HETATM   10  C   UNL     1     -11.237  13.496  69.008  1.00  0.00    -0.314 C  
HETATM   11  C   UNL     1     -11.904  12.774  67.843  1.00  0.00    -0.392 C  
HETATM   12  C   UNL     1     -11.780  11.253  68.082  1.00  0.00    -0.323 C  
HETATM   13  C   UNL     1     -10.546  10.557  67.528  1.00  0.00    -0.259 C  
HETATM   14  O   UNL     1      -9.492  10.554  68.475  1.00  0.00    -0.151 OA 
HETATM   15  C   UNL     1     -10.067  11.109  66.185  1.00  0.00    -0.284 C  
HETATM   16  H   UNL     1      -8.722  10.119  68.130  1.00  0.00     0.000 HD 
HETATM   17  C   UNL     1     -10.103  12.647  66.044  1.00  0.00    -0.274 C  
HETATM   18  C   UNL     1     -11.455  13.323  66.432  1.00  0.00    -0.364 C  
HETATM   19  C   UNL     1     -12.518  12.875  65.396  1.00  0.00    -0.511 C  
HETATM   20  C   UNL     1     -11.410  14.973  66.411  1.00  0.00    -0.275 C  
HETATM   21  C   UNL     1     -10.599  15.629  65.265  1.00  0.00    -0.448 C  
ENDROOT
BRANCH   1  22
HETATM   22  C   UNL     1      -7.890  19.321  67.879  1.00  0.00    -0.289 C  
HETATM   23  C   UNL     1      -7.245  20.380  66.969  1.00  0.00    -0.347 C  
HETATM   24  O   UNL     1      -7.828  19.486  69.087  1.00  0.00    -0.348 OA 
ENDBRANCH   1  22
TORSDOF 1
ENDMDL
MODEL        3
REMARK 921   NORMALIZED FREE ENERGY PREDICTED BY IDOCK:   -6.95 KCAL/MOL
REMARK 922        TOTAL FREE ENERGY PREDICTED BY IDOCK:   -6.96 KCAL/MOL
REMARK 923 INTER-LIGAND FREE ENERGY PREDICTED BY IDOCK:   -7.21 KCAL/MOL
REMARK 924 INTRA-LIGAND FREE ENERGY PREDICTED BY IDOCK:    0.25 KCAL/MOL
REMARK 927      BINDING AFFINITY PREDICTED BY RF-SCORE:    0.00 PKD
ROOT
HETATM    1  C   UNL     1     -10.878  13.282  65.064  1.00  0.00    -0.335 C  
HETATM    2  C   UNL     1     -10.840  11.770  67.155  1.00  0.00    -0.303 C  
HETATM    3  C   UNL     1     -11.492  14.674  65.021  1.00  0.00    -0.386 C  
HETATM    4  C   UNL     1     -12.210  14.709  66.367  1.00  0.00    -0.157 C  
HETATM    5  C   UNL     1     -10.390  13.161  66.621  1.00  0.00    -0.265 C  
HETATM    6  C   UNL     1      -8.864  13.204  67.014  1.00  0.00    -0.212 C  
HETATM    7  C   UNL     1     -11.066  14.395  67.335  1.00  0.00    -0.317 C  
HETATM    8  C   UNL     1     -10.231  15.728  67.422  1.00  0.00    -0.270 C  
HETATM    9  C   UNL     1     -11.016  16.793  68.151  1.00  0.00    -0.309 C  
HETATM   10  C   UNL     1     -10.425  18.144  67.799  1.00  0.00    -0.421 C  
HETATM   11  C   UNL     1      -9.056  18.251  68.461  1.00  0.00    -0.328 C  
HETATM   12  C   UNL     1      -8.572  19.713  68.335  1.00  0.00    -0.357 C  
HETATM   13  C   UNL     1      -7.767  20.080  67.098  1.00  0.00    -0.292 C  
HETATM   14  O   UNL     1      -8.612  20.517  66.049  1.00  0.00    -0.539 OA 
HETATM   15  C   UNL     1      -6.827  18.974  66.615  1.00  0.00    -0.209 C  
HETATM   16  H   UNL     1      -8.109  20.746  65.276  1.00  0.00     0.000 HD 
HETATM   17  C   UNL     1      -7.406  17.543  66.652  1.00  0.00    -0.273 C  
HETATM   18  C   UNL     1      -8.054  17.118  68.006  1.00  0.00    -0.210 C  
HETATM   19  C   UNL     1      -6.923  17.041  69.064  1.00  0.00    -0.229 C  
HETATM   20  C   UNL     1      -8.792  15.641  67.964  1.00  0.00    -0.169 C  
HETATM   21  C   UNL     1      -8.077  14.535  67.149  1.00  0.00    -0.196 C  
ENDROOT
BRANCH   1  22
HETATM   22  C   UNL     1     -12.104  12.451  64.456  1.00  0.00    -0.417 C  
HETATM   23  C   UNL     1     -11.827  11.599  63.206  1.00  0.00    -0.232 C  
HETATM   24  O   UNL     1     -13.252  12.514  64.866  1.00  0.00    -0.787 OA 
ENDBRANCH   1  22
TORSDOF 1
ENDMDL
MODEL        4
REMARK 921   NORMALIZED FREE ENERGY PREDICTED BY IDOCK:   -6.62 KCAL/MOL
REMARK 922        TOTAL FREE ENERGY PREDICTED BY IDOCK:   -6.61 KCAL/MOL
REMARK 923 INTER-LIGAND FREE ENERGY PREDICTED BY IDOCK:   -6.84 KCAL/MOL
REMARK 924 INTRA-LIGAND FREE ENERGY PREDICTED BY IDOCK:    0.23 KCAL/MOL
REMARK 927      BINDING AFFINITY PREDICTED BY RF-SCORE:    0.00 PKD
ROOT
HETATM    1  C   UNL     1      -8.405  17.951  66.992  1.00  0.00    -0.248 C  
HETATM    2  C   UNL     1     -10.655  19.186  67.257  1.00  0.00    -0.573 C  
HETATM    3  C   UNL     1      -7.990  16.735  67.808  1.00  0.00    -0.187 C  
HETATM    4  C   UNL     1      -9.095  16.709  68.860  1.00  0.00    -0.238 C  
HETATM    5  C   UNL     1     -10.033  17.797  66.934  1.00  0.00    -0.332 C  
HETATM    6  C   UNL     1     -10.776  17.387  65.605  1.00  0.00    -0.113 C  
HETATM    7  C   UNL     1     -10.352  16.666  67.986  1.00  0.00    -0.303 C  
HETATM    8  C   UNL     1     -10.427  15.183  67.458  1.00  0.00    -0.258 C  
HETATM    9  C   UNL     1     -10.761  14.239  68.588  1.00  0.00    -0.256 C  
HETATM   10  C   UNL     1     -10.354  12.839  68.174  1.00  0.00    -0.243 C  
HETATM   11  C   UNL     1     -11.306  12.371  67.078  1.00  0.00    -0.388 C  
HETATM   12  C   UNL     1     -11.071  10.862  66.847  1.00  0.00    -0.236 C  
HETATM   13  C   UNL     1     -10.027  10.467  65.813  1.00  0.00    -0.270 C  
HETATM   14  O   UNL     1      -8.746  10.336  66.405  1.00  0.00    -0.132 OA 
HETATM   15  C   UNL     1      -9.972  11.392  64.597  1.00  0.00    -0.315 C  
HETATM   16  H   UNL     1      -8.095  10.089  65.759  1.00  0.00     0.000 HD 
HETATM   17  C   UNL     1     -10.094  12.901  64.900  1.00  0.00    -0.229 C  
HETATM   18  C   UNL     1     -11.298  13.306  65.806  1.00  0.00    -0.328 C  
HETATM   19  C   UNL     1     -12.599  13.026  65.012  1.00  0.00    -0.515 C  
HETATM   20  C   UNL     1     -11.312  14.903  66.230  1.00  0.00    -0.306 C  
HETATM   21  C   UNL     1     -10.885  15.912  65.135  1.00  0.00    -0.438 C  
ENDROOT
BRANCH   1  22
HETATM   22  C   UNL     1      -7.655  19.084  67.838  1.00  0.00    -0.263 C  
HETATM   23  C   UNL     1      -7.354  20.412  67.123  1.00  0.00    -0.355 C  
HETATM   24  O   UNL     1      -7.238  18.936  68.975  1.00  0.00    -0.312 OA 
ENDBRANCH   1  22
TORSDOF 1
ENDMDL
MODEL        5
REMARK 921   NORMALIZED FREE ENERGY PREDICTED BY IDOCK:   -6.61 KCAL/MOL
REMARK 922        TOTAL FREE ENERGY PREDICTED BY IDOCK:   -6.61 KCAL/MOL
REMARK 923 INTER-LIGAND FREE ENERGY PREDICTED BY IDOCK:   -6.90 KCAL/MOL
REMARK 924 INTRA-LIGAND FREE ENERGY PREDICTED BY IDOCK:    0.30 KCAL/MOL
REMARK 927      BINDING AFFINITY PREDICTED BY RF-SCORE:    0.00 PKD
ROOT
HETATM    1  C   UNL     1     -10.561  13.815  64.988  1.00  0.00    -0.402 C  
HETATM    2  C   UNL     1     -12.386  12.450  63.777  1.00  0.00    -0.625 C  
HETATM    3  C   UNL     1     -10.484  13.999  66.496  1.00  0.00    -0.281 C  
HETATM    4  C   UNL     1     -11.829  13.417  66.922  1.00  0.00    -0.453 C  
HETATM    5  C   UNL     1     -11.263  12.343  64.848  1.00  0.00    -0.353 C  
HETATM    6  C   UNL     1     -10.448  11.082  64.369  1.00  0.00    -0.422 C  
HETATM    7  C   UNL     1     -11.767  12.016  66.307  1.00  0.00    -0.319 C  
HETATM    8  C   UNL     1     -10.795  11.205  67.245  1.00  0.00    -0.326 C  
HETATM    9  C   UNL     1     -11.442  10.963  68.588  1.00  0.00    -0.380 C  
HETATM   10  C   UNL     1     -10.352  10.635  69.589  1.00  0.00    -0.185 C  
HETATM   11  C   UNL     1      -9.795   9.257  69.253  1.00  0.00    -0.172 C  
HETATM   12  C   UNL     1      -8.886   8.806  70.417  1.00  0.00    -0.185 C  
HETATM   13  C   UNL     1      -7.414   9.183  70.342  1.00  0.00    -0.106 C  
HETATM   14  O   UNL     1      -7.177  10.439  70.954  1.00  0.00    -0.367 OA 
HETATM   15  C   UNL     1      -6.832   9.148  68.929  1.00  0.00    -0.056 C  
HETATM   16  H   UNL     1      -6.258  10.675  70.907  1.00  0.00     0.000 HD 
HETATM   17  C   UNL     1      -7.740   9.721  67.819  1.00  0.00    -0.091 C  
HETATM   18  C   UNL     1      -9.198   9.166  67.794  1.00  0.00    -0.145 C  
HETATM   19  C   UNL     1      -9.122   7.665  67.412  1.00  0.00    -0.136 C  
HETATM   20  C   UNL     1     -10.180   9.906  66.692  1.00  0.00    -0.293 C  
HETATM   21  C   UNL     1      -9.541  10.265  65.327  1.00  0.00    -0.324 C  
ENDROOT
BRANCH   1  22
HETATM   22  C   UNL     1     -11.298  15.184  64.607  1.00  0.00    -0.356 C  
HETATM   23  C   UNL     1     -10.734  16.480  65.212  1.00  0.00    -0.269 C  
HETATM   24  O   UNL     1     -12.319  15.257  63.941  1.00  0.00    -0.655 OA 
ENDBRANCH   1  22
TORSDOF 1
ENDMDL
MODEL        6
REMARK 921   NORMALIZED FREE ENERGY PREDICTED BY IDOCK:   -6.60 KCAL/MOL
REMARK 922        TOTAL FREE ENERGY PREDICTED BY IDOCK:   -6.60 KCAL/MOL
REMARK 923 INTER-LIGAND FREE ENERGY PREDICTED BY IDOCK:   -6.85 KCAL/MOL
REMARK 924 INTRA-LIGAND FREE ENERGY PREDICTED BY IDOCK:    0.25 KCAL/MOL
REMARK 927      BINDING AFFINITY PREDICTED BY RF-SCORE:    0.00 PKD
ROOT
HETATM    1  C   UNL     1     -10.325  14.215  67.103  1.00  0.00    -0.265 C  
HETATM    2  C   UNL     1     -12.309  13.645  65.554  1.00  0.00    -0.519 C  
HETATM    3  C   UNL     1     -10.336  14.039  68.615  1.00  0.00    -0.238 C  
HETATM    4  C   UNL     1     -11.811  13.730  68.853  1.00  0.00    -0.396 C  
HETATM    5  C   UNL     1     -11.337  13.031  66.604  1.00  0.00    -0.366 C  
HETATM    6  C   UNL     1     -10.803  11.743  65.867  1.00  0.00    -0.339 C  
HETATM    7  C   UNL     1     -12.027  12.527  67.930  1.00  0.00    -0.283 C  
HETATM    8  C   UNL     1     -11.356  11.315  68.681  1.00  0.00    -0.336 C  
HETATM    9  C   UNL     1     -12.154  10.953  69.911  1.00  0.00    -0.428 C  
HETATM   10  C   UNL     1     -11.260  10.154  70.839  1.00  0.00    -0.383 C  
HETATM   11  C   UNL     1     -11.015   8.789  70.207  1.00  0.00    -0.255 C  
HETATM   12  C   UNL     1     -10.340   7.883  71.260  1.00  0.00    -0.222 C  
HETATM   13  C   UNL     1      -8.820   7.891  71.318  1.00  0.00    -0.135 C  
HETATM   14  O   UNL     1      -8.348   8.883  72.212  1.00  0.00    -0.384 OA 
HETATM   15  C   UNL     1      -8.144   8.024  69.953  1.00  0.00    -0.117 C  
HETATM   16  H   UNL     1      -7.399   8.888  72.249  1.00  0.00     0.000 HD 
HETATM   17  C   UNL     1      -8.794   9.033  68.982  1.00  0.00    -0.136 C  
HETATM   18  C   UNL     1     -10.334   8.875  68.785  1.00  0.00    -0.232 C  
HETATM   19  C   UNL     1     -10.579   7.523  68.066  1.00  0.00    -0.217 C  
HETATM   20  C   UNL     1     -11.017  10.059  67.858  1.00  0.00    -0.311 C  
HETATM   21  C   UNL     1     -10.198  10.538  66.634  1.00  0.00    -0.289 C  
ENDROOT
BRANCH   1  22
HETATM   22  C   UNL     1     -10.685  15.773  67.031  1.00  0.00    -0.306 C  
HETATM   23  C   UNL     1     -10.439  16.492  65.695  1.00  0.00    -0.341 C  
HETATM   24  O   UNL     1     -11.062  16.440  67.983  1.00  0.00    -0.348 OA 
ENDBRANCH   1  22
TORSDOF 1
ENDMDL
MODEL        7
REMARK 921   NORMALIZED FREE ENERGY PREDICTED BY IDOCK:   -6.58 KCAL/MOL
REMARK 922        TOTAL FREE ENERGY PREDICTED BY IDOCK:   -6.57 KCAL/MOL
REMARK 923 INTER-LIGAND FREE ENERGY PREDICTED BY IDOCK:   -6.87 KCAL/MOL
REMARK 924 INTRA-LIGAND FREE ENERGY PREDICTED BY IDOCK:    0.30 KCAL/MOL
REMARK 927      BINDING AFFINITY PREDICTED BY RF-SCORE:    0.00 PKD
ROOT
HETATM    1  C   UNL     1     -10.266  13.345  65.563  1.00  0.00    -0.300 C  
HETATM    2  C   UNL     1     -10.530  12.275  67.897  1.00  0.00    -0.227 C  
HETATM    3  C   UNL     1     -10.780  14.727  65.187  1.00  0.00    -0.433 C  
HETATM    4  C   UNL     1     -11.622  15.060  66.416  1.00  0.00    -0.172 C  
HETATM    5  C   UNL     1      -9.941  13.512  67.158  1.00  0.00    -0.246 C  
HETATM    6  C   UNL     1      -8.461  13.563  67.699  1.00  0.00    -0.184 C  
HETATM    7  C   UNL     1     -10.601  14.892  67.544  1.00  0.00    -0.266 C  
HETATM    8  C   UNL     1      -9.694  16.178  67.464  1.00  0.00    -0.233 C  
HETATM    9  C   UNL     1     -10.475  17.399  67.886  1.00  0.00    -0.383 C  
HETATM   10  C   UNL     1      -9.766  18.626  67.348  1.00  0.00    -0.330 C  
HETATM   11  C   UNL     1      -8.464  18.801  68.122  1.00  0.00    -0.335 C  
HETATM   12  C   UNL     1      -7.876  20.186  67.771  1.00  0.00    -0.309 C  
HETATM   13  C   UNL     1      -6.931  20.264  66.582  1.00  0.00    -0.246 C  
HETATM   14  O   UNL     1      -7.640  20.523  65.383  1.00  0.00    -0.520 OA 
HETATM   15  C   UNL     1      -6.023  19.044  66.424  1.00  0.00    -0.184 C  
HETATM   16  H   UNL     1      -7.050  20.572  64.640  1.00  0.00     0.000 HD 
HETATM   17  C   UNL     1      -6.695  17.676  66.672  1.00  0.00    -0.244 C  
HETATM   18  C   UNL     1      -7.499  17.556  68.004  1.00  0.00    -0.214 C  
HETATM   19  C   UNL     1      -6.484  17.639  69.173  1.00  0.00    -0.237 C  
HETATM   20  C   UNL     1      -8.323  16.134  68.166  1.00  0.00    -0.166 C  
HETATM   21  C   UNL     1      -7.606  14.858  67.660  1.00  0.00    -0.201 C  
ENDROOT
BRANCH   1  22
HETATM   22  C   UNL     1     -11.477  12.467  64.996  1.00  0.00    -0.332 C  
HETATM   23  C   UNL     1     -11.350  11.936  63.559  1.00  0.00    -0.516 C  
HETATM   24  O   UNL     1     -12.522  12.262  65.594  1.00  0.00    -0.591 OA 
ENDBRANCH   1  22
TORSDOF 1
ENDMDL
MODEL        8
REMARK 921   NORMALIZED FREE ENERGY PREDICTED BY IDOCK:   -6.47 KCAL/MOL
REMARK 922        TOTAL FREE ENERGY PREDICTED BY IDOCK:   -6.46 KCAL/MOL
REMARK 923 INTER-LIGAND FREE ENERGY PREDICTED BY IDOCK:   -6.67 KCAL/MOL
REMARK 924 INTRA-LIGAND FREE ENERGY PREDICTED BY IDOCK:    0.22 KCAL/MOL
REMARK 927      BINDING AFFINITY PREDICTED BY RF-SCORE:    0.00 PKD
ROOT
HETATM    1  C   UNL     1     -10.930   9.903  70.945  1.00  0.00    -0.392 C  
HETATM    2  C   UNL     1     -13.509   9.973  70.869  1.00  0.00    -0.179 C  
HETATM    3  C   UNL     1     -10.032   9.934  69.717  1.00  0.00    -0.275 C  
HETATM    4  C   UNL     1     -11.065   9.755  68.607  1.00  0.00    -0.140 C  
HETATM    5  C   UNL     1     -12.233  10.760  70.450  1.00  0.00    -0.437 C  
HETATM    6  C   UNL     1     -12.526  12.208  71.000  1.00  0.00    -0.369 C  
HETATM    7  C   UNL     1     -12.028  10.910  68.893  1.00  0.00    -0.277 C  
HETATM    8  C   UNL     1     -11.279  12.199  68.382  1.00  0.00    -0.314 C  
HETATM    9  C   UNL     1     -11.190  12.191  66.874  1.00  0.00    -0.375 C  
HETATM   10  C   UNL     1     -10.083  13.140  66.459  1.00  0.00    -0.280 C  
HETATM   11  C   UNL     1     -10.547  14.565  66.741  1.00  0.00    -0.276 C  
HETATM   12  C   UNL     1      -9.549  15.538  66.075  1.00  0.00    -0.380 C  
HETATM   13  C   UNL     1      -8.355  15.990  66.902  1.00  0.00    -0.243 C  
HETATM   14  O   UNL     1      -7.254  15.115  66.730  1.00  0.00    -0.289 OA 
HETATM   15  C   UNL     1      -8.664  16.190  68.387  1.00  0.00    -0.190 C  
HETATM   16  H   UNL     1      -6.508  15.397  67.247  1.00  0.00     0.000 HD 
HETATM   17  C   UNL     1      -9.572  15.120  69.029  1.00  0.00    -0.229 C  
HETATM   18  C   UNL     1     -10.896  14.816  68.260  1.00  0.00    -0.251 C  
HETATM   19  C   UNL     1     -11.783  16.085  68.333  1.00  0.00    -0.196 C  
HETATM   20  C   UNL     1     -11.769  13.566  68.895  1.00  0.00    -0.379 C  
HETATM   21  C   UNL     1     -11.816  13.469  70.440  1.00  0.00    -0.293 C  
ENDROOT
BRANCH   1  22
HETATM   22  C   UNL     1     -10.956   8.322  71.194  1.00  0.00    -0.245 C  
HETATM   23  C   UNL     1     -11.177   7.840  72.637  1.00  0.00    -0.438 C  
HETATM   24  O   UNL     1     -10.732   7.483  70.336  1.00  0.00    -0.229 OA 
ENDBRANCH   1  22
TORSDOF 1
ENDMDL
MODEL        9
REMARK 921   NORMALIZED FREE ENERGY PREDICTED BY IDOCK:   -6.38 KCAL/MOL
REMARK 922        TOTAL FREE ENERGY PREDICTED BY IDOCK:   -6.36 KCAL/MOL
REMARK 923 INTER-LIGAND FREE ENERGY PREDICTED BY IDOCK:   -6.67 KCAL/MOL
REMARK 924 INTRA-LIGAND FREE ENERGY PREDICTED BY IDOCK:    0.30 KCAL/MOL
REMARK 927      BINDING AFFINITY PREDICTED BY RF-SCORE:    0.00 PKD
ROOT
HETATM    1  C   UNL     1      -9.638  13.398  66.471  1.00  0.00    -0.277 C  
HETATM    2  C   UNL     1     -11.518  12.700  64.847  1.00  0.00    -0.361 C  
HETATM    3  C   UNL     1      -9.801  13.503  67.981  1.00  0.00    -0.238 C  
HETATM    4  C   UNL     1     -11.314  13.352  68.113  1.00  0.00    -0.321 C  
HETATM    5  C   UNL     1     -10.705  12.219  66.084  1.00  0.00    -0.296 C  
HETATM    6  C   UNL     1     -10.226  10.783  65.644  1.00  0.00    -0.320 C  
HETATM    7  C   UNL     1     -11.554  12.019  67.398  1.00  0.00    -0.388 C  
HETATM    8  C   UNL     1     -11.067  10.919  68.416  1.00  0.00    -0.320 C  
HETATM    9  C   UNL     1     -12.002  10.848  69.600  1.00  0.00    -0.414 C  
HETATM   10  C   UNL     1     -11.272  10.170  70.742  1.00  0.00    -0.414 C  
HETATM   11  C   UNL     1     -11.096   8.697  70.388  1.00  0.00    -0.250 C  
HETATM   12  C   UNL     1     -10.604   7.953  71.648  1.00  0.00    -0.267 C  
HETATM   13  C   UNL     1      -9.101   7.860  71.863  1.00  0.00    -0.146 C  
HETATM   14  O   UNL     1      -8.623   8.962  72.614  1.00  0.00    -0.384 OA 
HETATM   15  C   UNL     1      -8.295   7.690  70.574  1.00  0.00    -0.126 C  
HETATM   16  H   UNL     1      -7.685   8.904  72.749  1.00  0.00     0.000 HD 
HETATM   17  C   UNL     1      -8.761   8.549  69.379  1.00  0.00    -0.136 C  
HETATM   18  C   UNL     1     -10.285   8.471  69.052  1.00  0.00    -0.218 C  
HETATM   19  C   UNL     1     -10.587   7.033  68.559  1.00  0.00    -0.235 C  
HETATM   20  C   UNL     1     -10.771   9.512  67.865  1.00  0.00    -0.285 C  
HETATM   21  C   UNL     1      -9.804   9.697  66.669  1.00  0.00    -0.285 C  
ENDROOT
BRANCH   1  22
HETATM   22  C   UNL     1      -9.847  14.938  66.090  1.00  0.00    -0.308 C  
HETATM   23  C   UNL     1      -8.627  15.865  66.208  1.00  0.00    -0.348 C  
HETATM   24  O   UNL     1     -10.922  15.437  65.794  1.00  0.00    -0.330 OA 
ENDBRANCH   1  22
TORSDOF 1
ENDMDL
MODEL       10
REMARK 921   NORMALIZED FREE ENERGY PREDICTED BY IDOCK:   -6.31 KCAL/MOL
REMARK 922        TOTAL FREE ENERGY PREDICTED BY IDOCK:   -6.28 KCAL/MOL
REMARK 923 INTER-LIGAND FREE ENERGY PREDICTED BY IDOCK:   -6.51 KCAL/MOL
REMARK 924 INTRA-LIGAND FREE ENERGY PREDICTED BY IDOCK:    0.23 KCAL/MOL
REMARK 927      BINDING AFFINITY PREDICTED BY RF-SCORE:    0.00 PKD
ROOT
HETATM    1  C   UNL     1      -9.818  12.805  66.038  1.00  0.00    -0.258 C  
HETATM    2  C   UNL     1      -8.995  11.737  68.239  1.00  0.00    -0.180 C  
HETATM    3  C   UNL     1     -10.853  13.919  65.957  1.00  0.00    -0.290 C  
HETATM    4  C   UNL     1     -11.346  13.952  67.401  1.00  0.00    -0.349 C  
HETATM    5  C   UNL     1      -9.104  13.093  67.482  1.00  0.00    -0.205 C  
HETATM    6  C   UNL     1      -7.636  13.661  67.579  1.00  0.00    -0.180 C  
HETATM    7  C   UNL     1     -10.038  14.162  68.170  1.00  0.00    -0.239 C  
HETATM    8  C   UNL     1      -9.682  15.682  67.954  1.00  0.00    -0.211 C  
HETATM    9  C   UNL     1     -10.661  16.561  68.695  1.00  0.00    -0.334 C  
HETATM   10  C   UNL     1     -10.599  17.952  68.095  1.00  0.00    -0.351 C  
HETATM   11  C   UNL     1      -9.262  18.576  68.476  1.00  0.00    -0.360 C  
HETATM   12  C   UNL     1      -9.306  20.075  68.104  1.00  0.00    -0.357 C  
HETATM   13  C   UNL     1      -8.846  20.463  66.707  1.00  0.00    -0.207 C  
HETATM   14  O   UNL     1      -9.926  20.445  65.791  1.00  0.00    -0.615 OA 
HETATM   15  C   UNL     1      -7.675  19.631  66.182  1.00  0.00    -0.331 C  
HETATM   16  H   UNL     1      -9.640  20.688  64.918  1.00  0.00     0.000 HD 
HETATM   17  C   UNL     1      -7.743  18.118  66.482  1.00  0.00    -0.280 C  
HETATM   18  C   UNL     1      -8.020  17.743  67.970  1.00  0.00    -0.244 C  
HETATM   19  C   UNL     1      -6.789  18.186  68.803  1.00  0.00    -0.264 C  
HETATM   20  C   UNL     1      -8.233  16.125  68.227  1.00  0.00    -0.162 C  
HETATM   21  C   UNL     1      -7.317  15.171  67.420  1.00  0.00    -0.235 C  
ENDROOT
BRANCH   1  22
HETATM   22  C   UNL     1     -10.778  11.554  65.762  1.00  0.00    -0.271 C  
HETATM   23  C   UNL     1     -10.231  10.432  64.864  1.00  0.00    -0.330 C  
HETATM   24  O   UNL     1     -11.934  11.472  66.146  1.00  0.00    -0.257 OA 
ENDBRANCH   1  22
TORSDOF 1
ENDMDL
MODEL       11
REMARK 921   NORMALIZED FREE ENERGY PREDICTED BY IDOCK:   -6.15 KCAL/MOL
REMARK 922        TOTAL FREE ENERGY PREDICTED BY IDOCK:   -6.12 KCAL/MOL
REMARK 923 INTER-LIGAND FREE ENERGY PREDICTED BY IDOCK:   -6.42 KCAL/MOL
REMARK 924 INTRA-LIGAND FREE ENERGY PREDICTED BY IDOCK:    0.30 KCAL/MOL
REMARK 927      BINDING AFFINITY PREDICTED BY RF-SCORE:    0.00 PKD
ROOT
HETATM    1  C   UNL     1      -9.244  17.697  67.836  1.00  0.00    -0.267 C  
HETATM    2  C   UNL     1      -7.380  17.926  66.066  1.00  0.00    -0.306 C  
HETATM    3  C   UNL     1     -10.588  17.029  67.588  1.00  0.00    -0.333 C  
HETATM    4  C   UNL     1     -10.535  16.840  66.074  1.00  0.00    -0.300 C  
HETATM    5  C   UNL     1      -8.252  16.882  66.821  1.00  0.00    -0.275 C  
HETATM    6  C   UNL     1      -7.179  15.860  67.360  1.00  0.00    -0.227 C  
HETATM    7  C   UNL     1      -9.233  16.052  65.906  1.00  0.00    -0.321 C  
HETATM    8  C   UNL     1      -9.586  14.586  66.364  1.00  0.00    -0.324 C  
HETATM    9  C   UNL     1     -10.514  13.933  65.367  1.00  0.00    -0.357 C  
HETATM   10  C   UNL     1     -11.201  12.767  66.050  1.00  0.00    -0.335 C  
HETATM   11  C   UNL     1     -10.165  11.673  66.281  1.00  0.00    -0.262 C  
HETATM   12  C   UNL     1     -10.906  10.392  66.722  1.00  0.00    -0.186 C  
HETATM   13  C   UNL     1     -11.134  10.193  68.212  1.00  0.00    -0.227 C  
HETATM   14  O   UNL     1     -12.365  10.763  68.621  1.00  0.00    -0.825 OA 
HETATM   15  C   UNL     1      -9.987  10.692  69.092  1.00  0.00    -0.228 C  
HETATM   16  H   UNL     1     -12.509  10.639  69.552  1.00  0.00     0.000 HD 
HETATM   17  C   UNL     1      -9.361  12.039  68.672  1.00  0.00    -0.056 C  
HETATM   18  C   UNL     1      -8.948  12.146  67.171  1.00  0.00    -0.189 C  
HETATM   19  C   UNL     1      -7.781  11.154  66.932  1.00  0.00    -0.148 C  
HETATM   20  C   UNL     1      -8.421  13.646  66.724  1.00  0.00     0.012 C  
HETATM   21  C   UNL     1      -7.541  14.403  67.751  1.00  0.00    -0.175 C  
ENDROOT
BRANCH   1  22
HETATM   22  C   UNL     1      -9.679  19.221  67.610  1.00  0.00    -0.328 C  
HETATM   23  C   UNL     1     -10.233  19.983  68.825  1.00  0.00    -0.402 C  
HETATM   24  O   UNL     1      -9.677  19.787  66.528  1.00  0.00    -0.362 OA 
ENDBRANCH   1  22
TORSDOF 1
ENDMDL
MODEL       12
REMARK 921   NORMALIZED FREE ENERGY PREDICTED BY IDOCK:   -6.14 KCAL/MOL
REMARK 922        TOTAL FREE ENERGY PREDICTED BY IDOCK:   -6.11 KCAL/MOL
REMARK 923 INTER-LIGAND FREE ENERGY PREDICTED BY IDOCK:   -6.42 KCAL/MOL
REMARK 924 INTRA-LIGAND FREE ENERGY PREDICTED BY IDOCK:    0.30 KCAL/MOL
REMARK 927      BINDING AFFINITY PREDICTED BY RF-SCORE:    0.00 PKD
ROOT
HETATM    1  C   UNL     1      -7.857  18.961  66.532  1.00  0.00    -0.280 C  
HETATM    2  C   UNL     1      -7.657  19.410  69.066  1.00  0.00    -0.369 C  
HETATM    3  C   UNL     1      -7.394  17.685  65.845  1.00  0.00    -0.213 C  
HETATM    4  C   UNL     1      -6.632  17.011  66.984  1.00  0.00    -0.238 C  
HETATM    5  C   UNL     1      -8.269  18.430  68.023  1.00  0.00    -0.286 C  
HETATM    6  C   UNL     1      -9.776  18.337  68.480  1.00  0.00    -0.379 C  
HETATM    7  C   UNL     1      -7.699  16.960  68.081  1.00  0.00    -0.187 C  
HETATM    8  C   UNL     1      -8.664  15.790  67.652  1.00  0.00    -0.178 C  
HETATM    9  C   UNL     1      -7.966  14.457  67.788  1.00  0.00    -0.166 C  
HETATM   10  C   UNL     1      -8.708  13.444  66.938  1.00  0.00    -0.154 C  
HETATM   11  C   UNL     1     -10.054  13.165  67.596  1.00  0.00    -0.221 C  
HETATM   12  C   UNL     1     -10.691  11.946  66.893  1.00  0.00    -0.285 C  
HETATM   13  C   UNL     1     -11.577  12.218  65.687  1.00  0.00    -0.380 C  
HETATM   14  O   UNL     1     -10.823  12.218  64.488  1.00  0.00    -0.284 OA 
HETATM   15  C   UNL     1     -12.415  13.493  65.802  1.00  0.00    -0.514 C  
HETATM   16  H   UNL     1     -11.376  12.388  63.735  1.00  0.00     0.000 HD 
HETATM   17  C   UNL     1     -11.689  14.715  66.405  1.00  0.00    -0.329 C  
HETATM   18  C   UNL     1     -10.949  14.457  67.754  1.00  0.00    -0.283 C  
HETATM   19  C   UNL     1     -12.024  14.152  68.828  1.00  0.00    -0.367 C  
HETATM   20  C   UNL     1     -10.064  15.743  68.292  1.00  0.00    -0.222 C  
HETATM   21  C   UNL     1     -10.691  17.145  68.091  1.00  0.00    -0.366 C  
ENDROOT
BRANCH   1  22
HETATM   22  C   UNL     1      -6.576  19.877  66.244  1.00  0.00    -0.211 C  
HETATM   23  C   UNL     1      -6.511  20.590  64.884  1.00  0.00    -0.333 C  
HETATM   24  O   UNL     1      -5.617  19.979  66.994  1.00  0.00    -0.171 OA 
ENDBRANCH   1  22
TORSDOF 1
ENDMDL
MODEL       13
REMARK 921   NORMALIZED FREE ENERGY PREDICTED BY IDOCK:   -6.13 KCAL/MOL
REMARK 922        TOTAL FREE ENERGY PREDICTED BY IDOCK:   -6.09 KCAL/MOL
REMARK 923 INTER-LIGAND FREE ENERGY PREDICTED BY IDOCK:   -6.41 KCAL/MOL
REMARK 924 INTRA-LIGAND FREE ENERGY PREDICTED BY IDOCK:    0.31 KCAL/MOL
REMARK 927      BINDING AFFINITY PREDICTED BY RF-SCORE:    0.00 PKD
ROOT
HETATM    1  C   UNL     1     -11.902  12.151  67.289  1.00  0.00    -0.293 C  
HETATM    2  C   UNL     1     -11.080  13.994  68.898  1.00  0.00    -0.296 C  
HETATM    3  C   UNL     1     -11.025  11.034  66.741  1.00  0.00    -0.279 C  
HETATM    4  C   UNL     1      -9.647  11.508  67.193  1.00  0.00    -0.189 C  
HETATM    5  C   UNL     1     -11.220  12.452  68.746  1.00  0.00    -0.318 C  
HETATM    6  C   UNL     1     -11.928  12.035  70.091  1.00  0.00    -0.401 C  
HETATM    7  C   UNL     1      -9.854  11.663  68.703  1.00  0.00    -0.173 C  
HETATM    8  C   UNL     1      -9.848  10.191  69.266  1.00  0.00    -0.235 C  
HETATM    9  C   UNL     1      -8.463   9.597  69.167  1.00  0.00    -0.143 C  
HETATM   10  C   UNL     1      -8.587   8.088  69.246  1.00  0.00    -0.137 C  
HETATM   11  C   UNL     1      -8.990   7.717  70.669  1.00  0.00    -0.145 C  
HETATM   12  C   UNL     1      -8.853   6.187  70.826  1.00  0.00    -0.140 C  
HETATM   13  C   UNL     1     -10.068   5.337  70.488  1.00  0.00    -0.245 C  
HETATM   14  O   UNL     1     -10.063   4.960  69.122  1.00  0.00    -0.199 OA 
HETATM   15  C   UNL     1     -11.403   5.976  70.871  1.00  0.00    -0.299 C  
HETATM   16  H   UNL     1     -10.822   4.429  68.910  1.00  0.00     0.000 HD 
HETATM   17  C   UNL     1     -11.527   7.488  70.582  1.00  0.00    -0.291 C  
HETATM   18  C   UNL     1     -10.357   8.370  71.118  1.00  0.00    -0.264 C  
HETATM   19  C   UNL     1     -10.408   8.327  72.667  1.00  0.00    -0.374 C  
HETATM   20  C   UNL     1     -10.448   9.955  70.664  1.00  0.00    -0.301 C  
HETATM   21  C   UNL     1     -11.860  10.591  70.654  1.00  0.00    -0.458 C  
ENDROOT
BRANCH   1  22
HETATM   22  C   UNL     1     -11.820  13.162  66.051  1.00  0.00    -0.407 C  
HETATM   23  C   UNL     1     -11.921  12.557  64.641  1.00  0.00    -0.468 C  
HETATM   24  O   UNL     1     -11.602  14.359  66.149  1.00  0.00    -0.353 OA 
ENDBRANCH   1  22
TORSDOF 1
ENDMDL
MODEL       14
REMARK 921   NORMALIZED FREE ENERGY PREDICTED BY IDOCK:   -6.02 KCAL/MOL
REMARK 922        TOTAL FREE ENERGY PREDICTED BY IDOCK:   -5.98 KCAL/MOL
REMARK 923 INTER-LIGAND FREE ENERGY PREDICTED BY IDOCK:   -6.28 KCAL/MOL
REMARK 924 INTRA-LIGAND FREE ENERGY PREDICTED BY IDOCK:    0.30 KCAL/MOL
REMARK 927      BINDING AFFINITY PREDICTED BY RF-SCORE:    0.00 PKD
ROOT
HETATM    1  C   UNL     1     -10.670  16.650  67.651  1.00  0.00    -0.306 C  
HETATM    2  C   UNL     1     -11.408  16.201  70.083  1.00  0.00    -0.347 C  
HETATM    3  C   UNL     1      -9.313  16.265  67.079  1.00  0.00    -0.235 C  
HETATM    4  C   UNL     1      -8.576  15.852  68.351  1.00  0.00    -0.178 C  
HETATM    5  C   UNL     1     -10.912  15.497  68.786  1.00  0.00    -0.270 C  
HETATM    6  C   UNL     1     -11.979  14.353  68.587  1.00  0.00    -0.332 C  
HETATM    7  C   UNL     1      -9.513  14.780  68.915  1.00  0.00    -0.191 C  
HETATM    8  C   UNL     1      -9.263  13.510  68.015  1.00  0.00    -0.209 C  
HETATM    9  C   UNL     1      -7.890  12.941  68.279  1.00  0.00    -0.142 C  
HETATM   10  C   UNL     1      -7.503  12.067  67.102  1.00  0.00    -0.138 C  
HETATM   11  C   UNL     1      -8.374  10.817  67.131  1.00  0.00    -0.126 C  
HETATM   12  C   UNL     1      -7.805   9.809  66.108  1.00  0.00    -0.107 C  
HETATM   13  C   UNL     1      -8.333   9.885  64.683  1.00  0.00    -0.163 C  
HETATM   14  O   UNL     1      -7.551  10.766  63.896  1.00  0.00    -0.353 OA 
HETATM   15  C   UNL     1      -9.817  10.240  64.585  1.00  0.00    -0.396 C  
HETATM   16  H   UNL     1      -7.880  10.814  63.006  1.00  0.00     0.000 HD 
HETATM   17  C   UNL     1     -10.305  11.340  65.552  1.00  0.00    -0.321 C  
HETATM   18  C   UNL     1      -9.919  11.134  67.050  1.00  0.00    -0.223 C  
HETATM   19  C   UNL     1     -10.680   9.885  67.563  1.00  0.00    -0.333 C  
HETATM   20  C   UNL     1     -10.329  12.399  68.029  1.00  0.00    -0.220 C  
HETATM   21  C   UNL     1     -11.688  13.084  67.741  1.00  0.00    -0.405 C  
ENDROOT
BRANCH   1  22
HETATM   22  C   UNL     1     -10.368  18.182  68.000  1.00  0.00    -0.391 C  
HETATM   23  C   UNL     1     -10.583  19.215  66.881  1.00  0.00    -0.540 C  
HETATM   24  O   UNL     1      -9.904  18.571  69.060  1.00  0.00    -0.358 OA 
ENDBRANCH   1  22
TORSDOF 1
ENDMDL
MODEL       15
REMARK 921   NORMALIZED FREE ENERGY PREDICTED BY IDOCK:   -6.02 KCAL/MOL
REMARK 922        TOTAL FREE ENERGY PREDICTED BY IDOCK:   -5.98 KCAL/MOL
REMARK 923 INTER-LIGAND FREE ENERGY PREDICTED BY IDOCK:   -6.29 KCAL/MOL
REMARK 924 INTRA-LIGAND FREE ENERGY PREDICTED BY IDOCK:    0.32 KCAL/MOL
REMARK 927      BINDING AFFINITY PREDICTED BY RF-SCORE:    0.00 PKD
ROOT
HETATM    1  C   UNL     1     -11.118  14.305  67.695  1.00  0.00    -0.305 C  
HETATM    2  C   UNL     1     -10.934  13.846  65.162  1.00  0.00    -0.352 C  
HETATM    3  C   UNL     1      -9.948  14.247  68.667  1.00  0.00    -0.234 C  
HETATM    4  C   UNL     1      -8.871  13.632  67.777  1.00  0.00    -0.190 C  
HETATM    5  C   UNL     1     -10.394  14.760  66.300  1.00  0.00    -0.305 C  
HETATM    6  C   UNL     1     -10.588  16.206  65.701  1.00  0.00    -0.377 C  
HETATM    7  C   UNL     1      -8.852  14.608  66.597  1.00  0.00    -0.240 C  
HETATM    8  C   UNL     1      -8.088  15.877  67.134  1.00  0.00    -0.240 C  
HETATM    9  C   UNL     1      -6.626  15.561  67.344  1.00  0.00    -0.174 C  
HETATM   10  C   UNL     1      -6.046  16.597  68.286  1.00  0.00    -0.125 C  
HETATM   11  C   UNL     1      -5.980  17.929  67.546  1.00  0.00    -0.165 C  
HETATM   12  C   UNL     1      -5.146  18.912  68.398  1.00  0.00    -0.181 C  
HETATM   13  C   UNL     1      -5.892  19.759  69.418  1.00  0.00    -0.263 C  
HETATM   14  O   UNL     1      -5.964  19.104  70.671  1.00  0.00    -0.174 OA 
HETATM   15  C   UNL     1      -7.280  20.211  68.960  1.00  0.00    -0.115 C  
HETATM   16  H   UNL     1      -6.430  19.632  71.308  1.00  0.00     0.000 HD 
HETATM   17  C   UNL     1      -8.115  19.147  68.215  1.00  0.00    -0.367 C  
HETATM   18  C   UNL     1      -7.388  18.429  67.037  1.00  0.00    -0.223 C  
HETATM   19  C   UNL     1      -7.137  19.482  65.928  1.00  0.00    -0.306 C  
HETATM   20  C   UNL     1      -8.258  17.198  66.361  1.00  0.00    -0.327 C  
HETATM   21  C   UNL     1      -9.782  17.431  66.209  1.00  0.00    -0.276 C  
ENDROOT
BRANCH   1  22
HETATM   22  C   UNL     1     -11.719  12.843  67.941  1.00  0.00    -0.357 C  
HETATM   23  C   UNL     1     -11.772  12.338  69.392  1.00  0.00    -0.392 C  
HETATM   24  O   UNL     1     -12.059  12.077  67.053  1.00  0.00    -0.603 OA 
ENDBRANCH   1  22
TORSDOF 1
ENDMDL
MODEL       16
REMARK 921   NORMALIZED FREE ENERGY PREDICTED BY IDOCK:   -5.98 KCAL/MOL
REMARK 922        TOTAL FREE ENERGY PREDICTED BY IDOCK:   -5.94 KCAL/MOL
REMARK 923 INTER-LIGAND FREE ENERGY PREDICTED BY IDOCK:   -6.15 KCAL/MOL
REMARK 924 INTRA-LIGAND FREE ENERGY PREDICTED BY IDOCK:    0.22 KCAL/MOL
REMARK 927      BINDING AFFINITY PREDICTED BY RF-SCORE:    0.00 PKD
ROOT
HETATM    1  C   UNL     1     -12.844   8.738  70.717  1.00  0.00     0.243 C  
HETATM    2  C   UNL     1     -10.669   8.635  72.102  1.00  0.00    -0.417 C  
HETATM    3  C   UNL     1     -13.640  10.009  70.459  1.00  0.00     0.285 C  
HETATM    4  C   UNL     1     -12.943  10.977  71.411  1.00  0.00    -0.517 C  
HETATM    5  C   UNL     1     -11.314   9.302  70.853  1.00  0.00    -0.373 C  
HETATM    6  C   UNL     1     -10.237   9.046  69.730  1.00  0.00    -0.214 C  
HETATM    7  C   UNL     1     -11.487  10.867  70.952  1.00  0.00     0.020 C  
HETATM    8  C   UNL     1     -11.422  11.690  69.610  1.00  0.00    -0.359 C  
HETATM    9  C   UNL     1     -11.584  13.166  69.890  1.00  0.00    -0.255 C  
HETATM   10  C   UNL     1     -11.998  13.851  68.603  1.00  0.00    -0.401 C  
HETATM   11  C   UNL     1     -10.808  13.838  67.651  1.00  0.00    -0.264 C  
HETATM   12  C   UNL     1     -11.133  14.765  66.459  1.00  0.00    -0.334 C  
HETATM   13  C   UNL     1     -11.827  14.141  65.258  1.00  0.00    -0.367 C  
HETATM   14  O   UNL     1     -13.236  14.208  65.391  1.00  0.00    -0.741 OA 
HETATM   15  C   UNL     1     -11.378  12.712  64.949  1.00  0.00    -0.347 C  
HETATM   16  H   UNL     1     -13.670  13.819  64.640  1.00  0.00     0.000 HD 
HETATM   17  C   UNL     1     -11.182  11.795  66.175  1.00  0.00    -0.363 C  
HETATM   18  C   UNL     1     -10.295  12.383  67.316  1.00  0.00    -0.227 C  
HETATM   19  C   UNL     1      -8.850  12.511  66.769  1.00  0.00    -0.177 C  
HETATM   20  C   UNL     1     -10.228  11.439  68.670  1.00  0.00    -0.217 C  
HETATM   21  C   UNL     1     -10.157   9.908  68.442  1.00  0.00    -0.189 C  
ENDROOT
BRANCH   1  22
HETATM   22  C   UNL     1     -13.686   8.163  71.951  1.00  0.00    -0.344 C  
HETATM   23  C   UNL     1     -13.819   6.636  72.062  1.00  0.00     0.007 C  
HETATM   24  O   UNL     1     -14.292   8.854  72.755  1.00  0.00    -0.600 OA 
ENDBRANCH   1  22
TORSDOF 1
ENDMDL
MODEL       17
REMARK 921   NORMALIZED FREE ENERGY PREDICTED BY IDOCK:   -5.97 KCAL/MOL
REMARK 922        TOTAL FREE ENERGY PREDICTED BY IDOCK:   -5.93 KCAL/MOL
REMARK 923 INTER-LIGAND FREE ENERGY PREDICTED BY IDOCK:   -6.17 KCAL/MOL
REMARK 924 INTRA-LIGAND FREE ENERGY PREDICTED BY IDOCK:    0.25 KCAL/MOL
REMARK 927      BINDING AFFINITY PREDICTED BY RF-SCORE:    0.00 PKD
ROOT
HETATM    1  C   UNL     1     -10.612   8.961  71.718  1.00  0.00    -0.432 C  
HETATM    2  C   UNL     1     -12.980   8.005  71.339  1.00  0.00    -0.277 C  
HETATM    3  C   UNL     1      -9.807   9.706  70.663  1.00  0.00    -0.268 C  
HETATM    4  C   UNL     1     -10.664   9.458  69.425  1.00  0.00    -0.234 C  
HETATM    5  C   UNL     1     -12.153   9.323  71.305  1.00  0.00    -0.412 C  
HETATM    6  C   UNL     1     -13.032  10.303  72.174  1.00  0.00    -0.410 C  
HETATM    7  C   UNL     1     -12.026   9.989  69.881  1.00  0.00    -0.084 C  
HETATM    8  C   UNL     1     -11.888  11.558  69.823  1.00  0.00    -0.429 C  
HETATM    9  C   UNL     1     -11.799  12.025  68.389  1.00  0.00    -0.360 C  
HETATM   10  C   UNL     1     -11.194  13.415  68.379  1.00  0.00    -0.311 C  
HETATM   11  C   UNL     1     -12.217  14.383  68.964  1.00  0.00    -0.233 C  
HETATM   12  C   UNL     1     -11.720  15.823  68.707  1.00  0.00    -0.387 C  
HETATM   13  C   UNL     1     -10.831  16.456  69.767  1.00  0.00    -0.343 C  
HETATM   14  O   UNL     1      -9.463  16.190  69.512  1.00  0.00    -0.231 OA 
HETATM   15  C   UNL     1     -11.201  16.074  71.201  1.00  0.00    -0.313 C  
HETATM   16  H   UNL     1      -8.908  16.585  70.174  1.00  0.00     0.000 HD 
HETATM   17  C   UNL     1     -11.576  14.592  71.422  1.00  0.00    -0.226 C  
HETATM   18  C   UNL     1     -12.644  14.019  70.440  1.00  0.00    -0.374 C  
HETATM   19  C   UNL     1     -13.984  14.742  70.730  1.00  0.00     0.069 C  
HETATM   20  C   UNL     1     -12.911  12.398  70.610  1.00  0.00    -0.011 C  
HETATM   21  C   UNL     1     -12.918  11.847  72.057  1.00  0.00    -0.370 C  
ENDROOT
BRANCH   1  22
HETATM   22  C   UNL     1      -9.970   7.506  71.539  1.00  0.00    -0.177 C  
HETATM   23  C   UNL     1     -10.215   6.484  72.662  1.00  0.00    -0.205 C  
HETATM   24  O   UNL     1      -9.236   7.183  70.618  1.00  0.00    -0.157 OA 
ENDBRANCH   1  22
TORSDOF 1
ENDMDL
MODEL       18
REMARK 921   NORMALIZED FREE ENERGY PREDICTED BY IDOCK:   -5.90 KCAL/MOL
REMARK 922        TOTAL FREE ENERGY PREDICTED BY IDOCK:   -5.86 KCAL/MOL
REMARK 923 INTER-LIGAND FREE ENERGY PREDICTED BY IDOCK:   -6.15 KCAL/MOL
REMARK 924 INTRA-LIGAND FREE ENERGY PREDICTED BY IDOCK:    0.29 KCAL/MOL
REMARK 927      BINDING AFFINITY PREDICTED BY RF-SCORE:    0.00 PKD
ROOT
HETATM    1  C   UNL     1     -11.871  12.377  66.175  1.00  0.00    -0.442 C  
HETATM    2  C   UNL     1     -11.390  14.342  67.778  1.00  0.00    -0.329 C  
HETATM    3  C   UNL     1     -10.823  11.385  65.692  1.00  0.00    -0.280 C  
HETATM    4  C   UNL     1      -9.547  12.054  66.195  1.00  0.00    -0.252 C  
HETATM    5  C   UNL     1     -11.307  12.793  67.654  1.00  0.00    -0.359 C  
HETATM    6  C   UNL     1     -12.014  12.303  68.975  1.00  0.00    -0.300 C  
HETATM    7  C   UNL     1      -9.845  12.202  67.689  1.00  0.00    -0.194 C  
HETATM    8  C   UNL     1      -9.662  10.754  68.284  1.00  0.00    -0.172 C  
HETATM    9  C   UNL     1      -8.205  10.357  68.261  1.00  0.00    -0.114 C  
HETATM   10  C   UNL     1      -8.122   8.847  68.368  1.00  0.00    -0.109 C  
HETATM   11  C   UNL     1      -8.537   8.446  69.779  1.00  0.00    -0.132 C  
HETATM   12  C   UNL     1      -8.196   6.953  69.976  1.00  0.00    -0.134 C  
HETATM   13  C   UNL     1      -9.264   5.936  69.602  1.00  0.00    -0.136 C  
HETATM   14  O   UNL     1      -9.143   5.543  68.247  1.00  0.00    -0.108 OA 
HETATM   15  C   UNL     1     -10.692   6.389  69.911  1.00  0.00    -0.332 C  
HETATM   16  H   UNL     1      -9.810   4.908  68.013  1.00  0.00     0.000 HD 
HETATM   17  C   UNL     1     -11.010   7.864  69.583  1.00  0.00    -0.114 C  
HETATM   18  C   UNL     1     -10.001   8.908  70.152  1.00  0.00    -0.207 C  
HETATM   19  C   UNL     1     -10.119   8.884  71.697  1.00  0.00    -0.411 C  
HETATM   20  C   UNL     1     -10.289  10.458  69.659  1.00  0.00    -0.261 C  
HETATM   21  C   UNL     1     -11.774  10.891  69.572  1.00  0.00    -0.400 C  
ENDROOT
BRANCH   1  22
HETATM   22  C   UNL     1     -11.871  13.370  64.919  1.00  0.00    -0.372 C  
HETATM   23  C   UNL     1     -12.002  12.739  63.523  1.00  0.00    -0.633 C  
HETATM   24  O   UNL     1     -11.693  14.576  64.992  1.00  0.00    -0.362 OA 
ENDBRANCH   1  22
TORSDOF 1
ENDMDL
MODEL       19
REMARK 921   NORMALIZED FREE ENERGY PREDICTED BY IDOCK:   -5.79 KCAL/MOL
REMARK 922        TOTAL FREE ENERGY PREDICTED BY IDOCK:   -5.73 KCAL/MOL
REMARK 923 INTER-LIGAND FREE ENERGY PREDICTED BY IDOCK:   -6.00 KCAL/MOL
REMARK 924 INTRA-LIGAND FREE ENERGY PREDICTED BY IDOCK:    0.27 KCAL/MOL
REMARK 927      BINDING AFFINITY PREDICTED BY RF-SCORE:    0.00 PKD
ROOT
HETATM    1  C   UNL     1      -9.517  17.449  66.663  1.00  0.00    -0.285 C  
HETATM    2  C   UNL     1     -10.428  17.557  69.075  1.00  0.00    -0.250 C  
HETATM    3  C   UNL     1      -8.274  16.675  66.247  1.00  0.00    -0.365 C  
HETATM    4  C   UNL     1      -7.706  16.297  67.612  1.00  0.00    -0.161 C  
HETATM    5  C   UNL     1     -10.073  16.570  67.926  1.00  0.00    -0.256 C  
HETATM    6  C   UNL     1     -11.377  15.692  67.810  1.00  0.00    -0.261 C  
HETATM    7  C   UNL     1      -8.895  15.572  68.250  1.00  0.00    -0.179 C  
HETATM    8  C   UNL     1      -8.929  14.159  67.553  1.00  0.00    -0.198 C  
HETATM    9  C   UNL     1      -7.745  13.329  67.990  1.00  0.00    -0.147 C  
HETATM   10  C   UNL     1      -7.540  12.222  66.975  1.00  0.00    -0.071 C  
HETATM   11  C   UNL     1      -8.689  11.231  67.113  1.00  0.00    -0.151 C  
HETATM   12  C   UNL     1      -8.346   9.975  66.281  1.00  0.00    -0.127 C  
HETATM   13  C   UNL     1      -8.787   9.958  64.826  1.00  0.00    -0.202 C  
HETATM   14  O   UNL     1      -7.787  10.501  63.982  1.00  0.00    -0.311 OA 
HETATM   15  C   UNL     1     -10.136  10.632  64.575  1.00  0.00    -0.421 C  
HETATM   16  H   UNL     1      -8.063  10.490  63.073  1.00  0.00     0.000 HD 
HETATM   17  C   UNL     1     -10.378  11.949  65.344  1.00  0.00    -0.306 C  
HETATM   18  C   UNL     1     -10.107  11.886  66.880  1.00  0.00    -0.229 C  
HETATM   19  C   UNL     1     -11.166  10.942  67.505  1.00  0.00    -0.364 C  
HETATM   20  C   UNL     1     -10.232  13.344  67.645  1.00  0.00    -0.228 C  
HETATM   21  C   UNL     1     -11.373  14.278  67.169  1.00  0.00    -0.352 C  
ENDROOT
BRANCH   1  22
HETATM   22  C   UNL     1      -8.864  18.902  66.818  1.00  0.00    -0.309 C  
HETATM   23  C   UNL     1      -9.825  20.093  66.972  1.00  0.00    -0.595 C  
HETATM   24  O   UNL     1      -7.668  19.135  66.740  1.00  0.00    -0.233 OA 
ENDBRANCH   1  22
TORSDOF 1
ENDMDL
MODEL       20
REMARK 921   NORMALIZED FREE ENERGY PREDICTED BY IDOCK:   -5.76 KCAL/MOL
REMARK 922        TOTAL FREE ENERGY PREDICTED BY IDOCK:   -5.71 KCAL/MOL
REMARK 923 INTER-LIGAND FREE ENERGY PREDICTED BY IDOCK:   -5.95 KCAL/MOL
REMARK 924 INTRA-LIGAND FREE ENERGY PREDICTED BY IDOCK:    0.24 KCAL/MOL
REMARK 927      BINDING AFFINITY PREDICTED BY RF-SCORE:    0.00 PKD
ROOT
HETATM    1  C   UNL     1     -10.616   8.192  69.216  1.00  0.00    -0.191 C  
HETATM    2  C   UNL     1      -8.123   7.596  68.919  1.00  0.00    -0.127 C  
HETATM    3  C   UNL     1     -11.138   9.595  69.490  1.00  0.00    -0.198 C  
HETATM    4  C   UNL     1      -9.832  10.334  69.766  1.00  0.00    -0.201 C  
HETATM    5  C   UNL     1      -9.264   8.484  68.343  1.00  0.00    -0.135 C  
HETATM    6  C   UNL     1      -9.195   8.174  66.798  1.00  0.00    -0.206 C  
HETATM    7  C   UNL     1      -9.035  10.038  68.493  1.00  0.00    -0.124 C  
HETATM    8  C   UNL     1      -9.665  10.973  67.393  1.00  0.00    -0.189 C  
HETATM    9  C   UNL     1      -9.332  12.418  67.679  1.00  0.00    -0.188 C  
HETATM   10  C   UNL     1     -10.318  13.291  66.928  1.00  0.00    -0.255 C  
HETATM   11  C   UNL     1     -10.011  13.184  65.438  1.00  0.00    -0.203 C  
HETATM   12  C   UNL     1     -10.824  14.269  64.698  1.00  0.00    -0.384 C  
HETATM   13  C   UNL     1     -12.218  13.893  64.220  1.00  0.00    -0.408 C  
HETATM   14  O   UNL     1     -13.191  14.173  65.211  1.00  0.00    -0.760 OA 
HETATM   15  C   UNL     1     -12.342  12.450  63.729  1.00  0.00    -0.625 C  
HETATM   16  H   UNL     1     -14.062  13.939  64.912  1.00  0.00     0.000 HD 
HETATM   17  C   UNL     1     -11.604  11.391  64.577  1.00  0.00    -0.044 C  
HETATM   18  C   UNL     1     -10.108  11.707  64.888  1.00  0.00    -0.303 C  
HETATM   19  C   UNL     1      -9.329  11.655  63.549  1.00  0.00    -0.099 C  
HETATM   20  C   UNL     1      -9.394  10.630  65.917  1.00  0.00    -0.224 C  
HETATM   21  C   UNL     1      -9.774   9.140  65.730  1.00  0.00    -0.299 C  
ENDROOT
BRANCH   1  22
HETATM   22  C   UNL     1     -10.595   7.637  70.717  1.00  0.00    -0.221 C  
HETATM   23  C   UNL     1     -11.257   6.273  70.974  1.00  0.00    -0.372 C  
HETATM   24  O   UNL     1     -10.165   8.258  71.677  1.00  0.00    -0.193 OA 
ENDBRANCH   1  22
TORSDOF 1
ENDMDL
MODEL       21
REMARK 921   NORMALIZED FREE ENERGY PREDICTED BY IDOCK:   -5.76 KCAL/MOL
REMARK 922        TOTAL FREE ENERGY PREDICTED BY IDOCK:   -5.70 KCAL/MOL
REMARK 923 INTER-LIGAND FREE ENERGY PREDICTED BY IDOCK:   -6.00 KCAL/MOL
REMARK 924 INTRA-LIGAND FREE ENERGY PREDICTED BY IDOCK:    0.30 KCAL/MOL
REMARK 927      BINDING AFFINITY PREDICTED BY RF-SCORE:    0.00 PKD
ROOT
HETATM    1  C   UNL     1     -10.611   7.970  70.096  1.00  0.00    -0.237 C  
HETATM    2  C   UNL     1      -8.793   6.616  68.863  1.00  0.00    -0.131 C  
HETATM    3  C   UNL     1     -10.424   9.390  70.611  1.00  0.00    -0.354 C  
HETATM    4  C   UNL     1      -8.921   9.567  70.416  1.00  0.00    -0.291 C  
HETATM    5  C   UNL     1      -9.617   7.934  68.797  1.00  0.00    -0.152 C  
HETATM    6  C   UNL     1     -10.182   7.913  67.325  1.00  0.00    -0.343 C  
HETATM    7  C   UNL     1      -8.765   9.256  68.925  1.00  0.00    -0.131 C  
HETATM    8  C   UNL     1      -9.302  10.539  68.185  1.00  0.00    -0.150 C  
HETATM    9  C   UNL     1      -8.358  11.700  68.394  1.00  0.00    -0.157 C  
HETATM   10  C   UNL     1      -9.112  12.983  68.107  1.00  0.00    -0.204 C  
HETATM   11  C   UNL     1      -9.375  13.055  66.607  1.00  0.00    -0.242 C  
HETATM   12  C   UNL     1      -9.894  14.472  66.276  1.00  0.00    -0.322 C  
HETATM   13  C   UNL     1     -11.397  14.698  66.334  1.00  0.00    -0.348 C  
HETATM   14  O   UNL     1     -11.802  15.107  67.628  1.00  0.00    -0.371 OA 
HETATM   15  C   UNL     1     -12.226  13.505  65.856  1.00  0.00    -0.507 C  
HETATM   16  H   UNL     1     -12.741  15.248  67.664  1.00  0.00     0.000 HD 
HETATM   17  C   UNL     1     -11.727  12.118  66.317  1.00  0.00    -0.389 C  
HETATM   18  C   UNL     1     -10.214  11.833  66.063  1.00  0.00    -0.265 C  
HETATM   19  C   UNL     1     -10.000  11.766  64.529  1.00  0.00    -0.273 C  
HETATM   20  C   UNL     1      -9.683  10.405  66.699  1.00  0.00    -0.236 C  
HETATM   21  C   UNL     1     -10.652   9.200  66.596  1.00  0.00    -0.157 C  
ENDROOT
BRANCH   1  22
HETATM   22  C   UNL     1     -10.319   7.173  71.453  1.00  0.00    -0.196 C  
HETATM   23  C   UNL     1     -11.216   7.488  72.661  1.00  0.00    -0.399 C  
HETATM   24  O   UNL     1      -9.388   6.400  71.614  1.00  0.00    -0.145 OA 
ENDBRANCH   1  22
TORSDOF 1
ENDMDL
MODEL       22
REMARK 921   NORMALIZED FREE ENERGY PREDICTED BY IDOCK:   -5.76 KCAL/MOL
REMARK 922        TOTAL FREE ENERGY PREDICTED BY IDOCK:   -5.70 KCAL/MOL
REMARK 923 INTER-LIGAND FREE ENERGY PREDICTED BY IDOCK:   -6.00 KCAL/MOL
REMARK 924 INTRA-LIGAND FREE ENERGY PREDICTED BY IDOCK:    0.29 KCAL/MOL
REMARK 927      BINDING AFFINITY PREDICTED BY RF-SCORE:    0.00 PKD
ROOT
HETATM    1  C   UNL     1     -10.152   9.208  66.428  1.00  0.00    -0.345 C  
HETATM    2  C   UNL     1      -9.145   9.591  64.083  1.00  0.00    -0.203 C  
HETATM    3  C   UNL     1      -9.525   9.703  67.724  1.00  0.00    -0.146 C  
HETATM    4  C   UNL     1      -8.163  10.173  67.219  1.00  0.00    -0.117 C  
HETATM    5  C   UNL     1      -9.662  10.335  65.348  1.00  0.00    -0.340 C  
HETATM    6  C   UNL     1     -10.666  11.389  64.741  1.00  0.00    -0.362 C  
HETATM    7  C   UNL     1      -8.566  11.164  66.123  1.00  0.00    -0.172 C  
HETATM    8  C   UNL     1      -9.044  12.451  66.897  1.00  0.00    -0.211 C  
HETATM    9  C   UNL     1      -7.869  13.131  67.560  1.00  0.00    -0.173 C  
HETATM   10  C   UNL     1      -8.400  14.035  68.655  1.00  0.00    -0.104 C  
HETATM   11  C   UNL     1      -9.115  15.210  67.997  1.00  0.00    -0.180 C  
HETATM   12  C   UNL     1      -9.415  16.263  69.086  1.00  0.00    -0.246 C  
HETATM   13  C   UNL     1     -10.740  16.147  69.825  1.00  0.00    -0.336 C  
HETATM   14  O   UNL     1     -10.612  15.335  70.978  1.00  0.00    -0.483 OA 
HETATM   15  C   UNL     1     -11.902  15.672  68.951  1.00  0.00    -0.368 C  
HETATM   16  H   UNL     1     -11.439  15.262  71.440  1.00  0.00     0.000 HD 
HETATM   17  C   UNL     1     -11.571  14.534  67.962  1.00  0.00    -0.364 C  
HETATM   18  C   UNL     1     -10.314  14.768  67.069  1.00  0.00    -0.255 C  
HETATM   19  C   UNL     1     -10.627  15.950  66.116  1.00  0.00    -0.310 C  
HETATM   20  C   UNL     1      -9.905  13.472  66.130  1.00  0.00    -0.292 C  
HETATM   21  C   UNL     1     -11.077  12.678  65.500  1.00  0.00    -0.329 C  
ENDROOT
BRANCH   1  22
HETATM   22  C   UNL     1      -9.603   7.705  66.445  1.00  0.00    -0.153 C  
HETATM   23  C   UNL     1     -10.559   6.611  66.948  1.00  0.00    -0.376 C  
HETATM   24  O   UNL     1      -8.458   7.384  66.166  1.00  0.00    -0.130 OA 
ENDBRANCH   1  22
TORSDOF 1
ENDMDL
MODEL       23
REMARK 921   NORMALIZED FREE ENERGY PREDICTED BY IDOCK:   -5.74 KCAL/MOL
REMARK 922        TOTAL FREE ENERGY PREDICTED BY IDOCK:   -5.69 KCAL/MOL
REMARK 923 INTER-LIGAND FREE ENERGY PREDICTED BY IDOCK:   -5.99 KCAL/MOL
REMARK 924 INTRA-LIGAND FREE ENERGY PREDICTED BY IDOCK:    0.30 KCAL/MOL
REMARK 927      BINDING AFFINITY PREDICTED BY RF-SCORE:    0.00 PKD
ROOT
HETATM    1  C   UNL     1      -9.096  16.612  68.024  1.00  0.00    -0.218 C  
HETATM    2  C   UNL     1     -10.646  16.988  65.995  1.00  0.00    -0.208 C  
HETATM    3  C   UNL     1      -9.552  16.045  69.361  1.00  0.00    -0.236 C  
HETATM    4  C   UNL     1     -11.067  16.058  69.172  1.00  0.00    -0.317 C  
HETATM    5  C   UNL     1     -10.121  15.894  66.970  1.00  0.00    -0.268 C  
HETATM    6  C   UNL     1      -9.635  14.761  65.987  1.00  0.00    -0.334 C  
HETATM    7  C   UNL     1     -11.225  15.240  67.888  1.00  0.00    -0.333 C  
HETATM    8  C   UNL     1     -11.005  13.744  68.332  1.00  0.00    -0.275 C  
HETATM    9  C   UNL     1     -12.160  13.274  69.184  1.00  0.00    -0.283 C  
HETATM   10  C   UNL     1     -11.707  12.060  69.971  1.00  0.00    -0.346 C  
HETATM   11  C   UNL     1     -11.537  10.898  68.999  1.00  0.00    -0.387 C  
HETATM   12  C   UNL     1     -11.344   9.605  69.821  1.00  0.00    -0.159 C  
HETATM   13  C   UNL     1      -9.921   9.221  70.196  1.00  0.00    -0.215 C  
HETATM   14  O   UNL     1      -9.549   9.787  71.440  1.00  0.00    -0.223 OA 
HETATM   15  C   UNL     1      -8.883   9.543  69.120  1.00  0.00    -0.147 C  
HETATM   16  H   UNL     1      -8.660   9.547  71.674  1.00  0.00     0.000 HD 
HETATM   17  C   UNL     1      -9.057  10.904  68.411  1.00  0.00    -0.164 C  
HETATM   18  C   UNL     1     -10.487  11.191  67.856  1.00  0.00    -0.220 C  
HETATM   19  C   UNL     1     -10.755  10.187  66.706  1.00  0.00    -0.191 C  
HETATM   20  C   UNL     1     -10.675  12.711  67.238  1.00  0.00    -0.259 C  
HETATM   21  C   UNL     1      -9.481  13.283  66.434  1.00  0.00    -0.225 C  
ENDROOT
BRANCH   1  22
HETATM   22  C   UNL     1      -9.149  18.171  68.384  1.00  0.00    -0.307 C  
HETATM   23  C   UNL     1      -7.854  18.819  68.901  1.00  0.00    -0.293 C  
HETATM   24  O   UNL     1     -10.161  18.853  68.354  1.00  0.00    -0.378 OA 
ENDBRANCH   1  22
TORSDOF 1
ENDMDL
MODEL       24
REMARK 921   NORMALIZED FREE ENERGY PREDICTED BY IDOCK:   -5.72 KCAL/MOL
REMARK 922        TOTAL FREE ENERGY PREDICTED BY IDOCK:   -5.66 KCAL/MOL
REMARK 923 INTER-LIGAND FREE ENERGY PREDICTED BY IDOCK:   -5.96 KCAL/MOL
REMARK 924 INTRA-LIGAND FREE ENERGY PREDICTED BY IDOCK:    0.30 KCAL/MOL
REMARK 927      BINDING AFFINITY PREDICTED BY RF-SCORE:    0.00 PKD
ROOT
HETATM    1  C   UNL     1      -8.719  10.099  66.240  1.00  0.00    -0.152 C  
HETATM    2  C   UNL     1      -6.344   9.306  66.863  1.00  0.00    -0.066 C  
HETATM    3  C   UNL     1      -9.938   9.191  66.169  1.00  0.00    -0.338 C  
HETATM    4  C   UNL     1      -9.278   7.820  66.296  1.00  0.00    -0.217 C  
HETATM    5  C   UNL     1      -7.807   9.374  67.389  1.00  0.00    -0.102 C  
HETATM    6  C   UNL     1      -7.629  10.006  68.822  1.00  0.00    -0.083 C  
HETATM    7  C   UNL     1      -8.500   7.974  67.606  1.00  0.00    -0.131 C  
HETATM    8  C   UNL     1      -9.590   7.872  68.739  1.00  0.00    -0.152 C  
HETATM    9  C   UNL     1     -10.131   6.464  68.823  1.00  0.00    -0.182 C  
HETATM   10  C   UNL     1     -11.465   6.509  69.542  1.00  0.00    -0.384 C  
HETATM   11  C   UNL     1     -11.204   6.836  71.008  1.00  0.00    -0.335 C  
HETATM   12  C   UNL     1     -12.517   6.616  71.792  1.00  0.00    -0.360 C  
HETATM   13  C   UNL     1     -13.464   7.800  71.917  1.00  0.00    -0.266 C  
HETATM   14  O   UNL     1     -14.386   7.832  70.843  1.00  0.00    -0.656 OA 
HETATM   15  C   UNL     1     -12.760   9.149  72.070  1.00  0.00    -0.473 C  
HETATM   16  H   UNL     1     -14.978   8.571  70.921  1.00  0.00     0.000 HD 
HETATM   17  C   UNL     1     -11.520   9.360  71.173  1.00  0.00    -0.422 C  
HETATM   18  C   UNL     1     -10.461   8.214  71.216  1.00  0.00    -0.254 C  
HETATM   19  C   UNL     1      -9.840   8.201  72.636  1.00  0.00    -0.364 C  
HETATM   20  C   UNL     1      -9.224   8.402  70.138  1.00  0.00    -0.159 C  
HETATM   21  C   UNL     1      -8.693   9.844  69.941  1.00  0.00    -0.225 C  
ENDROOT
BRANCH   1  22
HETATM   22  C   UNL     1      -8.332  10.117  64.687  1.00  0.00    -0.166 C  
HETATM   23  C   UNL     1      -9.460  10.406  63.683  1.00  0.00    -0.353 C  
HETATM   24  O   UNL     1      -7.228   9.838  64.247  1.00  0.00    -0.118 OA 
ENDBRANCH   1  22
TORSDOF 1
ENDMDL
MODEL       25
REMARK 921   NORMALIZED FREE ENERGY PREDICTED BY IDOCK:   -5.70 KCAL/MOL
REMARK 922        TOTAL FREE ENERGY PREDICTED BY IDOCK:   -5.64 KCAL/MOL
REMARK 923 INTER-LIGAND FREE ENERGY PREDICTED BY IDOCK:   -6.07 KCAL/MOL
REMARK 924 INTRA-LIGAND FREE ENERGY PREDICTED BY IDOCK:    0.43 KCAL/MOL
REMARK 927      BINDING AFFINITY PREDICTED BY RF-SCORE:    0.00 PKD
ROOT
HETATM    1  C   UNL     1     -12.130  12.432  65.982  1.00  0.00    -0.327 C  
HETATM    2  C   UNL     1     -11.486  14.435  67.476  1.00  0.00    -0.370 C  
HETATM    3  C   UNL     1     -11.130  11.473  65.352  1.00  0.00    -0.250 C  
HETATM    4  C   UNL     1      -9.818  12.196  65.648  1.00  0.00    -0.256 C  
HETATM    5  C   UNL     1     -11.363  12.889  67.353  1.00  0.00    -0.355 C  
HETATM    6  C   UNL     1     -11.840  12.391  68.771  1.00  0.00    -0.358 C  
HETATM    7  C   UNL     1      -9.890  12.354  67.170  1.00  0.00    -0.206 C  
HETATM    8  C   UNL     1      -9.562  10.922  67.741  1.00  0.00    -0.176 C  
HETATM    9  C   UNL     1      -8.111  10.579  67.498  1.00  0.00    -0.107 C  
HETATM   10  C   UNL     1      -7.955   9.075  67.604  1.00  0.00    -0.101 C  
HETATM   11  C   UNL     1      -8.134   8.679  69.065  1.00  0.00    -0.121 C  
HETATM   12  C   UNL     1      -7.709   7.202  69.219  1.00  0.00    -0.108 C  
HETATM   13  C   UNL     1      -8.781   6.141  69.022  1.00  0.00    -0.124 C  
HETATM   14  O   UNL     1      -8.853   5.733  67.667  1.00  0.00    -0.108 OA 
HETATM   15  C   UNL     1     -10.161   6.544  69.542  1.00  0.00    -0.219 C  
HETATM   16  H   UNL     1      -9.522   5.071  67.544  1.00  0.00     0.000 HD 
HETATM   17  C   UNL     1     -10.583   8.002  69.255  1.00  0.00    -0.193 C  
HETATM   18  C   UNL     1      -9.540   9.091  69.653  1.00  0.00    -0.175 C  
HETATM   19  C   UNL     1      -9.420   9.084  71.199  1.00  0.00    -0.348 C  
HETATM   20  C   UNL     1      -9.960  10.622  69.198  1.00  0.00    -0.228 C  
HETATM   21  C   UNL     1     -11.457  10.998  69.336  1.00  0.00    -0.364 C  
ENDROOT
BRANCH   1  22
HETATM   22  C   UNL     1     -12.360  13.406  64.733  1.00  0.00    -0.396 C  
HETATM   23  C   UNL     1     -11.902  12.904  63.354  1.00  0.00    -0.576 C  
HETATM   24  O   UNL     1     -12.795  14.544  64.815  1.00  0.00    -0.603 OA 
ENDBRANCH   1  22
TORSDOF 1
ENDMDL
MODEL       26
REMARK 921   NORMALIZED FREE ENERGY PREDICTED BY IDOCK:   -5.69 KCAL/MOL
REMARK 922        TOTAL FREE ENERGY PREDICTED BY IDOCK:   -5.63 KCAL/MOL
REMARK 923 INTER-LIGAND FREE ENERGY PREDICTED BY IDOCK:   -5.93 KCAL/MOL
REMARK 924 INTRA-LIGAND FREE ENERGY PREDICTED BY IDOCK:    0.30 KCAL/MOL
REMARK 927      BINDING AFFINITY PREDICTED BY RF-SCORE:    0.00 PKD
ROOT
HETATM    1  C   UNL     1     -10.467   8.737  72.242  1.00  0.00    -0.317 C  
HETATM    2  C   UNL     1     -12.937   8.069  71.907  1.00  0.00    -0.335 C  
HETATM    3  C   UNL     1      -9.401   8.663  71.158  1.00  0.00    -0.274 C  
HETATM    4  C   UNL     1     -10.154   7.899  70.072  1.00  0.00    -0.199 C  
HETATM    5  C   UNL     1     -11.827   9.024  71.380  1.00  0.00    -0.395 C  
HETATM    6  C   UNL     1     -12.541  10.430  71.407  1.00  0.00    -0.539 C  
HETATM    7  C   UNL     1     -11.395   8.776  69.883  1.00  0.00     0.030 C  
HETATM    8  C   UNL     1     -10.890  10.021  69.058  1.00  0.00    -0.253 C  
HETATM    9  C   UNL     1     -10.540   9.609  67.648  1.00  0.00    -0.334 C  
HETATM   10  C   UNL     1      -9.631  10.667  67.055  1.00  0.00    -0.196 C  
HETATM   11  C   UNL     1     -10.455  11.928  66.822  1.00  0.00    -0.253 C  
HETATM   12  C   UNL     1      -9.612  12.907  65.976  1.00  0.00    -0.172 C  
HETATM   13  C   UNL     1      -8.719  13.886  66.723  1.00  0.00    -0.097 C  
HETATM   14  O   UNL     1      -7.432  13.338  66.944  1.00  0.00    -0.348 OA 
HETATM   15  C   UNL     1      -9.319  14.407  68.030  1.00  0.00    -0.200 C  
HETATM   16  H   UNL     1      -6.874  13.949  67.410  1.00  0.00     0.000 HD 
HETATM   17  C   UNL     1     -10.051  13.357  68.893  1.00  0.00    -0.010 C  
HETATM   18  C   UNL     1     -11.112  12.494  68.142  1.00  0.00    -0.282 C  
HETATM   19  C   UNL     1     -12.269  13.436  67.721  1.00  0.00    -0.171 C  
HETATM   20  C   UNL     1     -11.767  11.286  69.058  1.00  0.00    -0.410 C  
HETATM   21  C   UNL     1     -12.058  11.625  70.542  1.00  0.00    -0.458 C  
ENDROOT
BRANCH   1  22
HETATM   22  C   UNL     1     -10.166   7.349  72.980  1.00  0.00    -0.286 C  
HETATM   23  C   UNL     1      -8.751   7.144  73.546  1.00  0.00    -0.176 C  
HETATM   24  O   UNL     1     -10.954   6.419  73.051  1.00  0.00    -0.252 OA 
ENDBRANCH   1  22
TORSDOF 1
ENDMDL
MODEL       27
REMARK 921   NORMALIZED FREE ENERGY PREDICTED BY IDOCK:   -5.68 KCAL/MOL
REMARK 922        TOTAL FREE ENERGY PREDICTED BY IDOCK:   -5.62 KCAL/MOL
REMARK 923 INTER-LIGAND FREE ENERGY PREDICTED BY IDOCK:   -5.98 KCAL/MOL
REMARK 924 INTRA-LIGAND FREE ENERGY PREDICTED BY IDOCK:    0.36 KCAL/MOL
REMARK 927      BINDING AFFINITY PREDICTED BY RF-SCORE:    0.00 PKD
ROOT
HETATM    1  C   UNL     1      -9.038   7.771  69.098  1.00  0.00    -0.145 C  
HETATM    2  C   UNL     1      -7.461   8.817  70.854  1.00  0.00    -0.094 C  
HETATM    3  C   UNL     1     -10.495   8.167  68.906  1.00  0.00    -0.202 C  
HETATM    4  C   UNL     1     -10.711   9.054  70.130  1.00  0.00    -0.258 C  
HETATM    5  C   UNL     1      -8.362   9.162  69.633  1.00  0.00    -0.130 C  
HETATM    6  C   UNL     1      -7.397  10.015  68.723  1.00  0.00    -0.078 C  
HETATM    7  C   UNL     1      -9.596  10.090  69.961  1.00  0.00    -0.205 C  
HETATM    8  C   UNL     1     -10.104  11.049  68.819  1.00  0.00    -0.214 C  
HETATM    9  C   UNL     1     -11.270  11.875  69.308  1.00  0.00    -0.304 C  
HETATM   10  C   UNL     1     -12.021  12.400  68.100  1.00  0.00    -0.272 C  
HETATM   11  C   UNL     1     -11.152  13.451  67.419  1.00  0.00    -0.297 C  
HETATM   12  C   UNL     1     -12.012  14.177  66.361  1.00  0.00    -0.457 C  
HETATM   13  C   UNL     1     -12.034  13.593  64.957  1.00  0.00    -0.378 C  
HETATM   14  O   UNL     1     -13.077  12.646  64.813  1.00  0.00    -0.852 OA 
HETATM   15  C   UNL     1     -10.697  13.002  64.506  1.00  0.00    -0.404 C  
HETATM   16  H   UNL     1     -13.091  12.281  63.936  1.00  0.00     0.000 HD 
HETATM   17  C   UNL     1      -9.935  12.185  65.572  1.00  0.00    -0.269 C  
HETATM   18  C   UNL     1      -9.751  12.892  66.951  1.00  0.00    -0.240 C  
HETATM   19  C   UNL     1      -8.812  14.106  66.735  1.00  0.00    -0.190 C  
HETATM   20  C   UNL     1      -9.064  11.936  68.109  1.00  0.00    -0.190 C  
HETATM   21  C   UNL     1      -7.924  10.996  67.643  1.00  0.00    -0.115 C  
ENDROOT
BRANCH   1  22
HETATM   22  C   UNL     1      -9.251   6.481  70.022  1.00  0.00    -0.157 C  
HETATM   23  C   UNL     1     -10.549   5.681  69.827  1.00  0.00    -0.400 C  
HETATM   24  O   UNL     1      -8.496   6.142  70.920  1.00  0.00    -0.125 OA 
ENDBRANCH   1  22
TORSDOF 1
ENDMDL
MODEL       28
REMARK 921   NORMALIZED FREE ENERGY PREDICTED BY IDOCK:   -5.63 KCAL/MOL
REMARK 922        TOTAL FREE ENERGY PREDICTED BY IDOCK:   -5.57 KCAL/MOL
REMARK 923 INTER-LIGAND FREE ENERGY PREDICTED BY IDOCK:   -5.83 KCAL/MOL
REMARK 924 INTRA-LIGAND FREE ENERGY PREDICTED BY IDOCK:    0.26 KCAL/MOL
REMARK 927      BINDING AFFINITY PREDICTED BY RF-SCORE:    0.00 PKD
ROOT
HETATM    1  C   UNL     1      -8.237   8.890  66.733  1.00  0.00    -0.111 C  
HETATM    2  C   UNL     1     -10.518   7.704  66.960  1.00  0.00    -0.419 C  
HETATM    3  C   UNL     1      -7.895   9.894  65.642  1.00  0.00    -0.127 C  
HETATM    4  C   UNL     1      -9.103   9.738  64.723  1.00  0.00    -0.290 C  
HETATM    5  C   UNL     1      -9.848   9.108  66.919  1.00  0.00    -0.280 C  
HETATM    6  C   UNL     1     -10.443   9.811  68.199  1.00  0.00    -0.258 C  
HETATM    7  C   UNL     1     -10.261  10.005  65.689  1.00  0.00    -0.258 C  
HETATM    8  C   UNL     1     -10.262  11.567  65.898  1.00  0.00    -0.286 C  
HETATM    9  C   UNL     1     -10.701  12.266  64.632  1.00  0.00    -0.347 C  
HETATM   10  C   UNL     1     -10.235  13.707  64.700  1.00  0.00    -0.338 C  
HETATM   11  C   UNL     1     -11.061  14.425  65.761  1.00  0.00    -0.316 C  
HETATM   12  C   UNL     1     -10.784  15.940  65.644  1.00  0.00    -0.350 C  
HETATM   13  C   UNL     1      -9.634  16.506  66.463  1.00  0.00    -0.271 C  
HETATM   14  O   UNL     1      -8.420  16.467  65.733  1.00  0.00    -0.394 OA 
HETATM   15  C   UNL     1      -9.464  15.854  67.835  1.00  0.00    -0.213 C  
HETATM   16  H   UNL     1      -7.702  16.820  66.244  1.00  0.00     0.000 HD 
HETATM   17  C   UNL     1      -9.636  14.319  67.871  1.00  0.00    -0.221 C  
HETATM   18  C   UNL     1     -10.932  13.775  67.195  1.00  0.00    -0.299 C  
HETATM   19  C   UNL     1     -12.140  14.260  68.037  1.00  0.00    -0.289 C  
HETATM   20  C   UNL     1     -11.011  12.127  67.121  1.00  0.00    -0.316 C  
HETATM   21  C   UNL     1     -10.485  11.355  68.356  1.00  0.00    -0.221 C  
ENDROOT
BRANCH   1  22
HETATM   22  C   UNL     1      -7.594   7.580  66.075  1.00  0.00    -0.088 C  
HETATM   23  C   UNL     1      -7.444   6.342  66.974  1.00  0.00    -0.084 C  
HETATM   24  O   UNL     1      -7.143   7.526  64.942  1.00  0.00    -0.057 OA 
ENDBRANCH   1  22
TORSDOF 1
ENDMDL
MODEL       29
REMARK 921   NORMALIZED FREE ENERGY PREDICTED BY IDOCK:   -5.63 KCAL/MOL
REMARK 922        TOTAL FREE ENERGY PREDICTED BY IDOCK:   -5.57 KCAL/MOL
REMARK 923 INTER-LIGAND FREE ENERGY PREDICTED BY IDOCK:   -5.79 KCAL/MOL
REMARK 924 INTRA-LIGAND FREE ENERGY PREDICTED BY IDOCK:    0.23 KCAL/MOL
REMARK 927      BINDING AFFINITY PREDICTED BY RF-SCORE:    0.00 PKD
ROOT
HETATM    1  C   UNL     1     -10.249  12.732  68.585  1.00  0.00    -0.162 C  
HETATM    2  C   UNL     1     -12.515  13.132  69.755  1.00  0.00    -0.039 C  
HETATM    3  C   UNL     1      -9.910  13.212  67.182  1.00  0.00    -0.235 C  
HETATM    4  C   UNL     1     -11.281  13.681  66.703  1.00  0.00    -0.324 C  
HETATM    5  C   UNL     1     -11.310  13.867  69.098  1.00  0.00    -0.331 C  
HETATM    6  C   UNL     1     -10.917  14.930  70.194  1.00  0.00    -0.211 C  
HETATM    7  C   UNL     1     -11.663  14.684  67.795  1.00  0.00    -0.386 C  
HETATM    8  C   UNL     1     -10.799  15.966  67.488  1.00  0.00    -0.305 C  
HETATM    9  C   UNL     1     -11.284  16.634  66.223  1.00  0.00     0.460 C  
HETATM   10  C   UNL     1     -10.177  17.531  65.705  1.00  0.00    -0.184 C  
HETATM   11  C   UNL     1     -10.039  18.714  66.655  1.00  0.00    -0.418 C  
HETATM   12  C   UNL     1      -9.112  19.759  65.995  1.00  0.00    -0.319 C  
HETATM   13  C   UNL     1      -7.620  19.641  66.266  1.00  0.00    -0.308 C  
HETATM   14  O   UNL     1      -6.989  18.818  65.301  1.00  0.00    -0.509 OA 
HETATM   15  C   UNL     1      -7.278  19.179  67.683  1.00  0.00    -0.246 C  
HETATM   16  H   UNL     1      -6.057  18.744  65.470  1.00  0.00     0.000 HD 
HETATM   17  C   UNL     1      -8.165  18.049  68.249  1.00  0.00    -0.298 C  
HETATM   18  C   UNL     1      -9.703  18.286  68.138  1.00  0.00    -0.341 C  
HETATM   19  C   UNL     1     -10.062  19.478  69.062  1.00  0.00    -0.444 C  
HETATM   20  C   UNL     1     -10.617  16.997  68.617  1.00  0.00    -0.362 C  
HETATM   21  C   UNL     1     -10.114  16.215  69.855  1.00  0.00    -0.074 C  
ENDROOT
BRANCH   1  22
HETATM   22  C   UNL     1     -10.666  11.226  68.238  1.00  0.00    -0.194 C  
HETATM   23  C   UNL     1     -10.216  10.128  69.216  1.00  0.00    -0.238 C  
HETATM   24  O   UNL     1     -11.242  10.886  67.217  1.00  0.00    -0.324 OA 
ENDBRANCH   1  22
TORSDOF 1
ENDMDL
MODEL       30
REMARK 921   NORMALIZED FREE ENERGY PREDICTED BY IDOCK:   -5.63 KCAL/MOL
REMARK 922        TOTAL FREE ENERGY PREDICTED BY IDOCK:   -5.57 KCAL/MOL
REMARK 923 INTER-LIGAND FREE ENERGY PREDICTED BY IDOCK:   -5.79 KCAL/MOL
REMARK 924 INTRA-LIGAND FREE ENERGY PREDICTED BY IDOCK:    0.22 KCAL/MOL
REMARK 927      BINDING AFFINITY PREDICTED BY RF-SCORE:    0.00 PKD
ROOT
HETATM    1  C   UNL     1     -10.180   7.785  69.277  1.00  0.00    -0.211 C  
HETATM    2  C   UNL     1      -8.156   6.873  67.961  1.00  0.00    -0.115 C  
HETATM    3  C   UNL     1     -10.207   9.128  69.991  1.00  0.00    -0.229 C  
HETATM    4  C   UNL     1      -8.737   9.529  69.897  1.00  0.00    -0.224 C  
HETATM    5  C   UNL     1      -9.152   8.067  68.036  1.00  0.00    -0.130 C  
HETATM    6  C   UNL     1      -9.664   8.182  66.549  1.00  0.00    -0.309 C  
HETATM    7  C   UNL     1      -8.495   9.457  68.386  1.00  0.00    -0.120 C  
HETATM    8  C   UNL     1      -9.181  10.751  67.804  1.00  0.00    -0.155 C  
HETATM    9  C   UNL     1      -8.413  11.984  68.219  1.00  0.00    -0.167 C  
HETATM   10  C   UNL     1      -9.328  13.184  68.074  1.00  0.00    -0.219 C  
HETATM   11  C   UNL     1      -9.553  13.435  66.587  1.00  0.00    -0.272 C  
HETATM   12  C   UNL     1     -10.252  14.804  66.429  1.00  0.00    -0.299 C  
HETATM   13  C   UNL     1     -11.773  14.818  66.442  1.00  0.00    -0.263 C  
HETATM   14  O   UNL     1     -12.270  14.980  67.759  1.00  0.00    -0.494 OA 
HETATM   15  C   UNL     1     -12.415  13.606  65.765  1.00  0.00    -0.524 C  
HETATM   16  H   UNL     1     -13.220  14.989  67.768  1.00  0.00     0.000 HD 
HETATM   17  C   UNL     1     -11.743  12.246  66.054  1.00  0.00    -0.451 C  
HETATM   18  C   UNL     1     -10.198  12.204  65.839  1.00  0.00    -0.272 C  
HETATM   19  C   UNL     1      -9.930  12.385  64.322  1.00  0.00    -0.232 C  
HETATM   20  C   UNL     1      -9.495  10.781  66.297  1.00  0.00    -0.213 C  
HETATM   21  C   UNL     1     -10.285   9.487  65.982  1.00  0.00    -0.242 C  
ENDROOT
BRANCH   1  22
HETATM   22  C   UNL     1      -9.823   6.847  70.524  1.00  0.00    -0.179 C  
HETATM   23  C   UNL     1     -10.497   5.467  70.583  1.00  0.00    -0.329 C  
HETATM   24  O   UNL     1      -9.121   7.186  71.464  1.00  0.00    -0.142 OA 
ENDBRANCH   1  22
TORSDOF 1
ENDMDL
MODEL       31
REMARK 921   NORMALIZED FREE ENERGY PREDICTED BY IDOCK:   -5.57 KCAL/MOL
REMARK 922        TOTAL FREE ENERGY PREDICTED BY IDOCK:   -5.50 KCAL/MOL
REMARK 923 INTER-LIGAND FREE ENERGY PREDICTED BY IDOCK:   -5.81 KCAL/MOL
REMARK 924 INTRA-LIGAND FREE ENERGY PREDICTED BY IDOCK:    0.31 KCAL/MOL
REMARK 927      BINDING AFFINITY PREDICTED BY RF-SCORE:    0.00 PKD
ROOT
HETATM    1  C   UNL     1     -10.004   8.410  72.299  1.00  0.00    -0.383 C  
HETATM    2  C   UNL     1     -12.582   8.526  72.327  1.00  0.00    -0.438 C  
HETATM    3  C   UNL     1      -9.190   7.599  71.301  1.00  0.00    -0.155 C  
HETATM    4  C   UNL     1     -10.295   6.790  70.626  1.00  0.00    -0.225 C  
HETATM    5  C   UNL     1     -11.337   8.798  71.434  1.00  0.00    -0.364 C  
HETATM    6  C   UNL     1     -11.593  10.269  70.926  1.00  0.00    -0.454 C  
HETATM    7  C   UNL     1     -11.237   7.896  70.143  1.00  0.00    -0.157 C  
HETATM    8  C   UNL     1     -10.523   8.513  68.881  1.00  0.00    -0.207 C  
HETATM    9  C   UNL     1     -10.535   7.527  67.737  1.00  0.00    -0.288 C  
HETATM   10  C   UNL     1      -9.459   7.933  66.749  1.00  0.00    -0.257 C  
HETATM   11  C   UNL     1      -9.902   9.220  66.063  1.00  0.00    -0.363 C  
HETATM   12  C   UNL     1      -8.951   9.486  64.876  1.00  0.00    -0.264 C  
HETATM   13  C   UNL     1      -7.704  10.313  65.150  1.00  0.00    -0.136 C  
HETATM   14  O   UNL     1      -6.617   9.489  65.531  1.00  0.00    -0.069 OA 
HETATM   15  C   UNL     1      -7.913  11.440  66.163  1.00  0.00     0.021 C  
HETATM   16  H   UNL     1      -5.839  10.005  65.702  1.00  0.00     0.000 HD 
HETATM   17  C   UNL     1      -8.777  11.081  67.391  1.00  0.00    -0.132 C  
HETATM   18  C   UNL     1     -10.148  10.409  67.072  1.00  0.00    -0.264 C  
HETATM   19  C   UNL     1     -11.029  11.461  66.348  1.00  0.00    -0.315 C  
HETATM   20  C   UNL     1     -10.978   9.907  68.409  1.00  0.00    -0.235 C  
HETATM   21  C   UNL     1     -10.921  10.836  69.647  1.00  0.00    -0.320 C  
ENDROOT
BRANCH   1  22
HETATM   22  C   UNL     1     -10.014   7.369  73.515  1.00  0.00    -0.326 C  
HETATM   23  C   UNL     1      -8.766   7.322  74.413  1.00  0.00    -0.242 C  
HETATM   24  O   UNL     1     -10.904   6.560  73.726  1.00  0.00    -0.232 OA 
ENDBRANCH   1  22
TORSDOF 1
ENDMDL
MODEL       32
REMARK 921   NORMALIZED FREE ENERGY PREDICTED BY IDOCK:   -5.51 KCAL/MOL
REMARK 922        TOTAL FREE ENERGY PREDICTED BY IDOCK:   -5.44 KCAL/MOL
REMARK 923 INTER-LIGAND FREE ENERGY PREDICTED BY IDOCK:   -5.95 KCAL/MOL
REMARK 924 INTRA-LIGAND FREE ENERGY PREDICTED BY IDOCK:    0.51 KCAL/MOL
REMARK 927      BINDING AFFINITY PREDICTED BY RF-SCORE:    0.00 PKD
ROOT
HETATM    1  C   UNL     1     -13.007  14.826  70.996  1.00  0.00    -0.423 C  
HETATM    2  C   UNL     1     -12.082  12.459  70.543  1.00  0.00    -0.363 C  
HETATM    3  C   UNL     1     -12.146  16.036  71.331  1.00  0.00    -0.479 C  
HETATM    4  C   UNL     1     -10.791  15.368  71.547  1.00  0.00     0.008 C  
HETATM    5  C   UNL     1     -12.010  13.935  70.053  1.00  0.00    -0.404 C  
HETATM    6  C   UNL     1     -12.248  13.795  68.501  1.00  0.00    -0.194 C  
HETATM    7  C   UNL     1     -10.600  14.621  70.224  1.00  0.00     0.169 C  
HETATM    8  C   UNL     1     -10.205  15.737  69.183  1.00  0.00    -0.231 C  
HETATM    9  C   UNL     1      -8.823  16.268  69.481  1.00  0.00     0.089 C  
HETATM   10  C   UNL     1      -8.678  17.618  68.807  1.00  0.00    -0.207 C  
HETATM   11  C   UNL     1      -8.613  17.394  67.301  1.00  0.00    -0.223 C  
HETATM   12  C   UNL     1      -8.195  18.723  66.633  1.00  0.00    -0.298 C  
HETATM   13  C   UNL     1      -9.304  19.681  66.227  1.00  0.00    -0.383 C  
HETATM   14  O   UNL     1      -9.613  20.579  67.278  1.00  0.00    -0.424 OA 
HETATM   15  C   UNL     1     -10.569  18.991  65.713  1.00  0.00    -0.388 C  
HETATM   16  H   UNL     1     -10.305  21.178  67.025  1.00  0.00     0.000 HD 
HETATM   17  C   UNL     1     -11.006  17.733  66.493  1.00  0.00     0.237 C  
HETATM   18  C   UNL     1      -9.891  16.667  66.724  1.00  0.00    -0.280 C  
HETATM   19  C   UNL     1      -9.510  16.079  65.342  1.00  0.00     0.150 C  
HETATM   20  C   UNL     1     -10.355  15.407  67.686  1.00  0.00    -0.262 C  
HETATM   21  C   UNL     1     -11.799  14.882  67.489  1.00  0.00    -0.256 C  
ENDROOT
BRANCH   1  22
HETATM   22  C   UNL     1     -13.428  14.403  72.481  1.00  0.00    -0.497 C  
HETATM   23  C   UNL     1     -12.939  15.296  73.634  1.00  0.00    -0.576 C  
HETATM   24  O   UNL     1     -14.037  13.383  72.763  1.00  0.00    -0.715 OA 
ENDBRANCH   1  22
TORSDOF 1
ENDMDL
MODEL       33
REMARK 921   NORMALIZED FREE ENERGY PREDICTED BY IDOCK:   -5.51 KCAL/MOL
REMARK 922        TOTAL FREE ENERGY PREDICTED BY IDOCK:   -5.44 KCAL/MOL
REMARK 923 INTER-LIGAND FREE ENERGY PREDICTED BY IDOCK:   -5.68 KCAL/MOL
REMARK 924 INTRA-LIGAND FREE ENERGY PREDICTED BY IDOCK:    0.24 KCAL/MOL
REMARK 927      BINDING AFFINITY PREDICTED BY RF-SCORE:    0.00 PKD
ROOT
HETATM    1  C   UNL     1     -11.320  11.226  67.517  1.00  0.00    -0.360 C  
HETATM    2  C   UNL     1     -11.302  13.135  69.255  1.00  0.00    -0.312 C  
HETATM    3  C   UNL     1     -10.143  10.302  67.244  1.00  0.00    -0.249 C  
HETATM    4  C   UNL     1      -9.044  11.000  68.040  1.00  0.00    -0.152 C  
HETATM    5  C   UNL     1     -11.116  11.598  69.098  1.00  0.00    -0.302 C  
HETATM    6  C   UNL     1     -12.070  11.020  70.212  1.00  0.00    -0.448 C  
HETATM    7  C   UNL     1      -9.669  11.068  69.436  1.00  0.00     0.057 C  
HETATM    8  C   UNL     1      -9.548   9.604  70.005  1.00  0.00    -0.281 C  
HETATM    9  C   UNL     1      -8.103   9.269  70.292  1.00  0.00    -0.165 C  
HETATM   10  C   UNL     1      -7.970   7.761  70.361  1.00  0.00    -0.095 C  
HETATM   11  C   UNL     1      -8.664   7.279  71.631  1.00  0.00    -0.122 C  
HETATM   12  C   UNL     1      -8.299   5.794  71.846  1.00  0.00    -0.119 C  
HETATM   13  C   UNL     1      -9.207   4.752  71.210  1.00  0.00    -0.142 C  
HETATM   14  O   UNL     1      -8.772   4.425  69.903  1.00  0.00    -0.071 OA 
HETATM   15  C   UNL     1     -10.689   5.130  71.211  1.00  0.00    -0.142 C  
HETATM   16  H   UNL     1      -9.338   3.774  69.505  1.00  0.00     0.000 HD 
HETATM   17  C   UNL     1     -11.001   6.604  70.873  1.00  0.00    -0.315 C  
HETATM   18  C   UNL     1     -10.195   7.663  71.686  1.00  0.00    -0.217 C  
HETATM   19  C   UNL     1     -10.648   7.564  73.166  1.00  0.00    -0.442 C  
HETATM   20  C   UNL     1     -10.446   9.220  71.197  1.00  0.00    -0.401 C  
HETATM   21  C   UNL     1     -11.895   9.594  70.799  1.00  0.00    -0.378 C  
ENDROOT
BRANCH   1  22
HETATM   22  C   UNL     1     -11.095  12.274  66.328  1.00  0.00    -0.302 C  
HETATM   23  C   UNL     1     -12.314  12.625  65.459  1.00  0.00    -0.455 C  
HETATM   24  O   UNL     1     -10.012  12.744  66.018  1.00  0.00    -0.265 OA 
ENDBRANCH   1  22
TORSDOF 1
ENDMDL
MODEL       34
REMARK 921   NORMALIZED FREE ENERGY PREDICTED BY IDOCK:   -5.50 KCAL/MOL
REMARK 922        TOTAL FREE ENERGY PREDICTED BY IDOCK:   -5.43 KCAL/MOL
REMARK 923 INTER-LIGAND FREE ENERGY PREDICTED BY IDOCK:   -5.73 KCAL/MOL
REMARK 924 INTRA-LIGAND FREE ENERGY PREDICTED BY IDOCK:    0.31 KCAL/MOL
REMARK 927      BINDING AFFINITY PREDICTED BY RF-SCORE:    0.00 PKD
ROOT
HETATM    1  C   UNL     1     -11.980  15.737  69.346  1.00  0.00    -0.321 C  
HETATM    2  C   UNL     1     -11.705  13.850  67.607  1.00  0.00    -0.403 C  
HETATM    3  C   UNL     1     -10.921  16.125  70.368  1.00  0.00    -0.320 C  
HETATM    4  C   UNL     1      -9.927  14.979  70.196  1.00  0.00     0.119 C  
HETATM    5  C   UNL     1     -11.077  15.187  68.097  1.00  0.00    -0.306 C  
HETATM    6  C   UNL     1     -10.931  16.010  66.759  1.00  0.00    -0.112 C  
HETATM    7  C   UNL     1      -9.624  15.057  68.697  1.00  0.00    -0.219 C  
HETATM    8  C   UNL     1      -8.662  16.296  68.542  1.00  0.00    -0.211 C  
HETATM    9  C   UNL     1      -7.314  15.992  69.151  1.00  0.00    -0.209 C  
HETATM   10  C   UNL     1      -6.608  17.307  69.421  1.00  0.00    -0.218 C  
HETATM   11  C   UNL     1      -6.220  17.923  68.082  1.00  0.00    -0.175 C  
HETATM   12  C   UNL     1      -5.271  19.111  68.355  1.00  0.00    -0.188 C  
HETATM   13  C   UNL     1      -5.904  20.479  68.559  1.00  0.00    -0.309 C  
HETATM   14  O   UNL     1      -6.199  20.706  69.925  1.00  0.00    -0.348 OA 
HETATM   15  C   UNL     1      -7.134  20.734  67.687  1.00  0.00    -0.358 C  
HETATM   16  H   UNL     1      -6.594  21.561  70.053  1.00  0.00     0.000 HD 
HETATM   17  C   UNL     1      -8.110  19.546  67.545  1.00  0.00    -0.325 C  
HETATM   18  C   UNL     1      -7.457  18.189  67.138  1.00  0.00    -0.224 C  
HETATM   19  C   UNL     1      -6.917  18.343  65.692  1.00  0.00    -0.241 C  
HETATM   20  C   UNL     1      -8.504  16.912  67.140  1.00  0.00    -0.218 C  
HETATM   21  C   UNL     1      -9.935  17.191  66.614  1.00  0.00    -0.298 C  
ENDROOT
BRANCH   1  22
HETATM   22  C   UNL     1     -12.880  14.788  70.269  1.00  0.00    -0.217 C  
HETATM   23  C   UNL     1     -13.855  15.471  71.242  1.00  0.00    -0.440 C  
HETATM   24  O   UNL     1     -12.786  13.571  70.309  1.00  0.00    -0.193 OA 
ENDBRANCH   1  22
TORSDOF 1
ENDMDL
MODEL       35
REMARK 921   NORMALIZED FREE ENERGY PREDICTED BY IDOCK:   -5.43 KCAL/MOL
REMARK 922        TOTAL FREE ENERGY PREDICTED BY IDOCK:   -5.36 KCAL/MOL
REMARK 923 INTER-LIGAND FREE ENERGY PREDICTED BY IDOCK:   -5.58 KCAL/MOL
REMARK 924 INTRA-LIGAND FREE ENERGY PREDICTED BY IDOCK:    0.22 KCAL/MOL
REMARK 927      BINDING AFFINITY PREDICTED BY RF-SCORE:    0.00 PKD
ROOT
HETATM    1  C   UNL     1     -10.032  10.207  65.804  1.00  0.00    -0.339 C  
HETATM    2  C   UNL     1      -9.871  12.718  66.380  1.00  0.00    -0.269 C  
HETATM    3  C   UNL     1      -9.200   9.118  66.467  1.00  0.00    -0.221 C  
HETATM    4  C   UNL     1      -8.201   9.963  67.252  1.00  0.00    -0.121 C  
HETATM    5  C   UNL     1     -10.167  11.320  66.996  1.00  0.00    -0.250 C  
HETATM    6  C   UNL     1     -11.531  11.559  67.752  1.00  0.00    -0.357 C  
HETATM    7  C   UNL     1      -9.133  10.844  68.089  1.00  0.00    -0.155 C  
HETATM    8  C   UNL     1      -9.668   9.899  69.230  1.00  0.00    -0.218 C  
HETATM    9  C   UNL     1      -8.556   9.561  70.195  1.00  0.00    -0.250 C  
HETATM   10  C   UNL     1      -8.954   8.313  70.960  1.00  0.00    -0.183 C  
HETATM   11  C   UNL     1     -10.094   8.677  71.905  1.00  0.00    -0.398 C  
HETATM   12  C   UNL     1     -10.317   7.492  72.870  1.00  0.00    -0.349 C  
HETATM   13  C   UNL     1     -11.301   6.415  72.441  1.00  0.00    -0.287 C  
HETATM   14  O   UNL     1     -10.650   5.391  71.710  1.00  0.00    -0.224 OA 
HETATM   15  C   UNL     1     -12.512   6.946  71.672  1.00  0.00    -0.418 C  
HETATM   16  H   UNL     1     -11.265   4.718  71.441  1.00  0.00     0.000 HD 
HETATM   17  C   UNL     1     -12.212   8.049  70.634  1.00  0.00     0.080 C  
HETATM   18  C   UNL     1     -11.362   9.249  71.158  1.00  0.00    -0.412 C  
HETATM   19  C   UNL     1     -12.218  10.008  72.204  1.00  0.00     0.060 C  
HETATM   20  C   UNL     1     -10.937  10.333  69.987  1.00  0.00    -0.371 C  
HETATM   21  C   UNL     1     -12.009  10.646  68.913  1.00  0.00    -0.128 C  
ENDROOT
BRANCH   1  22
HETATM   22  C   UNL     1      -9.150  10.427  64.487  1.00  0.00    -0.229 C  
HETATM   23  C   UNL     1      -9.899  10.744  63.182  1.00  0.00    -0.378 C  
HETATM   24  O   UNL     1      -7.939  10.281  64.434  1.00  0.00    -0.160 OA 
ENDBRANCH   1  22
TORSDOF 1
ENDMDL
MODEL       36
REMARK 921   NORMALIZED FREE ENERGY PREDICTED BY IDOCK:   -5.42 KCAL/MOL
REMARK 922        TOTAL FREE ENERGY PREDICTED BY IDOCK:   -5.35 KCAL/MOL
REMARK 923 INTER-LIGAND FREE ENERGY PREDICTED BY IDOCK:   -5.57 KCAL/MOL
REMARK 924 INTRA-LIGAND FREE ENERGY PREDICTED BY IDOCK:    0.22 KCAL/MOL
REMARK 927      BINDING AFFINITY PREDICTED BY RF-SCORE:    0.00 PKD
ROOT
HETATM    1  C   UNL     1     -10.177   6.494  71.693  1.00  0.00    -0.216 C  
HETATM    2  C   UNL     1     -12.731   6.864  71.677  1.00  0.00    -0.396 C  
HETATM    3  C   UNL     1      -9.379   5.955  70.514  1.00  0.00    -0.185 C  
HETATM    4  C   UNL     1     -10.507   5.516  69.585  1.00  0.00    -0.379 C  
HETATM    5  C   UNL     1     -11.414   7.270  70.955  1.00  0.00    -0.321 C  
HETATM    6  C   UNL     1     -11.505   8.844  70.931  1.00  0.00    -0.339 C  
HETATM    7  C   UNL     1     -11.315   6.810  69.449  1.00  0.00    -0.255 C  
HETATM    8  C   UNL     1     -10.472   7.712  68.469  1.00  0.00    -0.206 C  
HETATM    9  C   UNL     1     -10.502   7.140  67.072  1.00  0.00    -0.392 C  
HETATM   10  C   UNL     1      -9.334   7.718  66.297  1.00  0.00    -0.210 C  
HETATM   11  C   UNL     1      -9.617   9.194  66.040  1.00  0.00    -0.342 C  
HETATM   12  C   UNL     1      -8.574   9.716  65.027  1.00  0.00    -0.180 C  
HETATM   13  C   UNL     1      -7.278  10.282  65.587  1.00  0.00    -0.148 C  
HETATM   14  O   UNL     1      -6.295   9.271  65.721  1.00  0.00    -0.065 OA 
HETATM   15  C   UNL     1      -7.448  11.052  66.898  1.00  0.00    -0.133 C  
HETATM   16  H   UNL     1      -5.486   9.624  66.070  1.00  0.00     0.000 HD 
HETATM   17  C   UNL     1      -8.415  10.420  67.923  1.00  0.00    -0.114 C  
HETATM   18  C   UNL     1      -9.818  10.028  67.365  1.00  0.00    -0.226 C  
HETATM   19  C   UNL     1     -10.555  11.339  66.985  1.00  0.00    -0.287 C  
HETATM   20  C   UNL     1     -10.770   9.223  68.448  1.00  0.00    -0.192 C  
HETATM   21  C   UNL     1     -10.708   9.708  69.918  1.00  0.00    -0.283 C  
ENDROOT
BRANCH   1  22
HETATM   22  C   UNL     1     -10.355   5.133  72.516  1.00  0.00    -0.204 C  
HETATM   23  C   UNL     1     -10.624   5.252  74.025  1.00  0.00    -0.321 C  
HETATM   24  O   UNL     1     -10.210   4.016  72.044  1.00  0.00    -0.176 OA 
ENDBRANCH   1  22
TORSDOF 1
ENDMDL
MODEL       37
REMARK 921   NORMALIZED FREE ENERGY PREDICTED BY IDOCK:   -5.42 KCAL/MOL
REMARK 922        TOTAL FREE ENERGY PREDICTED BY IDOCK:   -5.35 KCAL/MOL
REMARK 923 INTER-LIGAND FREE ENERGY PREDICTED BY IDOCK:   -5.58 KCAL/MOL
REMARK 924 INTRA-LIGAND FREE ENERGY PREDICTED BY IDOCK:    0.24 KCAL/MOL
REMARK 927      BINDING AFFINITY PREDICTED BY RF-SCORE:    0.00 PKD
ROOT
HETATM    1  C   UNL     1     -10.227  11.895  67.968  1.00  0.00    -0.199 C  
HETATM    2  C   UNL     1      -8.010  11.506  66.706  1.00  0.00    -0.152 C  
HETATM    3  C   UNL     1     -11.368  10.890  68.032  1.00  0.00    -0.382 C  
HETATM    4  C   UNL     1     -10.901   9.865  67.002  1.00  0.00    -0.186 C  
HETATM    5  C   UNL     1      -8.913  10.929  67.834  1.00  0.00    -0.141 C  
HETATM    6  C   UNL     1      -7.899  10.743  69.027  1.00  0.00    -0.138 C  
HETATM    7  C   UNL     1      -9.513   9.500  67.537  1.00  0.00    -0.155 C  
HETATM    8  C   UNL     1      -9.789   8.559  68.770  1.00  0.00    -0.180 C  
HETATM    9  C   UNL     1     -10.339   7.231  68.305  1.00  0.00    -0.227 C  
HETATM   10  C   UNL     1     -11.031   6.566  69.479  1.00  0.00    -0.398 C  
HETATM   11  C   UNL     1      -9.964   6.134  70.478  1.00  0.00    -0.223 C  
HETATM   12  C   UNL     1     -10.630   5.224  71.533  1.00  0.00    -0.254 C  
HETATM   13  C   UNL     1     -11.212   5.894  72.768  1.00  0.00    -0.276 C  
HETATM   14  O   UNL     1     -12.567   6.252  72.564  1.00  0.00    -0.541 OA 
HETATM   15  C   UNL     1     -10.403   7.091  73.269  1.00  0.00    -0.343 C  
HETATM   16  H   UNL     1     -12.931   6.671  73.336  1.00  0.00     0.000 HD 
HETATM   17  C   UNL     1      -9.860   8.034  72.174  1.00  0.00    -0.286 C  
HETATM   18  C   UNL     1      -9.088   7.336  71.011  1.00  0.00    -0.153 C  
HETATM   19  C   UNL     1      -7.786   6.738  71.604  1.00  0.00    -0.101 C  
HETATM   20  C   UNL     1      -8.651   8.355  69.787  1.00  0.00    -0.132 C  
HETATM   21  C   UNL     1      -8.169   9.767  70.203  1.00  0.00    -0.202 C  
ENDROOT
BRANCH   1  22
HETATM   22  C   UNL     1     -10.772  12.814  66.776  1.00  0.00    -0.260 C  
HETATM   23  C   UNL     1     -10.159  14.216  66.630  1.00  0.00    -0.275 C  
HETATM   24  O   UNL     1     -11.692  12.508  66.033  1.00  0.00    -0.380 OA 
ENDBRANCH   1  22
TORSDOF 1
ENDMDL
MODEL       38
REMARK 921   NORMALIZED FREE ENERGY PREDICTED BY IDOCK:   -5.36 KCAL/MOL
REMARK 922        TOTAL FREE ENERGY PREDICTED BY IDOCK:   -5.29 KCAL/MOL
REMARK 923 INTER-LIGAND FREE ENERGY PREDICTED BY IDOCK:   -6.10 KCAL/MOL
REMARK 924 INTRA-LIGAND FREE ENERGY PREDICTED BY IDOCK:    0.81 KCAL/MOL
REMARK 927      BINDING AFFINITY PREDICTED BY RF-SCORE:    0.00 PKD
ROOT
HETATM    1  C   UNL     1     -11.991  12.318  65.146  1.00  0.00    -0.395 C  
HETATM    2  C   UNL     1     -10.694  13.738  66.868  1.00  0.00    -0.280 C  
HETATM    3  C   UNL     1     -11.342  11.352  64.165  1.00  0.00    -0.263 C  
HETATM    4  C   UNL     1      -9.868  11.703  64.355  1.00  0.00    -0.253 C  
HETATM    5  C   UNL     1     -10.962  12.273  66.418  1.00  0.00    -0.326 C  
HETATM    6  C   UNL     1     -11.351  11.562  67.770  1.00  0.00    -0.364 C  
HETATM    7  C   UNL     1      -9.697  11.508  65.864  1.00  0.00    -0.260 C  
HETATM    8  C   UNL     1      -9.648   9.946  66.068  1.00  0.00    -0.284 C  
HETATM    9  C   UNL     1      -8.366   9.383  65.501  1.00  0.00    -0.139 C  
HETATM   10  C   UNL     1      -8.560   7.897  65.273  1.00  0.00    -0.084 C  
HETATM   11  C   UNL     1      -8.633   7.212  66.632  1.00  0.00    -0.124 C  
HETATM   12  C   UNL     1      -8.556   5.685  66.408  1.00  0.00    -0.123 C  
HETATM   13  C   UNL     1      -9.867   4.942  66.202  1.00  0.00    -0.207 C  
HETATM   14  O   UNL     1     -10.214   4.889  64.829  1.00  0.00    -0.373 OA 
HETATM   15  C   UNL     1     -11.030   5.483  67.036  1.00  0.00    -0.038 C  
HETATM   16  H   UNL     1     -11.033   4.425  64.700  1.00  0.00     0.000 HD 
HETATM   17  C   UNL     1     -11.125   7.021  67.128  1.00  0.00    -0.298 C  
HETATM   18  C   UNL     1      -9.809   7.751  67.539  1.00  0.00    -0.221 C  
HETATM   19  C   UNL     1      -9.489   7.354  69.003  1.00  0.00    -0.148 C  
HETATM   20  C   UNL     1      -9.908   9.398  67.484  1.00  0.00    -0.220 C  
HETATM   21  C   UNL     1     -11.239  10.027  67.965  1.00  0.00    -0.190 C  
ENDROOT
BRANCH   1  22
HETATM   22  C   UNL     1     -12.146  13.585  64.181  1.00  0.00    -0.435 C  
HETATM   23  C   UNL     1     -11.695  14.949  64.731  1.00  0.00    -0.402 C  
HETATM   24  O   UNL     1     -12.670  13.555  63.079  1.00  0.00    -0.668 OA 
ENDBRANCH   1  22
TORSDOF 1
ENDMDL
MODEL       39
REMARK 921   NORMALIZED FREE ENERGY PREDICTED BY IDOCK:   -5.33 KCAL/MOL
REMARK 922        TOTAL FREE ENERGY PREDICTED BY IDOCK:   -5.25 KCAL/MOL
REMARK 923 INTER-LIGAND FREE ENERGY PREDICTED BY IDOCK:   -5.54 KCAL/MOL
REMARK 924 INTRA-LIGAND FREE ENERGY PREDICTED BY IDOCK:    0.29 KCAL/MOL
REMARK 927      BINDING AFFINITY PREDICTED BY RF-SCORE:    0.00 PKD
ROOT
HETATM    1  C   UNL     1     -10.737   5.636  70.626  1.00  0.00    -0.333 C  
HETATM    2  C   UNL     1      -9.488   4.063  69.005  1.00  0.00    -0.243 C  
HETATM    3  C   UNL     1     -10.128   6.881  71.256  1.00  0.00    -0.203 C  
HETATM    4  C   UNL     1      -8.663   6.710  70.864  1.00  0.00    -0.138 C  
HETATM    5  C   UNL     1      -9.941   5.539  69.200  1.00  0.00    -0.256 C  
HETATM    6  C   UNL     1     -10.657   5.863  67.832  1.00  0.00    -0.322 C  
HETATM    7  C   UNL     1      -8.765   6.581  69.341  1.00  0.00    -0.134 C  
HETATM    8  C   UNL     1      -9.029   8.047  68.827  1.00  0.00    -0.141 C  
HETATM    9  C   UNL     1      -7.798   8.901  69.019  1.00  0.00    -0.091 C  
HETATM   10  C   UNL     1      -8.219  10.357  68.982  1.00  0.00    -0.141 C  
HETATM   11  C   UNL     1      -8.622  10.700  67.553  1.00  0.00    -0.122 C  
HETATM   12  C   UNL     1      -8.788  12.232  67.452  1.00  0.00    -0.185 C  
HETATM   13  C   UNL     1     -10.163  12.808  67.752  1.00  0.00    -0.223 C  
HETATM   14  O   UNL     1     -10.297  13.120  69.128  1.00  0.00    -0.434 OA 
HETATM   15  C   UNL     1     -11.324  11.933  67.277  1.00  0.00    -0.393 C  
HETATM   16  H   UNL     1     -11.156  13.480  69.315  1.00  0.00     0.000 HD 
HETATM   17  C   UNL     1     -11.154  10.416  67.511  1.00  0.00    -0.336 C  
HETATM   18  C   UNL     1      -9.808   9.808  67.010  1.00  0.00    -0.245 C  
HETATM   19  C   UNL     1      -9.795   9.905  65.463  1.00  0.00    -0.381 C  
HETATM   20  C   UNL     1      -9.599   8.219  67.407  1.00  0.00    -0.205 C  
HETATM   21  C   UNL     1     -10.854   7.315  67.320  1.00  0.00    -0.354 C  
ENDROOT
BRANCH   1  22
HETATM   22  C   UNL     1     -10.511   4.611  71.834  1.00  0.00    -0.102 C  
HETATM   23  C   UNL     1     -11.104   4.990  73.201  1.00  0.00    -0.395 C  
HETATM   24  O   UNL     1      -9.834   3.597  71.763  1.00  0.00    -0.161 OA 
ENDBRANCH   1  22
TORSDOF 1
ENDMDL
MODEL       40
REMARK 921   NORMALIZED FREE ENERGY PREDICTED BY IDOCK:   -5.30 KCAL/MOL
REMARK 922        TOTAL FREE ENERGY PREDICTED BY IDOCK:   -5.21 KCAL/MOL
REMARK 923 INTER-LIGAND FREE ENERGY PREDICTED BY IDOCK:   -5.47 KCAL/MOL
REMARK 924 INTRA-LIGAND FREE ENERGY PREDICTED BY IDOCK:    0.25 KCAL/MOL
REMARK 927      BINDING AFFINITY PREDICTED BY RF-SCORE:    0.00 PKD
ROOT
HETATM    1  C   UNL     1     -11.177  14.938  70.866  1.00  0.00    -0.203 C  
HETATM    2  C   UNL     1     -10.775  16.814  69.140  1.00  0.00    -0.329 C  
HETATM    3  C   UNL     1     -11.940  13.653  70.578  1.00  0.00    -0.353 C  
HETATM    4  C   UNL     1     -12.525  13.973  69.205  1.00  0.00    -0.046 C  
HETATM    5  C   UNL     1     -10.532  15.300  69.407  1.00  0.00    -0.253 C  
HETATM    6  C   UNL     1      -8.989  15.143  69.124  1.00  0.00    -0.219 C  
HETATM    7  C   UNL     1     -11.267  14.325  68.407  1.00  0.00    -0.291 C  
HETATM    8  C   UNL     1     -10.577  12.940  68.107  1.00  0.00    -0.249 C  
HETATM    9  C   UNL     1     -11.400  12.146  67.120  1.00  0.00    -0.393 C  
HETATM   10  C   UNL     1     -10.996  10.689  67.227  1.00  0.00    -0.348 C  
HETATM   11  C   UNL     1      -9.589  10.542  66.658  1.00  0.00    -0.210 C  
HETATM   12  C   UNL     1      -9.282   9.035  66.514  1.00  0.00    -0.226 C  
HETATM   13  C   UNL     1      -8.643   8.335  67.703  1.00  0.00    -0.130 C  
HETATM   14  O   UNL     1      -9.627   7.811  68.576  1.00  0.00    -0.147 OA 
HETATM   15  C   UNL     1      -7.640   9.197  68.470  1.00  0.00    -0.085 C  
HETATM   16  H   UNL     1      -9.228   7.373  69.319  1.00  0.00     0.000 HD 
HETATM   17  C   UNL     1      -8.054  10.669  68.687  1.00  0.00    -0.132 C  
HETATM   18  C   UNL     1      -8.519  11.429  67.407  1.00  0.00    -0.143 C  
HETATM   19  C   UNL     1      -7.291  11.569  66.471  1.00  0.00    -0.012 C  
HETATM   20  C   UNL     1      -9.092  12.950  67.700  1.00  0.00    -0.194 C  
HETATM   21  C   UNL     1      -8.343  13.776  68.774  1.00  0.00     0.014 C  
ENDROOT
BRANCH   1  22
HETATM   22  C   UNL     1     -12.358  15.781  71.543  1.00  0.00    -0.455 C  
HETATM   23  C   UNL     1     -12.102  16.348  72.949  1.00  0.00    -0.567 C  
HETATM   24  O   UNL     1     -13.467  15.931  71.055  1.00  0.00    -0.493 OA 
ENDBRANCH   1  22
TORSDOF 1
ENDMDL
MODEL       41
REMARK 921   NORMALIZED FREE ENERGY PREDICTED BY IDOCK:   -5.28 KCAL/MOL
REMARK 922        TOTAL FREE ENERGY PREDICTED BY IDOCK:   -5.20 KCAL/MOL
REMARK 923 INTER-LIGAND FREE ENERGY PREDICTED BY IDOCK:   -5.50 KCAL/MOL
REMARK 924 INTRA-LIGAND FREE ENERGY PREDICTED BY IDOCK:    0.31 KCAL/MOL
REMARK 927      BINDING AFFINITY PREDICTED BY RF-SCORE:    0.00 PKD
ROOT
HETATM    1  C   UNL     1      -9.137  16.019  68.559  1.00  0.00    -0.203 C  
HETATM    2  C   UNL     1      -7.732  16.380  66.425  1.00  0.00    -0.249 C  
HETATM    3  C   UNL     1     -10.467  15.280  68.598  1.00  0.00    -0.235 C  
HETATM    4  C   UNL     1     -10.746  15.119  67.106  1.00  0.00    -0.310 C  
HETATM    5  C   UNL     1      -8.359  15.277  67.326  1.00  0.00    -0.225 C  
HETATM    6  C   UNL     1      -7.141  14.309  67.582  1.00  0.00    -0.200 C  
HETATM    7  C   UNL     1      -9.476  14.408  66.630  1.00  0.00    -0.300 C  
HETATM    8  C   UNL     1      -9.641  12.917  67.114  1.00  0.00    -0.225 C  
HETATM    9  C   UNL     1     -10.735  12.230  66.331  1.00  0.00    -0.284 C  
HETATM   10  C   UNL     1     -11.190  11.016  67.117  1.00  0.00    -0.290 C  
HETATM   11  C   UNL     1     -10.074   9.978  67.080  1.00  0.00    -0.274 C  
HETATM   12  C   UNL     1     -10.631   8.650  67.638  1.00  0.00    -0.272 C  
HETATM   13  C   UNL     1     -10.509   8.415  69.136  1.00  0.00    -0.206 C  
HETATM   14  O   UNL     1     -11.644   8.908  69.825  1.00  0.00    -0.442 OA 
HETATM   15  C   UNL     1      -9.220   8.963  69.751  1.00  0.00    -0.167 C  
HETATM   16  H   UNL     1     -11.568   8.762  70.760  1.00  0.00     0.000 HD 
HETATM   17  C   UNL     1      -8.774  10.350  69.239  1.00  0.00    -0.160 C  
HETATM   18  C   UNL     1      -8.715  10.505  67.688  1.00  0.00    -0.121 C  
HETATM   19  C   UNL     1      -7.582   9.583  67.167  1.00  0.00    -0.091 C  
HETATM   20  C   UNL     1      -8.379  12.039  67.178  1.00  0.00    -0.181 C  
HETATM   21  C   UNL     1      -7.331  12.827  68.003  1.00  0.00    -0.117 C  
ENDROOT
BRANCH   1  22
HETATM   22  C   UNL     1      -9.689  17.519  68.479  1.00  0.00    -0.319 C  
HETATM   23  C   UNL     1      -8.655  18.655  68.552  1.00  0.00    -0.370 C  
HETATM   24  O   UNL     1     -10.872  17.820  68.448  1.00  0.00    -0.260 OA 
ENDBRANCH   1  22
TORSDOF 1
ENDMDL
MODEL       42
REMARK 921   NORMALIZED FREE ENERGY PREDICTED BY IDOCK:   -5.23 KCAL/MOL
REMARK 922        TOTAL FREE ENERGY PREDICTED BY IDOCK:   -5.15 KCAL/MOL
REMARK 923 INTER-LIGAND FREE ENERGY PREDICTED BY IDOCK:   -5.44 KCAL/MOL
REMARK 924 INTRA-LIGAND FREE ENERGY PREDICTED BY IDOCK:    0.30 KCAL/MOL
REMARK 927      BINDING AFFINITY PREDICTED BY RF-SCORE:    0.00 PKD
ROOT
HETATM    1  C   UNL     1      -9.093   6.910  66.452  1.00  0.00    -0.185 C  
HETATM    2  C   UNL     1      -7.298   7.155  68.290  1.00  0.00    -0.100 C  
HETATM    3  C   UNL     1     -10.544   7.343  66.604  1.00  0.00    -0.124 C  
HETATM    4  C   UNL     1     -10.592   7.652  68.098  1.00  0.00    -0.187 C  
HETATM    5  C   UNL     1      -8.307   7.965  67.425  1.00  0.00    -0.123 C  
HETATM    6  C   UNL     1      -7.408   9.119  66.837  1.00  0.00    -0.090 C  
HETATM    7  C   UNL     1      -9.459   8.672  68.239  1.00  0.00    -0.150 C  
HETATM    8  C   UNL     1     -10.044  10.012  67.651  1.00  0.00    -0.232 C  
HETATM    9  C   UNL     1     -11.117  10.561  68.563  1.00  0.00    -0.329 C  
HETATM   10  C   UNL     1     -11.968  11.529  67.765  1.00  0.00    -0.100 C  
HETATM   11  C   UNL     1     -11.132  12.771  67.476  1.00  0.00    -0.300 C  
HETATM   12  C   UNL     1     -12.068  13.861  66.909  1.00  0.00    -0.467 C  
HETATM   13  C   UNL     1     -12.262  13.902  65.401  1.00  0.00    -0.444 C  
HETATM   14  O   UNL     1     -13.353  13.091  65.005  1.00  0.00    -0.671 OA 
HETATM   15  C   UNL     1     -11.006  13.552  64.600  1.00  0.00    -0.395 C  
HETATM   16  H   UNL     1     -13.475  13.116  64.063  1.00  0.00     0.000 HD 
HETATM   17  C   UNL     1     -10.171  12.375  65.149  1.00  0.00    -0.305 C  
HETATM   18  C   UNL     1      -9.813  12.458  66.665  1.00  0.00    -0.231 C  
HETATM   19  C   UNL     1      -8.851  13.659  66.856  1.00  0.00    -0.201 C  
HETATM   20  C   UNL     1      -9.049  11.116  67.250  1.00  0.00    -0.152 C  
HETATM   21  C   UNL     1      -8.005  10.454  66.316  1.00  0.00    -0.138 C  
ENDROOT
BRANCH   1  22
HETATM   22  C   UNL     1      -9.261   5.355  66.790  1.00  0.00    -0.128 C  
HETATM   23  C   UNL     1     -10.216   4.540  65.902  1.00  0.00    -0.289 C  
HETATM   24  O   UNL     1      -8.750   4.796  67.748  1.00  0.00    -0.103 OA 
ENDBRANCH   1  22
TORSDOF 1
ENDMDL
MODEL       43
REMARK 921   NORMALIZED FREE ENERGY PREDICTED BY IDOCK:   -5.22 KCAL/MOL
REMARK 922        TOTAL FREE ENERGY PREDICTED BY IDOCK:   -5.14 KCAL/MOL
REMARK 923 INTER-LIGAND FREE ENERGY PREDICTED BY IDOCK:   -5.36 KCAL/MOL
REMARK 924 INTRA-LIGAND FREE ENERGY PREDICTED BY IDOCK:    0.22 KCAL/MOL
REMARK 927      BINDING AFFINITY PREDICTED BY RF-SCORE:    0.00 PKD
ROOT
HETATM    1  C   UNL     1      -7.556  12.676  67.108  1.00  0.00    -0.067 C  
HETATM    2  C   UNL     1      -6.623  12.439  69.502  1.00  0.00    -0.048 C  
HETATM    3  C   UNL     1      -8.938  13.220  66.773  1.00  0.00    -0.183 C  
HETATM    4  C   UNL     1      -9.562  13.284  68.164  1.00  0.00    -0.227 C  
HETATM    5  C   UNL     1      -7.188  13.475  68.488  1.00  0.00    -0.110 C  
HETATM    6  C   UNL     1      -6.100  14.615  68.517  1.00  0.00    -0.091 C  
HETATM    7  C   UNL     1      -8.548  14.150  68.917  1.00  0.00     0.011 C  
HETATM    8  C   UNL     1      -8.818  15.619  68.415  1.00  0.00    -0.184 C  
HETATM    9  C   UNL     1     -10.147  16.115  68.934  1.00  0.00    -0.238 C  
HETATM   10  C   UNL     1     -10.589  17.280  68.071  1.00  0.00    -0.394 C  
HETATM   11  C   UNL     1      -9.674  18.464  68.363  1.00  0.00    -0.379 C  
HETATM   12  C   UNL     1     -10.281  19.719  67.699  1.00  0.00    -0.569 C  
HETATM   13  C   UNL     1      -9.865  20.024  66.268  1.00  0.00    -0.462 C  
HETATM   14  O   UNL     1     -10.734  19.401  65.340  1.00  0.00    -0.468 OA 
HETATM   15  C   UNL     1      -8.405  19.688  65.958  1.00  0.00    -0.294 C  
HETATM   16  H   UNL     1     -10.474  19.591  64.446  1.00  0.00     0.000 HD 
HETATM   17  C   UNL     1      -7.886  18.360  66.551  1.00  0.00    -0.279 C  
HETATM   18  C   UNL     1      -8.152  18.158  68.075  1.00  0.00    -0.264 C  
HETATM   19  C   UNL     1      -7.310  19.211  68.841  1.00  0.00    -0.379 C  
HETATM   20  C   UNL     1      -7.716  16.670  68.641  1.00  0.00    -0.224 C  
HETATM   21  C   UNL     1      -6.407  16.069  68.070  1.00  0.00    -0.143 C  
ENDROOT
BRANCH   1  22
HETATM   22  C   UNL     1      -7.886  11.111  67.055  1.00  0.00    -0.142 C  
HETATM   23  C   UNL     1      -6.814  10.185  66.457  1.00  0.00    -0.090 C  
HETATM   24  O   UNL     1      -8.955  10.619  67.379  1.00  0.00    -0.136 OA 
ENDBRANCH   1  22
TORSDOF 1
ENDMDL
MODEL       44
REMARK 921   NORMALIZED FREE ENERGY PREDICTED BY IDOCK:   -5.20 KCAL/MOL
REMARK 922        TOTAL FREE ENERGY PREDICTED BY IDOCK:   -5.12 KCAL/MOL
REMARK 923 INTER-LIGAND FREE ENERGY PREDICTED BY IDOCK:   -5.34 KCAL/MOL
REMARK 924 INTRA-LIGAND FREE ENERGY PREDICTED BY IDOCK:    0.23 KCAL/MOL
REMARK 927      BINDING AFFINITY PREDICTED BY RF-SCORE:    0.00 PKD
ROOT
HETATM    1  C   UNL     1     -10.427  12.570  68.421  1.00  0.00    -0.250 C  
HETATM    2  C   UNL     1     -11.340  12.040  66.066  1.00  0.00    -0.398 C  
HETATM    3  C   UNL     1      -9.057  13.173  68.697  1.00  0.00     0.038 C  
HETATM    4  C   UNL     1      -8.425  13.086  67.310  1.00  0.00    -0.199 C  
HETATM    5  C   UNL     1     -10.799  13.197  66.956  1.00  0.00    -0.278 C  
HETATM    6  C   UNL     1     -11.906  14.307  66.789  1.00  0.00    -0.449 C  
HETATM    7  C   UNL     1      -9.448  13.841  66.457  1.00  0.00    -0.282 C  
HETATM    8  C   UNL     1      -9.205  15.363  66.786  1.00  0.00    -0.273 C  
HETATM    9  C   UNL     1      -7.881  15.818  66.219  1.00  0.00     0.296 C  
HETATM   10  C   UNL     1      -7.464  17.083  66.943  1.00  0.00    -0.248 C  
HETATM   11  C   UNL     1      -8.397  18.208  66.511  1.00  0.00    -0.288 C  
HETATM   12  C   UNL     1      -7.816  19.543  67.028  1.00  0.00    -0.286 C  
HETATM   13  C   UNL     1      -8.247  20.005  68.411  1.00  0.00    -0.108 C  
HETATM   14  O   UNL     1      -7.374  19.509  69.410  1.00  0.00    -0.332 OA 
HETATM   15  C   UNL     1      -9.702  19.682  68.752  1.00  0.00    -0.488 C  
HETATM   16  H   UNL     1      -7.642  19.797  70.275  1.00  0.00     0.000 HD 
HETATM   17  C   UNL     1     -10.196  18.285  68.315  1.00  0.00    -0.405 C  
HETATM   18  C   UNL     1      -9.916  17.912  66.826  1.00  0.00    -0.339 C  
HETATM   19  C   UNL     1     -10.770  18.854  65.938  1.00  0.00    -0.366 C  
HETATM   20  C   UNL     1     -10.324  16.361  66.434  1.00  0.00    -0.319 C  
HETATM   21  C   UNL     1     -11.626  15.808  67.065  1.00  0.00     0.244 C  
ENDROOT
BRANCH   1  22
HETATM   22  C   UNL     1     -10.072  11.028  68.657  1.00  0.00    -0.197 C  
HETATM   23  C   UNL     1     -11.100  10.177  69.422  1.00  0.00    -0.288 C  
HETATM   24  O   UNL     1      -9.013  10.507  68.345  1.00  0.00    -0.130 OA 
ENDBRANCH   1  22
TORSDOF 1
ENDMDL
MODEL       45
REMARK 921   NORMALIZED FREE ENERGY PREDICTED BY IDOCK:   -5.20 KCAL/MOL
REMARK 922        TOTAL FREE ENERGY PREDICTED BY IDOCK:   -5.11 KCAL/MOL
REMARK 923 INTER-LIGAND FREE ENERGY PREDICTED BY IDOCK:   -5.33 KCAL/MOL
REMARK 924 INTRA-LIGAND FREE ENERGY PREDICTED BY IDOCK:    0.23 KCAL/MOL
REMARK 927      BINDING AFFINITY PREDICTED BY RF-SCORE:    0.00 PKD
ROOT
HETATM    1  C   UNL     1     -10.683  13.205  68.262  1.00  0.00    -0.261 C  
HETATM    2  C   UNL     1      -8.790  13.892  66.649  1.00  0.00    -0.105 C  
HETATM    3  C   UNL     1     -11.649  12.055  68.015  1.00  0.00    -0.407 C  
HETATM    4  C   UNL     1     -11.316  11.712  66.566  1.00  0.00    -0.331 C  
HETATM    5  C   UNL     1      -9.331  12.701  67.491  1.00  0.00    -0.188 C  
HETATM    6  C   UNL     1      -8.053  12.233  68.287  1.00  0.00    -0.166 C  
HETATM    7  C   UNL     1      -9.808  11.456  66.648  1.00  0.00    -0.233 C  
HETATM    8  C   UNL     1      -9.676  10.034  67.316  1.00  0.00    -0.206 C  
HETATM    9  C   UNL     1     -10.156   8.962  66.367  1.00  0.00    -0.333 C  
HETATM   10  C   UNL     1     -10.471   7.718  67.176  1.00  0.00    -0.413 C  
HETATM   11  C   UNL     1      -9.157   7.132  67.678  1.00  0.00    -0.127 C  
HETATM   12  C   UNL     1      -9.446   5.732  68.264  1.00  0.00    -0.130 C  
HETATM   13  C   UNL     1      -9.801   5.651  69.741  1.00  0.00    -0.185 C  
HETATM   14  O   UNL     1     -11.199   5.764  69.938  1.00  0.00    -0.346 OA 
HETATM   15  C   UNL     1      -9.046   6.650  70.620  1.00  0.00    -0.155 C  
HETATM   16  H   UNL     1     -11.420   5.713  70.860  1.00  0.00     0.000 HD 
HETATM   17  C   UNL     1      -8.889   8.069  70.033  1.00  0.00    -0.143 C  
HETATM   18  C   UNL     1      -8.331   8.134  68.577  1.00  0.00    -0.126 C  
HETATM   19  C   UNL     1      -6.865   7.631  68.613  1.00  0.00    -0.066 C  
HETATM   20  C   UNL     1      -8.316   9.653  67.931  1.00  0.00    -0.117 C  
HETATM   21  C   UNL     1      -7.922  10.807  68.886  1.00  0.00    -0.143 C  
ENDROOT
BRANCH   1  22
HETATM   22  C   UNL     1     -11.597  14.413  67.744  1.00  0.00    -0.356 C  
HETATM   23  C   UNL     1     -11.550  15.725  68.544  1.00  0.00    -0.367 C  
HETATM   24  O   UNL     1     -12.383  14.335  66.813  1.00  0.00    -0.429 OA 
ENDBRANCH   1  22
TORSDOF 1
ENDMDL
MODEL       46
REMARK 921   NORMALIZED FREE ENERGY PREDICTED BY IDOCK:   -5.17 KCAL/MOL
REMARK 922        TOTAL FREE ENERGY PREDICTED BY IDOCK:   -5.08 KCAL/MOL
REMARK 923 INTER-LIGAND FREE ENERGY PREDICTED BY IDOCK:   -5.98 KCAL/MOL
REMARK 924 INTRA-LIGAND FREE ENERGY PREDICTED BY IDOCK:    0.90 KCAL/MOL
REMARK 927      BINDING AFFINITY PREDICTED BY RF-SCORE:    0.00 PKD
ROOT
HETATM    1  C   UNL     1     -11.668  13.049  66.243  1.00  0.00    -0.440 C  
HETATM    2  C   UNL     1      -9.615  14.319  67.155  1.00  0.00    -0.245 C  
HETATM    3  C   UNL     1     -11.602  11.945  65.198  1.00  0.00    -0.278 C  
HETATM    4  C   UNL     1     -10.145  12.060  64.757  1.00  0.00    -0.286 C  
HETATM    5  C   UNL     1     -10.230  12.897  67.007  1.00  0.00    -0.243 C  
HETATM    6  C   UNL     1     -10.130  12.324  68.473  1.00  0.00    -0.192 C  
HETATM    7  C   UNL     1      -9.407  11.912  66.091  1.00  0.00    -0.228 C  
HETATM    8  C   UNL     1      -9.483  10.374  66.427  1.00  0.00    -0.209 C  
HETATM    9  C   UNL     1      -8.624   9.583  65.469  1.00  0.00    -0.163 C  
HETATM   10  C   UNL     1      -9.086   8.140  65.497  1.00  0.00    -0.021 C  
HETATM   11  C   UNL     1      -8.693   7.540  66.843  1.00  0.00    -0.131 C  
HETATM   12  C   UNL     1      -8.913   6.013  66.774  1.00  0.00    -0.122 C  
HETATM   13  C   UNL     1     -10.280   5.484  67.178  1.00  0.00    -0.218 C  
HETATM   14  O   UNL     1     -11.154   5.423  66.065  1.00  0.00    -0.761 OA 
HETATM   15  C   UNL     1     -10.927   6.246  68.336  1.00  0.00    -0.409 C  
HETATM   16  H   UNL     1     -12.008   5.093  66.318  1.00  0.00     0.000 HD 
HETATM   17  C   UNL     1     -10.776   7.782  68.291  1.00  0.00    -0.093 C  
HETATM   18  C   UNL     1      -9.323   8.306  68.072  1.00  0.00    -0.141 C  
HETATM   19  C   UNL     1      -8.495   7.933  69.329  1.00  0.00    -0.137 C  
HETATM   20  C   UNL     1      -9.220   9.943  67.882  1.00  0.00    -0.138 C  
HETATM   21  C   UNL     1     -10.150  10.802  68.774  1.00  0.00    -0.202 C  
ENDROOT
BRANCH   1  22
HETATM   22  C   UNL     1     -12.033  14.277  65.284  1.00  0.00    -0.389 C  
HETATM   23  C   UNL     1     -10.928  15.312  65.014  1.00  0.00    -0.450 C  
HETATM   24  O   UNL     1     -13.144  14.489  64.824  1.00  0.00    -0.485 OA 
ENDBRANCH   1  22
TORSDOF 1
ENDMDL
MODEL       47
REMARK 921   NORMALIZED FREE ENERGY PREDICTED BY IDOCK:   -5.11 KCAL/MOL
REMARK 922        TOTAL FREE ENERGY PREDICTED BY IDOCK:   -5.01 KCAL/MOL
REMARK 923 INTER-LIGAND FREE ENERGY PREDICTED BY IDOCK:   -5.24 KCAL/MOL
REMARK 924 INTRA-LIGAND FREE ENERGY PREDICTED BY IDOCK:    0.23 KCAL/MOL
REMARK 927      BINDING AFFINITY PREDICTED BY RF-SCORE:    0.00 PKD
ROOT
HETATM    1  C   UNL     1      -9.292   5.708  65.847  1.00  0.00    -0.119 C  
HETATM    2  C   UNL     1      -7.054   4.754  66.707  1.00  0.00    -0.072 C  
HETATM    3  C   UNL     1     -10.641   5.465  66.507  1.00  0.00    -0.353 C  
HETATM    4  C   UNL     1     -10.269   4.388  67.523  1.00  0.00     0.038 C  
HETATM    5  C   UNL     1      -8.262   5.645  67.116  1.00  0.00    -0.101 C  
HETATM    6  C   UNL     1      -7.560   6.941  67.676  1.00  0.00    -0.110 C  
HETATM    7  C   UNL     1      -9.138   5.072  68.296  1.00  0.00    -0.135 C  
HETATM    8  C   UNL     1      -9.860   6.112  69.235  1.00  0.00    -0.182 C  
HETATM    9  C   UNL     1     -10.633   5.395  70.316  1.00  0.00    -0.329 C  
HETATM   10  C   UNL     1     -11.670   6.351  70.872  1.00  0.00    -0.366 C  
HETATM   11  C   UNL     1     -10.945   7.432  71.665  1.00  0.00    -0.252 C  
HETATM   12  C   UNL     1     -11.998   8.242  72.452  1.00  0.00    -0.447 C  
HETATM   13  C   UNL     1     -12.606   9.455  71.764  1.00  0.00    -0.387 C  
HETATM   14  O   UNL     1     -13.767   9.099  71.035  1.00  0.00    -0.584 OA 
HETATM   15  C   UNL     1     -11.625  10.228  70.881  1.00  0.00    -0.454 C  
HETATM   16  H   UNL     1     -14.147   9.857  70.605  1.00  0.00     0.000 HD 
HETATM   17  C   UNL     1     -10.674   9.364  70.025  1.00  0.00    -0.270 C  
HETATM   18  C   UNL     1      -9.906   8.247  70.799  1.00  0.00    -0.205 C  
HETATM   19  C   UNL     1      -8.925   8.943  71.777  1.00  0.00    -0.203 C  
HETATM   20  C   UNL     1      -9.013   7.251  69.830  1.00  0.00    -0.142 C  
HETATM   21  C   UNL     1      -8.274   7.921  68.645  1.00  0.00    -0.127 C  
ENDROOT
BRANCH   1  22
HETATM   22  C   UNL     1      -9.364   4.583  64.711  1.00  0.00    -0.138 C  
HETATM   23  C   UNL     1      -8.442   4.751  63.492  1.00  0.00    -0.127 C  
HETATM   24  O   UNL     1     -10.154   3.652  64.710  1.00  0.00    -0.177 OA 
ENDBRANCH   1  22
TORSDOF 1
ENDMDL
MODEL       48
REMARK 921   NORMALIZED FREE ENERGY PREDICTED BY IDOCK:   -5.09 KCAL/MOL
REMARK 922        TOTAL FREE ENERGY PREDICTED BY IDOCK:   -4.99 KCAL/MOL
REMARK 923 INTER-LIGAND FREE ENERGY PREDICTED BY IDOCK:   -5.24 KCAL/MOL
REMARK 924 INTRA-LIGAND FREE ENERGY PREDICTED BY IDOCK:    0.25 KCAL/MOL
REMARK 927      BINDING AFFINITY PREDICTED BY RF-SCORE:    0.00 PKD
ROOT
HETATM    1  C   UNL     1     -10.224  13.423  65.838  1.00  0.00    -0.302 C  
HETATM    2  C   UNL     1     -12.393  12.382  64.902  1.00  0.00    -0.475 C  
HETATM    3  C   UNL     1      -9.697  13.189  67.246  1.00  0.00    -0.230 C  
HETATM    4  C   UNL     1     -10.885  12.468  67.878  1.00  0.00    -0.251 C  
HETATM    5  C   UNL     1     -11.010  12.023  65.520  1.00  0.00    -0.345 C  
HETATM    6  C   UNL     1     -10.438  10.969  64.496  1.00  0.00    -0.411 C  
HETATM    7  C   UNL     1     -11.078  11.292  66.916  1.00  0.00    -0.339 C  
HETATM    8  C   UNL     1      -9.915  10.288  67.266  1.00  0.00    -0.233 C  
HETATM    9  C   UNL     1     -10.149   9.665  68.622  1.00  0.00    -0.196 C  
HETATM   10  C   UNL     1      -8.830   9.113  69.125  1.00  0.00    -0.146 C  
HETATM   11  C   UNL     1      -8.469   7.898  68.278  1.00  0.00    -0.124 C  
HETATM   12  C   UNL     1      -7.281   7.176  68.952  1.00  0.00    -0.090 C  
HETATM   13  C   UNL     1      -5.880   7.608  68.548  1.00  0.00    -0.028 C  
HETATM   14  O   UNL     1      -5.409   8.655  69.378  1.00  0.00    -0.030 OA 
HETATM   15  C   UNL     1      -5.743   7.982  67.071  1.00  0.00    -0.037 C  
HETATM   16  H   UNL     1      -4.534   8.926  69.126  1.00  0.00     0.000 HD 
HETATM   17  C   UNL     1      -6.907   8.806  66.481  1.00  0.00    -0.072 C  
HETATM   18  C   UNL     1      -8.334   8.231  66.740  1.00  0.00    -0.107 C  
HETATM   19  C   UNL     1      -8.450   6.895  65.961  1.00  0.00    -0.140 C  
HETATM   20  C   UNL     1      -9.558   9.212  66.224  1.00  0.00    -0.321 C  
HETATM   21  C   UNL     1      -9.332   9.951  64.882  1.00  0.00    -0.329 C  
ENDROOT
BRANCH   1  22
HETATM   22  C   UNL     1     -10.970  14.818  66.080  1.00  0.00    -0.332 C  
HETATM   23  C   UNL     1     -10.631  15.973  65.123  1.00  0.00    -0.394 C  
HETATM   24  O   UNL     1     -11.720  15.048  67.016  1.00  0.00    -0.309 OA 
ENDBRANCH   1  22
TORSDOF 1
ENDMDL
MODEL       49
REMARK 921   NORMALIZED FREE ENERGY PREDICTED BY IDOCK:   -5.06 KCAL/MOL
REMARK 922        TOTAL FREE ENERGY PREDICTED BY IDOCK:   -4.96 KCAL/MOL
REMARK 923 INTER-LIGAND FREE ENERGY PREDICTED BY IDOCK:   -5.23 KCAL/MOL
REMARK 924 INTRA-LIGAND FREE ENERGY PREDICTED BY IDOCK:    0.27 KCAL/MOL
REMARK 927      BINDING AFFINITY PREDICTED BY RF-SCORE:    0.00 PKD
ROOT
HETATM    1  C   UNL     1     -11.882   9.504  70.106  1.00  0.00    -0.036 C  
HETATM    2  C   UNL     1     -11.037   8.692  72.405  1.00  0.00    -0.328 C  
HETATM    3  C   UNL     1     -10.978   9.865  68.936  1.00  0.00    -0.214 C  
HETATM    4  C   UNL     1      -9.613   9.847  69.617  1.00  0.00    -0.249 C  
HETATM    5  C   UNL     1     -11.010   8.360  70.885  1.00  0.00    -0.279 C  
HETATM    6  C   UNL     1     -11.430   6.840  70.857  1.00  0.00    -0.384 C  
HETATM    7  C   UNL     1      -9.584   8.438  70.215  1.00  0.00    -0.170 C  
HETATM    8  C   UNL     1      -9.305   7.485  68.992  1.00  0.00    -0.146 C  
HETATM    9  C   UNL     1      -7.893   7.675  68.490  1.00  0.00    -0.121 C  
HETATM   10  C   UNL     1      -7.816   7.139  67.074  1.00  0.00    -0.108 C  
HETATM   11  C   UNL     1      -7.930   5.620  67.132  1.00  0.00    -0.102 C  
HETATM   12  C   UNL     1      -7.582   5.055  65.737  1.00  0.00    -0.086 C  
HETATM   13  C   UNL     1      -8.723   4.889  64.745  1.00  0.00    -0.154 C  
HETATM   14  O   UNL     1      -8.898   6.060  63.968  1.00  0.00    -0.330 OA 
HETATM   15  C   UNL     1     -10.044   4.454  65.381  1.00  0.00    -0.238 C  
HETATM   16  H   UNL     1      -9.611   5.956  63.348  1.00  0.00     0.000 HD 
HETATM   17  C   UNL     1     -10.398   5.140  66.718  1.00  0.00    -0.306 C  
HETATM   18  C   UNL     1      -9.273   5.122  67.798  1.00  0.00    -0.125 C  
HETATM   19  C   UNL     1      -9.061   3.648  68.231  1.00  0.00    -0.199 C  
HETATM   20  C   UNL     1      -9.631   5.989  69.157  1.00  0.00    -0.156 C  
HETATM   21  C   UNL     1     -11.093   5.907  69.664  1.00  0.00    -0.414 C  
ENDROOT
BRANCH   1  22
HETATM   22  C   UNL     1     -12.131  10.974  70.690  1.00  0.00    -0.373 C  
HETATM   23  C   UNL     1     -13.223  11.131  71.761  1.00  0.00    -0.486 C  
HETATM   24  O   UNL     1     -11.574  11.982  70.285  1.00  0.00    -0.225 OA 
ENDBRANCH   1  22
TORSDOF 1
ENDMDL
MODEL       50
REMARK 921   NORMALIZED FREE ENERGY PREDICTED BY IDOCK:   -4.94 KCAL/MOL
REMARK 922        TOTAL FREE ENERGY PREDICTED BY IDOCK:   -4.83 KCAL/MOL
REMARK 923 INTER-LIGAND FREE ENERGY PREDICTED BY IDOCK:   -5.05 KCAL/MOL
REMARK 924 INTRA-LIGAND FREE ENERGY PREDICTED BY IDOCK:    0.22 KCAL/MOL
REMARK 927      BINDING AFFINITY PREDICTED BY RF-SCORE:    0.00 PKD
ROOT
HETATM    1  C   UNL     1     -10.166   7.328  71.515  1.00  0.00    -0.206 C  
HETATM    2  C   UNL     1      -8.645   5.609  70.337  1.00  0.00    -0.132 C  
HETATM    3  C   UNL     1      -9.779   8.774  71.789  1.00  0.00    -0.380 C  
HETATM    4  C   UNL     1      -8.296   8.743  71.429  1.00  0.00    -0.222 C  
HETATM    5  C   UNL     1      -9.331   6.993  70.149  1.00  0.00    -0.162 C  
HETATM    6  C   UNL     1     -10.055   6.832  68.757  1.00  0.00    -0.165 C  
HETATM    7  C   UNL     1      -8.339   8.209  69.994  1.00  0.00    -0.122 C  
HETATM    8  C   UNL     1      -8.819   9.430  69.122  1.00  0.00    -0.143 C  
HETATM    9  C   UNL     1      -7.744  10.489  69.063  1.00  0.00    -0.125 C  
HETATM   10  C   UNL     1      -8.389  11.800  68.657  1.00  0.00    -0.079 C  
HETATM   11  C   UNL     1      -8.807  11.691  67.195  1.00  0.00    -0.172 C  
HETATM   12  C   UNL     1      -9.210  13.099  66.703  1.00  0.00    -0.220 C  
HETATM   13  C   UNL     1     -10.667  13.506  66.867  1.00  0.00    -0.274 C  
HETATM   14  O   UNL     1     -10.882  14.138  68.116  1.00  0.00    -0.239 OA 
HETATM   15  C   UNL     1     -11.662  12.364  66.656  1.00  0.00    -0.438 C  
HETATM   16  H   UNL     1     -11.792  14.393  68.219  1.00  0.00     0.000 HD 
HETATM   17  C   UNL     1     -11.260  11.007  67.273  1.00  0.00    -0.330 C  
HETATM   18  C   UNL     1      -9.822  10.513  66.923  1.00  0.00    -0.235 C  
HETATM   19  C   UNL     1      -9.787  10.206  65.404  1.00  0.00    -0.375 C  
HETATM   20  C   UNL     1      -9.374   9.135  67.716  1.00  0.00    -0.152 C  
HETATM   21  C   UNL     1     -10.468   8.051  67.889  1.00  0.00    -0.259 C  
ENDROOT
BRANCH   1  22
HETATM   22  C   UNL     1      -9.810   6.700  72.944  1.00  0.00    -0.164 C  
HETATM   23  C   UNL     1     -10.597   5.454  73.382  1.00  0.00    -0.297 C  
HETATM   24  O   UNL     1      -9.021   7.190  73.737  1.00  0.00    -0.157 OA 
ENDBRANCH   1  22
TORSDOF 1
ENDMDL
MODEL       51
REMARK 921   NORMALIZED FREE ENERGY PREDICTED BY IDOCK:   -4.92 KCAL/MOL
REMARK 922        TOTAL FREE ENERGY PREDICTED BY IDOCK:   -4.82 KCAL/MOL
REMARK 923 INTER-LIGAND FREE ENERGY PREDICTED BY IDOCK:   -5.10 KCAL/MOL
REMARK 924 INTRA-LIGAND FREE ENERGY PREDICTED BY IDOCK:    0.28 KCAL/MOL
REMARK 927      BINDING AFFINITY PREDICTED BY RF-SCORE:    0.00 PKD
ROOT
HETATM    1  C   UNL     1      -9.840   6.377  71.295  1.00  0.00    -0.200 C  
HETATM    2  C   UNL     1      -9.539   7.876  73.374  1.00  0.00    -0.331 C  
HETATM    3  C   UNL     1     -10.827   6.655  70.170  1.00  0.00    -0.330 C  
HETATM    4  C   UNL     1     -11.634   7.799  70.778  1.00  0.00    -0.270 C  
HETATM    5  C   UNL     1      -9.471   7.882  71.820  1.00  0.00    -0.205 C  
HETATM    6  C   UNL     1      -8.062   8.532  71.539  1.00  0.00    -0.191 C  
HETATM    7  C   UNL     1     -10.534   8.809  71.113  1.00  0.00    -0.315 C  
HETATM    8  C   UNL     1     -10.134   9.446  69.728  1.00  0.00    -0.229 C  
HETATM    9  C   UNL     1     -11.254  10.316  69.208  1.00  0.00    -0.281 C  
HETATM   10  C   UNL     1     -11.054  10.506  67.717  1.00  0.00    -0.382 C  
HETATM   11  C   UNL     1      -9.837  11.399  67.509  1.00  0.00    -0.194 C  
HETATM   12  C   UNL     1      -9.791  11.814  66.022  1.00  0.00    -0.258 C  
HETATM   13  C   UNL     1      -9.026  10.911  65.066  1.00  0.00    -0.168 C  
HETATM   14  O   UNL     1      -9.871   9.915  64.518  1.00  0.00    -0.395 OA 
HETATM   15  C   UNL     1      -7.768  10.286  65.670  1.00  0.00    -0.148 C  
HETATM   16  H   UNL     1      -9.394   9.351  63.922  1.00  0.00     0.000 HD 
HETATM   17  C   UNL     1      -7.907   9.780  67.123  1.00  0.00    -0.099 C  
HETATM   18  C   UNL     1      -8.514  10.802  68.133  1.00  0.00    -0.125 C  
HETATM   19  C   UNL     1      -7.503  11.968  68.286  1.00  0.00    -0.106 C  
HETATM   20  C   UNL     1      -8.783  10.180  69.639  1.00  0.00    -0.176 C  
HETATM   21  C   UNL     1      -7.711   9.204  70.185  1.00  0.00    -0.105 C  
ENDROOT
BRANCH   1  22
HETATM   22  C   UNL     1     -10.715   5.338  72.142  1.00  0.00    -0.209 C  
HETATM   23  C   UNL     1     -10.355   3.848  72.018  1.00  0.00    -0.101 C  
HETATM   24  O   UNL     1     -11.693   5.639  72.808  1.00  0.00    -0.283 OA 
ENDBRANCH   1  22
TORSDOF 1
ENDMDL
MODEL       52
REMARK 921   NORMALIZED FREE ENERGY PREDICTED BY IDOCK:   -4.91 KCAL/MOL
REMARK 922        TOTAL FREE ENERGY PREDICTED BY IDOCK:   -4.80 KCAL/MOL
REMARK 923 INTER-LIGAND FREE ENERGY PREDICTED BY IDOCK:   -5.33 KCAL/MOL
REMARK 924 INTRA-LIGAND FREE ENERGY PREDICTED BY IDOCK:    0.53 KCAL/MOL
REMARK 927      BINDING AFFINITY PREDICTED BY RF-SCORE:    0.00 PKD
ROOT
HETATM    1  C   UNL     1     -11.032   9.139  69.282  1.00  0.00    -0.081 C  
HETATM    2  C   UNL     1     -12.406  10.314  71.124  1.00  0.00    -0.501 C  
HETATM    3  C   UNL     1      -9.557   8.785  69.404  1.00  0.00    -0.163 C  
HETATM    4  C   UNL     1      -9.193   9.525  70.688  1.00  0.00    -0.243 C  
HETATM    5  C   UNL     1     -11.544   9.052  70.834  1.00  0.00    -0.344 C  
HETATM    6  C   UNL     1     -12.472   7.878  71.332  1.00  0.00    -0.330 C  
HETATM    7  C   UNL     1     -10.213   8.950  71.675  1.00  0.00    -0.415 C  
HETATM    8  C   UNL     1      -9.679   7.507  72.016  1.00  0.00    -0.195 C  
HETATM    9  C   UNL     1      -8.416   7.596  72.839  1.00  0.00    -0.185 C  
HETATM   10  C   UNL     1      -7.685   6.272  72.733  1.00  0.00    -0.104 C  
HETATM   11  C   UNL     1      -8.487   5.223  73.495  1.00  0.00    -0.112 C  
HETATM   12  C   UNL     1      -7.621   3.950  73.621  1.00  0.00    -0.071 C  
HETATM   13  C   UNL     1      -7.730   2.917  72.510  1.00  0.00    -0.054 C  
HETATM   14  O   UNL     1      -6.789   3.172  71.482  1.00  0.00    -0.029 OA 
HETATM   15  C   UNL     1      -9.139   2.767  71.933  1.00  0.00    -0.148 C  
HETATM   16  H   UNL     1      -6.857   2.527  70.788  1.00  0.00     0.000 HD 
HETATM   17  C   UNL     1      -9.915   4.084  71.718  1.00  0.00    -0.240 C  
HETATM   18  C   UNL     1      -9.958   5.045  72.947  1.00  0.00    -0.192 C  
HETATM   19  C   UNL     1     -10.789   4.351  74.056  1.00  0.00    -0.314 C  
HETATM   20  C   UNL     1     -10.668   6.503  72.635  1.00  0.00    -0.260 C  
HETATM   21  C   UNL     1     -11.914   6.482  71.716  1.00  0.00    -0.394 C  
ENDROOT
BRANCH   1  22
HETATM   22  C   UNL     1     -10.891  10.514  68.475  1.00  0.00    -0.234 C  
HETATM   23  C   UNL     1      -9.469  10.991  68.138  1.00  0.00    -0.172 C  
HETATM   24  O   UNL     1     -11.826  11.244  68.185  1.00  0.00    -0.553 OA 
ENDBRANCH   1  22
TORSDOF 1
ENDMDL
MODEL       53
REMARK 921   NORMALIZED FREE ENERGY PREDICTED BY IDOCK:   -4.91 KCAL/MOL
REMARK 922        TOTAL FREE ENERGY PREDICTED BY IDOCK:   -4.80 KCAL/MOL
REMARK 923 INTER-LIGAND FREE ENERGY PREDICTED BY IDOCK:   -5.09 KCAL/MOL
REMARK 924 INTRA-LIGAND FREE ENERGY PREDICTED BY IDOCK:    0.29 KCAL/MOL
REMARK 927      BINDING AFFINITY PREDICTED BY RF-SCORE:    0.00 PKD
ROOT
HETATM    1  C   UNL     1     -12.143   8.758  70.581  1.00  0.00    -0.011 C  
HETATM    2  C   UNL     1     -11.780   6.482  71.744  1.00  0.00    -0.373 C  
HETATM    3  C   UNL     1     -11.053   9.799  70.371  1.00  0.00    -0.367 C  
HETATM    4  C   UNL     1      -9.932   9.212  71.223  1.00  0.00    -0.373 C  
HETATM    5  C   UNL     1     -11.300   7.356  70.549  1.00  0.00    -0.295 C  
HETATM    6  C   UNL     1     -11.401   6.358  69.332  1.00  0.00    -0.443 C  
HETATM    7  C   UNL     1      -9.791   7.810  70.624  1.00  0.00    -0.182 C  
HETATM    8  C   UNL     1      -9.030   8.026  69.261  1.00  0.00    -0.148 C  
HETATM    9  C   UNL     1      -7.599   8.436  69.518  1.00  0.00    -0.090 C  
HETATM   10  C   UNL     1      -7.060   9.091  68.261  1.00  0.00    -0.077 C  
HETATM   11  C   UNL     1      -6.895   8.013  67.196  1.00  0.00    -0.073 C  
HETATM   12  C   UNL     1      -6.098   8.617  66.018  1.00  0.00    -0.048 C  
HETATM   13  C   UNL     1      -6.892   9.290  64.909  1.00  0.00    -0.086 C  
HETATM   14  O   UNL     1      -7.080  10.667  65.180  1.00  0.00    -0.317 OA 
HETATM   15  C   UNL     1      -8.225   8.610  64.594  1.00  0.00    -0.167 C  
HETATM   16  H   UNL     1      -7.576  11.088  64.487  1.00  0.00     0.000 HD 
HETATM   17  C   UNL     1      -9.035   8.131  65.819  1.00  0.00    -0.165 C  
HETATM   18  C   UNL     1      -8.243   7.269  66.850  1.00  0.00    -0.117 C  
HETATM   19  C   UNL     1      -7.875   5.931  66.158  1.00  0.00    -0.104 C  
HETATM   20  C   UNL     1      -9.098   6.900  68.214  1.00  0.00    -0.125 C  
HETATM   21  C   UNL     1     -10.598   6.563  68.020  1.00  0.00    -0.310 C  
ENDROOT
BRANCH   1  22
HETATM   22  C   UNL     1     -12.808   9.357  71.907  1.00  0.00    -0.412 C  
HETATM   23  C   UNL     1     -13.224  10.837  71.880  1.00  0.00    -0.524 C  
HETATM   24  O   UNL     1     -12.929   8.746  72.957  1.00  0.00    -0.286 OA 
ENDBRANCH   1  22
TORSDOF 1
ENDMDL
MODEL       54
REMARK 921   NORMALIZED FREE ENERGY PREDICTED BY IDOCK:   -4.90 KCAL/MOL
REMARK 922        TOTAL FREE ENERGY PREDICTED BY IDOCK:   -4.80 KCAL/MOL
REMARK 923 INTER-LIGAND FREE ENERGY PREDICTED BY IDOCK:   -5.10 KCAL/MOL
REMARK 924 INTRA-LIGAND FREE ENERGY PREDICTED BY IDOCK:    0.30 KCAL/MOL
REMARK 927      BINDING AFFINITY PREDICTED BY RF-SCORE:    0.00 PKD
ROOT
HETATM    1  C   UNL     1      -9.753  10.424  67.156  1.00  0.00    -0.206 C  
HETATM    2  C   UNL     1      -7.348   9.906  66.375  1.00  0.00    -0.101 C  
HETATM    3  C   UNL     1     -10.848   9.379  67.321  1.00  0.00    -0.165 C  
HETATM    4  C   UNL     1     -10.181   8.166  66.678  1.00  0.00    -0.329 C  
HETATM    5  C   UNL     1      -8.397   9.566  67.474  1.00  0.00    -0.125 C  
HETATM    6  C   UNL     1      -7.580   9.775  68.806  1.00  0.00    -0.076 C  
HETATM    7  C   UNL     1      -8.883   8.065  67.484  1.00  0.00    -0.129 C  
HETATM    8  C   UNL     1      -9.314   7.452  68.871  1.00  0.00    -0.145 C  
HETATM    9  C   UNL     1      -9.728   6.009  68.701  1.00  0.00    -0.149 C  
HETATM   10  C   UNL     1     -10.571   5.613  69.897  1.00  0.00    -0.399 C  
HETATM   11  C   UNL     1      -9.661   5.540  71.118  1.00  0.00    -0.207 C  
HETATM   12  C   UNL     1     -10.450   4.879  72.269  1.00  0.00    -0.267 C  
HETATM   13  C   UNL     1     -11.249   5.794  73.185  1.00  0.00    -0.207 C  
HETATM   14  O   UNL     1     -12.567   5.976  72.701  1.00  0.00    -0.536 OA 
HETATM   15  C   UNL     1     -10.579   7.141  73.461  1.00  0.00    -0.416 C  
HETATM   16  H   UNL     1     -13.067   6.548  73.273  1.00  0.00     0.000 HD 
HETATM   17  C   UNL     1      -9.907   7.813  72.244  1.00  0.00    -0.248 C  
HETATM   18  C   UNL     1      -8.931   6.905  71.432  1.00  0.00    -0.141 C  
HETATM   19  C   UNL     1      -7.718   6.587  72.343  1.00  0.00    -0.096 C  
HETATM   20  C   UNL     1      -8.346   7.608  70.058  1.00  0.00    -0.134 C  
HETATM   21  C   UNL     1      -7.994   9.114  70.148  1.00  0.00    -0.124 C  
ENDROOT
BRANCH   1  22
HETATM   22  C   UNL     1     -10.138  10.959  65.697  1.00  0.00    -0.261 C  
HETATM   23  C   UNL     1     -10.984  12.240  65.617  1.00  0.00    -0.338 C  
HETATM   24  O   UNL     1      -9.876  10.377  64.656  1.00  0.00    -0.299 OA 
ENDBRANCH   1  22
TORSDOF 1
ENDMDL
MODEL       55
REMARK 921   NORMALIZED FREE ENERGY PREDICTED BY IDOCK:   -4.90 KCAL/MOL
REMARK 922        TOTAL FREE ENERGY PREDICTED BY IDOCK:   -4.80 KCAL/MOL
REMARK 923 INTER-LIGAND FREE ENERGY PREDICTED BY IDOCK:   -5.02 KCAL/MOL
REMARK 924 INTRA-LIGAND FREE ENERGY PREDICTED BY IDOCK:    0.22 KCAL/MOL
REMARK 927      BINDING AFFINITY PREDICTED BY RF-SCORE:    0.00 PKD
ROOT
HETATM    1  C   UNL     1      -8.570   8.743  67.255  1.00  0.00    -0.122 C  
HETATM    2  C   UNL     1      -8.193   8.993  64.714  1.00  0.00    -0.161 C  
HETATM    3  C   UNL     1      -7.972   9.664  68.308  1.00  0.00    -0.096 C  
HETATM    4  C   UNL     1      -6.996  10.472  67.455  1.00  0.00    -0.080 C  
HETATM    5  C   UNL     1      -8.734   9.739  65.967  1.00  0.00    -0.156 C  
HETATM    6  C   UNL     1     -10.150  10.240  65.485  1.00  0.00    -0.351 C  
HETATM    7  C   UNL     1      -7.922  11.030  66.372  1.00  0.00    -0.161 C  
HETATM    8  C   UNL     1      -8.716  12.194  67.078  1.00  0.00    -0.190 C  
HETATM    9  C   UNL     1      -7.794  13.354  67.374  1.00  0.00    -0.154 C  
HETATM   10  C   UNL     1      -8.438  14.210  68.447  1.00  0.00    -0.170 C  
HETATM   11  C   UNL     1      -9.644  14.913  67.835  1.00  0.00    -0.205 C  
HETATM   12  C   UNL     1     -10.136  15.984  68.834  1.00  0.00    -0.229 C  
HETATM   13  C   UNL     1     -11.173  15.559  69.862  1.00  0.00    -0.316 C  
HETATM   14  O   UNL     1     -10.555  15.080  71.043  1.00  0.00    -0.523 OA 
HETATM   15  C   UNL     1     -12.196  14.551  69.337  1.00  0.00    -0.285 C  
HETATM   16  H   UNL     1     -11.202  14.814  71.685  1.00  0.00     0.000 HD 
HETATM   17  C   UNL     1     -11.628  13.431  68.437  1.00  0.00    -0.368 C  
HETATM   18  C   UNL     1     -10.722  13.912  67.262  1.00  0.00    -0.286 C  
HETATM   19  C   UNL     1     -11.616  14.704  66.273  1.00  0.00    -0.344 C  
HETATM   20  C   UNL     1     -10.016  12.684  66.413  1.00  0.00    -0.262 C  
HETATM   21  C   UNL     1     -10.886  11.427  66.162  1.00  0.00    -0.310 C  
ENDROOT
BRANCH   1  22
HETATM   22  C   UNL     1      -7.497   7.558  67.322  1.00  0.00    -0.100 C  
HETATM   23  C   UNL     1      -7.958   6.163  66.866  1.00  0.00    -0.105 C  
HETATM   24  O   UNL     1      -6.373   7.669  67.785  1.00  0.00    -0.047 OA 
ENDBRANCH   1  22
TORSDOF 1
ENDMDL
MODEL       56
REMARK 921   NORMALIZED FREE ENERGY PREDICTED BY IDOCK:   -4.90 KCAL/MOL
REMARK 922        TOTAL FREE ENERGY PREDICTED BY IDOCK:   -4.79 KCAL/MOL
REMARK 923 INTER-LIGAND FREE ENERGY PREDICTED BY IDOCK:   -5.02 KCAL/MOL
REMARK 924 INTRA-LIGAND FREE ENERGY PREDICTED BY IDOCK:    0.23 KCAL/MOL
REMARK 927      BINDING AFFINITY PREDICTED BY RF-SCORE:    0.00 PKD
ROOT
HETATM    1  C   UNL     1     -10.049   8.886  68.912  1.00  0.00    -0.209 C  
HETATM    2  C   UNL     1      -9.050   8.079  66.673  1.00  0.00    -0.199 C  
HETATM    3  C   UNL     1      -9.403   9.924  69.817  1.00  0.00    -0.248 C  
HETATM    4  C   UNL     1      -8.035  10.065  69.156  1.00  0.00    -0.116 C  
HETATM    5  C   UNL     1      -9.542   9.349  67.427  1.00  0.00    -0.184 C  
HETATM    6  C   UNL     1     -10.526  10.008  66.386  1.00  0.00    -0.199 C  
HETATM    7  C   UNL     1      -8.423  10.422  67.718  1.00  0.00    -0.114 C  
HETATM    8  C   UNL     1      -8.866  11.933  67.781  1.00  0.00    -0.166 C  
HETATM    9  C   UNL     1      -7.673  12.820  68.046  1.00  0.00    -0.137 C  
HETATM   10  C   UNL     1      -8.176  14.149  68.573  1.00  0.00    -0.146 C  
HETATM   11  C   UNL     1      -8.869  14.883  67.431  1.00  0.00    -0.204 C  
HETATM   12  C   UNL     1      -9.139  16.335  67.884  1.00  0.00    -0.196 C  
HETATM   13  C   UNL     1     -10.461  16.615  68.582  1.00  0.00    -0.323 C  
HETATM   14  O   UNL     1     -10.343  16.449  69.984  1.00  0.00    -0.189 OA 
HETATM   15  C   UNL     1     -11.639  15.808  68.036  1.00  0.00    -0.213 C  
HETATM   16  H   UNL     1     -11.169  16.624  70.421  1.00  0.00     0.000 HD 
HETATM   17  C   UNL     1     -11.340  14.328  67.711  1.00  0.00    -0.329 C  
HETATM   18  C   UNL     1     -10.083  14.079  66.821  1.00  0.00    -0.264 C  
HETATM   19  C   UNL     1     -10.377  14.670  65.418  1.00  0.00    -0.406 C  
HETATM   20  C   UNL     1      -9.710  12.483  66.617  1.00  0.00    -0.244 C  
HETATM   21  C   UNL     1     -10.903  11.512  66.436  1.00  0.00    -0.334 C  
ENDROOT
BRANCH   1  22
HETATM   22  C   UNL     1      -9.534   7.561  69.647  1.00  0.00    -0.156 C  
HETATM   23  C   UNL     1     -10.537   6.405  69.801  1.00  0.00    -0.309 C  
HETATM   24  O   UNL     1      -8.433   7.439  70.161  1.00  0.00    -0.134 OA 
ENDBRANCH   1  22
TORSDOF 1
ENDMDL
MODEL       57
REMARK 921   NORMALIZED FREE ENERGY PREDICTED BY IDOCK:   -4.85 KCAL/MOL
REMARK 922        TOTAL FREE ENERGY PREDICTED BY IDOCK:   -4.74 KCAL/MOL
REMARK 923 INTER-LIGAND FREE ENERGY PREDICTED BY IDOCK:   -4.96 KCAL/MOL
REMARK 924 INTRA-LIGAND FREE ENERGY PREDICTED BY IDOCK:    0.22 KCAL/MOL
REMARK 927      BINDING AFFINITY PREDICTED BY RF-SCORE:    0.00 PKD
ROOT
HETATM    1  C   UNL     1      -7.800   7.999  66.622  1.00  0.00    -0.098 C  
HETATM    2  C   UNL     1      -9.692   9.465  65.654  1.00  0.00    -0.336 C  
HETATM    3  C   UNL     1      -7.108   8.257  67.953  1.00  0.00    -0.083 C  
HETATM    4  C   UNL     1      -7.660   9.638  68.296  1.00  0.00    -0.078 C  
HETATM    5  C   UNL     1      -9.301   8.596  66.885  1.00  0.00    -0.216 C  
HETATM    6  C   UNL     1     -10.550   7.647  67.047  1.00  0.00    -0.406 C  
HETATM    7  C   UNL     1      -9.170   9.389  68.242  1.00  0.00    -0.133 C  
HETATM    8  C   UNL     1      -9.500   8.611  69.572  1.00  0.00    -0.162 C  
HETATM    9  C   UNL     1      -9.344   9.522  70.766  1.00  0.00    -0.218 C  
HETATM   10  C   UNL     1      -9.187   8.661  72.004  1.00  0.00    -0.338 C  
HETATM   11  C   UNL     1     -10.526   7.991  72.290  1.00  0.00    -0.344 C  
HETATM   12  C   UNL     1     -10.450   7.337  73.687  1.00  0.00    -0.391 C  
HETATM   13  C   UNL     1      -9.957   5.900  73.761  1.00  0.00    -0.203 C  
HETATM   14  O   UNL     1      -8.551   5.850  73.920  1.00  0.00    -0.117 OA 
HETATM   15  C   UNL     1     -10.403   5.026  72.588  1.00  0.00    -0.249 C  
HETATM   16  H   UNL     1      -8.243   4.953  73.967  1.00  0.00     0.000 HD 
HETATM   17  C   UNL     1     -10.346   5.696  71.198  1.00  0.00    -0.295 C  
HETATM   18  C   UNL     1     -11.038   7.090  71.098  1.00  0.00    -0.288 C  
HETATM   19  C   UNL     1     -12.561   6.874  71.296  1.00  0.00    -0.394 C  
HETATM   20  C   UNL     1     -10.831   7.840  69.641  1.00  0.00    -0.185 C  
HETATM   21  C   UNL     1     -10.886   6.936  68.385  1.00  0.00    -0.238 C  
ENDROOT
BRANCH   1  22
HETATM   22  C   UNL     1      -6.734   8.690  65.649  1.00  0.00    -0.064 C  
HETATM   23  C   UNL     1      -6.604   8.120  64.227  1.00  0.00    -0.066 C  
HETATM   24  O   UNL     1      -5.966   9.578  65.985  1.00  0.00    -0.059 OA 
ENDBRANCH   1  22
TORSDOF 1
ENDMDL
MODEL       58
REMARK 921   NORMALIZED FREE ENERGY PREDICTED BY IDOCK:   -4.84 KCAL/MOL
REMARK 922        TOTAL FREE ENERGY PREDICTED BY IDOCK:   -4.73 KCAL/MOL
REMARK 923 INTER-LIGAND FREE ENERGY PREDICTED BY IDOCK:   -5.04 KCAL/MOL
REMARK 924 INTRA-LIGAND FREE ENERGY PREDICTED BY IDOCK:    0.30 KCAL/MOL
REMARK 927      BINDING AFFINITY PREDICTED BY RF-SCORE:    0.00 PKD
ROOT
HETATM    1  C   UNL     1     -10.664  14.251  69.107  1.00  0.00    -0.239 C  
HETATM    2  C   UNL     1      -8.979  15.940  68.123  1.00  0.00    -0.181 C  
HETATM    3  C   UNL     1     -11.535  13.322  68.274  1.00  0.00    -0.351 C  
HETATM    4  C   UNL     1     -11.288  13.879  66.875  1.00  0.00    -0.343 C  
HETATM    5  C   UNL     1      -9.337  14.427  68.166  1.00  0.00    -0.203 C  
HETATM    6  C   UNL     1      -7.961  13.758  68.547  1.00  0.00    -0.131 C  
HETATM    7  C   UNL     1      -9.761  13.806  66.779  1.00  0.00    -0.277 C  
HETATM    8  C   UNL     1      -9.443  12.282  66.539  1.00  0.00    -0.238 C  
HETATM    9  C   UNL     1      -9.895  11.862  65.160  1.00  0.00    -0.243 C  
HETATM   10  C   UNL     1     -10.027  10.352  65.143  1.00  0.00    -0.390 C  
HETATM   11  C   UNL     1      -8.628   9.751  65.214  1.00  0.00    -0.168 C  
HETATM   12  C   UNL     1      -8.737   8.238  64.923  1.00  0.00    -0.008 C  
HETATM   13  C   UNL     1      -8.963   7.312  66.109  1.00  0.00    -0.149 C  
HETATM   14  O   UNL     1     -10.345   7.126  66.355  1.00  0.00    -0.476 OA 
HETATM   15  C   UNL     1      -8.237   7.743  67.385  1.00  0.00    -0.123 C  
HETATM   16  H   UNL     1     -10.487   6.548  67.096  1.00  0.00     0.000 HD 
HETATM   17  C   UNL     1      -8.261   9.257  67.687  1.00  0.00    -0.115 C  
HETATM   18  C   UNL     1      -7.830  10.182  66.507  1.00  0.00    -0.112 C  
HETATM   19  C   UNL     1      -6.326   9.927  66.235  1.00  0.00    -0.072 C  
HETATM   20  C   UNL     1      -8.009  11.795  66.817  1.00  0.00    -0.116 C  
HETATM   21  C   UNL     1      -7.650  12.267  68.248  1.00  0.00    -0.133 C  
ENDROOT
BRANCH   1  22
HETATM   22  C   UNL     1     -11.725  15.422  69.363  1.00  0.00    -0.351 C  
HETATM   23  C   UNL     1     -12.665  15.269  70.570  1.00  0.00    -0.440 C  
HETATM   24  O   UNL     1     -11.891  16.379  68.623  1.00  0.00    -0.178 OA 
ENDBRANCH   1  22
TORSDOF 1
ENDMDL
MODEL       59
REMARK 921   NORMALIZED FREE ENERGY PREDICTED BY IDOCK:   -4.82 KCAL/MOL
REMARK 922        TOTAL FREE ENERGY PREDICTED BY IDOCK:   -4.71 KCAL/MOL
REMARK 923 INTER-LIGAND FREE ENERGY PREDICTED BY IDOCK:   -5.57 KCAL/MOL
REMARK 924 INTRA-LIGAND FREE ENERGY PREDICTED BY IDOCK:    0.85 KCAL/MOL
REMARK 927      BINDING AFFINITY PREDICTED BY RF-SCORE:    0.00 PKD
ROOT
HETATM    1  C   UNL     1     -10.848  14.537  66.850  1.00  0.00    -0.305 C  
HETATM    2  C   UNL     1     -10.801  15.380  69.289  1.00  0.00    -0.253 C  
HETATM    3  C   UNL     1      -9.708  13.785  66.179  1.00  0.00    -0.280 C  
HETATM    4  C   UNL     1      -8.606  13.950  67.222  1.00  0.00    -0.221 C  
HETATM    5  C   UNL     1     -10.685  14.096  68.418  1.00  0.00    -0.264 C  
HETATM    6  C   UNL     1     -11.708  13.116  69.110  1.00  0.00    -0.376 C  
HETATM    7  C   UNL     1      -9.280  13.382  68.474  1.00  0.00    -0.082 C  
HETATM    8  C   UNL     1      -9.253  11.819  68.275  1.00  0.00    -0.188 C  
HETATM    9  C   UNL     1      -7.838  11.300  68.380  1.00  0.00    -0.136 C  
HETATM   10  C   UNL     1      -7.782   9.936  67.720  1.00  0.00    -0.091 C  
HETATM   11  C   UNL     1      -8.546   8.951  68.597  1.00  0.00    -0.133 C  
HETATM   12  C   UNL     1      -8.263   7.524  68.079  1.00  0.00    -0.124 C  
HETATM   13  C   UNL     1      -9.196   6.969  67.013  1.00  0.00    -0.147 C  
HETATM   14  O   UNL     1      -8.728   7.281  65.713  1.00  0.00    -0.191 OA 
HETATM   15  C   UNL     1     -10.657   7.391  67.181  1.00  0.00    -0.413 C  
HETATM   16  H   UNL     1      -9.310   6.935  65.047  1.00  0.00     0.000 HD 
HETATM   17  C   UNL     1     -10.883   8.864  67.586  1.00  0.00    -0.112 C  
HETATM   18  C   UNL     1     -10.057   9.355  68.815  1.00  0.00    -0.208 C  
HETATM   19  C   UNL     1     -10.570   8.589  70.062  1.00  0.00    -0.230 C  
HETATM   20  C   UNL     1     -10.212  10.969  69.128  1.00  0.00    -0.187 C  
HETATM   21  C   UNL     1     -11.626  11.575  68.944  1.00  0.00    -0.384 C  
ENDROOT
BRANCH   1  22
HETATM   22  C   UNL     1     -10.526  16.009  66.310  1.00  0.00    -0.320 C  
HETATM   23  C   UNL     1     -10.370  17.125  67.356  1.00  0.00    -0.333 C  
HETATM   24  O   UNL     1     -10.479  16.317  65.129  1.00  0.00    -0.591 OA 
ENDBRANCH   1  22
TORSDOF 1
ENDMDL
MODEL       60
REMARK 921   NORMALIZED FREE ENERGY PREDICTED BY IDOCK:   -4.82 KCAL/MOL
REMARK 922        TOTAL FREE ENERGY PREDICTED BY IDOCK:   -4.71 KCAL/MOL
REMARK 923 INTER-LIGAND FREE ENERGY PREDICTED BY IDOCK:   -4.93 KCAL/MOL
REMARK 924 INTRA-LIGAND FREE ENERGY PREDICTED BY IDOCK:    0.22 KCAL/MOL
REMARK 927      BINDING AFFINITY PREDICTED BY RF-SCORE:    0.00 PKD
ROOT
HETATM    1  C   UNL     1     -10.328   4.411  72.026  1.00  0.00    -0.189 C  
HETATM    2  C   UNL     1      -7.825   4.047  72.539  1.00  0.00    -0.082 C  
HETATM    3  C   UNL     1     -11.079   5.709  72.287  1.00  0.00    -0.318 C  
HETATM    4  C   UNL     1     -10.041   6.479  73.098  1.00  0.00    -0.208 C  
HETATM    5  C   UNL     1      -8.809   4.939  71.727  1.00  0.00    -0.141 C  
HETATM    6  C   UNL     1      -8.192   4.899  70.276  1.00  0.00    -0.081 C  
HETATM    7  C   UNL     1      -8.834   6.457  72.155  1.00  0.00    -0.136 C  
HETATM    8  C   UNL     1      -9.172   7.519  71.041  1.00  0.00    -0.153 C  
HETATM    9  C   UNL     1      -9.132   8.914  71.616  1.00  0.00    -0.280 C  
HETATM   10  C   UNL     1      -9.911   9.831  70.693  1.00  0.00    -0.171 C  
HETATM   11  C   UNL     1      -9.114   9.998  69.404  1.00  0.00    -0.228 C  
HETATM   12  C   UNL     1      -9.760  11.133  68.580  1.00  0.00    -0.202 C  
HETATM   13  C   UNL     1     -10.858  10.748  67.601  1.00  0.00    -0.279 C  
HETATM   14  O   UNL     1     -12.132  10.790  68.218  1.00  0.00    -0.805 OA 
HETATM   15  C   UNL     1     -10.634   9.403  66.908  1.00  0.00    -0.238 C  
HETATM   16  H   UNL     1     -12.818  10.550  67.607  1.00  0.00     0.000 HD 
HETATM   17  C   UNL     1     -10.097   8.270  67.809  1.00  0.00    -0.262 C  
HETATM   18  C   UNL     1      -8.841   8.631  68.661  1.00  0.00    -0.142 C  
HETATM   19  C   UNL     1      -7.660   8.859  67.683  1.00  0.00    -0.093 C  
HETATM   20  C   UNL     1      -8.384   7.448  69.720  1.00  0.00    -0.134 C  
HETATM   21  C   UNL     1      -8.495   5.988  69.214  1.00  0.00    -0.115 C  
ENDROOT
BRANCH   1  22
HETATM   22  C   UNL     1     -10.741   3.615  73.352  1.00  0.00    -0.209 C  
HETATM   23  C   UNL     1     -10.901   2.090  73.236  1.00  0.00    -0.263 C  
HETATM   24  O   UNL     1     -11.014   4.142  74.419  1.00  0.00    -0.201 OA 
ENDBRANCH   1  22
TORSDOF 1
ENDMDL
MODEL       61
REMARK 921   NORMALIZED FREE ENERGY PREDICTED BY IDOCK:   -4.77 KCAL/MOL
REMARK 922        TOTAL FREE ENERGY PREDICTED BY IDOCK:   -4.66 KCAL/MOL
REMARK 923 INTER-LIGAND FREE ENERGY PREDICTED BY IDOCK:   -4.95 KCAL/MOL
REMARK 924 INTRA-LIGAND FREE ENERGY PREDICTED BY IDOCK:    0.29 KCAL/MOL
REMARK 927      BINDING AFFINITY PREDICTED BY RF-SCORE:    0.00 PKD
ROOT
HETATM    1  C   UNL     1      -6.789   8.903  65.686  1.00  0.00    -0.076 C  
HETATM    2  C   UNL     1      -8.317   6.852  66.030  1.00  0.00    -0.134 C  
HETATM    3  C   UNL     1      -7.118  10.077  64.775  1.00  0.00    -0.137 C  
HETATM    4  C   UNL     1      -8.344   9.535  64.046  1.00  0.00    -0.171 C  
HETATM    5  C   UNL     1      -8.271   8.401  66.163  1.00  0.00    -0.113 C  
HETATM    6  C   UNL     1      -8.788   8.636  67.634  1.00  0.00    -0.138 C  
HETATM    7  C   UNL     1      -9.265   9.177  65.216  1.00  0.00    -0.243 C  
HETATM    8  C   UNL     1      -9.825  10.559  65.727  1.00  0.00    -0.295 C  
HETATM    9  C   UNL     1     -10.773  11.150  64.711  1.00  0.00    -0.334 C  
HETATM   10  C   UNL     1     -10.901  12.635  64.988  1.00  0.00    -0.321 C  
HETATM   11  C   UNL     1     -11.679  12.812  66.287  1.00  0.00    -0.460 C  
HETATM   12  C   UNL     1     -12.045  14.306  66.430  1.00  0.00    -0.442 C  
HETATM   13  C   UNL     1     -11.052  15.204  67.152  1.00  0.00    -0.335 C  
HETATM   14  O   UNL     1     -10.117  15.762  66.247  1.00  0.00    -0.269 OA 
HETATM   15  C   UNL     1     -10.338  14.529  68.324  1.00  0.00    -0.236 C  
HETATM   16  H   UNL     1      -9.496  16.323  66.698  1.00  0.00     0.000 HD 
HETATM   17  C   UNL     1      -9.889  13.072  68.082  1.00  0.00    -0.228 C  
HETATM   18  C   UNL     1     -10.989  12.116  67.525  1.00  0.00    -0.304 C  
HETATM   19  C   UNL     1     -12.066  11.947  68.627  1.00  0.00    -0.155 C  
HETATM   20  C   UNL     1     -10.436  10.608  67.139  1.00  0.00    -0.295 C  
HETATM   21  C   UNL     1      -9.388   9.990  68.098  1.00  0.00    -0.137 C  
ENDROOT
BRANCH   1  22
HETATM   22  C   UNL     1      -5.854   8.070  64.689  1.00  0.00    -0.045 C  
HETATM   23  C   UNL     1      -5.125   6.844  65.265  1.00  0.00    -0.023 C  
HETATM   24  O   UNL     1      -5.619   8.388  63.533  1.00  0.00    -0.064 OA 
ENDBRANCH   1  22
TORSDOF 1
ENDMDL
MODEL       62
REMARK 921   NORMALIZED FREE ENERGY PREDICTED BY IDOCK:   -4.77 KCAL/MOL
REMARK 922        TOTAL FREE ENERGY PREDICTED BY IDOCK:   -4.66 KCAL/MOL
REMARK 923 INTER-LIGAND FREE ENERGY PREDICTED BY IDOCK:   -4.87 KCAL/MOL
REMARK 924 INTRA-LIGAND FREE ENERGY PREDICTED BY IDOCK:    0.22 KCAL/MOL
REMARK 927      BINDING AFFINITY PREDICTED BY RF-SCORE:    0.00 PKD
ROOT
HETATM    1  C   UNL     1      -8.467   7.722  68.850  1.00  0.00    -0.129 C  
HETATM    2  C   UNL     1      -8.444   7.043  66.361  1.00  0.00    -0.130 C  
HETATM    3  C   UNL     1      -7.771   8.954  69.412  1.00  0.00    -0.093 C  
HETATM    4  C   UNL     1      -6.953   9.394  68.201  1.00  0.00    -0.075 C  
HETATM    5  C   UNL     1      -8.843   8.193  67.329  1.00  0.00    -0.136 C  
HETATM    6  C   UNL     1     -10.330   8.501  66.904  1.00  0.00    -0.367 C  
HETATM    7  C   UNL     1      -8.039   9.536  67.131  1.00  0.00    -0.106 C  
HETATM    8  C   UNL     1      -8.778  10.883  67.480  1.00  0.00    -0.130 C  
HETATM    9  C   UNL     1      -7.874  12.063  67.213  1.00  0.00    -0.170 C  
HETATM   10  C   UNL     1      -8.403  13.252  67.990  1.00  0.00    -0.162 C  
HETATM   11  C   UNL     1      -9.709  13.701  67.344  1.00  0.00    -0.228 C  
HETATM   12  C   UNL     1     -10.107  15.063  67.955  1.00  0.00    -0.223 C  
HETATM   13  C   UNL     1     -10.978  15.043  69.202  1.00  0.00    -0.261 C  
HETATM   14  O   UNL     1     -10.188  15.013  70.377  1.00  0.00    -0.502 OA 
HETATM   15  C   UNL     1     -12.019  13.923  69.218  1.00  0.00    -0.402 C  
HETATM   16  H   UNL     1     -10.732  15.000  71.155  1.00  0.00     0.000 HD 
HETATM   17  C   UNL     1     -11.531  12.551  68.705  1.00  0.00    -0.353 C  
HETATM   18  C   UNL     1     -10.812  12.570  67.321  1.00  0.00    -0.277 C  
HETATM   19  C   UNL     1     -11.863  12.965  66.251  1.00  0.00    -0.477 C  
HETATM   20  C   UNL     1     -10.175  11.114  66.874  1.00  0.00    -0.260 C  
HETATM   21  C   UNL     1     -11.018   9.858  67.211  1.00  0.00    -0.187 C  
ENDROOT
BRANCH   1  22
HETATM   22  C   UNL     1      -7.346   6.629  69.184  1.00  0.00    -0.093 C  
HETATM   23  C   UNL     1      -7.817   5.185  69.418  1.00  0.00    -0.080 C  
HETATM   24  O   UNL     1      -6.162   6.881  69.344  1.00  0.00    -0.032 OA 
ENDBRANCH   1  22
TORSDOF 1
ENDMDL
MODEL       63
REMARK 921   NORMALIZED FREE ENERGY PREDICTED BY IDOCK:   -4.74 KCAL/MOL
REMARK 922        TOTAL FREE ENERGY PREDICTED BY IDOCK:   -4.63 KCAL/MOL
REMARK 923 INTER-LIGAND FREE ENERGY PREDICTED BY IDOCK:   -4.84 KCAL/MOL
REMARK 924 INTRA-LIGAND FREE ENERGY PREDICTED BY IDOCK:    0.22 KCAL/MOL
REMARK 927      BINDING AFFINITY PREDICTED BY RF-SCORE:    0.00 PKD
ROOT
HETATM    1  C   UNL     1     -10.439   7.171  70.525  1.00  0.00    -0.228 C  
HETATM    2  C   UNL     1      -8.030   7.367  71.433  1.00  0.00    -0.096 C  
HETATM    3  C   UNL     1     -11.391   8.346  70.355  1.00  0.00    -0.178 C  
HETATM    4  C   UNL     1     -10.617   9.446  71.076  1.00  0.00    -0.400 C  
HETATM    5  C   UNL     1      -8.976   7.870  70.304  1.00  0.00    -0.151 C  
HETATM    6  C   UNL     1      -8.125   7.610  69.002  1.00  0.00    -0.126 C  
HETATM    7  C   UNL     1      -9.278   9.418  70.333  1.00  0.00    -0.305 C  
HETATM    8  C   UNL     1      -9.565  10.127  68.955  1.00  0.00    -0.202 C  
HETATM    9  C   UNL     1      -9.812  11.602  69.165  1.00  0.00     0.144 C  
HETATM   10  C   UNL     1     -10.541  12.139  67.950  1.00  0.00    -0.230 C  
HETATM   11  C   UNL     1      -9.570  12.145  66.775  1.00  0.00    -0.216 C  
HETATM   12  C   UNL     1     -10.218  12.937  65.617  1.00  0.00    -0.295 C  
HETATM   13  C   UNL     1     -11.074  12.158  64.630  1.00  0.00    -0.317 C  
HETATM   14  O   UNL     1     -12.427  12.119  65.047  1.00  0.00    -0.490 OA 
HETATM   15  C   UNL     1     -10.557  10.750  64.330  1.00  0.00    -0.225 C  
HETATM   16  H   UNL     1     -12.962  11.633  64.431  1.00  0.00     0.000 HD 
HETATM   17  C   UNL     1     -10.030   9.960  65.547  1.00  0.00    -0.363 C  
HETATM   18  C   UNL     1      -8.994  10.714  66.437  1.00  0.00    -0.176 C  
HETATM   19  C   UNL     1      -7.708  10.914  65.595  1.00  0.00     0.012 C  
HETATM   20  C   UNL     1      -8.565   9.896  67.807  1.00  0.00    -0.121 C  
HETATM   21  C   UNL     1      -8.391   8.363  67.671  1.00  0.00    -0.130 C  
ENDROOT
BRANCH   1  22
HETATM   22  C   UNL     1     -10.955   6.636  71.943  1.00  0.00    -0.244 C  
HETATM   23  C   UNL     1     -10.871   5.122  72.197  1.00  0.00    -0.218 C  
HETATM   24  O   UNL     1     -11.483   7.333  72.794  1.00  0.00    -0.288 OA 
ENDBRANCH   1  22
TORSDOF 1
ENDMDL
MODEL       64
REMARK 921   NORMALIZED FREE ENERGY PREDICTED BY IDOCK:   -4.73 KCAL/MOL
REMARK 922        TOTAL FREE ENERGY PREDICTED BY IDOCK:   -4.61 KCAL/MOL
REMARK 923 INTER-LIGAND FREE ENERGY PREDICTED BY IDOCK:   -4.89 KCAL/MOL
REMARK 924 INTRA-LIGAND FREE ENERGY PREDICTED BY IDOCK:    0.28 KCAL/MOL
REMARK 927      BINDING AFFINITY PREDICTED BY RF-SCORE:    0.00 PKD
ROOT
HETATM    1  C   UNL     1      -9.539   7.685  66.933  1.00  0.00    -0.249 C  
HETATM    2  C   UNL     1      -7.669   7.702  65.154  1.00  0.00    -0.110 C  
HETATM    3  C   UNL     1      -9.519   8.514  68.209  1.00  0.00    -0.143 C  
HETATM    4  C   UNL     1      -8.088   9.042  68.181  1.00  0.00    -0.105 C  
HETATM    5  C   UNL     1      -8.686   8.618  65.893  1.00  0.00    -0.201 C  
HETATM    6  C   UNL     1      -9.387   9.384  64.706  1.00  0.00    -0.161 C  
HETATM    7  C   UNL     1      -8.037   9.725  66.811  1.00  0.00    -0.120 C  
HETATM    8  C   UNL     1      -8.835  11.071  66.999  1.00  0.00    -0.143 C  
HETATM    9  C   UNL     1      -8.062  12.019  67.885  1.00  0.00    -0.150 C  
HETATM   10  C   UNL     1      -9.028  13.054  68.429  1.00  0.00    -0.126 C  
HETATM   11  C   UNL     1      -9.448  13.964  67.281  1.00  0.00    -0.239 C  
HETATM   12  C   UNL     1     -10.207  15.171  67.875  1.00  0.00    -0.232 C  
HETATM   13  C   UNL     1     -11.713  15.038  68.038  1.00  0.00    -0.298 C  
HETATM   14  O   UNL     1     -12.044  14.505  69.308  1.00  0.00    -0.393 OA 
HETATM   15  C   UNL     1     -12.395  14.246  66.922  1.00  0.00    -0.240 C  
HETATM   16  H   UNL     1     -12.985  14.422  69.411  1.00  0.00     0.000 HD 
HETATM   17  C   UNL     1     -11.647  12.981  66.449  1.00  0.00    -0.413 C  
HETATM   18  C   UNL     1     -10.142  13.187  66.094  1.00  0.00    -0.291 C  
HETATM   19  C   UNL     1     -10.075  14.096  64.839  1.00  0.00    -0.280 C  
HETATM   20  C   UNL     1      -9.339  11.790  65.734  1.00  0.00    -0.197 C  
HETATM   21  C   UNL     1     -10.118  10.738  64.907  1.00  0.00    -0.387 C  
ENDROOT
BRANCH   1  22
HETATM   22  C   UNL     1      -8.994   6.302  67.527  1.00  0.00    -0.108 C  
HETATM   23  C   UNL     1      -9.991   5.135  67.623  1.00  0.00    -0.203 C  
HETATM   24  O   UNL     1      -7.872   6.138  67.980  1.00  0.00    -0.103 OA 
ENDBRANCH   1  22
TORSDOF 1
ENDMDL
MODEL       65
REMARK 921   NORMALIZED FREE ENERGY PREDICTED BY IDOCK:   -4.70 KCAL/MOL
REMARK 922        TOTAL FREE ENERGY PREDICTED BY IDOCK:   -4.58 KCAL/MOL
REMARK 923 INTER-LIGAND FREE ENERGY PREDICTED BY IDOCK:   -4.80 KCAL/MOL
REMARK 924 INTRA-LIGAND FREE ENERGY PREDICTED BY IDOCK:    0.22 KCAL/MOL
REMARK 927      BINDING AFFINITY PREDICTED BY RF-SCORE:    0.00 PKD
ROOT
HETATM    1  C   UNL     1      -8.947   8.973  69.398  1.00  0.00    -0.145 C  
HETATM    2  C   UNL     1      -9.580   7.731  67.225  1.00  0.00    -0.207 C  
HETATM    3  C   UNL     1      -8.035  10.190  69.458  1.00  0.00    -0.170 C  
HETATM    4  C   UNL     1      -7.498  10.212  68.029  1.00  0.00    -0.087 C  
HETATM    5  C   UNL     1      -9.636   9.122  67.921  1.00  0.00    -0.168 C  
HETATM    6  C   UNL     1     -11.150   9.530  67.754  1.00  0.00    -0.034 C  
HETATM    7  C   UNL     1      -8.793  10.252  67.213  1.00  0.00    -0.136 C  
HETATM    8  C   UNL     1      -9.310  11.735  67.347  1.00  0.00    -0.174 C  
HETATM    9  C   UNL     1      -8.400  12.678  66.595  1.00  0.00     0.074 C  
HETATM   10  C   UNL     1      -8.625  14.079  67.128  1.00  0.00    -0.220 C  
HETATM   11  C   UNL     1     -10.005  14.545  66.678  1.00  0.00    -0.276 C  
HETATM   12  C   UNL     1     -10.127  16.054  66.981  1.00  0.00    -0.271 C  
HETATM   13  C   UNL     1     -10.673  16.452  68.344  1.00  0.00    -0.327 C  
HETATM   14  O   UNL     1      -9.629  16.587  69.292  1.00  0.00    -0.248 OA 
HETATM   15  C   UNL     1     -11.770  15.528  68.872  1.00  0.00    -0.385 C  
HETATM   16  H   UNL     1      -9.969  16.835  70.144  1.00  0.00     0.000 HD 
HETATM   17  C   UNL     1     -11.537  14.018  68.645  1.00  0.00    -0.360 C  
HETATM   18  C   UNL     1     -11.172  13.609  67.184  1.00  0.00    -0.327 C  
HETATM   19  C   UNL     1     -12.412  13.887  66.295  1.00  0.00    -0.454 C  
HETATM   20  C   UNL     1     -10.787  12.013  67.010  1.00  0.00    -0.297 C  
HETATM   21  C   UNL     1     -11.627  11.005  67.833  1.00  0.00    -0.306 C  
ENDROOT
BRANCH   1  22
HETATM   22  C   UNL     1      -7.875   7.841  69.761  1.00  0.00    -0.106 C  
HETATM   23  C   UNL     1      -8.396   6.576  70.462  1.00  0.00    -0.133 C  
HETATM   24  O   UNL     1      -6.671   7.951  69.594  1.00  0.00    -0.041 OA 
ENDBRANCH   1  22
TORSDOF 1
ENDMDL
MODEL       66
REMARK 921   NORMALIZED FREE ENERGY PREDICTED BY IDOCK:   -4.58 KCAL/MOL
REMARK 922        TOTAL FREE ENERGY PREDICTED BY IDOCK:   -4.46 KCAL/MOL
REMARK 923 INTER-LIGAND FREE ENERGY PREDICTED BY IDOCK:   -4.67 KCAL/MOL
REMARK 924 INTRA-LIGAND FREE ENERGY PREDICTED BY IDOCK:    0.22 KCAL/MOL
REMARK 927      BINDING AFFINITY PREDICTED BY RF-SCORE:    0.00 PKD
ROOT
HETATM    1  C   UNL     1     -11.940   8.069  71.095  1.00  0.00    -0.297 C  
HETATM    2  C   UNL     1     -10.747   7.345  73.266  1.00  0.00    -0.441 C  
HETATM    3  C   UNL     1     -11.262   8.792  69.941  1.00  0.00    -0.059 C  
HETATM    4  C   UNL     1      -9.913   9.128  70.571  1.00  0.00    -0.288 C  
HETATM    5  C   UNL     1     -10.718   7.177  71.719  1.00  0.00    -0.241 C  
HETATM    6  C   UNL     1     -10.666   5.611  71.544  1.00  0.00    -0.306 C  
HETATM    7  C   UNL     1      -9.426   7.745  71.015  1.00  0.00    -0.165 C  
HETATM    8  C   UNL     1      -8.954   7.038  69.688  1.00  0.00    -0.141 C  
HETATM    9  C   UNL     1      -7.698   7.692  69.163  1.00  0.00    -0.109 C  
HETATM   10  C   UNL     1      -7.555   7.336  67.696  1.00  0.00    -0.110 C  
HETATM   11  C   UNL     1      -7.205   5.856  67.597  1.00  0.00    -0.076 C  
HETATM   12  C   UNL     1      -6.794   5.553  66.139  1.00  0.00    -0.058 C  
HETATM   13  C   UNL     1      -7.894   5.140  65.173  1.00  0.00    -0.091 C  
HETATM   14  O   UNL     1      -8.460   6.268  64.531  1.00  0.00    -0.318 OA 
HETATM   15  C   UNL     1      -8.982   4.269  65.802  1.00  0.00    -0.129 C  
HETATM   16  H   UNL     1      -9.147   6.010  63.928  1.00  0.00     0.000 HD 
HETATM   17  C   UNL     1      -9.439   4.689  67.216  1.00  0.00    -0.173 C  
HETATM   18  C   UNL     1      -8.293   4.915  68.250  1.00  0.00    -0.091 C  
HETATM   19  C   UNL     1      -7.624   3.542  68.517  1.00  0.00    -0.053 C  
HETATM   20  C   UNL     1      -8.807   5.505  69.705  1.00  0.00    -0.120 C  
HETATM   21  C   UNL     1     -10.142   4.937  70.248  1.00  0.00    -0.322 C  
ENDROOT
BRANCH   1  22
HETATM   22  C   UNL     1     -12.579   9.334  71.840  1.00  0.00    -0.390 C  
HETATM   23  C   UNL     1     -13.857   9.097  72.660  1.00  0.00    -0.414 C  
HETATM   24  O   UNL     1     -12.169  10.479  71.732  1.00  0.00    -0.280 OA 
ENDBRANCH   1  22
TORSDOF 1
ENDMDL
MODEL       67
REMARK 921   NORMALIZED FREE ENERGY PREDICTED BY IDOCK:   -4.58 KCAL/MOL
REMARK 922        TOTAL FREE ENERGY PREDICTED BY IDOCK:   -4.45 KCAL/MOL
REMARK 923 INTER-LIGAND FREE ENERGY PREDICTED BY IDOCK:   -4.69 KCAL/MOL
REMARK 924 INTRA-LIGAND FREE ENERGY PREDICTED BY IDOCK:    0.24 KCAL/MOL
REMARK 927      BINDING AFFINITY PREDICTED BY RF-SCORE:    0.00 PKD
ROOT
HETATM    1  C   UNL     1     -10.068   4.893  65.956  1.00  0.00    -0.264 C  
HETATM    2  C   UNL     1      -8.286   6.388  64.837  1.00  0.00    -0.110 C  
HETATM    3  C   UNL     1      -9.876   4.171  67.282  1.00  0.00    -0.171 C  
HETATM    4  C   UNL     1      -8.383   4.393  67.511  1.00  0.00    -0.099 C  
HETATM    5  C   UNL     1      -9.126   6.218  66.136  1.00  0.00    -0.153 C  
HETATM    6  C   UNL     1      -9.748   7.654  66.334  1.00  0.00    -0.197 C  
HETATM    7  C   UNL     1      -8.283   5.919  67.436  1.00  0.00    -0.105 C  
HETATM    8  C   UNL     1      -8.862   6.431  68.810  1.00  0.00    -0.124 C  
HETATM    9  C   UNL     1      -7.922   6.079  69.939  1.00  0.00    -0.113 C  
HETATM   10  C   UNL     1      -8.700   6.135  71.239  1.00  0.00    -0.132 C  
HETATM   11  C   UNL     1      -9.022   7.595  71.538  1.00  0.00    -0.148 C  
HETATM   12  C   UNL     1      -9.568   7.683  72.980  1.00  0.00    -0.292 C  
HETATM   13  C   UNL     1     -11.070   7.535  73.170  1.00  0.00    -0.326 C  
HETATM   14  O   UNL     1     -11.429   6.179  73.368  1.00  0.00    -0.425 OA 
HETATM   15  C   UNL     1     -11.905   8.161  72.052  1.00  0.00    -0.392 C  
HETATM   16  H   UNL     1     -12.367   6.086  73.486  1.00  0.00     0.000 HD 
HETATM   17  C   UNL     1     -11.374   7.940  70.619  1.00  0.00    -0.267 C  
HETATM   18  C   UNL     1      -9.869   8.291  70.401  1.00  0.00    -0.194 C  
HETATM   19  C   UNL     1      -9.715   9.824  70.575  1.00  0.00    -0.195 C  
HETATM   20  C   UNL     1      -9.299   7.904  68.900  1.00  0.00    -0.150 C  
HETATM   21  C   UNL     1     -10.259   8.156  67.711  1.00  0.00    -0.288 C  
ENDROOT
BRANCH   1  22
HETATM   22  C   UNL     1      -9.715   3.688  64.963  1.00  0.00    -0.162 C  
HETATM   23  C   UNL     1     -10.660   3.456  63.773  1.00  0.00    -0.265 C  
HETATM   24  O   UNL     1      -8.801   2.897  65.134  1.00  0.00    -0.118 OA 
ENDBRANCH   1  22
TORSDOF 1
ENDMDL
MODEL       68
REMARK 921   NORMALIZED FREE ENERGY PREDICTED BY IDOCK:   -4.47 KCAL/MOL
REMARK 922        TOTAL FREE ENERGY PREDICTED BY IDOCK:   -4.34 KCAL/MOL
REMARK 923 INTER-LIGAND FREE ENERGY PREDICTED BY IDOCK:   -4.61 KCAL/MOL
REMARK 924 INTRA-LIGAND FREE ENERGY PREDICTED BY IDOCK:    0.27 KCAL/MOL
REMARK 927      BINDING AFFINITY PREDICTED BY RF-SCORE:    0.00 PKD
ROOT
HETATM    1  C   UNL     1     -11.578   8.356  70.490  1.00  0.00    -0.136 C  
HETATM    2  C   UNL     1     -10.790   6.177  69.353  1.00  0.00    -0.420 C  
HETATM    3  C   UNL     1     -10.696   9.239  71.360  1.00  0.00    -0.432 C  
HETATM    4  C   UNL     1      -9.468   8.346  71.518  1.00  0.00    -0.267 C  
HETATM    5  C   UNL     1     -10.501   7.703  69.445  1.00  0.00    -0.220 C  
HETATM    6  C   UNL     1     -10.452   8.137  67.930  1.00  0.00    -0.259 C  
HETATM    7  C   UNL     1      -9.095   8.075  70.057  1.00  0.00    -0.152 C  
HETATM    8  C   UNL     1      -8.417   9.407  69.559  1.00  0.00    -0.152 C  
HETATM    9  C   UNL     1      -7.076   9.596  70.228  1.00  0.00    -0.127 C  
HETATM   10  C   UNL     1      -6.690  11.058  70.117  1.00  0.00    -0.031 C  
HETATM   11  C   UNL     1      -6.361  11.353  68.658  1.00  0.00    -0.053 C  
HETATM   12  C   UNL     1      -5.711  12.753  68.584  1.00  0.00    -0.067 C  
HETATM   13  C   UNL     1      -6.638  13.945  68.394  1.00  0.00    -0.103 C  
HETATM   14  O   UNL     1      -7.061  14.466  69.641  1.00  0.00    -0.264 OA 
HETATM   15  C   UNL     1      -7.836  13.666  67.486  1.00  0.00    -0.185 C  
HETATM   16  H   UNL     1      -7.640  15.210  69.523  1.00  0.00     0.000 HD 
HETATM   17  C   UNL     1      -8.520  12.296  67.686  1.00  0.00    -0.166 C  
HETATM   18  C   UNL     1      -7.564  11.063  67.677  1.00  0.00    -0.104 C  
HETATM   19  C   UNL     1      -6.980  10.931  66.247  1.00  0.00    -0.120 C  
HETATM   20  C   UNL     1      -8.307   9.633  68.040  1.00  0.00    -0.117 C  
HETATM   21  C   UNL     1      -9.728   9.426  67.457  1.00  0.00    -0.198 C  
ENDROOT
BRANCH   1  22
HETATM   22  C   UNL     1     -12.308   7.520  71.642  1.00  0.00    -0.333 C  
HETATM   23  C   UNL     1     -13.825   7.714  71.801  1.00  0.00    -0.432 C  
HETATM   24  O   UNL     1     -11.732   6.808  72.450  1.00  0.00    -0.272 OA 
ENDBRANCH   1  22
TORSDOF 1
ENDMDL
MODEL       69
REMARK 921   NORMALIZED FREE ENERGY PREDICTED BY IDOCK:   -4.42 KCAL/MOL
REMARK 922        TOTAL FREE ENERGY PREDICTED BY IDOCK:   -4.29 KCAL/MOL
REMARK 923 INTER-LIGAND FREE ENERGY PREDICTED BY IDOCK:   -4.50 KCAL/MOL
REMARK 924 INTRA-LIGAND FREE ENERGY PREDICTED BY IDOCK:    0.22 KCAL/MOL
REMARK 927      BINDING AFFINITY PREDICTED BY RF-SCORE:    0.00 PKD
ROOT
HETATM    1  C   UNL     1     -11.748   7.720  71.103  1.00  0.00    -0.304 C  
HETATM    2  C   UNL     1     -10.631   7.354  73.400  1.00  0.00    -0.427 C  
HETATM    3  C   UNL     1     -11.016   8.197  69.857  1.00  0.00    -0.168 C  
HETATM    4  C   UNL     1      -9.668   8.590  70.454  1.00  0.00    -0.193 C  
HETATM    5  C   UNL     1     -10.578   6.910  71.910  1.00  0.00    -0.236 C  
HETATM    6  C   UNL     1     -10.587   5.337  72.019  1.00  0.00    -0.279 C  
HETATM    7  C   UNL     1      -9.249   7.292  71.151  1.00  0.00    -0.156 C  
HETATM    8  C   UNL     1      -8.779   6.341  69.986  1.00  0.00    -0.141 C  
HETATM    9  C   UNL     1      -7.486   6.842  69.387  1.00  0.00    -0.094 C  
HETATM   10  C   UNL     1      -7.328   6.223  68.012  1.00  0.00    -0.089 C  
HETATM   11  C   UNL     1      -7.040   4.737  68.190  1.00  0.00    -0.061 C  
HETATM   12  C   UNL     1      -6.611   4.162  66.821  1.00  0.00    -0.046 C  
HETATM   13  C   UNL     1      -7.707   3.623  65.915  1.00  0.00    -0.089 C  
HETATM   14  O   UNL     1      -8.213   4.638  65.066  1.00  0.00    -0.108 OA 
HETATM   15  C   UNL     1      -8.844   2.921  66.659  1.00  0.00    -0.157 C  
HETATM   16  H   UNL     1      -8.897   4.301  64.499  1.00  0.00     0.000 HD 
HETATM   17  C   UNL     1      -9.312   3.606  67.962  1.00  0.00    -0.237 C  
HETATM   18  C   UNL     1      -8.179   3.971  68.970  1.00  0.00    -0.079 C  
HETATM   19  C   UNL     1      -7.573   2.644  69.497  1.00  0.00    -0.043 C  
HETATM   20  C   UNL     1      -8.697   4.831  70.281  1.00  0.00    -0.121 C  
HETATM   21  C   UNL     1     -10.066   4.421  70.879  1.00  0.00    -0.199 C  
ENDROOT
BRANCH   1  22
HETATM   22  C   UNL     1     -12.348   9.121  71.591  1.00  0.00    -0.360 C  
HETATM   23  C   UNL     1     -13.715   9.095  72.295  1.00  0.00    -0.548 C  
HETATM   24  O   UNL     1     -11.836  10.207  71.369  1.00  0.00    -0.368 OA 
ENDBRANCH   1  22
TORSDOF 1
ENDMDL
MODEL       70
REMARK 921   NORMALIZED FREE ENERGY PREDICTED BY IDOCK:   -4.38 KCAL/MOL
REMARK 922        TOTAL FREE ENERGY PREDICTED BY IDOCK:   -4.24 KCAL/MOL
REMARK 923 INTER-LIGAND FREE ENERGY PREDICTED BY IDOCK:   -4.55 KCAL/MOL
REMARK 924 INTRA-LIGAND FREE ENERGY PREDICTED BY IDOCK:    0.30 KCAL/MOL
REMARK 927      BINDING AFFINITY PREDICTED BY RF-SCORE:    0.00 PKD
ROOT
HETATM    1  C   UNL     1     -11.406  12.321  66.674  1.00  0.00    -0.398 C  
HETATM    2  C   UNL     1     -11.599  12.964  69.166  1.00  0.00    -0.375 C  
HETATM    3  C   UNL     1     -10.093  12.221  65.911  1.00  0.00    -0.272 C  
HETATM    4  C   UNL     1      -9.128  12.826  66.927  1.00  0.00    -0.221 C  
HETATM    5  C   UNL     1     -10.958  11.927  68.198  1.00  0.00    -0.272 C  
HETATM    6  C   UNL     1     -11.366  10.550  68.848  1.00  0.00    -0.313 C  
HETATM    7  C   UNL     1      -9.382  11.947  68.155  1.00  0.00    -0.191 C  
HETATM    8  C   UNL     1      -8.648  10.589  67.838  1.00  0.00    -0.123 C  
HETATM    9  C   UNL     1      -7.150  10.784  67.858  1.00  0.00    -0.085 C  
HETATM   10  C   UNL     1      -6.512   9.638  67.097  1.00  0.00    -0.070 C  
HETATM   11  C   UNL     1      -6.677   8.368  67.923  1.00  0.00    -0.066 C  
HETATM   12  C   UNL     1      -5.800   7.264  67.290  1.00  0.00    -0.030 C  
HETATM   13  C   UNL     1      -6.437   6.394  66.217  1.00  0.00    -0.043 C  
HETATM   14  O   UNL     1      -6.250   6.953  64.929  1.00  0.00    -0.035 OA 
HETATM   15  C   UNL     1      -7.913   6.079  66.464  1.00  0.00    -0.105 C  
HETATM   16  H   UNL     1      -6.647   6.410  64.259  1.00  0.00     0.000 HD 
HETATM   17  C   UNL     1      -8.768   7.254  66.985  1.00  0.00    -0.123 C  
HETATM   18  C   UNL     1      -8.186   8.010  68.219  1.00  0.00    -0.123 C  
HETATM   19  C   UNL     1      -8.206   7.031  69.422  1.00  0.00    -0.132 C  
HETATM   20  C   UNL     1      -9.049   9.348  68.657  1.00  0.00    -0.132 C  
HETATM   21  C   UNL     1     -10.592   9.235  68.565  1.00  0.00    -0.222 C  
ENDROOT
BRANCH   1  22
HETATM   22  C   UNL     1     -11.837  13.799  66.235  1.00  0.00    -0.398 C  
HETATM   23  C   UNL     1     -12.152  14.028  64.747  1.00  0.00    -0.455 C  
HETATM   24  O   UNL     1     -11.851  14.765  66.981  1.00  0.00    -0.362 OA 
ENDBRANCH   1  22
TORSDOF 1
ENDMDL
MODEL       71
REMARK 921   NORMALIZED FREE ENERGY PREDICTED BY IDOCK:   -4.31 KCAL/MOL
REMARK 922        TOTAL FREE ENERGY PREDICTED BY IDOCK:   -4.17 KCAL/MOL
REMARK 923 INTER-LIGAND FREE ENERGY PREDICTED BY IDOCK:   -4.38 KCAL/MOL
REMARK 924 INTRA-LIGAND FREE ENERGY PREDICTED BY IDOCK:    0.22 KCAL/MOL
REMARK 927      BINDING AFFINITY PREDICTED BY RF-SCORE:    0.00 PKD
ROOT
HETATM    1  C   UNL     1      -7.390   5.638  69.790  1.00  0.00    -0.070 C  
HETATM    2  C   UNL     1      -9.508   4.635  70.871  1.00  0.00    -0.233 C  
HETATM    3  C   UNL     1      -7.301   6.106  68.344  1.00  0.00    -0.086 C  
HETATM    4  C   UNL     1      -8.622   5.575  67.794  1.00  0.00    -0.108 C  
HETATM    5  C   UNL     1      -8.964   5.902  70.149  1.00  0.00    -0.148 C  
HETATM    6  C   UNL     1      -9.406   7.066  71.117  1.00  0.00    -0.158 C  
HETATM    7  C   UNL     1      -9.633   6.208  68.754  1.00  0.00    -0.137 C  
HETATM    8  C   UNL     1      -9.724   7.717  68.309  1.00  0.00    -0.169 C  
HETATM    9  C   UNL     1     -10.408   7.829  66.967  1.00  0.00    -0.405 C  
HETATM   10  C   UNL     1     -10.052   9.173  66.362  1.00  0.00    -0.345 C  
HETATM   11  C   UNL     1     -10.756  10.259  67.168  1.00  0.00    -0.303 C  
HETATM   12  C   UNL     1     -10.621  11.593  66.401  1.00  0.00    -0.299 C  
HETATM   13  C   UNL     1      -9.405  12.454  66.706  1.00  0.00    -0.220 C  
HETATM   14  O   UNL     1      -8.321  12.127  65.855  1.00  0.00    -0.286 OA 
HETATM   15  C   UNL     1      -8.972  12.427  68.173  1.00  0.00    -0.196 C  
HETATM   16  H   UNL     1      -7.561  12.665  66.045  1.00  0.00     0.000 HD 
HETATM   17  C   UNL     1      -9.016  11.043  68.856  1.00  0.00    -0.123 C  
HETATM   18  C   UNL     1     -10.355  10.259  68.695  1.00  0.00    -0.203 C  
HETATM   19  C   UNL     1     -11.451  11.039  69.466  1.00  0.00    -0.370 C  
HETATM   20  C   UNL     1     -10.315   8.727  69.310  1.00  0.00    -0.221 C  
HETATM   21  C   UNL     1      -9.543   8.537  70.640  1.00  0.00    -0.203 C  
ENDROOT
BRANCH   1  22
HETATM   22  C   UNL     1      -6.756   4.179  69.618  1.00  0.00    -0.037 C  
HETATM   23  C   UNL     1      -5.960   3.612  70.805  1.00  0.00    -0.018 C  
HETATM   24  O   UNL     1      -6.793   3.526  68.587  1.00  0.00    -0.044 OA 
ENDBRANCH   1  22
TORSDOF 1
ENDMDL
MODEL       72
REMARK 921   NORMALIZED FREE ENERGY PREDICTED BY IDOCK:   -4.29 KCAL/MOL
REMARK 922        TOTAL FREE ENERGY PREDICTED BY IDOCK:   -4.15 KCAL/MOL
REMARK 923 INTER-LIGAND FREE ENERGY PREDICTED BY IDOCK:   -4.57 KCAL/MOL
REMARK 924 INTRA-LIGAND FREE ENERGY PREDICTED BY IDOCK:    0.42 KCAL/MOL
REMARK 927      BINDING AFFINITY PREDICTED BY RF-SCORE:    0.00 PKD
ROOT
HETATM    1  C   UNL     1      -8.014  17.350  68.493  1.00  0.00    -0.266 C  
HETATM    2  C   UNL     1      -6.821  17.662  66.226  1.00  0.00    -0.322 C  
HETATM    3  C   UNL     1      -9.308  16.572  68.684  1.00  0.00    -0.241 C  
HETATM    4  C   UNL     1      -9.715  16.339  67.231  1.00  0.00    -0.237 C  
HETATM    5  C   UNL     1      -7.325  16.580  67.224  1.00  0.00    -0.199 C  
HETATM    6  C   UNL     1      -6.056  15.662  67.406  1.00  0.00    -0.079 C  
HETATM    7  C   UNL     1      -8.470  15.648  66.669  1.00  0.00    -0.323 C  
HETATM    8  C   UNL     1      -8.539  14.175  67.225  1.00  0.00    -0.231 C  
HETATM    9  C   UNL     1      -9.674  13.420  66.575  1.00  0.00    -0.284 C  
HETATM   10  C   UNL     1     -10.014  12.228  67.447  1.00  0.00    -0.205 C  
HETATM   11  C   UNL     1      -8.870  11.225  67.349  1.00  0.00    -0.145 C  
HETATM   12  C   UNL     1      -9.328   9.905  68.009  1.00  0.00    -0.140 C  
HETATM   13  C   UNL     1      -9.062   9.739  69.497  1.00  0.00    -0.216 C  
HETATM   14  O   UNL     1     -10.147  10.226  70.267  1.00  0.00    -0.418 OA 
HETATM   15  C   UNL     1      -7.743  10.353  69.969  1.00  0.00     0.002 C  
HETATM   16  H   UNL     1      -9.982  10.122  71.197  1.00  0.00     0.000 HD 
HETATM   17  C   UNL     1      -7.394  11.730  69.364  1.00  0.00     0.136 C  
HETATM   18  C   UNL     1      -7.481  11.819  67.808  1.00  0.00    -0.117 C  
HETATM   19  C   UNL     1      -6.368  10.912  67.223  1.00  0.00    -0.068 C  
HETATM   20  C   UNL     1      -7.245  13.339  67.208  1.00  0.00    -0.033 C  
HETATM   21  C   UNL     1      -6.155  14.194  67.902  1.00  0.00    -0.154 C  
ENDROOT
BRANCH   1  22
HETATM   22  C   UNL     1      -8.623  18.827  68.404  1.00  0.00    -0.341 C  
HETATM   23  C   UNL     1     -10.055  19.032  68.925  1.00  0.00    -0.396 C  
HETATM   24  O   UNL     1      -8.061  19.776  67.879  1.00  0.00    -0.293 OA 
ENDBRANCH   1  22
TORSDOF 1
ENDMDL
MODEL       73
REMARK 921   NORMALIZED FREE ENERGY PREDICTED BY IDOCK:   -4.27 KCAL/MOL
REMARK 922        TOTAL FREE ENERGY PREDICTED BY IDOCK:   -4.13 KCAL/MOL
REMARK 923 INTER-LIGAND FREE ENERGY PREDICTED BY IDOCK:   -4.44 KCAL/MOL
REMARK 924 INTRA-LIGAND FREE ENERGY PREDICTED BY IDOCK:    0.31 KCAL/MOL
REMARK 927      BINDING AFFINITY PREDICTED BY RF-SCORE:    0.00 PKD
ROOT
HETATM    1  C   UNL     1      -8.253  10.285  67.711  1.00  0.00    -0.110 C  
HETATM    2  C   UNL     1      -9.077   9.010  65.624  1.00  0.00    -0.278 C  
HETATM    3  C   UNL     1      -9.105  10.562  68.941  1.00  0.00    -0.180 C  
HETATM    4  C   UNL     1     -10.480  10.132  68.437  1.00  0.00    -0.237 C  
HETATM    5  C   UNL     1      -8.877   8.876  67.162  1.00  0.00    -0.133 C  
HETATM    6  C   UNL     1      -8.086   7.517  67.289  1.00  0.00    -0.115 C  
HETATM    7  C   UNL     1     -10.207   8.693  67.990  1.00  0.00    -0.261 C  
HETATM    8  C   UNL     1     -10.120   7.863  69.327  1.00  0.00    -0.197 C  
HETATM    9  C   UNL     1     -11.481   7.769  69.976  1.00  0.00     0.023 C  
HETATM   10  C   UNL     1     -11.286   7.414  71.437  1.00  0.00    -0.282 C  
HETATM   11  C   UNL     1     -10.798   5.972  71.515  1.00  0.00    -0.322 C  
HETATM   12  C   UNL     1     -10.860   5.521  72.992  1.00  0.00    -0.316 C  
HETATM   13  C   UNL     1      -9.627   5.760  73.848  1.00  0.00    -0.148 C  
HETATM   14  O   UNL     1      -9.680   7.028  74.478  1.00  0.00    -0.432 OA 
HETATM   15  C   UNL     1      -8.304   5.579  73.102  1.00  0.00    -0.118 C  
HETATM   16  H   UNL     1      -8.910   7.177  75.014  1.00  0.00     0.000 HD 
HETATM   17  C   UNL     1      -8.261   6.155  71.670  1.00  0.00    -0.118 C  
HETATM   18  C   UNL     1      -9.442   5.731  70.743  1.00  0.00    -0.197 C  
HETATM   19  C   UNL     1      -9.314   4.207  70.487  1.00  0.00    -0.211 C  
HETATM   20  C   UNL     1      -9.444   6.481  69.271  1.00  0.00    -0.141 C  
HETATM   21  C   UNL     1      -8.063   6.689  68.601  1.00  0.00    -0.119 C  
ENDROOT
BRANCH   1  22
HETATM   22  C   UNL     1      -8.440  11.686  66.959  1.00  0.00    -0.168 C  
HETATM   23  C   UNL     1      -7.548  12.853  67.413  1.00  0.00    -0.150 C  
HETATM   24  O   UNL     1      -9.292  11.908  66.114  1.00  0.00    -0.224 OA 
ENDBRANCH   1  22
TORSDOF 1
ENDMDL
MODEL       74
REMARK 921   NORMALIZED FREE ENERGY PREDICTED BY IDOCK:   -4.27 KCAL/MOL
REMARK 922        TOTAL FREE ENERGY PREDICTED BY IDOCK:   -4.13 KCAL/MOL
REMARK 923 INTER-LIGAND FREE ENERGY PREDICTED BY IDOCK:   -4.37 KCAL/MOL
REMARK 924 INTRA-LIGAND FREE ENERGY PREDICTED BY IDOCK:    0.25 KCAL/MOL
REMARK 927      BINDING AFFINITY PREDICTED BY RF-SCORE:    0.00 PKD
ROOT
HETATM    1  C   UNL     1     -10.988  11.144  66.320  1.00  0.00    -0.227 C  
HETATM    2  C   UNL     1      -9.580  11.587  68.437  1.00  0.00    -0.195 C  
HETATM    3  C   UNL     1     -10.421  10.640  65.001  1.00  0.00    -0.278 C  
HETATM    4  C   UNL     1      -8.923  10.757  65.272  1.00  0.00    -0.211 C  
HETATM    5  C   UNL     1      -9.971  10.480  67.417  1.00  0.00    -0.214 C  
HETATM    6  C   UNL     1     -10.426   9.294  68.352  1.00  0.00    -0.246 C  
HETATM    7  C   UNL     1      -8.776   9.925  66.549  1.00  0.00    -0.139 C  
HETATM    8  C   UNL     1      -8.862   8.427  66.069  1.00  0.00    -0.202 C  
HETATM    9  C   UNL     1      -7.632   8.059  65.274  1.00  0.00    -0.085 C  
HETATM   10  C   UNL     1      -7.953   6.832  64.442  1.00  0.00    -0.096 C  
HETATM   11  C   UNL     1      -8.090   5.641  65.384  1.00  0.00    -0.126 C  
HETATM   12  C   UNL     1      -8.144   4.355  64.530  1.00  0.00    -0.096 C  
HETATM   13  C   UNL     1      -9.514   3.878  64.072  1.00  0.00    -0.157 C  
HETATM   14  O   UNL     1      -9.859   4.442  62.819  1.00  0.00    -0.280 OA 
HETATM   15  C   UNL     1     -10.628   4.103  65.094  1.00  0.00    -0.139 C  
HETATM   16  H   UNL     1     -10.714   4.144  62.532  1.00  0.00     0.000 HD 
HETATM   17  C   UNL     1     -10.591   5.458  65.834  1.00  0.00    -0.006 C  
HETATM   18  C   UNL     1      -9.218   5.835  66.472  1.00  0.00    -0.150 C  
HETATM   19  C   UNL     1      -8.940   4.828  67.617  1.00  0.00    -0.120 C  
HETATM   20  C   UNL     1      -9.174   7.351  67.125  1.00  0.00    -0.159 C  
HETATM   21  C   UNL     1     -10.448   7.818  67.872  1.00  0.00    -0.263 C  
ENDROOT
BRANCH   1  22
HETATM   22  C   UNL     1     -11.029  12.710  65.990  1.00  0.00    -0.282 C  
HETATM   23  C   UNL     1     -12.362  13.442  66.215  1.00  0.00    -0.410 C  
HETATM   24  O   UNL     1     -10.104  13.337  65.499  1.00  0.00    -0.292 OA 
ENDBRANCH   1  22
TORSDOF 1
ENDMDL
MODEL       75
REMARK 921   NORMALIZED FREE ENERGY PREDICTED BY IDOCK:   -4.23 KCAL/MOL
REMARK 922        TOTAL FREE ENERGY PREDICTED BY IDOCK:   -4.09 KCAL/MOL
REMARK 923 INTER-LIGAND FREE ENERGY PREDICTED BY IDOCK:   -4.38 KCAL/MOL
REMARK 924 INTRA-LIGAND FREE ENERGY PREDICTED BY IDOCK:    0.30 KCAL/MOL
REMARK 927      BINDING AFFINITY PREDICTED BY RF-SCORE:    0.00 PKD
ROOT
HETATM    1  C   UNL     1      -9.661   7.267  71.658  1.00  0.00    -0.162 C  
HETATM    2  C   UNL     1     -12.135   6.578  71.910  1.00  0.00    -0.388 C  
HETATM    3  C   UNL     1      -8.511   6.289  71.463  1.00  0.00    -0.130 C  
HETATM    4  C   UNL     1      -9.220   4.963  71.724  1.00  0.00    -0.175 C  
HETATM    5  C   UNL     1     -10.912   6.485  70.952  1.00  0.00    -0.325 C  
HETATM    6  C   UNL     1     -11.515   6.963  69.576  1.00  0.00    -0.165 C  
HETATM    7  C   UNL     1     -10.368   5.023  70.712  1.00  0.00    -0.265 C  
HETATM    8  C   UNL     1      -9.697   4.719  69.319  1.00  0.00    -0.266 C  
HETATM    9  C   UNL     1      -9.255   3.276  69.254  1.00  0.00    -0.218 C  
HETATM   10  C   UNL     1      -8.217   3.147  68.156  1.00  0.00    -0.088 C  
HETATM   11  C   UNL     1      -8.918   3.325  66.814  1.00  0.00    -0.170 C  
HETATM   12  C   UNL     1      -7.929   2.927  65.697  1.00  0.00    -0.086 C  
HETATM   13  C   UNL     1      -7.034   4.020  65.133  1.00  0.00    -0.058 C  
HETATM   14  O   UNL     1      -5.818   4.107  65.854  1.00  0.00    -0.021 OA 
HETATM   15  C   UNL     1      -7.707   5.390  65.035  1.00  0.00    -0.087 C  
HETATM   16  H   UNL     1      -5.259   4.789  65.502  1.00  0.00     0.000 HD 
HETATM   17  C   UNL     1      -8.592   5.785  66.237  1.00  0.00    -0.130 C  
HETATM   18  C   UNL     1      -9.645   4.720  66.673  1.00  0.00    -0.182 C  
HETATM   19  C   UNL     1     -10.684   4.591  65.529  1.00  0.00    -0.170 C  
HETATM   20  C   UNL     1     -10.470   5.114  68.048  1.00  0.00    -0.088 C  
HETATM   21  C   UNL     1     -10.866   6.602  68.213  1.00  0.00    -0.322 C  
ENDROOT
BRANCH   1  22
HETATM   22  C   UNL     1      -9.536   7.487  73.238  1.00  0.00    -0.240 C  
HETATM   23  C   UNL     1      -8.195   8.016  73.772  1.00  0.00    -0.297 C  
HETATM   24  O   UNL     1     -10.398   7.186  74.048  1.00  0.00    -0.349 OA 
ENDBRANCH   1  22
TORSDOF 1
ENDMDL
MODEL       76
REMARK 921   NORMALIZED FREE ENERGY PREDICTED BY IDOCK:   -4.18 KCAL/MOL
REMARK 922        TOTAL FREE ENERGY PREDICTED BY IDOCK:   -4.03 KCAL/MOL
REMARK 923 INTER-LIGAND FREE ENERGY PREDICTED BY IDOCK:   -4.33 KCAL/MOL
REMARK 924 INTRA-LIGAND FREE ENERGY PREDICTED BY IDOCK:    0.30 KCAL/MOL
REMARK 927      BINDING AFFINITY PREDICTED BY RF-SCORE:    0.00 PKD
ROOT
HETATM    1  C   UNL     1      -8.943  10.983  66.870  1.00  0.00    -0.162 C  
HETATM    2  C   UNL     1      -9.810  10.476  64.492  1.00  0.00    -0.401 C  
HETATM    3  C   UNL     1      -9.585  10.465  68.148  1.00  0.00    -0.155 C  
HETATM    4  C   UNL     1     -10.881   9.877  67.596  1.00  0.00    -0.318 C  
HETATM    5  C   UNL     1      -9.292   9.800  65.795  1.00  0.00    -0.278 C  
HETATM    6  C   UNL     1      -8.182   8.819  65.256  1.00  0.00    -0.145 C  
HETATM    7  C   UNL     1     -10.352   8.901  66.541  1.00  0.00    -0.267 C  
HETATM    8  C   UNL     1      -9.810   7.671  67.364  1.00  0.00    -0.226 C  
HETATM    9  C   UNL     1     -10.955   6.913  67.992  1.00  0.00    -0.241 C  
HETATM   10  C   UNL     1     -10.403   6.075  69.129  1.00  0.00    -0.289 C  
HETATM   11  C   UNL     1      -9.569   4.949  68.529  1.00  0.00    -0.210 C  
HETATM   12  C   UNL     1      -9.234   3.945  69.654  1.00  0.00    -0.221 C  
HETATM   13  C   UNL     1      -7.957   4.181  70.446  1.00  0.00    -0.051 C  
HETATM   14  O   UNL     1      -8.201   5.003  71.574  1.00  0.00    -0.109 OA 
HETATM   15  C   UNL     1      -6.799   4.731  69.613  1.00  0.00    -0.052 C  
HETATM   16  H   UNL     1      -7.404   5.151  72.069  1.00  0.00     0.000 HD 
HETATM   17  C   UNL     1      -7.174   5.820  68.584  1.00  0.00    -0.082 C  
HETATM   18  C   UNL     1      -8.369   5.468  67.643  1.00  0.00    -0.100 C  
HETATM   19  C   UNL     1      -7.920   4.297  66.732  1.00  0.00    -0.098 C  
HETATM   20  C   UNL     1      -8.836   6.709  66.659  1.00  0.00    -0.140 C  
HETATM   21  C   UNL     1      -7.704   7.581  66.062  1.00  0.00    -0.094 C  
ENDROOT
BRANCH   1  22
HETATM   22  C   UNL     1      -9.610  12.438  66.829  1.00  0.00    -0.224 C  
HETATM   23  C   UNL     1      -8.781  13.608  67.384  1.00  0.00    -0.214 C  
HETATM   24  O   UNL     1     -10.753  12.664  66.466  1.00  0.00    -0.246 OA 
ENDBRANCH   1  22
TORSDOF 1
ENDMDL
MODEL       77
REMARK 921   NORMALIZED FREE ENERGY PREDICTED BY IDOCK:   -4.16 KCAL/MOL
REMARK 922        TOTAL FREE ENERGY PREDICTED BY IDOCK:   -4.01 KCAL/MOL
REMARK 923 INTER-LIGAND FREE ENERGY PREDICTED BY IDOCK:   -4.32 KCAL/MOL
REMARK 924 INTRA-LIGAND FREE ENERGY PREDICTED BY IDOCK:    0.32 KCAL/MOL
REMARK 927      BINDING AFFINITY PREDICTED BY RF-SCORE:    0.00 PKD
ROOT
HETATM    1  C   UNL     1     -11.721   9.389  70.278  1.00  0.00    -0.127 C  
HETATM    2  C   UNL     1     -12.427   8.808  72.691  1.00  0.00    -0.270 C  
HETATM    3  C   UNL     1     -10.280   9.565  69.822  1.00  0.00    -0.249 C  
HETATM    4  C   UNL     1      -9.555   9.559  71.166  1.00  0.00    -0.082 C  
HETATM    5  C   UNL     1     -11.576   8.301  71.491  1.00  0.00    -0.326 C  
HETATM    6  C   UNL     1     -12.066   6.811  71.327  1.00  0.00    -0.421 C  
HETATM    7  C   UNL     1     -10.024   8.229  71.762  1.00  0.00    -0.284 C  
HETATM    8  C   UNL     1      -9.203   7.127  70.990  1.00  0.00    -0.158 C  
HETATM    9  C   UNL     1      -7.745   7.187  71.383  1.00  0.00    -0.093 C  
HETATM   10  C   UNL     1      -6.935   6.487  70.310  1.00  0.00    -0.066 C  
HETATM   11  C   UNL     1      -7.225   4.993  70.393  1.00  0.00    -0.054 C  
HETATM   12  C   UNL     1      -6.208   4.253  69.495  1.00  0.00    -0.027 C  
HETATM   13  C   UNL     1      -6.592   4.030  68.040  1.00  0.00    -0.042 C  
HETATM   14  O   UNL     1      -6.167   5.111  67.228  1.00  0.00    -0.032 OA 
HETATM   15  C   UNL     1      -8.078   3.739  67.824  1.00  0.00    -0.088 C  
HETATM   16  H   UNL     1      -6.407   4.971  66.320  1.00  0.00     0.000 HD 
HETATM   17  C   UNL     1      -9.054   4.592  68.664  1.00  0.00    -0.156 C  
HETATM   18  C   UNL     1      -8.752   4.643  70.194  1.00  0.00    -0.113 C  
HETATM   19  C   UNL     1      -8.984   3.221  70.766  1.00  0.00    -0.165 C  
HETATM   20  C   UNL     1      -9.724   5.679  71.036  1.00  0.00    -0.221 C  
HETATM   21  C   UNL     1     -11.213   5.730  70.611  1.00  0.00    -0.196 C  
ENDROOT
BRANCH   1  22
HETATM   22  C   UNL     1     -12.098  10.927  70.512  1.00  0.00    -0.371 C  
HETATM   23  C   UNL     1     -11.590  11.942  69.475  1.00  0.00    -0.394 C  
HETATM   24  O   UNL     1     -12.685  11.353  71.494  1.00  0.00    -0.389 OA 
ENDBRANCH   1  22
TORSDOF 1
ENDMDL
MODEL       78
REMARK 921   NORMALIZED FREE ENERGY PREDICTED BY IDOCK:   -4.11 KCAL/MOL
REMARK 922        TOTAL FREE ENERGY PREDICTED BY IDOCK:   -3.96 KCAL/MOL
REMARK 923 INTER-LIGAND FREE ENERGY PREDICTED BY IDOCK:   -4.26 KCAL/MOL
REMARK 924 INTRA-LIGAND FREE ENERGY PREDICTED BY IDOCK:    0.30 KCAL/MOL
REMARK 927      BINDING AFFINITY PREDICTED BY RF-SCORE:    0.00 PKD
ROOT
HETATM    1  C   UNL     1     -10.984  10.937  68.825  1.00  0.00    -0.285 C  
HETATM    2  C   UNL     1     -11.003   9.724  66.546  1.00  0.00     0.199 C  
HETATM    3  C   UNL     1      -9.821  11.768  69.347  1.00  0.00     0.540 C  
HETATM    4  C   UNL     1      -8.746  11.427  68.319  1.00  0.00    -0.160 C  
HETATM    5  C   UNL     1     -10.853  11.126  67.205  1.00  0.00    -0.326 C  
HETATM    6  C   UNL     1     -11.881  12.001  66.390  1.00  0.00    -0.232 C  
HETATM    7  C   UNL     1      -9.442  11.804  67.008  1.00  0.00    -0.191 C  
HETATM    8  C   UNL     1      -9.394  13.378  66.961  1.00  0.00    -0.243 C  
HETATM    9  C   UNL     1      -7.976  13.854  66.747  1.00  0.00     0.382 C  
HETATM   10  C   UNL     1      -7.890  15.303  67.184  1.00  0.00    -0.249 C  
HETATM   11  C   UNL     1      -8.663  16.150  66.181  1.00  0.00    -0.358 C  
HETATM   12  C   UNL     1      -8.354  17.637  66.465  1.00  0.00    -0.300 C  
HETATM   13  C   UNL     1      -9.256  18.363  67.450  1.00  0.00    -0.271 C  
HETATM   14  O   UNL     1      -8.762  18.251  68.773  1.00  0.00    -0.300 OA 
HETATM   15  C   UNL     1     -10.724  17.941  67.381  1.00  0.00    -0.306 C  
HETATM   16  H   UNL     1      -9.325  18.705  69.389  1.00  0.00     0.000 HD 
HETATM   17  C   UNL     1     -10.976  16.427  67.215  1.00  0.00    -0.118 C  
HETATM   18  C   UNL     1     -10.183  15.739  66.060  1.00  0.00    -0.352 C  
HETATM   19  C   UNL     1     -10.717  16.309  64.721  1.00  0.00    -0.150 C  
HETATM   20  C   UNL     1     -10.363  14.098  66.006  1.00  0.00    -0.316 C  
HETATM   21  C   UNL     1     -11.779  13.548  66.312  1.00  0.00    -0.401 C  
ENDROOT
BRANCH   1  22
HETATM   22  C   UNL     1     -10.667   9.562  69.581  1.00  0.00    -0.238 C  
HETATM   23  C   UNL     1     -11.289   9.364  70.973  1.00  0.00    -0.407 C  
HETATM   24  O   UNL     1      -9.903   8.705  69.165  1.00  0.00    -0.177 OA 
ENDBRANCH   1  22
TORSDOF 1
ENDMDL
MODEL       79
REMARK 921   NORMALIZED FREE ENERGY PREDICTED BY IDOCK:   -4.09 KCAL/MOL
REMARK 922        TOTAL FREE ENERGY PREDICTED BY IDOCK:   -3.94 KCAL/MOL
REMARK 923 INTER-LIGAND FREE ENERGY PREDICTED BY IDOCK:   -4.30 KCAL/MOL
REMARK 924 INTRA-LIGAND FREE ENERGY PREDICTED BY IDOCK:    0.36 KCAL/MOL
REMARK 927      BINDING AFFINITY PREDICTED BY RF-SCORE:    0.00 PKD
ROOT
HETATM    1  C   UNL     1     -10.671   6.025  71.256  1.00  0.00    -0.320 C  
HETATM    2  C   UNL     1      -8.461   7.122  72.012  1.00  0.00    -0.113 C  
HETATM    3  C   UNL     1     -11.329   6.260  69.904  1.00  0.00    -0.504 C  
HETATM    4  C   UNL     1     -10.484   7.415  69.374  1.00  0.00    -0.220 C  
HETATM    5  C   UNL     1      -9.083   6.213  70.912  1.00  0.00    -0.155 C  
HETATM    6  C   UNL     1      -8.094   4.986  70.879  1.00  0.00    -0.096 C  
HETATM    7  C   UNL     1      -9.072   6.829  69.460  1.00  0.00    -0.141 C  
HETATM    8  C   UNL     1      -8.976   5.827  68.247  1.00  0.00    -0.115 C  
HETATM    9  C   UNL     1      -8.956   6.583  66.940  1.00  0.00    -0.128 C  
HETATM   10  C   UNL     1      -9.349   5.627  65.832  1.00  0.00    -0.119 C  
HETATM   11  C   UNL     1      -8.213   4.630  65.638  1.00  0.00    -0.115 C  
HETATM   12  C   UNL     1      -8.485   3.834  64.342  1.00  0.00    -0.097 C  
HETATM   13  C   UNL     1      -9.300   2.555  64.466  1.00  0.00    -0.139 C  
HETATM   14  O   UNL     1     -10.684   2.816  64.317  1.00  0.00    -0.424 OA 
HETATM   15  C   UNL     1      -9.030   1.764  65.746  1.00  0.00    -0.103 C  
HETATM   16  H   UNL     1     -11.194   2.018  64.394  1.00  0.00     0.000 HD 
HETATM   17  C   UNL     1      -8.883   2.606  67.032  1.00  0.00    -0.155 C  
HETATM   18  C   UNL     1      -7.884   3.800  66.940  1.00  0.00    -0.084 C  
HETATM   19  C   UNL     1      -6.461   3.209  66.771  1.00  0.00    -0.036 C  
HETATM   20  C   UNL     1      -7.863   4.763  68.282  1.00  0.00    -0.081 C  
HETATM   21  C   UNL     1      -7.977   4.046  69.650  1.00  0.00    -0.057 C  
ENDROOT
BRANCH   1  22
HETATM   22  C   UNL     1     -11.515   7.069  72.127  1.00  0.00    -0.274 C  
HETATM   23  C   UNL     1     -12.968   7.334  71.697  1.00  0.00    -0.417 C  
HETATM   24  O   UNL     1     -11.061   7.725  73.052  1.00  0.00    -0.398 OA 
ENDBRANCH   1  22
TORSDOF 1
ENDMDL
MODEL       80
REMARK 921   NORMALIZED FREE ENERGY PREDICTED BY IDOCK:   -4.09 KCAL/MOL
REMARK 922        TOTAL FREE ENERGY PREDICTED BY IDOCK:   -3.94 KCAL/MOL
REMARK 923 INTER-LIGAND FREE ENERGY PREDICTED BY IDOCK:   -4.15 KCAL/MOL
REMARK 924 INTRA-LIGAND FREE ENERGY PREDICTED BY IDOCK:    0.22 KCAL/MOL
REMARK 927      BINDING AFFINITY PREDICTED BY RF-SCORE:    0.00 PKD
ROOT
HETATM    1  C   UNL     1      -7.619   6.991  65.899  1.00  0.00    -0.097 C  
HETATM    2  C   UNL     1      -7.482   9.448  65.120  1.00  0.00    -0.105 C  
HETATM    3  C   UNL     1      -7.150   6.492  67.258  1.00  0.00    -0.077 C  
HETATM    4  C   UNL     1      -6.424   7.729  67.779  1.00  0.00    -0.052 C  
HETATM    5  C   UNL     1      -8.075   8.528  66.226  1.00  0.00    -0.107 C  
HETATM    6  C   UNL     1      -9.594   8.952  66.249  1.00  0.00    -0.328 C  
HETATM    7  C   UNL     1      -7.520   8.795  67.679  1.00  0.00    -0.093 C  
HETATM    8  C   UNL     1      -8.484   8.498  68.889  1.00  0.00    -0.123 C  
HETATM    9  C   UNL     1      -7.803   8.827  70.196  1.00  0.00    -0.094 C  
HETATM   10  C   UNL     1      -8.531   8.099  71.309  1.00  0.00    -0.154 C  
HETATM   11  C   UNL     1      -9.897   8.751  71.491  1.00  0.00    -0.371 C  
HETATM   12  C   UNL     1     -10.527   8.199  72.788  1.00  0.00    -0.385 C  
HETATM   13  C   UNL     1     -11.379   6.944  72.673  1.00  0.00    -0.235 C  
HETATM   14  O   UNL     1     -10.594   5.776  72.836  1.00  0.00    -0.205 OA 
HETATM   15  C   UNL     1     -12.207   6.867  71.389  1.00  0.00    -0.418 C  
HETATM   16  H   UNL     1     -11.126   4.993  72.764  1.00  0.00     0.000 HD 
HETATM   17  C   UNL     1     -11.486   7.323  70.102  1.00  0.00    -0.197 C  
HETATM   18  C   UNL     1     -10.783   8.713  70.184  1.00  0.00    -0.244 C  
HETATM   19  C   UNL     1     -11.889   9.789  70.338  1.00  0.00    -0.264 C  
HETATM   20  C   UNL     1      -9.901   9.101  68.843  1.00  0.00    -0.179 C  
HETATM   21  C   UNL     1     -10.509   8.700  67.476  1.00  0.00    -0.335 C  
ENDROOT
BRANCH   1  22
HETATM   22  C   UNL     1      -6.323   6.620  65.037  1.00  0.00    -0.042 C  
HETATM   23  C   UNL     1      -6.544   6.218  63.569  1.00  0.00    -0.033 C  
HETATM   24  O   UNL     1      -5.189   6.556  65.486  1.00  0.00    -0.016 OA 
ENDBRANCH   1  22
TORSDOF 1
ENDMDL
MODEL       81
REMARK 921   NORMALIZED FREE ENERGY PREDICTED BY IDOCK:   -4.07 KCAL/MOL
REMARK 922        TOTAL FREE ENERGY PREDICTED BY IDOCK:   -3.92 KCAL/MOL
REMARK 923 INTER-LIGAND FREE ENERGY PREDICTED BY IDOCK:   -4.13 KCAL/MOL
REMARK 924 INTRA-LIGAND FREE ENERGY PREDICTED BY IDOCK:    0.22 KCAL/MOL
REMARK 927      BINDING AFFINITY PREDICTED BY RF-SCORE:    0.00 PKD
ROOT
HETATM    1  C   UNL     1     -10.669  12.237  68.288  1.00  0.00    -0.244 C  
HETATM    2  C   UNL     1      -8.760  13.971  68.176  1.00  0.00    -0.180 C  
HETATM    3  C   UNL     1     -11.201  11.466  67.089  1.00  0.00    -0.363 C  
HETATM    4  C   UNL     1     -10.499  12.198  65.947  1.00  0.00    -0.288 C  
HETATM    5  C   UNL     1      -9.103  12.482  67.881  1.00  0.00    -0.199 C  
HETATM    6  C   UNL     1      -7.932  11.710  68.603  1.00  0.00    -0.127 C  
HETATM    7  C   UNL     1      -9.030  12.074  66.359  1.00  0.00    -0.161 C  
HETATM    8  C   UNL     1      -8.640  10.584  66.026  1.00  0.00    -0.166 C  
HETATM    9  C   UNL     1      -8.597  10.374  64.531  1.00  0.00    -0.187 C  
HETATM   10  C   UNL     1      -8.706   8.887  64.256  1.00  0.00    -0.095 C  
HETATM   11  C   UNL     1      -7.409   8.224  64.706  1.00  0.00    -0.088 C  
HETATM   12  C   UNL     1      -7.404   6.770  64.185  1.00  0.00    -0.085 C  
HETATM   13  C   UNL     1      -8.012   5.703  65.083  1.00  0.00    -0.113 C  
HETATM   14  O   UNL     1      -9.395   5.543  64.822  1.00  0.00    -0.354 OA 
HETATM   15  C   UNL     1      -7.762   5.926  66.575  1.00  0.00    -0.100 C  
HETATM   16  H   UNL     1      -9.775   4.876  65.383  1.00  0.00     0.000 HD 
HETATM   17  C   UNL     1      -7.896   7.385  67.063  1.00  0.00    -0.116 C  
HETATM   18  C   UNL     1      -7.098   8.442  66.239  1.00  0.00    -0.077 C  
HETATM   19  C   UNL     1      -5.588   8.163  66.454  1.00  0.00    -0.032 C  
HETATM   20  C   UNL     1      -7.381  10.004  66.697  1.00  0.00    -0.103 C  
HETATM   21  C   UNL     1      -7.529  10.262  68.217  1.00  0.00    -0.086 C  
ENDROOT
BRANCH   1  22
HETATM   22  C   UNL     1     -11.761  13.406  68.337  1.00  0.00    -0.355 C  
HETATM   23  C   UNL     1     -12.060  14.033  69.708  1.00  0.00    -0.405 C  
HETATM   24  O   UNL     1     -12.425  13.772  67.380  1.00  0.00    -0.208 OA 
ENDBRANCH   1  22
TORSDOF 1
ENDMDL
MODEL       82
REMARK 921   NORMALIZED FREE ENERGY PREDICTED BY IDOCK:   -4.07 KCAL/MOL
REMARK 922        TOTAL FREE ENERGY PREDICTED BY IDOCK:   -3.91 KCAL/MOL
REMARK 923 INTER-LIGAND FREE ENERGY PREDICTED BY IDOCK:   -4.22 KCAL/MOL
REMARK 924 INTRA-LIGAND FREE ENERGY PREDICTED BY IDOCK:    0.30 KCAL/MOL
REMARK 927      BINDING AFFINITY PREDICTED BY RF-SCORE:    0.00 PKD
ROOT
HETATM    1  C   UNL     1     -11.657   7.599  71.139  1.00  0.00    -0.301 C  
HETATM    2  C   UNL     1     -10.045   7.884  73.134  1.00  0.00    -0.362 C  
HETATM    3  C   UNL     1     -11.776   8.581  69.982  1.00  0.00     0.301 C  
HETATM    4  C   UNL     1     -10.938   9.742  70.509  1.00  0.00    -0.384 C  
HETATM    5  C   UNL     1     -10.091   7.767  71.583  1.00  0.00    -0.224 C  
HETATM    6  C   UNL     1      -9.025   6.642  71.291  1.00  0.00    -0.144 C  
HETATM    7  C   UNL     1      -9.604   9.051  70.806  1.00  0.00    -0.308 C  
HETATM    8  C   UNL     1      -8.938   8.835  69.394  1.00  0.00    -0.145 C  
HETATM    9  C   UNL     1      -8.515  10.160  68.805  1.00  0.00    -0.131 C  
HETATM   10  C   UNL     1      -8.341   9.981  67.310  1.00  0.00    -0.121 C  
HETATM   11  C   UNL     1      -7.106   9.120  67.073  1.00  0.00    -0.086 C  
HETATM   12  C   UNL     1      -6.770   9.162  65.566  1.00  0.00    -0.073 C  
HETATM   13  C   UNL     1      -7.412   8.108  64.677  1.00  0.00    -0.096 C  
HETATM   14  O   UNL     1      -8.658   8.556  64.172  1.00  0.00    -0.371 OA 
HETATM   15  C   UNL     1      -7.555   6.736  65.338  1.00  0.00    -0.090 C  
HETATM   16  H   UNL     1      -9.059   7.898  63.617  1.00  0.00     0.000 HD 
HETATM   17  C   UNL     1      -8.008   6.751  66.814  1.00  0.00    -0.108 C  
HETATM   18  C   UNL     1      -7.199   7.698  67.753  1.00  0.00    -0.087 C  
HETATM   19  C   UNL     1      -5.758   7.135  67.858  1.00  0.00    -0.025 C  
HETATM   20  C   UNL     1      -7.802   7.800  69.287  1.00  0.00    -0.116 C  
HETATM   21  C   UNL     1      -8.339   6.486  69.907  1.00  0.00    -0.131 C  
ENDROOT
BRANCH   1  22
HETATM   22  C   UNL     1     -12.886   8.110  72.027  1.00  0.00    -0.318 C  
HETATM   23  C   UNL     1     -14.277   7.543  71.699  1.00  0.00    -0.592 C  
HETATM   24  O   UNL     1     -12.806   8.975  72.885  1.00  0.00    -0.305 OA 
ENDBRANCH   1  22
TORSDOF 1
ENDMDL
MODEL       83
REMARK 921   NORMALIZED FREE ENERGY PREDICTED BY IDOCK:   -4.01 KCAL/MOL
REMARK 922        TOTAL FREE ENERGY PREDICTED BY IDOCK:   -3.85 KCAL/MOL
REMARK 923 INTER-LIGAND FREE ENERGY PREDICTED BY IDOCK:   -4.10 KCAL/MOL
REMARK 924 INTRA-LIGAND FREE ENERGY PREDICTED BY IDOCK:    0.25 KCAL/MOL
REMARK 927      BINDING AFFINITY PREDICTED BY RF-SCORE:    0.00 PKD
ROOT
HETATM    1  C   UNL     1      -9.868  12.574  67.737  1.00  0.00    -0.204 C  
HETATM    2  C   UNL     1      -7.419  13.225  68.226  1.00  0.00    -0.126 C  
HETATM    3  C   UNL     1     -10.317  11.764  66.529  1.00  0.00    -0.258 C  
HETATM    4  C   UNL     1      -9.031  11.742  65.708  1.00  0.00    -0.011 C  
HETATM    5  C   UNL     1      -8.357  12.004  68.000  1.00  0.00    -0.162 C  
HETATM    6  C   UNL     1      -8.025  11.082  69.235  1.00  0.00    -0.034 C  
HETATM    7  C   UNL     1      -8.035  11.152  66.712  1.00  0.00    -0.156 C  
HETATM    8  C   UNL     1      -8.371   9.613  66.758  1.00  0.00    -0.117 C  
HETATM    9  C   UNL     1      -7.982   8.951  65.458  1.00  0.00    -0.107 C  
HETATM   10  C   UNL     1      -8.737   7.640  65.347  1.00  0.00    -0.029 C  
HETATM   11  C   UNL     1      -8.166   6.674  66.378  1.00  0.00    -0.117 C  
HETATM   12  C   UNL     1      -8.736   5.267  66.089  1.00  0.00    -0.129 C  
HETATM   13  C   UNL     1     -10.041   4.888  66.771  1.00  0.00    -0.238 C  
HETATM   14  O   UNL     1     -11.157   5.247  65.975  1.00  0.00    -0.762 OA 
HETATM   15  C   UNL     1     -10.187   5.439  68.191  1.00  0.00    -0.226 C  
HETATM   16  H   UNL     1     -11.972   5.010  66.401  1.00  0.00     0.000 HD 
HETATM   17  C   UNL     1      -9.708   6.893  68.394  1.00  0.00    -0.137 C  
HETATM   18  C   UNL     1      -8.277   7.207  67.860  1.00  0.00    -0.119 C  
HETATM   19  C   UNL     1      -7.267   6.406  68.722  1.00  0.00    -0.085 C  
HETATM   20  C   UNL     1      -7.857   8.801  67.962  1.00  0.00    -0.102 C  
HETATM   21  C   UNL     1      -8.314   9.557  69.235  1.00  0.00    -0.129 C  
ENDROOT
BRANCH   1  22
HETATM   22  C   UNL     1     -10.173  14.043  67.179  1.00  0.00    -0.258 C  
HETATM   23  C   UNL     1     -11.063  14.953  68.041  1.00  0.00    -0.301 C  
HETATM   24  O   UNL     1      -9.817  14.454  66.086  1.00  0.00    -0.293 OA 
ENDBRANCH   1  22
TORSDOF 1
ENDMDL
MODEL       84
REMARK 921   NORMALIZED FREE ENERGY PREDICTED BY IDOCK:   -3.99 KCAL/MOL
REMARK 922        TOTAL FREE ENERGY PREDICTED BY IDOCK:   -3.83 KCAL/MOL
REMARK 923 INTER-LIGAND FREE ENERGY PREDICTED BY IDOCK:   -4.07 KCAL/MOL
REMARK 924 INTRA-LIGAND FREE ENERGY PREDICTED BY IDOCK:    0.25 KCAL/MOL
REMARK 927      BINDING AFFINITY PREDICTED BY RF-SCORE:    0.00 PKD
ROOT
HETATM    1  C   UNL     1      -9.633  13.804  66.140  1.00  0.00    -0.234 C  
HETATM    2  C   UNL     1     -11.972  13.814  67.232  1.00  0.00    -0.436 C  
HETATM    3  C   UNL     1      -8.351  13.409  66.857  1.00  0.00    -0.013 C  
HETATM    4  C   UNL     1      -8.848  13.320  68.298  1.00  0.00    -0.168 C  
HETATM    5  C   UNL     1     -10.759  12.896  66.905  1.00  0.00    -0.272 C  
HETATM    6  C   UNL     1     -11.442  11.661  66.200  1.00  0.00    -0.198 C  
HETATM    7  C   UNL     1     -10.002  12.322  68.165  1.00  0.00    -0.210 C  
HETATM    8  C   UNL     1      -9.307  10.916  68.015  1.00  0.00    -0.160 C  
HETATM    9  C   UNL     1      -8.652  10.513  69.315  1.00  0.00    -0.136 C  
HETATM   10  C   UNL     1      -7.618   9.446  69.016  1.00  0.00    -0.074 C  
HETATM   11  C   UNL     1      -8.352   8.169  68.622  1.00  0.00    -0.126 C  
HETATM   12  C   UNL     1      -7.326   7.015  68.582  1.00  0.00    -0.097 C  
HETATM   13  C   UNL     1      -6.613   6.758  67.263  1.00  0.00    -0.054 C  
HETATM   14  O   UNL     1      -5.417   7.512  67.174  1.00  0.00    -0.028 OA 
HETATM   15  C   UNL     1      -7.487   6.978  66.028  1.00  0.00    -0.080 C  
HETATM   16  H   UNL     1      -4.971   7.351  66.350  1.00  0.00     0.000 HD 
HETATM   17  C   UNL     1      -8.409   8.216  66.075  1.00  0.00    -0.132 C  
HETATM   18  C   UNL     1      -9.283   8.351  67.360  1.00  0.00    -0.163 C  
HETATM   19  C   UNL     1     -10.303   7.183  67.359  1.00  0.00    -0.324 C  
HETATM   20  C   UNL     1     -10.144   9.758  67.442  1.00  0.00    -0.259 C  
HETATM   21  C   UNL     1     -10.760  10.270  66.115  1.00  0.00    -0.042 C  
ENDROOT
BRANCH   1  22
HETATM   22  C   UNL     1      -9.526  15.393  66.297  1.00  0.00    -0.309 C  
HETATM   23  C   UNL     1     -10.428  16.253  65.397  1.00  0.00    -0.365 C  
HETATM   24  O   UNL     1      -8.724  15.964  67.020  1.00  0.00    -0.192 OA 
ENDBRANCH   1  22
TORSDOF 1
ENDMDL
MODEL       85
REMARK 921   NORMALIZED FREE ENERGY PREDICTED BY IDOCK:   -3.95 KCAL/MOL
REMARK 922        TOTAL FREE ENERGY PREDICTED BY IDOCK:   -3.79 KCAL/MOL
REMARK 923 INTER-LIGAND FREE ENERGY PREDICTED BY IDOCK:   -4.03 KCAL/MOL
REMARK 924 INTRA-LIGAND FREE ENERGY PREDICTED BY IDOCK:    0.24 KCAL/MOL
REMARK 927      BINDING AFFINITY PREDICTED BY RF-SCORE:    0.00 PKD
ROOT
HETATM    1  C   UNL     1      -8.423   7.218  65.739  1.00  0.00    -0.148 C  
HETATM    2  C   UNL     1      -9.960   9.289  65.834  1.00  0.00    -0.289 C  
HETATM    3  C   UNL     1      -7.286   6.945  66.714  1.00  0.00    -0.078 C  
HETATM    4  C   UNL     1      -7.226   8.276  67.458  1.00  0.00    -0.088 C  
HETATM    5  C   UNL     1      -9.481   8.060  66.660  1.00  0.00    -0.273 C  
HETATM    6  C   UNL     1     -10.839   7.424  67.148  1.00  0.00    -0.340 C  
HETATM    7  C   UNL     1      -8.665   8.414  67.963  1.00  0.00    -0.139 C  
HETATM    8  C   UNL     1      -8.766   7.413  69.176  1.00  0.00    -0.136 C  
HETATM    9  C   UNL     1      -7.944   7.914  70.340  1.00  0.00    -0.097 C  
HETATM   10  C   UNL     1      -7.669   6.745  71.265  1.00  0.00    -0.093 C  
HETATM   11  C   UNL     1      -8.978   6.358  71.945  1.00  0.00    -0.138 C  
HETATM   12  C   UNL     1      -8.656   5.360  73.079  1.00  0.00    -0.122 C  
HETATM   13  C   UNL     1      -8.648   3.880  72.728  1.00  0.00    -0.099 C  
HETATM   14  O   UNL     1      -7.361   3.461  72.312  1.00  0.00    -0.051 OA 
HETATM   15  C   UNL     1      -9.709   3.477  71.703  1.00  0.00    -0.234 C  
HETATM   16  H   UNL     1      -7.356   2.536  72.093  1.00  0.00     0.000 HD 
HETATM   17  C   UNL     1      -9.905   4.456  70.525  1.00  0.00    -0.285 C  
HETATM   18  C   UNL     1     -10.112   5.950  70.925  1.00  0.00    -0.251 C  
HETATM   19  C   UNL     1     -11.469   6.054  71.667  1.00  0.00    -0.293 C  
HETATM   20  C   UNL     1     -10.171   6.987  69.640  1.00  0.00    -0.212 C  
HETATM   21  C   UNL     1     -10.922   6.485  68.381  1.00  0.00    -0.358 C  
ENDROOT
BRANCH   1  22
HETATM   22  C   UNL     1      -7.577   7.870  64.548  1.00  0.00    -0.111 C  
HETATM   23  C   UNL     1      -7.868   7.372  63.122  1.00  0.00    -0.126 C  
HETATM   24  O   UNL     1      -6.666   8.669  64.703  1.00  0.00    -0.069 OA 
ENDBRANCH   1  22
TORSDOF 1
ENDMDL
MODEL       86
REMARK 921   NORMALIZED FREE ENERGY PREDICTED BY IDOCK:   -3.93 KCAL/MOL
REMARK 922        TOTAL FREE ENERGY PREDICTED BY IDOCK:   -3.76 KCAL/MOL
REMARK 923 INTER-LIGAND FREE ENERGY PREDICTED BY IDOCK:   -3.99 KCAL/MOL
REMARK 924 INTRA-LIGAND FREE ENERGY PREDICTED BY IDOCK:    0.22 KCAL/MOL
REMARK 927      BINDING AFFINITY PREDICTED BY RF-SCORE:    0.00 PKD
ROOT
HETATM    1  C   UNL     1      -7.279   8.685  67.640  1.00  0.00    -0.084 C  
HETATM    2  C   UNL     1      -5.978  10.050  69.402  1.00  0.00    -0.037 C  
HETATM    3  C   UNL     1      -8.797   8.593  67.573  1.00  0.00    -0.139 C  
HETATM    4  C   UNL     1      -9.180   9.260  68.891  1.00  0.00    -0.143 C  
HETATM    5  C   UNL     1      -7.045  10.174  68.276  1.00  0.00    -0.075 C  
HETATM    6  C   UNL     1      -6.489  11.366  67.405  1.00  0.00    -0.083 C  
HETATM    7  C   UNL     1      -8.478  10.615  68.766  1.00  0.00    -0.149 C  
HETATM    8  C   UNL     1      -9.367  11.440  67.760  1.00  0.00    -0.162 C  
HETATM    9  C   UNL     1     -10.690  11.795  68.397  1.00  0.00    -0.249 C  
HETATM   10  C   UNL     1     -11.671  12.137  67.293  1.00  0.00    -0.369 C  
HETATM   11  C   UNL     1     -11.251  13.465  66.676  1.00  0.00    -0.330 C  
HETATM   12  C   UNL     1     -12.388  13.948  65.748  1.00  0.00    -0.518 C  
HETATM   13  C   UNL     1     -12.342  13.502  64.295  1.00  0.00    -0.335 C  
HETATM   14  O   UNL     1     -13.033  12.278  64.114  1.00  0.00    -0.721 OA 
HETATM   15  C   UNL     1     -10.931  13.421  63.711  1.00  0.00     0.001 C  
HETATM   16  H   UNL     1     -13.004  11.999  63.207  1.00  0.00     0.000 HD 
HETATM   17  C   UNL     1      -9.857  12.820  64.642  1.00  0.00    -0.052 C  
HETATM   18  C   UNL     1      -9.791  13.437  66.074  1.00  0.00    -0.273 C  
HETATM   19  C   UNL     1      -9.316  14.906  65.931  1.00  0.00    -0.216 C  
HETATM   20  C   UNL     1      -8.734  12.673  67.087  1.00  0.00    -0.201 C  
HETATM   21  C   UNL     1      -7.397  12.201  66.463  1.00  0.00     0.341 C  
ENDROOT
BRANCH   1  22
HETATM   22  C   UNL     1      -6.983   7.329  68.437  1.00  0.00    -0.079 C  
HETATM   23  C   UNL     1      -5.738   6.526  68.024  1.00  0.00    -0.012 C  
HETATM   24  O   UNL     1      -7.719   6.852  69.287  1.00  0.00    -0.101 OA 
ENDBRANCH   1  22
TORSDOF 1
ENDMDL
MODEL       87
REMARK 921   NORMALIZED FREE ENERGY PREDICTED BY IDOCK:   -3.84 KCAL/MOL
REMARK 922        TOTAL FREE ENERGY PREDICTED BY IDOCK:   -3.67 KCAL/MOL
REMARK 923 INTER-LIGAND FREE ENERGY PREDICTED BY IDOCK:   -3.98 KCAL/MOL
REMARK 924 INTRA-LIGAND FREE ENERGY PREDICTED BY IDOCK:    0.31 KCAL/MOL
REMARK 927      BINDING AFFINITY PREDICTED BY RF-SCORE:    0.00 PKD
ROOT
HETATM    1  C   UNL     1      -8.414  10.481  68.623  1.00  0.00    -0.138 C  
HETATM    2  C   UNL     1      -6.068   9.716  67.868  1.00  0.00    -0.052 C  
HETATM    3  C   UNL     1      -9.673   9.633  68.508  1.00  0.00    -0.161 C  
HETATM    4  C   UNL     1      -9.159   8.476  67.656  1.00  0.00    -0.144 C  
HETATM    5  C   UNL     1      -7.246   9.351  68.817  1.00  0.00    -0.073 C  
HETATM    6  C   UNL     1      -6.522   9.142  70.202  1.00  0.00    -0.046 C  
HETATM    7  C   UNL     1      -7.968   7.988  68.485  1.00  0.00    -0.120 C  
HETATM    8  C   UNL     1      -8.608   7.195  69.686  1.00  0.00    -0.137 C  
HETATM    9  C   UNL     1      -9.234   5.911  69.194  1.00  0.00    -0.131 C  
HETATM   10  C   UNL     1     -10.228   5.437  70.236  1.00  0.00    -0.338 C  
HETATM   11  C   UNL     1      -9.448   4.961  71.456  1.00  0.00    -0.208 C  
HETATM   12  C   UNL     1     -10.428   4.231  72.401  1.00  0.00    -0.196 C  
HETATM   13  C   UNL     1     -11.143   5.069  73.450  1.00  0.00    -0.335 C  
HETATM   14  O   UNL     1     -12.369   5.574  72.952  1.00  0.00    -0.519 OA 
HETATM   15  C   UNL     1     -10.290   6.194  74.038  1.00  0.00    -0.311 C  
HETATM   16  H   UNL     1     -12.815   6.098  73.607  1.00  0.00     0.000 HD 
HETATM   17  C   UNL     1      -9.417   6.968  73.026  1.00  0.00    -0.177 C  
HETATM   18  C   UNL     1      -8.536   6.085  72.089  1.00  0.00    -0.128 C  
HETATM   19  C   UNL     1      -7.472   5.382  72.969  1.00  0.00    -0.093 C  
HETATM   20  C   UNL     1      -7.731   6.936  70.925  1.00  0.00    -0.092 C  
HETATM   21  C   UNL     1      -7.149   8.308  71.350  1.00  0.00    -0.067 C  
ENDROOT
BRANCH   1  22
HETATM   22  C   UNL     1      -8.582  11.357  67.294  1.00  0.00    -0.146 C  
HETATM   23  C   UNL     1      -9.672  12.442  67.300  1.00  0.00    -0.201 C  
HETATM   24  O   UNL     1      -7.965  11.167  66.259  1.00  0.00    -0.164 OA 
ENDBRANCH   1  22
TORSDOF 1
ENDMDL
MODEL       88
REMARK 921   NORMALIZED FREE ENERGY PREDICTED BY IDOCK:   -3.81 KCAL/MOL
REMARK 922        TOTAL FREE ENERGY PREDICTED BY IDOCK:   -3.64 KCAL/MOL
REMARK 923 INTER-LIGAND FREE ENERGY PREDICTED BY IDOCK:   -4.00 KCAL/MOL
REMARK 924 INTRA-LIGAND FREE ENERGY PREDICTED BY IDOCK:    0.36 KCAL/MOL
REMARK 927      BINDING AFFINITY PREDICTED BY RF-SCORE:    0.00 PKD
ROOT
HETATM    1  C   UNL     1      -9.106   4.344  68.809  1.00  0.00    -0.173 C  
HETATM    2  C   UNL     1      -9.486   3.473  66.409  1.00  0.00    -0.164 C  
HETATM    3  C   UNL     1      -7.947   5.239  69.225  1.00  0.00    -0.088 C  
HETATM    4  C   UNL     1      -7.086   5.191  67.966  1.00  0.00    -0.063 C  
HETATM    5  C   UNL     1      -9.341   4.776  67.248  1.00  0.00    -0.150 C  
HETATM    6  C   UNL     1     -10.600   5.614  66.803  1.00  0.00    -0.372 C  
HETATM    7  C   UNL     1      -8.078   5.653  66.896  1.00  0.00    -0.102 C  
HETATM    8  C   UNL     1      -8.197   7.211  67.100  1.00  0.00    -0.118 C  
HETATM    9  C   UNL     1      -6.912   7.894  66.697  1.00  0.00    -0.072 C  
HETATM   10  C   UNL     1      -6.880   9.265  67.343  1.00  0.00    -0.077 C  
HETATM   11  C   UNL     1      -7.929  10.137  66.662  1.00  0.00    -0.116 C  
HETATM   12  C   UNL     1      -7.716  11.596  67.121  1.00  0.00    -0.159 C  
HETATM   13  C   UNL     1      -8.456  12.052  68.370  1.00  0.00    -0.147 C  
HETATM   14  O   UNL     1      -7.684  11.820  69.534  1.00  0.00    -0.331 OA 
HETATM   15  C   UNL     1      -9.856  11.455  68.518  1.00  0.00    -0.200 C  
HETATM   16  H   UNL     1      -8.146  12.105  70.314  1.00  0.00     0.000 HD 
HETATM   17  C   UNL     1      -9.985   9.959  68.156  1.00  0.00    -0.175 C  
HETATM   18  C   UNL     1      -9.391   9.551  66.772  1.00  0.00    -0.196 C  
HETATM   19  C   UNL     1     -10.250  10.229  65.674  1.00  0.00    -0.301 C  
HETATM   20  C   UNL     1      -9.414   7.925  66.484  1.00  0.00    -0.277 C  
HETATM   21  C   UNL     1     -10.671   7.156  66.964  1.00  0.00    -0.420 C  
ENDROOT
BRANCH   1  22
HETATM   22  C   UNL     1      -8.500   2.930  69.251  1.00  0.00    -0.063 C  
HETATM   23  C   UNL     1      -9.359   1.682  68.989  1.00  0.00    -0.192 C  
HETATM   24  O   UNL     1      -7.447   2.788  69.853  1.00  0.00    -0.044 OA 
ENDBRANCH   1  22
TORSDOF 1
ENDMDL
MODEL       89
REMARK 921   NORMALIZED FREE ENERGY PREDICTED BY IDOCK:   -3.78 KCAL/MOL
REMARK 922        TOTAL FREE ENERGY PREDICTED BY IDOCK:   -3.60 KCAL/MOL
REMARK 923 INTER-LIGAND FREE ENERGY PREDICTED BY IDOCK:   -3.83 KCAL/MOL
REMARK 924 INTRA-LIGAND FREE ENERGY PREDICTED BY IDOCK:    0.22 KCAL/MOL
REMARK 927      BINDING AFFINITY PREDICTED BY RF-SCORE:    0.00 PKD
ROOT
HETATM    1  C   UNL     1      -7.875  16.058  67.452  1.00  0.00    -0.188 C  
HETATM    2  C   UNL     1      -9.829  15.938  69.135  1.00  0.00    -0.247 C  
HETATM    3  C   UNL     1      -6.854  14.950  67.239  1.00  0.00    -0.000 C  
HETATM    4  C   UNL     1      -7.193  14.025  68.406  1.00  0.00    -0.108 C  
HETATM    5  C   UNL     1      -9.211  15.225  67.897  1.00  0.00    -0.184 C  
HETATM    6  C   UNL     1     -10.450  15.074  66.933  1.00  0.00    -0.279 C  
HETATM    7  C   UNL     1      -8.683  13.763  68.169  1.00  0.00    -0.183 C  
HETATM    8  C   UNL     1      -8.729  12.740  66.971  1.00  0.00    -0.197 C  
HETATM    9  C   UNL     1      -8.208  11.393  67.411  1.00  0.00    -0.145 C  
HETATM   10  C   UNL     1      -7.815  10.609  66.175  1.00  0.00    -0.152 C  
HETATM   11  C   UNL     1      -9.087  10.228  65.428  1.00  0.00    -0.221 C  
HETATM   12  C   UNL     1      -8.715   9.208  64.329  1.00  0.00    -0.180 C  
HETATM   13  C   UNL     1      -8.333   9.759  62.964  1.00  0.00    -0.166 C  
HETATM   14  O   UNL     1      -6.939  10.001  62.882  1.00  0.00    -0.120 OA 
HETATM   15  C   UNL     1      -9.125  10.999  62.547  1.00  0.00    -0.362 C  
HETATM   16  H   UNL     1      -6.700  10.345  62.030  1.00  0.00     0.000 HD 
HETATM   17  C   UNL     1      -9.366  12.042  63.660  1.00  0.00     0.175 C  
HETATM   18  C   UNL     1      -9.950  11.477  64.991  1.00  0.00    -0.305 C  
HETATM   19  C   UNL     1     -11.386  10.973  64.698  1.00  0.00     0.231 C  
HETATM   20  C   UNL     1     -10.056  12.591  66.205  1.00  0.00    -0.264 C  
HETATM   21  C   UNL     1     -10.495  14.020  65.795  1.00  0.00    -0.317 C  
ENDROOT
BRANCH   1  22
HETATM   22  C   UNL     1      -7.036  16.981  68.455  1.00  0.00    -0.180 C  
HETATM   23  C   UNL     1      -7.163  18.503  68.284  1.00  0.00    -0.279 C  
HETATM   24  O   UNL     1      -6.246  16.559  69.284  1.00  0.00    -0.158 OA 
ENDBRANCH   1  22
TORSDOF 1
ENDMDL
MODEL       90
REMARK 921   NORMALIZED FREE ENERGY PREDICTED BY IDOCK:   -3.68 KCAL/MOL
REMARK 922        TOTAL FREE ENERGY PREDICTED BY IDOCK:   -3.51 KCAL/MOL
REMARK 923 INTER-LIGAND FREE ENERGY PREDICTED BY IDOCK:   -3.81 KCAL/MOL
REMARK 924 INTRA-LIGAND FREE ENERGY PREDICTED BY IDOCK:    0.31 KCAL/MOL
REMARK 927      BINDING AFFINITY PREDICTED BY RF-SCORE:    0.00 PKD
ROOT
HETATM    1  C   UNL     1     -10.111   9.838  66.761  1.00  0.00    -0.295 C  
HETATM    2  C   UNL     1     -10.095  11.466  68.764  1.00  0.00    -0.199 C  
HETATM    3  C   UNL     1      -8.934   8.964  66.354  1.00  0.00    -0.193 C  
HETATM    4  C   UNL     1      -7.835   9.536  67.246  1.00  0.00    -0.098 C  
HETATM    5  C   UNL     1      -9.909   9.970  68.379  1.00  0.00    -0.169 C  
HETATM    6  C   UNL     1     -10.865   9.232  69.394  1.00  0.00    -0.184 C  
HETATM    7  C   UNL     1      -8.463   9.395  68.636  1.00  0.00    -0.119 C  
HETATM    8  C   UNL     1      -8.342   7.862  68.981  1.00  0.00    -0.130 C  
HETATM    9  C   UNL     1      -6.898   7.488  69.216  1.00  0.00    -0.056 C  
HETATM   10  C   UNL     1      -6.764   5.986  69.060  1.00  0.00    -0.060 C  
HETATM   11  C   UNL     1      -7.460   5.321  70.243  1.00  0.00    -0.071 C  
HETATM   12  C   UNL     1      -7.096   3.820  70.234  1.00  0.00    -0.041 C  
HETATM   13  C   UNL     1      -8.002   2.885  69.449  1.00  0.00    -0.045 C  
HETATM   14  O   UNL     1      -7.565   2.757  68.108  1.00  0.00    -0.055 OA 
HETATM   15  C   UNL     1      -9.484   3.259  69.504  1.00  0.00    -0.205 C  
HETATM   16  H   UNL     1      -8.131   2.172  67.617  1.00  0.00     0.000 HD 
HETATM   17  C   UNL     1      -9.796   4.767  69.389  1.00  0.00    -0.282 C  
HETATM   18  C   UNL     1      -8.991   5.692  70.353  1.00  0.00    -0.153 C  
HETATM   19  C   UNL     1      -9.446   5.373  71.800  1.00  0.00    -0.177 C  
HETATM   20  C   UNL     1      -9.241   7.305  70.101  1.00  0.00    -0.152 C  
HETATM   21  C   UNL     1     -10.691   7.734  69.761  1.00  0.00    -0.236 C  
ENDROOT
BRANCH   1  22
HETATM   22  C   UNL     1      -9.884  11.051  65.742  1.00  0.00    -0.235 C  
HETATM   23  C   UNL     1     -10.380  10.861  64.299  1.00  0.00    -0.436 C  
HETATM   24  O   UNL     1      -9.276  12.075  66.011  1.00  0.00    -0.221 OA 
ENDBRANCH   1  22
TORSDOF 1
ENDMDL
MODEL       91
REMARK 921   NORMALIZED FREE ENERGY PREDICTED BY IDOCK:   -3.67 KCAL/MOL
REMARK 922        TOTAL FREE ENERGY PREDICTED BY IDOCK:   -3.49 KCAL/MOL
REMARK 923 INTER-LIGAND FREE ENERGY PREDICTED BY IDOCK:   -3.73 KCAL/MOL
REMARK 924 INTRA-LIGAND FREE ENERGY PREDICTED BY IDOCK:    0.24 KCAL/MOL
REMARK 927      BINDING AFFINITY PREDICTED BY RF-SCORE:    0.00 PKD
ROOT
HETATM    1  C   UNL     1      -7.673   4.102  66.529  1.00  0.00    -0.090 C  
HETATM    2  C   UNL     1      -9.082   2.947  68.357  1.00  0.00    -0.217 C  
HETATM    3  C   UNL     1      -8.211   5.141  65.556  1.00  0.00    -0.121 C  
HETATM    4  C   UNL     1      -9.709   5.039  65.833  1.00  0.00    -0.182 C  
HETATM    5  C   UNL     1      -8.608   4.340  67.851  1.00  0.00    -0.109 C  
HETATM    6  C   UNL     1      -8.032   5.004  69.160  1.00  0.00    -0.080 C  
HETATM    7  C   UNL     1      -9.761   5.289  67.343  1.00  0.00    -0.162 C  
HETATM    8  C   UNL     1      -9.545   6.842  67.504  1.00  0.00    -0.150 C  
HETATM    9  C   UNL     1     -10.749   7.595  66.988  1.00  0.00    -0.340 C  
HETATM   10  C   UNL     1     -10.330   9.025  66.707  1.00  0.00    -0.310 C  
HETATM   11  C   UNL     1     -10.071   9.716  68.041  1.00  0.00    -0.213 C  
HETATM   12  C   UNL     1      -9.912  11.230  67.777  1.00  0.00    -0.193 C  
HETATM   13  C   UNL     1      -8.512  11.745  67.480  1.00  0.00    -0.154 C  
HETATM   14  O   UNL     1      -8.239  11.713  66.091  1.00  0.00    -0.361 OA 
HETATM   15  C   UNL     1      -7.407  11.039  68.267  1.00  0.00    -0.088 C  
HETATM   16  H   UNL     1      -7.365  12.035  65.905  1.00  0.00     0.000 HD 
HETATM   17  C   UNL     1      -7.556   9.507  68.399  1.00  0.00    -0.081 C  
HETATM   18  C   UNL     1      -8.948   9.011  68.899  1.00  0.00    -0.140 C  
HETATM   19  C   UNL     1      -9.116   9.484  70.366  1.00  0.00    -0.296 C  
HETATM   20  C   UNL     1      -9.120   7.369  68.887  1.00  0.00    -0.136 C  
HETATM   21  C   UNL     1      -7.883   6.541  69.316  1.00  0.00    -0.110 C  
ENDROOT
BRANCH   1  22
HETATM   22  C   UNL     1      -7.780   2.807  65.594  1.00  0.00    -0.077 C  
HETATM   23  C   UNL     1      -6.533   1.915  65.482  1.00  0.00    -0.024 C  
HETATM   24  O   UNL     1      -8.750   2.529  64.906  1.00  0.00    -0.100 OA 
ENDBRANCH   1  22
TORSDOF 1
ENDMDL
MODEL       92
REMARK 921   NORMALIZED FREE ENERGY PREDICTED BY IDOCK:   -3.64 KCAL/MOL
REMARK 922        TOTAL FREE ENERGY PREDICTED BY IDOCK:   -3.47 KCAL/MOL
REMARK 923 INTER-LIGAND FREE ENERGY PREDICTED BY IDOCK:   -3.73 KCAL/MOL
REMARK 924 INTRA-LIGAND FREE ENERGY PREDICTED BY IDOCK:    0.27 KCAL/MOL
REMARK 927      BINDING AFFINITY PREDICTED BY RF-SCORE:    0.00 PKD
ROOT
HETATM    1  C   UNL     1      -9.881   5.967  71.361  1.00  0.00    -0.204 C  
HETATM    2  C   UNL     1      -8.645   7.965  72.430  1.00  0.00    -0.198 C  
HETATM    3  C   UNL     1     -10.763   6.063  70.125  1.00  0.00    -0.379 C  
HETATM    4  C   UNL     1     -10.857   7.578  69.961  1.00  0.00    -0.260 C  
HETATM    5  C   UNL     1      -8.787   7.158  71.107  1.00  0.00    -0.144 C  
HETATM    6  C   UNL     1      -7.289   6.836  70.736  1.00  0.00    -0.078 C  
HETATM    7  C   UNL     1      -9.379   7.973  69.893  1.00  0.00    -0.156 C  
HETATM    8  C   UNL     1      -8.914   7.557  68.445  1.00  0.00    -0.128 C  
HETATM    9  C   UNL     1      -9.557   8.450  67.411  1.00  0.00    -0.202 C  
HETATM   10  C   UNL     1      -9.491   7.748  66.069  1.00  0.00    -0.058 C  
HETATM   11  C   UNL     1      -8.037   7.729  65.612  1.00  0.00    -0.129 C  
HETATM   12  C   UNL     1      -8.000   7.265  64.140  1.00  0.00    -0.084 C  
HETATM   13  C   UNL     1      -7.877   5.772  63.880  1.00  0.00    -0.117 C  
HETATM   14  O   UNL     1      -9.153   5.162  63.794  1.00  0.00    -0.348 OA 
HETATM   15  C   UNL     1      -6.988   5.034  64.883  1.00  0.00    -0.054 C  
HETATM   16  H   UNL     1      -9.076   4.229  63.632  1.00  0.00     0.000 HD 
HETATM   17  C   UNL     1      -7.154   5.458  66.358  1.00  0.00    -0.069 C  
HETATM   18  C   UNL     1      -7.075   6.993  66.626  1.00  0.00    -0.078 C  
HETATM   19  C   UNL     1      -5.628   7.452  66.314  1.00  0.00    -0.028 C  
HETATM   20  C   UNL     1      -7.402   7.420  68.188  1.00  0.00    -0.100 C  
HETATM   21  C   UNL     1      -6.847   6.485  69.291  1.00  0.00    -0.065 C  
ENDROOT
BRANCH   1  22
HETATM   22  C   UNL     1     -11.019   6.040  72.484  1.00  0.00    -0.260 C  
HETATM   23  C   UNL     1     -11.213   4.799  73.372  1.00  0.00    -0.425 C  
HETATM   24  O   UNL     1     -11.791   6.975  72.627  1.00  0.00    -0.171 OA 
ENDBRANCH   1  22
TORSDOF 1
ENDMDL
MODEL       93
REMARK 921   NORMALIZED FREE ENERGY PREDICTED BY IDOCK:   -3.64 KCAL/MOL
REMARK 922        TOTAL FREE ENERGY PREDICTED BY IDOCK:   -3.46 KCAL/MOL
REMARK 923 INTER-LIGAND FREE ENERGY PREDICTED BY IDOCK:   -3.81 KCAL/MOL
REMARK 924 INTRA-LIGAND FREE ENERGY PREDICTED BY IDOCK:    0.35 KCAL/MOL
REMARK 927      BINDING AFFINITY PREDICTED BY RF-SCORE:    0.00 PKD
ROOT
HETATM    1  C   UNL     1     -11.046  10.022  68.105  1.00  0.00    -0.252 C  
HETATM    2  C   UNL     1     -10.715  10.171  70.661  1.00  0.00    -0.243 C  
HETATM    3  C   UNL     1      -9.931   9.737  67.109  1.00  0.00    -0.252 C  
HETATM    4  C   UNL     1      -8.707   9.848  68.015  1.00  0.00    -0.125 C  
HETATM    5  C   UNL     1     -10.538   9.223  69.440  1.00  0.00    -0.234 C  
HETATM    6  C   UNL     1     -11.241   7.898  69.927  1.00  0.00    -0.051 C  
HETATM    7  C   UNL     1      -9.044   8.835  69.113  1.00  0.00    -0.141 C  
HETATM    8  C   UNL     1      -8.787   7.426  68.456  1.00  0.00    -0.126 C  
HETATM    9  C   UNL     1      -7.309   7.212  68.232  1.00  0.00    -0.100 C  
HETATM   10  C   UNL     1      -7.138   6.119  67.196  1.00  0.00    -0.070 C  
HETATM   11  C   UNL     1      -7.558   4.796  67.826  1.00  0.00    -0.082 C  
HETATM   12  C   UNL     1      -7.133   3.653  66.877  1.00  0.00    -0.063 C  
HETATM   13  C   UNL     1      -8.131   3.219  65.814  1.00  0.00    -0.093 C  
HETATM   14  O   UNL     1      -7.958   3.959  64.619  1.00  0.00    -0.085 OA 
HETATM   15  C   UNL     1      -9.589   3.259  66.274  1.00  0.00    -0.020 C  
HETATM   16  H   UNL     1      -8.582   3.688  63.955  1.00  0.00     0.000 HD 
HETATM   17  C   UNL     1      -9.987   4.486  67.122  1.00  0.00    -0.201 C  
HETATM   18  C   UNL     1      -9.053   4.795  68.333  1.00  0.00    -0.148 C  
HETATM   19  C   UNL     1      -9.202   3.632  69.348  1.00  0.00    -0.225 C  
HETATM   20  C   UNL     1      -9.423   6.194  69.127  1.00  0.00    -0.144 C  
HETATM   21  C   UNL     1     -10.929   6.513  69.302  1.00  0.00    -0.389 C  
ENDROOT
BRANCH   1  22
HETATM   22  C   UNL     1     -11.079  11.618  67.992  1.00  0.00    -0.242 C  
HETATM   23  C   UNL     1     -10.739  12.234  66.625  1.00  0.00    -0.276 C  
HETATM   24  O   UNL     1     -11.274  12.374  68.931  1.00  0.00    -0.249 OA 
ENDBRANCH   1  22
TORSDOF 1
ENDMDL
MODEL       94
REMARK 921   NORMALIZED FREE ENERGY PREDICTED BY IDOCK:   -3.62 KCAL/MOL
REMARK 922        TOTAL FREE ENERGY PREDICTED BY IDOCK:   -3.44 KCAL/MOL
REMARK 923 INTER-LIGAND FREE ENERGY PREDICTED BY IDOCK:   -3.68 KCAL/MOL
REMARK 924 INTRA-LIGAND FREE ENERGY PREDICTED BY IDOCK:    0.23 KCAL/MOL
REMARK 927      BINDING AFFINITY PREDICTED BY RF-SCORE:    0.00 PKD
ROOT
HETATM    1  C   UNL     1      -7.911  12.192  67.436  1.00  0.00    -0.168 C  
HETATM    2  C   UNL     1     -10.260  12.848  68.278  1.00  0.00    -0.245 C  
HETATM    3  C   UNL     1      -6.987  11.211  68.143  1.00  0.00    -0.069 C  
HETATM    4  C   UNL     1      -7.730  11.022  69.462  1.00  0.00     0.039 C  
HETATM    5  C   UNL     1      -9.394  11.632  67.839  1.00  0.00    -0.174 C  
HETATM    6  C   UNL     1     -10.320  10.911  66.786  1.00  0.00    -0.289 C  
HETATM    7  C   UNL     1      -9.112  10.575  68.976  1.00  0.00    -0.188 C  
HETATM    8  C   UNL     1      -8.921   9.073  68.539  1.00  0.00    -0.133 C  
HETATM    9  C   UNL     1      -8.682   8.200  69.748  1.00  0.00    -0.135 C  
HETATM   10  C   UNL     1      -8.036   6.910  69.283  1.00  0.00    -0.120 C  
HETATM   11  C   UNL     1      -9.078   6.107  68.513  1.00  0.00    -0.117 C  
HETATM   12  C   UNL     1      -8.515   4.688  68.275  1.00  0.00    -0.101 C  
HETATM   13  C   UNL     1      -7.710   4.459  67.005  1.00  0.00    -0.089 C  
HETATM   14  O   UNL     1      -6.334   4.714  67.219  1.00  0.00    -0.038 OA 
HETATM   15  C   UNL     1      -8.225   5.234  65.791  1.00  0.00    -0.119 C  
HETATM   16  H   UNL     1      -5.831   4.571  66.425  1.00  0.00     0.000 HD 
HETATM   17  C   UNL     1      -8.665   6.689  66.067  1.00  0.00    -0.155 C  
HETATM   18  C   UNL     1      -9.654   6.875  67.259  1.00  0.00    -0.173 C  
HETATM   19  C   UNL     1     -10.992   6.196  66.870  1.00  0.00    -0.384 C  
HETATM   20  C   UNL     1      -9.986   8.452  67.617  1.00  0.00    -0.246 C  
HETATM   21  C   UNL     1     -10.147   9.414  66.413  1.00  0.00    -0.332 C  
ENDROOT
BRANCH   1  22
HETATM   22  C   UNL     1      -7.300  13.559  68.000  1.00  0.00    -0.133 C  
HETATM   23  C   UNL     1      -7.618  14.847  67.223  1.00  0.00    -0.213 C  
HETATM   24  O   UNL     1      -6.538  13.636  68.951  1.00  0.00    -0.093 OA 
ENDBRANCH   1  22
TORSDOF 1
ENDMDL
MODEL       95
REMARK 921   NORMALIZED FREE ENERGY PREDICTED BY IDOCK:   -3.59 KCAL/MOL
REMARK 922        TOTAL FREE ENERGY PREDICTED BY IDOCK:   -3.41 KCAL/MOL
REMARK 923 INTER-LIGAND FREE ENERGY PREDICTED BY IDOCK:   -3.71 KCAL/MOL
REMARK 924 INTRA-LIGAND FREE ENERGY PREDICTED BY IDOCK:    0.30 KCAL/MOL
REMARK 927      BINDING AFFINITY PREDICTED BY RF-SCORE:    0.00 PKD
ROOT
HETATM    1  C   UNL     1     -10.480   7.023  71.017  1.00  0.00    -0.231 C  
HETATM    2  C   UNL     1      -8.576   5.510  71.880  1.00  0.00    -0.131 C  
HETATM    3  C   UNL     1     -10.326   8.503  70.700  1.00  0.00    -0.232 C  
HETATM    4  C   UNL     1      -8.935   8.771  71.268  1.00  0.00    -0.295 C  
HETATM    5  C   UNL     1      -8.986   6.437  70.700  1.00  0.00    -0.144 C  
HETATM    6  C   UNL     1      -8.704   5.534  69.438  1.00  0.00    -0.107 C  
HETATM    7  C   UNL     1      -8.093   7.727  70.529  1.00  0.00    -0.103 C  
HETATM    8  C   UNL     1      -7.922   8.302  69.072  1.00  0.00    -0.112 C  
HETATM    9  C   UNL     1      -7.026   9.518  69.089  1.00  0.00    -0.057 C  
HETATM   10  C   UNL     1      -7.270  10.307  67.818  1.00  0.00    -0.086 C  
HETATM   11  C   UNL     1      -6.702   9.511  66.648  1.00  0.00    -0.072 C  
HETATM   12  C   UNL     1      -6.702  10.422  65.400  1.00  0.00    -0.113 C  
HETATM   13  C   UNL     1      -7.948  10.412  64.527  1.00  0.00    -0.093 C  
HETATM   14  O   UNL     1      -8.878  11.392  64.952  1.00  0.00    -0.388 OA 
HETATM   15  C   UNL     1      -8.617   9.042  64.409  1.00  0.00    -0.174 C  
HETATM   16  H   UNL     1      -9.656  11.386  64.406  1.00  0.00     0.000 HD 
HETATM   17  C   UNL     1      -8.694   8.223  65.716  1.00  0.00    -0.196 C  
HETATM   18  C   UNL     1      -7.351   8.079  66.497  1.00  0.00    -0.084 C  
HETATM   19  C   UNL     1      -6.393   7.222  65.629  1.00  0.00    -0.041 C  
HETATM   20  C   UNL     1      -7.500   7.326  67.959  1.00  0.00    -0.102 C  
HETATM   21  C   UNL     1      -8.482   6.129  68.022  1.00  0.00    -0.116 C  
ENDROOT
BRANCH   1  22
HETATM   22  C   UNL     1     -11.084   7.147  72.494  1.00  0.00    -0.280 C  
HETATM   23  C   UNL     1     -12.267   8.109  72.694  1.00  0.00    -0.270 C  
HETATM   24  O   UNL     1     -10.619   6.595  73.480  1.00  0.00    -0.281 OA 
ENDBRANCH   1  22
TORSDOF 1
ENDMDL
MODEL       96
REMARK 921   NORMALIZED FREE ENERGY PREDICTED BY IDOCK:   -3.50 KCAL/MOL
REMARK 922        TOTAL FREE ENERGY PREDICTED BY IDOCK:   -3.31 KCAL/MOL
REMARK 923 INTER-LIGAND FREE ENERGY PREDICTED BY IDOCK:   -3.75 KCAL/MOL
REMARK 924 INTRA-LIGAND FREE ENERGY PREDICTED BY IDOCK:    0.44 KCAL/MOL
REMARK 927      BINDING AFFINITY PREDICTED BY RF-SCORE:    0.00 PKD
ROOT
HETATM    1  C   UNL     1      -7.979   6.031  71.590  1.00  0.00    -0.110 C  
HETATM    2  C   UNL     1     -10.429   6.027  72.400  1.00  0.00    -0.234 C  
HETATM    3  C   UNL     1      -7.532   5.610  70.198  1.00  0.00    -0.077 C  
HETATM    4  C   UNL     1      -8.826   5.009  69.655  1.00  0.00    -0.121 C  
HETATM    5  C   UNL     1      -9.482   6.617  71.316  1.00  0.00    -0.166 C  
HETATM    6  C   UNL     1      -9.792   8.161  71.391  1.00  0.00    -0.223 C  
HETATM    7  C   UNL     1      -9.806   6.172  69.838  1.00  0.00    -0.205 C  
HETATM    8  C   UNL     1      -9.454   7.183  68.682  1.00  0.00    -0.140 C  
HETATM    9  C   UNL     1      -9.848   6.608  67.342  1.00  0.00    -0.165 C  
HETATM   10  C   UNL     1      -9.081   7.347  66.263  1.00  0.00    -0.195 C  
HETATM   11  C   UNL     1      -9.634   8.765  66.173  1.00  0.00    -0.323 C  
HETATM   12  C   UNL     1      -9.052   9.430  64.906  1.00  0.00    -0.258 C  
HETATM   13  C   UNL     1      -7.736  10.180  65.051  1.00  0.00    -0.141 C  
HETATM   14  O   UNL     1      -6.632   9.323  64.823  1.00  0.00    -0.073 OA 
HETATM   15  C   UNL     1      -7.583  10.921  66.380  1.00  0.00    -0.146 C  
HETATM   16  H   UNL     1      -5.810   9.791  64.913  1.00  0.00     0.000 HD 
HETATM   17  C   UNL     1      -8.075  10.159  67.630  1.00  0.00    -0.109 C  
HETATM   18  C   UNL     1      -9.514   9.566  67.529  1.00  0.00    -0.155 C  
HETATM   19  C   UNL     1     -10.508  10.754  67.459  1.00  0.00    -0.260 C  
HETATM   20  C   UNL     1      -9.949   8.635  68.822  1.00  0.00    -0.194 C  
HETATM   21  C   UNL     1      -9.488   9.128  70.216  1.00  0.00    -0.253 C  
ENDROOT
BRANCH   1  22
HETATM   22  C   UNL     1      -7.694   4.662  72.368  1.00  0.00    -0.086 C  
HETATM   23  C   UNL     1      -6.841   3.606  71.645  1.00  0.00    -0.027 C  
HETATM   24  O   UNL     1      -8.173   4.370  73.452  1.00  0.00    -0.093 OA 
ENDBRANCH   1  22
TORSDOF 1
ENDMDL
MODEL       97
REMARK 921   NORMALIZED FREE ENERGY PREDICTED BY IDOCK:   -3.24 KCAL/MOL
REMARK 922        TOTAL FREE ENERGY PREDICTED BY IDOCK:   -3.04 KCAL/MOL
REMARK 923 INTER-LIGAND FREE ENERGY PREDICTED BY IDOCK:   -3.26 KCAL/MOL
REMARK 924 INTRA-LIGAND FREE ENERGY PREDICTED BY IDOCK:    0.22 KCAL/MOL
REMARK 927      BINDING AFFINITY PREDICTED BY RF-SCORE:    0.00 PKD
ROOT
HETATM    1  C   UNL     1      -7.776   4.693  66.658  1.00  0.00    -0.091 C  
HETATM    2  C   UNL     1      -6.133   2.910  67.546  1.00  0.00    -0.028 C  
HETATM    3  C   UNL     1      -9.242   4.785  67.056  1.00  0.00    -0.133 C  
HETATM    4  C   UNL     1      -9.412   3.473  67.818  1.00  0.00    -0.230 C  
HETATM    5  C   UNL     1      -7.087   4.054  67.998  1.00  0.00    -0.059 C  
HETATM    6  C   UNL     1      -6.167   4.916  68.945  1.00  0.00    -0.031 C  
HETATM    7  C   UNL     1      -8.312   3.587  68.877  1.00  0.00    -0.087 C  
HETATM    8  C   UNL     1      -8.874   4.608  69.937  1.00  0.00    -0.129 C  
HETATM    9  C   UNL     1     -10.024   3.993  70.700  1.00  0.00    -0.141 C  
HETATM   10  C   UNL     1     -10.828   5.113  71.331  1.00  0.00    -0.083 C  
HETATM   11  C   UNL     1      -9.995   5.724  72.452  1.00  0.00    -0.194 C  
HETATM   12  C   UNL     1     -10.904   6.670  73.268  1.00  0.00    -0.290 C  
HETATM   13  C   UNL     1     -10.981   8.122  72.822  1.00  0.00    -0.330 C  
HETATM   14  O   UNL     1     -12.023   8.314  71.882  1.00  0.00    -0.292 OA 
HETATM   15  C   UNL     1      -9.661   8.683  72.292  1.00  0.00    -0.348 C  
HETATM   16  H   UNL     1     -12.072   9.221  71.604  1.00  0.00     0.000 HD 
HETATM   17  C   UNL     1      -8.849   7.734  71.384  1.00  0.00    -0.149 C  
HETATM   18  C   UNL     1      -8.612   6.301  71.955  1.00  0.00    -0.131 C  
HETATM   19  C   UNL     1      -7.690   6.437  73.195  1.00  0.00    -0.098 C  
HETATM   20  C   UNL     1      -7.871   5.271  70.899  1.00  0.00    -0.098 C  
HETATM   21  C   UNL     1      -6.745   5.873  70.021  1.00  0.00    -0.052 C  
ENDROOT
BRANCH   1  22
HETATM   22  C   UNL     1      -7.941   3.890  65.283  1.00  0.00    -0.097 C  
HETATM   23  C   UNL     1      -6.814   4.030  64.246  1.00  0.00    -0.045 C  
HETATM   24  O   UNL     1      -8.932   3.248  64.973  1.00  0.00    -0.126 OA 
ENDBRANCH   1  22
TORSDOF 1
ENDMDL
MODEL       98
REMARK 921   NORMALIZED FREE ENERGY PREDICTED BY IDOCK:   -2.96 KCAL/MOL
REMARK 922        TOTAL FREE ENERGY PREDICTED BY IDOCK:   -2.74 KCAL/MOL
REMARK 923 INTER-LIGAND FREE ENERGY PREDICTED BY IDOCK:   -3.07 KCAL/MOL
REMARK 924 INTRA-LIGAND FREE ENERGY PREDICTED BY IDOCK:    0.32 KCAL/MOL
REMARK 927      BINDING AFFINITY PREDICTED BY RF-SCORE:    0.00 PKD
ROOT
HETATM    1  C   UNL     1      -8.853   7.289  67.049  1.00  0.00    -0.130 C  
HETATM    2  C   UNL     1      -6.988   8.987  67.595  1.00  0.00    -0.075 C  
HETATM    3  C   UNL     1      -8.762   5.794  67.319  1.00  0.00    -0.108 C  
HETATM    4  C   UNL     1      -7.289   5.664  67.697  1.00  0.00    -0.077 C  
HETATM    5  C   UNL     1      -7.920   7.919  68.237  1.00  0.00    -0.122 C  
HETATM    6  C   UNL     1      -8.549   8.698  69.455  1.00  0.00    -0.131 C  
HETATM    7  C   UNL     1      -7.176   6.669  68.847  1.00  0.00    -0.091 C  
HETATM    8  C   UNL     1      -7.851   5.953  70.078  1.00  0.00    -0.100 C  
HETATM    9  C   UNL     1      -6.998   4.797  70.546  1.00  0.00    -0.037 C  
HETATM   10  C   UNL     1      -7.869   3.866  71.367  1.00  0.00    -0.064 C  
HETATM   11  C   UNL     1      -8.205   4.564  72.680  1.00  0.00    -0.106 C  
HETATM   12  C   UNL     1      -8.854   3.527  73.624  1.00  0.00    -0.088 C  
HETATM   13  C   UNL     1     -10.367   3.377  73.563  1.00  0.00    -0.153 C  
HETATM   14  O   UNL     1     -10.745   2.398  72.612  1.00  0.00    -0.135 OA 
HETATM   15  C   UNL     1     -11.115   4.689  73.321  1.00  0.00    -0.403 C  
HETATM   16  H   UNL     1     -11.690   2.304  72.574  1.00  0.00     0.000 HD 
HETATM   17  C   UNL     1     -10.482   5.635  72.278  1.00  0.00    -0.260 C  
HETATM   18  C   UNL     1      -8.964   5.934  72.480  1.00  0.00    -0.132 C  
HETATM   19  C   UNL     1      -8.816   6.746  73.793  1.00  0.00    -0.164 C  
HETATM   20  C   UNL     1      -8.288   6.828  71.267  1.00  0.00    -0.120 C  
HETATM   21  C   UNL     1      -9.157   7.969  70.683  1.00  0.00    -0.154 C  
ENDROOT
BRANCH   1  22
HETATM   22  C   UNL     1      -8.435   7.289  65.504  1.00  0.00    -0.111 C  
HETATM   23  C   UNL     1      -8.474   8.636  64.764  1.00  0.00    -0.168 C  
HETATM   24  O   UNL     1      -8.168   6.287  64.861  1.00  0.00    -0.140 OA 
ENDBRANCH   1  22
TORSDOF 1
ENDMDL
MODEL       99
REMARK 921   NORMALIZED FREE ENERGY PREDICTED BY IDOCK:   -2.95 KCAL/MOL
REMARK 922        TOTAL FREE ENERGY PREDICTED BY IDOCK:   -2.73 KCAL/MOL
REMARK 923 INTER-LIGAND FREE ENERGY PREDICTED BY IDOCK:   -3.62 KCAL/MOL
REMARK 924 INTRA-LIGAND FREE ENERGY PREDICTED BY IDOCK:    0.89 KCAL/MOL
REMARK 927      BINDING AFFINITY PREDICTED BY RF-SCORE:    0.00 PKD
ROOT
HETATM    1  C   UNL     1      -9.138  10.309  70.208  1.00  0.00     0.398 C  
HETATM    2  C   UNL     1     -11.271   8.895  69.871  1.00  0.00    -0.076 C  
HETATM    3  C   UNL     1      -8.237  10.788  69.079  1.00  0.00    -0.139 C  
HETATM    4  C   UNL     1      -8.813  10.002  67.904  1.00  0.00    -0.125 C  
HETATM    5  C   UNL     1     -10.605  10.248  69.486  1.00  0.00    -0.270 C  
HETATM    6  C   UNL     1     -11.735  11.296  69.820  1.00  0.00    -0.422 C  
HETATM    7  C   UNL     1     -10.287  10.416  67.950  1.00  0.00    -0.227 C  
HETATM    8  C   UNL     1     -10.316  11.876  67.358  1.00  0.00    -0.228 C  
HETATM    9  C   UNL     1     -10.012  11.850  65.879  1.00  0.00    -0.261 C  
HETATM   10  C   UNL     1      -9.575  13.240  65.459  1.00  0.00     0.036 C  
HETATM   11  C   UNL     1     -10.790  14.159  65.517  1.00  0.00    -0.312 C  
HETATM   12  C   UNL     1     -10.417  15.495  64.836  1.00  0.00    -0.300 C  
HETATM   13  C   UNL     1      -9.819  16.583  65.714  1.00  0.00    -0.243 C  
HETATM   14  O   UNL     1      -8.407  16.484  65.760  1.00  0.00    -0.337 OA 
HETATM   15  C   UNL     1     -10.407  16.641  67.125  1.00  0.00    -0.300 C  
HETATM   16  H   UNL     1      -8.033  17.164  66.308  1.00  0.00     0.000 HD 
HETATM   17  C   UNL     1     -10.649  15.275  67.803  1.00  0.00    -0.266 C  
HETATM   18  C   UNL     1     -11.444  14.237  66.952  1.00  0.00    -0.377 C  
HETATM   19  C   UNL     1     -12.887  14.777  66.779  1.00  0.00     1.184 C  
HETATM   20  C   UNL     1     -11.556  12.743  67.647  1.00  0.00    -0.412 C  
HETATM   21  C   UNL     1     -11.773  12.709  69.181  1.00  0.00    -0.375 C  
ENDROOT
BRANCH   1  22
HETATM   22  C   UNL     1      -8.316   9.008  70.647  1.00  0.00    -0.186 C  
HETATM   23  C   UNL     1      -8.782   7.656  70.082  1.00  0.00    -0.141 C  
HETATM   24  O   UNL     1      -7.403   9.008  71.458  1.00  0.00    -0.245 OA 
ENDBRANCH   1  22
TORSDOF 1
ENDMDL
MODEL      100
REMARK 921   NORMALIZED FREE ENERGY PREDICTED BY IDOCK:   -2.92 KCAL/MOL
REMARK 922        TOTAL FREE ENERGY PREDICTED BY IDOCK:   -2.70 KCAL/MOL
REMARK 923 INTER-LIGAND FREE ENERGY PREDICTED BY IDOCK:   -3.00 KCAL/MOL
REMARK 924 INTRA-LIGAND FREE ENERGY PREDICTED BY IDOCK:    0.31 KCAL/MOL
REMARK 927      BINDING AFFINITY PREDICTED BY RF-SCORE:    0.00 PKD
ROOT
HETATM    1  C   UNL     1      -8.950   4.904  64.585  1.00  0.00    -0.111 C  
HETATM    2  C   UNL     1      -7.387   6.815  63.830  1.00  0.00    -0.079 C  
HETATM    3  C   UNL     1      -8.667   3.974  65.756  1.00  0.00    -0.119 C  
HETATM    4  C   UNL     1      -7.221   4.349  66.073  1.00  0.00    -0.076 C  
HETATM    5  C   UNL     1      -8.203   6.286  65.045  1.00  0.00    -0.132 C  
HETATM    6  C   UNL     1      -9.022   7.558  65.490  1.00  0.00     0.056 C  
HETATM    7  C   UNL     1      -7.335   5.860  66.292  1.00  0.00    -0.081 C  
HETATM    8  C   UNL     1      -7.989   6.014  67.717  1.00  0.00    -0.105 C  
HETATM    9  C   UNL     1      -7.017   5.583  68.790  1.00  0.00    -0.060 C  
HETATM   10  C   UNL     1      -7.803   5.283  70.051  1.00  0.00    -0.080 C  
HETATM   11  C   UNL     1      -8.328   6.600  70.610  1.00  0.00    -0.129 C  
HETATM   12  C   UNL     1      -8.891   6.334  72.024  1.00  0.00    -0.138 C  
HETATM   13  C   UNL     1     -10.358   5.949  72.132  1.00  0.00    -0.201 C  
HETATM   14  O   UNL     1     -10.524   4.544  72.058  1.00  0.00    -0.178 OA 
HETATM   15  C   UNL     1     -11.266   6.658  71.126  1.00  0.00    -0.340 C  
HETATM   16  H   UNL     1     -11.441   4.303  72.125  1.00  0.00     0.000 HD 
HETATM   17  C   UNL     1     -10.699   6.791  69.695  1.00  0.00    -0.290 C  
HETATM   18  C   UNL     1      -9.257   7.379  69.598  1.00  0.00    -0.146 C  
HETATM   19  C   UNL     1      -9.321   8.856  70.064  1.00  0.00    -0.184 C  
HETATM   20  C   UNL     1      -8.629   7.369  68.071  1.00  0.00    -0.122 C  
HETATM   21  C   UNL     1      -9.608   7.712  66.919  1.00  0.00    -0.249 C  
ENDROOT
BRANCH   1  22
HETATM   22  C   UNL     1      -8.425   3.972  63.395  1.00  0.00    -0.096 C  
HETATM   23  C   UNL     1      -9.390   2.900  62.862  1.00  0.00    -0.093 C  
HETATM   24  O   UNL     1      -7.292   4.001  62.942  1.00  0.00    -0.047 OA 
ENDBRANCH   1  22
TORSDOF 1
ENDMDL
MODEL      101
REMARK 921   NORMALIZED FREE ENERGY PREDICTED BY IDOCK:   -2.88 KCAL/MOL
REMARK 922        TOTAL FREE ENERGY PREDICTED BY IDOCK:   -2.66 KCAL/MOL
REMARK 923 INTER-LIGAND FREE ENERGY PREDICTED BY IDOCK:   -2.96 KCAL/MOL
REMARK 924 INTRA-LIGAND FREE ENERGY PREDICTED BY IDOCK:    0.30 KCAL/MOL
REMARK 927      BINDING AFFINITY PREDICTED BY RF-SCORE:    0.00 PKD
ROOT
HETATM    1  C   UNL     1      -7.282   9.100  68.961  1.00  0.00    -0.072 C  
HETATM    2  C   UNL     1      -8.110   8.657  66.557  1.00  0.00    -0.103 C  
HETATM    3  C   UNL     1      -8.138   8.937  70.209  1.00  0.00    -0.125 C  
HETATM    4  C   UNL     1      -9.515   8.732  69.583  1.00  0.00    -0.170 C  
HETATM    5  C   UNL     1      -7.921   7.985  67.948  1.00  0.00    -0.128 C  
HETATM    6  C   UNL     1      -7.150   6.658  67.587  1.00  0.00    -0.085 C  
HETATM    7  C   UNL     1      -9.259   7.541  68.656  1.00  0.00    -0.144 C  
HETATM    8  C   UNL     1      -9.192   6.290  69.613  1.00  0.00    -0.144 C  
HETATM    9  C   UNL     1     -10.558   5.994  70.185  1.00  0.00    -0.341 C  
HETATM   10  C   UNL     1     -10.378   5.142  71.426  1.00  0.00    -0.273 C  
HETATM   11  C   UNL     1      -9.910   3.758  70.990  1.00  0.00    -0.204 C  
HETATM   12  C   UNL     1      -9.987   2.815  72.211  1.00  0.00    -0.240 C  
HETATM   13  C   UNL     1      -8.756   2.718  73.099  1.00  0.00    -0.079 C  
HETATM   14  O   UNL     1      -8.797   3.681  74.137  1.00  0.00    -0.088 OA 
HETATM   15  C   UNL     1      -7.431   2.793  72.339  1.00  0.00    -0.051 C  
HETATM   16  H   UNL     1      -8.028   3.621  74.691  1.00  0.00     0.000 HD 
HETATM   17  C   UNL     1      -7.372   3.838  71.204  1.00  0.00    -0.033 C  
HETATM   18  C   UNL     1      -8.552   3.786  70.185  1.00  0.00    -0.107 C  
HETATM   19  C   UNL     1      -8.442   2.450  69.407  1.00  0.00    -0.092 C  
HETATM   20  C   UNL     1      -8.534   5.007  69.073  1.00  0.00    -0.084 C  
HETATM   21  C   UNL     1      -7.146   5.419  68.521  1.00  0.00    -0.062 C  
ENDROOT
BRANCH   1  22
HETATM   22  C   UNL     1      -7.445  10.678  68.753  1.00  0.00    -0.104 C  
HETATM   23  C   UNL     1      -6.412  11.590  69.435  1.00  0.00    -0.111 C  
HETATM   24  O   UNL     1      -8.375  11.205  68.161  1.00  0.00    -0.124 OA 
ENDBRANCH   1  22
TORSDOF 1
ENDMDL
MODEL      102
REMARK 921   NORMALIZED FREE ENERGY PREDICTED BY IDOCK:   -2.76 KCAL/MOL
REMARK 922        TOTAL FREE ENERGY PREDICTED BY IDOCK:   -2.53 KCAL/MOL
REMARK 923 INTER-LIGAND FREE ENERGY PREDICTED BY IDOCK:   -2.78 KCAL/MOL
REMARK 924 INTRA-LIGAND FREE ENERGY PREDICTED BY IDOCK:    0.26 KCAL/MOL
REMARK 927      BINDING AFFINITY PREDICTED BY RF-SCORE:    0.00 PKD
ROOT
HETATM    1  C   UNL     1     -12.296  10.249  69.773  1.00  0.00    -0.030 C  
HETATM    2  C   UNL     1      -9.851   9.714  70.406  1.00  0.00    -0.315 C  
HETATM    3  C   UNL     1     -12.862  11.656  69.646  1.00  0.00     0.524 C  
HETATM    4  C   UNL     1     -11.713  12.478  70.222  1.00  0.00    -0.200 C  
HETATM    5  C   UNL     1     -10.727  10.463  69.360  1.00  0.00    -0.277 C  
HETATM    6  C   UNL     1     -10.154   9.935  67.989  1.00  0.00    -0.202 C  
HETATM    7  C   UNL     1     -10.542  12.030  69.342  1.00  0.00     0.108 C  
HETATM    8  C   UNL     1     -10.762  12.770  67.968  1.00  0.00    -0.246 C  
HETATM    9  C   UNL     1     -10.525  14.253  68.127  1.00  0.00    -0.246 C  
HETATM   10  C   UNL     1     -11.197  14.968  66.971  1.00  0.00    -0.328 C  
HETATM   11  C   UNL     1     -10.415  14.657  65.700  1.00  0.00    -0.358 C  
HETATM   12  C   UNL     1     -10.924  15.590  64.579  1.00  0.00    -0.226 C  
HETATM   13  C   UNL     1     -12.086  15.095  63.731  1.00  0.00     0.336 C  
HETATM   14  O   UNL     1     -13.328  15.478  64.292  1.00  0.00     0.274 OA 
HETATM   15  C   UNL     1     -12.057  13.592  63.450  1.00  0.00    -0.351 C  
HETATM   16  H   UNL     1     -14.054  15.169  63.763  1.00  0.00     0.000 HD 
HETATM   17  C   UNL     1     -11.654  12.697  64.642  1.00  0.00    -0.392 C  
HETATM   18  C   UNL     1     -10.342  13.113  65.377  1.00  0.00    -0.313 C  
HETATM   19  C   UNL     1      -9.164  12.897  64.392  1.00  0.00     1.214 C  
HETATM   20  C   UNL     1     -10.021  12.226  66.733  1.00  0.00    -0.217 C  
HETATM   21  C   UNL     1     -10.335  10.711  66.658  1.00  0.00    -0.297 C  
ENDROOT
BRANCH   1  22
HETATM   22  C   UNL     1     -12.779   9.921  71.263  1.00  0.00    -0.383 C  
HETATM   23  C   UNL     1     -12.708   8.454  71.719  1.00  0.00    -0.373 C  
HETATM   24  O   UNL     1     -13.273  10.737  72.025  1.00  0.00    -0.484 OA 
ENDBRANCH   1  22
TORSDOF 1
ENDMDL
MODEL      103
REMARK 921   NORMALIZED FREE ENERGY PREDICTED BY IDOCK:   -2.60 KCAL/MOL
REMARK 922        TOTAL FREE ENERGY PREDICTED BY IDOCK:   -2.36 KCAL/MOL
REMARK 923 INTER-LIGAND FREE ENERGY PREDICTED BY IDOCK:   -3.08 KCAL/MOL
REMARK 924 INTRA-LIGAND FREE ENERGY PREDICTED BY IDOCK:    0.72 KCAL/MOL
REMARK 927      BINDING AFFINITY PREDICTED BY RF-SCORE:    0.00 PKD
ROOT
HETATM    1  C   UNL     1      -8.277   5.235  71.433  1.00  0.00    -0.116 C  
HETATM    2  C   UNL     1      -9.428   3.484  69.927  1.00  0.00    -0.254 C  
HETATM    3  C   UNL     1      -7.097   6.095  71.004  1.00  0.00    -0.070 C  
HETATM    4  C   UNL     1      -6.731   5.434  69.678  1.00  0.00    -0.055 C  
HETATM    5  C   UNL     1      -9.068   4.995  70.021  1.00  0.00    -0.166 C  
HETATM    6  C   UNL     1     -10.447   5.697  69.718  1.00  0.00    -0.377 C  
HETATM    7  C   UNL     1      -8.060   5.506  68.921  1.00  0.00    -0.095 C  
HETATM    8  C   UNL     1      -8.185   7.009  68.465  1.00  0.00    -0.124 C  
HETATM    9  C   UNL     1      -7.163   7.321  67.398  1.00  0.00    -0.090 C  
HETATM   10  C   UNL     1      -6.981   8.825  67.339  1.00  0.00    -0.075 C  
HETATM   11  C   UNL     1      -8.248   9.436  66.752  1.00  0.00    -0.112 C  
HETATM   12  C   UNL     1      -7.967  10.922  66.438  1.00  0.00    -0.157 C  
HETATM   13  C   UNL     1      -8.245  11.934  67.539  1.00  0.00    -0.155 C  
HETATM   14  O   UNL     1      -7.102  12.132  68.351  1.00  0.00    -0.076 OA 
HETATM   15  C   UNL     1      -9.469  11.604  68.395  1.00  0.00    -0.193 C  
HETATM   16  H   UNL     1      -7.275  12.764  69.039  1.00  0.00     0.000 HD 
HETATM   17  C   UNL     1      -9.635  10.118  68.778  1.00  0.00    -0.170 C  
HETATM   18  C   UNL     1      -9.544   9.107  67.593  1.00  0.00    -0.181 C  
HETATM   19  C   UNL     1     -10.770   9.348  66.675  1.00  0.00    -0.076 C  
HETATM   20  C   UNL     1      -9.578   7.523  68.056  1.00  0.00    -0.156 C  
HETATM   21  C   UNL     1     -10.541   7.162  69.215  1.00  0.00    -0.233 C  
ENDROOT
BRANCH   1  22
HETATM   22  C   UNL     1      -7.477   4.083  72.204  1.00  0.00    -0.066 C  
HETATM   23  C   UNL     1      -6.137   3.632  71.602  1.00  0.00    -0.014 C  
HETATM   24  O   UNL     1      -7.897   3.487  73.184  1.00  0.00    -0.067 OA 
ENDBRANCH   1  22
TORSDOF 1
ENDMDL
MODEL      104
REMARK 921   NORMALIZED FREE ENERGY PREDICTED BY IDOCK:   -2.55 KCAL/MOL
REMARK 922        TOTAL FREE ENERGY PREDICTED BY IDOCK:   -2.30 KCAL/MOL
REMARK 923 INTER-LIGAND FREE ENERGY PREDICTED BY IDOCK:   -3.17 KCAL/MOL
REMARK 924 INTRA-LIGAND FREE ENERGY PREDICTED BY IDOCK:    0.87 KCAL/MOL
REMARK 927      BINDING AFFINITY PREDICTED BY RF-SCORE:    0.00 PKD
ROOT
HETATM    1  C   UNL     1      -7.970   4.103  70.166  1.00  0.00    -0.054 C  
HETATM    2  C   UNL     1      -5.394   4.270  70.155  1.00  0.00    -0.008 C  
HETATM    3  C   UNL     1      -8.892   5.081  70.880  1.00  0.00    -0.156 C  
HETATM    4  C   UNL     1      -7.879   5.886  71.689  1.00  0.00    -0.106 C  
HETATM    5  C   UNL     1      -6.690   5.045  69.778  1.00  0.00    -0.047 C  
HETATM    6  C   UNL     1      -6.409   5.484  68.289  1.00  0.00    -0.038 C  
HETATM    7  C   UNL     1      -6.928   6.375  70.593  1.00  0.00    -0.064 C  
HETATM    8  C   UNL     1      -7.707   7.539  69.871  1.00  0.00    -0.098 C  
HETATM    9  C   UNL     1      -7.825   8.737  70.783  1.00  0.00    -0.120 C  
HETATM   10  C   UNL     1      -8.954   9.612  70.275  1.00  0.00    -0.263 C  
HETATM   11  C   UNL     1      -8.507  10.253  68.966  1.00  0.00    -0.150 C  
HETATM   12  C   UNL     1      -9.533  11.345  68.589  1.00  0.00    -0.168 C  
HETATM   13  C   UNL     1     -10.717  10.926  67.731  1.00  0.00    -0.235 C  
HETATM   14  O   UNL     1     -11.807  10.510  68.534  1.00  0.00    -0.682 OA 
HETATM   15  C   UNL     1     -10.382   9.868  66.679  1.00  0.00    -0.275 C  
HETATM   16  H   UNL     1     -12.547  10.249  67.999  1.00  0.00     0.000 HD 
HETATM   17  C   UNL     1      -9.445   8.734  67.148  1.00  0.00    -0.208 C  
HETATM   18  C   UNL     1      -8.132   9.199  67.852  1.00  0.00    -0.105 C  
HETATM   19  C   UNL     1      -7.263   9.925  66.794  1.00  0.00    -0.091 C  
HETATM   20  C   UNL     1      -7.227   7.963  68.470  1.00  0.00    -0.085 C  
HETATM   21  C   UNL     1      -7.149   6.671  67.618  1.00  0.00    -0.085 C  
ENDROOT
BRANCH   1  22
HETATM   22  C   UNL     1      -7.915   2.955  71.280  1.00  0.00    -0.054 C  
HETATM   23  C   UNL     1      -6.885   3.119  72.410  1.00  0.00    -0.026 C  
HETATM   24  O   UNL     1      -8.573   1.927  71.246  1.00  0.00    -0.055 OA 
ENDBRANCH   1  22
TORSDOF 1
ENDMDL
MODEL      105
REMARK 921   NORMALIZED FREE ENERGY PREDICTED BY IDOCK:   -2.18 KCAL/MOL
REMARK 922        TOTAL FREE ENERGY PREDICTED BY IDOCK:   -1.92 KCAL/MOL
REMARK 923 INTER-LIGAND FREE ENERGY PREDICTED BY IDOCK:   -2.73 KCAL/MOL
REMARK 924 INTRA-LIGAND FREE ENERGY PREDICTED BY IDOCK:    0.81 KCAL/MOL
REMARK 927      BINDING AFFINITY PREDICTED BY RF-SCORE:    0.00 PKD
ROOT
HETATM    1  C   UNL     1      -8.868   9.782  68.347  1.00  0.00    -0.120 C  
HETATM    2  C   UNL     1      -8.311   9.079  70.767  1.00  0.00    -0.228 C  
HETATM    3  C   UNL     1      -8.028   9.418  67.131  1.00  0.00    -0.102 C  
HETATM    4  C   UNL     1      -6.791   8.833  67.806  1.00  0.00    -0.070 C  
HETATM    5  C   UNL     1      -8.606   8.514  69.347  1.00  0.00    -0.128 C  
HETATM    6  C   UNL     1      -9.726   7.441  69.630  1.00  0.00    -0.163 C  
HETATM    7  C   UNL     1      -7.406   7.737  68.681  1.00  0.00    -0.087 C  
HETATM    8  C   UNL     1      -7.763   6.573  67.680  1.00  0.00    -0.106 C  
HETATM    9  C   UNL     1      -6.503   5.927  67.155  1.00  0.00    -0.047 C  
HETATM   10  C   UNL     1      -6.847   5.183  65.879  1.00  0.00    -0.061 C  
HETATM   11  C   UNL     1      -7.694   3.971  66.248  1.00  0.00    -0.090 C  
HETATM   12  C   UNL     1      -7.815   3.069  65.000  1.00  0.00    -0.082 C  
HETATM   13  C   UNL     1      -8.982   3.330  64.059  1.00  0.00    -0.097 C  
HETATM   14  O   UNL     1      -8.630   4.267  63.058  1.00  0.00    -0.092 OA 
HETATM   15  C   UNL     1     -10.272   3.748  64.766  1.00  0.00    -0.155 C  
HETATM   16  H   UNL     1      -9.358   4.431  62.470  1.00  0.00     0.000 HD 
HETATM   17  C   UNL     1     -10.101   4.744  65.933  1.00  0.00    -0.265 C  
HETATM   18  C   UNL     1      -9.031   4.351  66.998  1.00  0.00    -0.125 C  
HETATM   19  C   UNL     1      -9.537   3.079  67.725  1.00  0.00    -0.100 C  
HETATM   20  C   UNL     1      -8.771   5.507  68.148  1.00  0.00    -0.102 C  
HETATM   21  C   UNL     1     -10.021   6.270  68.655  1.00  0.00    -0.166 C  
ENDROOT
BRANCH   1  22
HETATM   22  C   UNL     1      -8.293  11.251  68.615  1.00  0.00    -0.146 C  
HETATM   23  C   UNL     1      -6.793  11.374  68.929  1.00  0.00    -0.089 C  
HETATM   24  O   UNL     1      -8.976  12.262  68.668  1.00  0.00    -0.109 OA 
ENDBRANCH   1  22
TORSDOF 1
ENDMDL
MODEL      106
REMARK 921   NORMALIZED FREE ENERGY PREDICTED BY IDOCK:   -2.08 KCAL/MOL
REMARK 922        TOTAL FREE ENERGY PREDICTED BY IDOCK:   -1.81 KCAL/MOL
REMARK 923 INTER-LIGAND FREE ENERGY PREDICTED BY IDOCK:   -2.03 KCAL/MOL
REMARK 924 INTRA-LIGAND FREE ENERGY PREDICTED BY IDOCK:    0.22 KCAL/MOL
REMARK 927      BINDING AFFINITY PREDICTED BY RF-SCORE:    0.00 PKD
ROOT
HETATM    1  C   UNL     1      -7.101   7.339  70.468  1.00  0.00    -0.062 C  
HETATM    2  C   UNL     1      -9.301   8.686  70.395  1.00  0.00    -0.191 C  
HETATM    3  C   UNL     1      -6.958   5.900  69.991  1.00  0.00    -0.066 C  
HETATM    4  C   UNL     1      -8.421   5.528  69.768  1.00  0.00    -0.105 C  
HETATM    5  C   UNL     1      -8.290   7.913  69.501  1.00  0.00    -0.131 C  
HETATM    6  C   UNL     1      -7.990   8.946  68.348  1.00  0.00    -0.105 C  
HETATM    7  C   UNL     1      -8.874   6.625  68.801  1.00  0.00    -0.126 C  
HETATM    8  C   UNL     1      -8.260   6.215  67.408  1.00  0.00    -0.109 C  
HETATM    9  C   UNL     1      -8.947   4.980  66.875  1.00  0.00    -0.112 C  
HETATM   10  C   UNL     1      -8.046   4.350  65.831  1.00  0.00    -0.102 C  
HETATM   11  C   UNL     1      -8.030   5.257  64.606  1.00  0.00    -0.109 C  
HETATM   12  C   UNL     1      -7.342   4.495  63.451  1.00  0.00    -0.053 C  
HETATM   13  C   UNL     1      -5.835   4.642  63.316  1.00  0.00    -0.017 C  
HETATM   14  O   UNL     1      -5.156   3.647  64.062  1.00  0.00    -0.008 OA 
HETATM   15  C   UNL     1      -5.309   6.036  63.663  1.00  0.00    -0.017 C  
HETATM   16  H   UNL     1      -4.214   3.739  63.977  1.00  0.00     0.000 HD 
HETATM   17  C   UNL     1      -5.951   6.701  64.900  1.00  0.00    -0.035 C  
HETATM   18  C   UNL     1      -7.511   6.715  64.919  1.00  0.00    -0.093 C  
HETATM   19  C   UNL     1      -7.986   7.637  63.767  1.00  0.00    -0.090 C  
HETATM   20  C   UNL     1      -8.161   7.300  66.320  1.00  0.00    -0.121 C  
HETATM   21  C   UNL     1      -7.439   8.510  66.964  1.00  0.00    -0.084 C  
ENDROOT
BRANCH   1  22
HETATM   22  C   UNL     1      -7.292   7.064  72.033  1.00  0.00    -0.082 C  
HETATM   23  C   UNL     1      -6.713   8.104  73.006  1.00  0.00    -0.109 C  
HETATM   24  O   UNL     1      -7.790   6.053  72.502  1.00  0.00    -0.103 OA 
ENDBRANCH   1  22
TORSDOF 1
ENDMDL
MODEL      107
REMARK 921   NORMALIZED FREE ENERGY PREDICTED BY IDOCK:   -2.08 KCAL/MOL
REMARK 922        TOTAL FREE ENERGY PREDICTED BY IDOCK:   -1.81 KCAL/MOL
REMARK 923 INTER-LIGAND FREE ENERGY PREDICTED BY IDOCK:   -2.08 KCAL/MOL
REMARK 924 INTRA-LIGAND FREE ENERGY PREDICTED BY IDOCK:    0.27 KCAL/MOL
REMARK 927      BINDING AFFINITY PREDICTED BY RF-SCORE:    0.00 PKD
ROOT
HETATM    1  C   UNL     1      -6.785  13.967  68.026  1.00  0.00    -0.148 C  
HETATM    2  C   UNL     1      -7.156  14.308  70.558  1.00  0.00     0.616 C  
HETATM    3  C   UNL     1      -7.662  14.574  66.940  1.00  0.00     0.223 C  
HETATM    4  C   UNL     1      -8.814  15.122  67.778  1.00  0.00    -0.171 C  
HETATM    5  C   UNL     1      -6.898  15.073  69.227  1.00  0.00    -0.149 C  
HETATM    6  C   UNL     1      -5.689  16.014  69.599  1.00  0.00    -0.140 C  
HETATM    7  C   UNL     1      -8.072  16.022  68.770  1.00  0.00    -0.212 C  
HETATM    8  C   UNL     1      -7.686  17.306  67.941  1.00  0.00    -0.196 C  
HETATM    9  C   UNL     1      -8.923  18.107  67.607  1.00  0.00    -0.260 C  
HETATM   10  C   UNL     1      -8.596  19.021  66.443  1.00  0.00    -0.320 C  
HETATM   11  C   UNL     1      -7.644  20.103  66.940  1.00  0.00    -0.331 C  
HETATM   12  C   UNL     1      -7.525  21.183  65.842  1.00  0.00     0.674 C  
HETATM   13  C   UNL     1      -6.434  21.002  64.798  1.00  0.00    -0.112 C  
HETATM   14  O   UNL     1      -6.909  20.261  63.688  1.00  0.00     0.071 OA 
HETATM   15  C   UNL     1      -5.141  20.395  65.344  1.00  0.00    -0.194 C  
HETATM   16  H   UNL     1      -6.228  20.148  63.035  1.00  0.00     0.000 HD 
HETATM   17  C   UNL     1      -5.320  19.238  66.350  1.00  0.00    -0.159 C  
HETATM   18  C   UNL     1      -6.299  19.523  67.531  1.00  0.00    -0.217 C  
HETATM   19  C   UNL     1      -5.661  20.628  68.413  1.00  0.00    -0.345 C  
HETATM   20  C   UNL     1      -6.579  18.217  68.502  1.00  0.00    -0.218 C  
HETATM   21  C   UNL     1      -5.363  17.305  68.801  1.00  0.00    -0.147 C  
ENDROOT
BRANCH   1  22
HETATM   22  C   UNL     1      -7.451  12.514  68.100  1.00  0.00    -0.117 C  
HETATM   23  C   UNL     1      -6.707  11.438  68.907  1.00  0.00    -0.080 C  
HETATM   24  O   UNL     1      -8.459  12.184  67.495  1.00  0.00    -0.151 OA 
ENDBRANCH   1  22
TORSDOF 1
ENDMDL
MODEL      108
REMARK 921   NORMALIZED FREE ENERGY PREDICTED BY IDOCK:   -2.05 KCAL/MOL
REMARK 922        TOTAL FREE ENERGY PREDICTED BY IDOCK:   -1.77 KCAL/MOL
REMARK 923 INTER-LIGAND FREE ENERGY PREDICTED BY IDOCK:   -2.07 KCAL/MOL
REMARK 924 INTRA-LIGAND FREE ENERGY PREDICTED BY IDOCK:    0.30 KCAL/MOL
REMARK 927      BINDING AFFINITY PREDICTED BY RF-SCORE:    0.00 PKD
ROOT
HETATM    1  C   UNL     1      -7.164  12.942  68.478  1.00  0.00    -0.107 C  
HETATM    2  C   UNL     1      -5.696  12.483  70.551  1.00  0.00    -0.170 C  
HETATM    3  C   UNL     1      -6.811  12.510  67.062  1.00  0.00     0.045 C  
HETATM    4  C   UNL     1      -5.372  12.043  67.259  1.00  0.00    -0.119 C  
HETATM    5  C   UNL     1      -6.454  11.781  69.388  1.00  0.00    -0.120 C  
HETATM    6  C   UNL     1      -7.305  10.688  70.141  1.00  0.00     0.151 C  
HETATM    7  C   UNL     1      -5.534  11.003  68.370  1.00  0.00    -0.043 C  
HETATM    8  C   UNL     1      -6.149   9.740  67.656  1.00  0.00    -0.051 C  
HETATM    9  C   UNL     1      -5.129   9.107  66.739  1.00  0.00    -0.034 C  
HETATM   10  C   UNL     1      -5.866   8.238  65.738  1.00  0.00    -0.041 C  
HETATM   11  C   UNL     1      -6.421   7.026  66.477  1.00  0.00    -0.051 C  
HETATM   12  C   UNL     1      -6.930   6.012  65.429  1.00  0.00    -0.063 C  
HETATM   13  C   UNL     1      -8.378   6.136  64.982  1.00  0.00    -0.112 C  
HETATM   14  O   UNL     1      -8.496   6.996  63.862  1.00  0.00    -0.347 OA 
HETATM   15  C   UNL     1      -9.341   6.557  66.093  1.00  0.00    -0.101 C  
HETATM   16  H   UNL     1      -9.400   7.073  63.582  1.00  0.00     0.000 HD 
HETATM   17  C   UNL     1      -8.824   7.660  67.042  1.00  0.00    -0.135 C  
HETATM   18  C   UNL     1      -7.408   7.411  67.648  1.00  0.00    -0.092 C  
HETATM   19  C   UNL     1      -7.511   6.187  68.594  1.00  0.00    -0.087 C  
HETATM   20  C   UNL     1      -6.827   8.675  68.538  1.00  0.00    -0.064 C  
HETATM   21  C   UNL     1      -7.852   9.423  69.427  1.00  0.00    -0.087 C  
ENDROOT
BRANCH   1  22
HETATM   22  C   UNL     1      -6.642  14.454  68.414  1.00  0.00    -0.104 C  
HETATM   23  C   UNL     1      -7.296  15.381  67.376  1.00  0.00    -0.244 C  
HETATM   24  O   UNL     1      -5.711  14.893  69.071  1.00  0.00    -0.094 OA 
ENDBRANCH   1  22
TORSDOF 1
ENDMDL
MODEL      109
REMARK 921   NORMALIZED FREE ENERGY PREDICTED BY IDOCK:   -1.54 KCAL/MOL
REMARK 922        TOTAL FREE ENERGY PREDICTED BY IDOCK:   -1.24 KCAL/MOL
REMARK 923 INTER-LIGAND FREE ENERGY PREDICTED BY IDOCK:   -1.92 KCAL/MOL
REMARK 924 INTRA-LIGAND FREE ENERGY PREDICTED BY IDOCK:    0.68 KCAL/MOL
REMARK 927      BINDING AFFINITY PREDICTED BY RF-SCORE:    0.00 PKD
ROOT
HETATM    1  C   UNL     1      -9.867   8.095  68.767  1.00  0.00    -0.181 C  
HETATM    2  C   UNL     1      -7.939   6.468  68.221  1.00  0.00    -0.110 C  
HETATM    3  C   UNL     1      -9.840   9.111  69.900  1.00  0.00    -0.206 C  
HETATM    4  C   UNL     1      -8.579   8.674  70.642  1.00  0.00    -0.183 C  
HETATM    5  C   UNL     1      -8.286   7.978  68.361  1.00  0.00    -0.127 C  
HETATM    6  C   UNL     1      -7.732   8.585  67.015  1.00  0.00    -0.092 C  
HETATM    7  C   UNL     1      -7.531   8.726  69.527  1.00  0.00    -0.075 C  
HETATM    8  C   UNL     1      -7.228  10.260  69.328  1.00  0.00    -0.093 C  
HETATM    9  C   UNL     1      -6.486  10.808  70.524  1.00  0.00    -0.000 C  
HETATM   10  C   UNL     1      -6.641  12.316  70.529  1.00  0.00     0.927 C  
HETATM   11  C   UNL     1      -5.832  12.882  69.367  1.00  0.00    -0.097 C  
HETATM   12  C   UNL     1      -5.764  14.417  69.529  1.00  0.00    -0.095 C  
HETATM   13  C   UNL     1      -6.868  15.238  68.880  1.00  0.00    -0.122 C  
HETATM   14  O   UNL     1      -7.953  15.428  69.771  1.00  0.00    -0.198 OA 
HETATM   15  C   UNL     1      -7.355  14.683  67.541  1.00  0.00    -0.220 C  
HETATM   16  H   UNL     1      -8.643  15.941  69.366  1.00  0.00     0.000 HD 
HETATM   17  C   UNL     1      -7.517  13.149  67.474  1.00  0.00    -0.164 C  
HETATM   18  C   UNL     1      -6.286  12.323  67.962  1.00  0.00    -0.073 C  
HETATM   19  C   UNL     1      -5.128  12.573  66.963  1.00  0.00     0.139 C  
HETATM   20  C   UNL     1      -6.549  10.694  68.016  1.00  0.00    -0.063 C  
HETATM   21  C   UNL     1      -7.387  10.090  66.861  1.00  0.00    -0.092 C  
ENDROOT
BRANCH   1  22
HETATM   22  C   UNL     1     -10.678   6.927  69.500  1.00  0.00    -0.246 C  
HETATM   23  C   UNL     1     -10.568   6.847  71.032  1.00  0.00    -0.244 C  
HETATM   24  O   UNL     1     -11.306   6.053  68.923  1.00  0.00    -0.307 OA 
ENDBRANCH   1  22
TORSDOF 1
ENDMDL
MODEL      110
REMARK 921   NORMALIZED FREE ENERGY PREDICTED BY IDOCK:   -1.51 KCAL/MOL
REMARK 922        TOTAL FREE ENERGY PREDICTED BY IDOCK:   -1.21 KCAL/MOL
REMARK 923 INTER-LIGAND FREE ENERGY PREDICTED BY IDOCK:   -1.57 KCAL/MOL
REMARK 924 INTRA-LIGAND FREE ENERGY PREDICTED BY IDOCK:    0.36 KCAL/MOL
REMARK 927      BINDING AFFINITY PREDICTED BY RF-SCORE:    0.00 PKD
ROOT
HETATM    1  C   UNL     1     -10.442   9.310  67.736  1.00  0.00    -0.313 C  
HETATM    2  C   UNL     1     -10.024   9.101  65.198  1.00  0.00     0.522 C  
HETATM    3  C   UNL     1      -9.351   9.546  68.771  1.00  0.00    -0.146 C  
HETATM    4  C   UNL     1      -8.102   9.352  67.915  1.00  0.00    -0.103 C  
HETATM    5  C   UNL     1      -9.839  10.057  66.411  1.00  0.00    -0.283 C  
HETATM    6  C   UNL     1     -10.446  11.411  65.879  1.00  0.00    -0.309 C  
HETATM    7  C   UNL     1      -8.338  10.364  66.791  1.00  0.00    -0.126 C  
HETATM    8  C   UNL     1      -8.026  11.767  67.437  1.00  0.00    -0.155 C  
HETATM    9  C   UNL     1      -6.548  11.900  67.715  1.00  0.00    -0.084 C  
HETATM   10  C   UNL     1      -6.354  12.998  68.742  1.00  0.00    -0.084 C  
HETATM   11  C   UNL     1      -6.673  14.333  68.078  1.00  0.00    -0.154 C  
HETATM   12  C   UNL     1      -6.219  15.464  69.027  1.00  0.00    -0.105 C  
HETATM   13  C   UNL     1      -7.230  15.972  70.043  1.00  0.00     0.393 C  
HETATM   14  O   UNL     1      -7.146  15.243  71.255  1.00  0.00     1.007 OA 
HETATM   15  C   UNL     1      -8.669  16.007  69.529  1.00  0.00    -0.044 C  
HETATM   16  H   UNL     1      -7.777  15.559  71.890  1.00  0.00     0.000 HD 
HETATM   17  C   UNL     1      -9.105  14.791  68.683  1.00  0.00    -0.186 C  
HETATM   18  C   UNL     1      -8.145  14.411  67.513  1.00  0.00    -0.204 C  
HETATM   19  C   UNL     1      -8.188  15.563  66.477  1.00  0.00    -0.167 C  
HETATM   20  C   UNL     1      -8.565  13.022  66.725  1.00  0.00    -0.061 C  
HETATM   21  C   UNL     1     -10.079  12.787  66.496  1.00  0.00    -0.264 C  
ENDROOT
BRANCH   1  22
HETATM   22  C   UNL     1     -10.571   7.720  67.870  1.00  0.00    -0.156 C  
HETATM   23  C   UNL     1     -10.261   7.101  69.243  1.00  0.00    -0.193 C  
HETATM   24  O   UNL     1     -10.818   6.966  66.942  1.00  0.00    -0.351 OA 
ENDBRANCH   1  22
TORSDOF 1
ENDMDL
MODEL      111
REMARK 921   NORMALIZED FREE ENERGY PREDICTED BY IDOCK:    1.16 KCAL/MOL
REMARK 922        TOTAL FREE ENERGY PREDICTED BY IDOCK:    1.62 KCAL/MOL
REMARK 923 INTER-LIGAND FREE ENERGY PREDICTED BY IDOCK:    1.03 KCAL/MOL
REMARK 924 INTRA-LIGAND FREE ENERGY PREDICTED BY IDOCK:    0.59 KCAL/MOL
REMARK 927      BINDING AFFINITY PREDICTED BY RF-SCORE:    0.00 PKD
ROOT
HETATM    1  C   UNL     1      -6.763  13.160  67.514  1.00  0.00    -0.159 C  
HETATM    2  C   UNL     1      -9.210  13.978  67.484  1.00  0.00    -0.197 C  
HETATM    3  C   UNL     1      -6.280  11.918  68.250  1.00  0.00    -0.050 C  
HETATM    4  C   UNL     1      -7.525  11.569  69.062  1.00  0.00    -0.073 C  
HETATM    5  C   UNL     1      -8.303  12.765  67.129  1.00  0.00    -0.164 C  
HETATM    6  C   UNL     1      -8.726  12.440  65.645  1.00  0.00     0.676 C  
HETATM    7  C   UNL     1      -8.588  11.458  67.966  1.00  0.00    -0.147 C  
HETATM    8  C   UNL     1      -8.305  10.074  67.267  1.00  0.00    -0.121 C  
HETATM    9  C   UNL     1      -8.650   8.935  68.198  1.00  0.00    -0.130 C  
HETATM   10  C   UNL     1      -7.935   7.691  67.712  1.00  0.00    -0.121 C  
HETATM   11  C   UNL     1      -8.588   7.244  66.409  1.00  0.00    -0.141 C  
HETATM   12  C   UNL     1      -8.051   5.839  66.057  1.00  0.00    -0.110 C  
HETATM   13  C   UNL     1      -6.794   5.765  65.203  1.00  0.00    -0.051 C  
HETATM   14  O   UNL     1      -5.629   5.751  66.009  1.00  0.00    -0.012 OA 
HETATM   15  C   UNL     1      -6.702   6.853  64.132  1.00  0.00    -0.045 C  
HETATM   16  H   UNL     1      -4.844   5.705  65.475  1.00  0.00     0.000 HD 
HETATM   17  C   UNL     1      -7.142   8.265  64.577  1.00  0.00    -0.077 C  
HETATM   18  C   UNL     1      -8.534   8.343  65.277  1.00  0.00    -0.189 C  
HETATM   19  C   UNL     1      -9.611   7.981  64.222  1.00  0.00     2.577 C  
HETATM   20  C   UNL     1      -8.906   9.839  65.869  1.00  0.00    -0.175 C  
HETATM   21  C   UNL     1      -8.488  11.050  64.997  1.00  0.00     0.074 C  
ENDROOT
BRANCH   1  22
HETATM   22  C   UNL     1      -6.382  14.262  68.610  1.00  0.00    -0.088 C  
HETATM   23  C   UNL     1      -5.941  13.757  69.994  1.00  0.00    -0.144 C  
HETATM   24  O   UNL     1      -6.497  15.467  68.448  1.00  0.00    -0.102 OA 
ENDBRANCH   1  22
TORSDOF 1
ENDMDL
MODEL      112
REMARK 921   NORMALIZED FREE ENERGY PREDICTED BY IDOCK:    1.56 KCAL/MOL
REMARK 922        TOTAL FREE ENERGY PREDICTED BY IDOCK:    2.04 KCAL/MOL
REMARK 923 INTER-LIGAND FREE ENERGY PREDICTED BY IDOCK:    1.67 KCAL/MOL
REMARK 924 INTRA-LIGAND FREE ENERGY PREDICTED BY IDOCK:    0.37 KCAL/MOL
REMARK 927      BINDING AFFINITY PREDICTED BY RF-SCORE:    0.00 PKD
ROOT
HETATM    1  C   UNL     1     -10.654  13.580  64.262  1.00  0.00    -0.304 C  
HETATM    2  C   UNL     1     -11.379  11.136  63.863  1.00  0.00     0.063 C  
HETATM    3  C   UNL     1     -10.751  14.299  65.600  1.00  0.00    -0.321 C  
HETATM    4  C   UNL     1     -11.571  13.292  66.403  1.00  0.00    -0.387 C  
HETATM    5  C   UNL     1     -10.426  12.024  64.714  1.00  0.00    -0.335 C  
HETATM    6  C   UNL     1      -9.033  11.307  64.532  1.00  0.00     0.085 C  
HETATM    7  C   UNL     1     -10.725  12.023  66.263  1.00  0.00    -0.302 C  
HETATM    8  C   UNL     1      -9.505  12.240  67.237  1.00  0.00    -0.186 C  
HETATM    9  C   UNL     1      -9.965  12.189  68.674  1.00  0.00    -0.137 C  
HETATM   10  C   UNL     1      -8.915  12.865  69.534  1.00  0.00     1.616 C  
HETATM   11  C   UNL     1      -7.680  11.972  69.565  1.00  0.00     0.650 C  
HETATM   12  C   UNL     1      -6.719  12.515  70.647  1.00  0.00     1.524 C  
HETATM   13  C   UNL     1      -5.696  13.554  70.215  1.00  0.00    -0.150 C  
HETATM   14  O   UNL     1      -6.212  14.866  70.350  1.00  0.00    -0.162 OA 
HETATM   15  C   UNL     1      -5.135  13.332  68.810  1.00  0.00    -0.071 C  
HETATM   16  H   UNL     1      -5.573  15.516  70.080  1.00  0.00     0.000 HD 
HETATM   17  C   UNL     1      -6.163  12.904  67.741  1.00  0.00    -0.144 C  
HETATM   18  C   UNL     1      -7.073  11.699  68.133  1.00  0.00    -0.078 C  
HETATM   19  C   UNL     1      -6.170  10.443  68.240  1.00  0.00    -0.051 C  
HETATM   20  C   UNL     1      -8.256  11.363  67.030  1.00  0.00    -0.160 C  
HETATM   21  C   UNL     1      -7.865  11.493  65.537  1.00  0.00     0.633 C  
ENDROOT
BRANCH   1  22
HETATM   22  C   UNL     1     -12.006  14.116  63.594  1.00  0.00     0.032 C  
HETATM   23  C   UNL     1     -12.523  15.489  64.053  1.00  0.00     0.275 C  
HETATM   24  O   UNL     1     -12.692  13.476  62.812  1.00  0.00    -0.419 OA 
ENDBRANCH   1  22
TORSDOF 1
ENDMDL
MODEL      113
REMARK 921   NORMALIZED FREE ENERGY PREDICTED BY IDOCK:    2.25 KCAL/MOL
REMARK 922        TOTAL FREE ENERGY PREDICTED BY IDOCK:    2.78 KCAL/MOL
REMARK 923 INTER-LIGAND FREE ENERGY PREDICTED BY IDOCK:    2.50 KCAL/MOL
REMARK 924 INTRA-LIGAND FREE ENERGY PREDICTED BY IDOCK:    0.28 KCAL/MOL
REMARK 927      BINDING AFFINITY PREDICTED BY RF-SCORE:    0.00 PKD
ROOT
HETATM    1  C   UNL     1      -7.722   7.286  69.289  1.00  0.00    -0.107 C  
HETATM    2  C   UNL     1      -7.612   8.839  71.347  1.00  0.00    -0.131 C  
HETATM    3  C   UNL     1      -8.879   7.247  68.301  1.00  0.00    -0.127 C  
HETATM    4  C   UNL     1      -9.902   8.116  69.029  1.00  0.00    -0.176 C  
HETATM    5  C   UNL     1      -7.743   8.841  69.796  1.00  0.00    -0.084 C  
HETATM    6  C   UNL     1      -6.630   9.868  69.357  1.00  0.00    -0.051 C  
HETATM    7  C   UNL     1      -9.110   9.408  69.247  1.00  0.00    -0.152 C  
HETATM    8  C   UNL     1      -9.088  10.113  67.838  1.00  0.00    -0.133 C  
HETATM    9  C   UNL     1     -10.468  10.611  67.479  1.00  0.00    -0.272 C  
HETATM   10  C   UNL     1     -10.520  10.828  65.979  1.00  0.00    -0.273 C  
HETATM   11  C   UNL     1      -9.650  12.033  65.642  1.00  0.00    -0.205 C  
HETATM   12  C   UNL     1      -9.913  12.421  64.170  1.00  0.00    -0.244 C  
HETATM   13  C   UNL     1      -9.045  11.765  63.107  1.00  0.00     0.177 C  
HETATM   14  O   UNL     1      -9.625  10.558  62.647  1.00  0.00    -0.373 OA 
HETATM   15  C   UNL     1      -7.594  11.542  63.537  1.00  0.00     1.672 C  
HETATM   16  H   UNL     1      -9.083  10.148  61.983  1.00  0.00     0.000 HD 
HETATM   17  C   UNL     1      -7.397  11.040  64.984  1.00  0.00     0.483 C  
HETATM   18  C   UNL     1      -8.144  11.857  66.084  1.00  0.00     0.290 C  
HETATM   19  C   UNL     1      -7.504  13.268  66.137  1.00  0.00     2.699 C  
HETATM   20  C   UNL     1      -8.031  11.206  67.597  1.00  0.00    -0.116 C  
HETATM   21  C   UNL     1      -6.662  10.593  67.985  1.00  0.00    -0.064 C  
ENDROOT
BRANCH   1  22
HETATM   22  C   UNL     1      -8.144   6.050  70.214  1.00  0.00    -0.111 C  
HETATM   23  C   UNL     1      -7.281   4.780  70.131  1.00  0.00    -0.050 C  
HETATM   24  O   UNL     1      -9.145   6.020  70.912  1.00  0.00    -0.151 OA 
ENDBRANCH   1  22
TORSDOF 1
ENDMDL
MODEL      114
REMARK 921   NORMALIZED FREE ENERGY PREDICTED BY IDOCK:    4.42 KCAL/MOL
REMARK 922        TOTAL FREE ENERGY PREDICTED BY IDOCK:    5.07 KCAL/MOL
REMARK 923 INTER-LIGAND FREE ENERGY PREDICTED BY IDOCK:    4.85 KCAL/MOL
REMARK 924 INTRA-LIGAND FREE ENERGY PREDICTED BY IDOCK:    0.22 KCAL/MOL
REMARK 927      BINDING AFFINITY PREDICTED BY RF-SCORE:    0.00 PKD
ROOT
HETATM    1  C   UNL     1      -8.787  18.797  66.772  1.00  0.00    -0.307 C  
HETATM    2  C   UNL     1      -6.985  19.312  68.546  1.00  0.00    -0.329 C  
HETATM    3  C   UNL     1      -9.063  17.412  66.203  1.00  0.00    -0.177 C  
HETATM    4  C   UNL     1      -7.876  16.634  66.765  1.00  0.00    -0.290 C  
HETATM    5  C   UNL     1      -8.258  18.457  68.283  1.00  0.00    -0.317 C  
HETATM    6  C   UNL     1      -9.142  18.756  69.554  1.00  0.00     0.428 C  
HETATM    7  C   UNL     1      -8.018  16.898  68.267  1.00  0.00    -0.211 C  
HETATM    8  C   UNL     1      -9.210  15.976  68.730  1.00  0.00    -0.224 C  
HETATM    9  C   UNL     1      -8.802  14.523  68.673  1.00  0.00    -0.180 C  
HETATM   10  C   UNL     1     -10.060  13.678  68.644  1.00  0.00    -0.182 C  
HETATM   11  C   UNL     1     -10.725  13.767  70.013  1.00  0.00     0.566 C  
HETATM   12  C   UNL     1     -11.844  12.704  70.075  1.00  0.00    -0.358 C  
HETATM   13  C   UNL     1     -13.232  13.120  69.611  1.00  0.00     1.718 C  
HETATM   14  O   UNL     1     -13.401  12.876  68.226  1.00  0.00     2.366 OA 
HETATM   15  C   UNL     1     -13.599  14.564  69.957  1.00  0.00     1.141 C  
HETATM   16  H   UNL     1     -14.267  13.136  67.935  1.00  0.00     0.000 HD 
HETATM   17  C   UNL     1     -12.474  15.604  69.763  1.00  0.00    -0.130 C  
HETATM   18  C   UNL     1     -11.107  15.243  70.424  1.00  0.00    -0.324 C  
HETATM   19  C   UNL     1     -11.309  15.262  71.961  1.00  0.00    -0.431 C  
HETATM   20  C   UNL     1      -9.890  16.302  70.072  1.00  0.00     0.332 C  
HETATM   21  C   UNL     1     -10.273  17.803  70.023  1.00  0.00     0.839 C  
ENDROOT
BRANCH   1  22
HETATM   22  C   UNL     1      -7.841  19.359  65.611  1.00  0.00     0.048 C  
HETATM   23  C   UNL     1      -7.967  20.850  65.259  1.00  0.00     1.067 C  
HETATM   24  O   UNL     1      -7.091  18.670  64.936  1.00  0.00    -0.195 OA 
ENDBRANCH   1  22
TORSDOF 1
ENDMDL
MODEL      115
REMARK 921   NORMALIZED FREE ENERGY PREDICTED BY IDOCK:    4.76 KCAL/MOL
REMARK 922        TOTAL FREE ENERGY PREDICTED BY IDOCK:    5.43 KCAL/MOL
REMARK 923 INTER-LIGAND FREE ENERGY PREDICTED BY IDOCK:    5.08 KCAL/MOL
REMARK 924 INTRA-LIGAND FREE ENERGY PREDICTED BY IDOCK:    0.36 KCAL/MOL
REMARK 927      BINDING AFFINITY PREDICTED BY RF-SCORE:    0.00 PKD
ROOT
HETATM    1  C   UNL     1     -12.974  11.361  70.822  1.00  0.00    -0.135 C  
HETATM    2  C   UNL     1     -13.576   9.541  72.550  1.00  0.00    -0.381 C  
HETATM    3  C   UNL     1     -11.563  11.872  70.569  1.00  0.00     0.088 C  
HETATM    4  C   UNL     1     -10.814  11.223  71.729  1.00  0.00     5.382 C  
HETATM    5  C   UNL     1     -12.709   9.815  71.287  1.00  0.00    -0.464 C  
HETATM    6  C   UNL     1     -13.069   8.598  70.352  1.00  0.00     1.048 C  
HETATM    7  C   UNL     1     -11.151   9.744  71.525  1.00  0.00    -0.222 C  
HETATM    8  C   UNL     1     -10.253   9.287  70.314  1.00  0.00    -0.270 C  
HETATM    9  C   UNL     1      -8.799   9.255  70.721  1.00  0.00    -0.282 C  
HETATM   10  C   UNL     1      -7.952   9.295  69.464  1.00  0.00    -0.098 C  
HETATM   11  C   UNL     1      -8.108   7.962  68.742  1.00  0.00    -0.126 C  
HETATM   12  C   UNL     1      -7.049   7.894  67.619  1.00  0.00    -0.083 C  
HETATM   13  C   UNL     1      -7.442   8.436  66.254  1.00  0.00    -0.089 C  
HETATM   14  O   UNL     1      -7.130   9.814  66.142  1.00  0.00    -0.093 OA 
HETATM   15  C   UNL     1      -8.900   8.176  65.875  1.00  0.00    -0.194 C  
HETATM   16  H   UNL     1      -7.375  10.152  65.289  1.00  0.00     0.000 HD 
HETATM   17  C   UNL     1      -9.930   8.374  67.008  1.00  0.00    -0.323 C  
HETATM   18  C   UNL     1      -9.602   7.640  68.345  1.00  0.00    -0.155 C  
HETATM   19  C   UNL     1      -9.697   6.116  68.079  1.00  0.00    -0.122 C  
HETATM   20  C   UNL     1     -10.644   7.992  69.578  1.00  0.00    -0.216 C  
HETATM   21  C   UNL     1     -12.140   8.131  69.200  1.00  0.00     2.221 C  
ENDROOT
BRANCH   1  22
HETATM   22  C   UNL     1     -13.479  12.508  71.818  1.00  0.00    -0.187 C  
HETATM   23  C   UNL     1     -12.889  13.915  71.629  1.00  0.00    -0.432 C  
HETATM   24  O   UNL     1     -14.232  12.322  72.761  1.00  0.00     0.208 OA 
ENDBRANCH   1  22
TORSDOF 1
ENDMDL
MODEL      116
REMARK 921   NORMALIZED FREE ENERGY PREDICTED BY IDOCK:    5.13 KCAL/MOL
REMARK 922        TOTAL FREE ENERGY PREDICTED BY IDOCK:    5.82 KCAL/MOL
REMARK 923 INTER-LIGAND FREE ENERGY PREDICTED BY IDOCK:    5.61 KCAL/MOL
REMARK 924 INTRA-LIGAND FREE ENERGY PREDICTED BY IDOCK:    0.22 KCAL/MOL
REMARK 927      BINDING AFFINITY PREDICTED BY RF-SCORE:    0.00 PKD
ROOT
HETATM    1  C   UNL     1      -7.593  19.241  66.208  1.00  0.00    -0.289 C  
HETATM    2  C   UNL     1      -9.285  20.798  65.037  1.00  0.00     1.566 C  
HETATM    3  C   UNL     1      -7.734  18.738  67.638  1.00  0.00    -0.252 C  
HETATM    4  C   UNL     1      -8.900  19.594  68.125  1.00  0.00    -0.370 C  
HETATM    5  C   UNL     1      -9.152  19.418  65.742  1.00  0.00     0.185 C  
HETATM    6  C   UNL     1      -9.821  18.435  64.706  1.00  0.00     3.777 C  
HETATM    7  C   UNL     1      -9.974  19.276  67.081  1.00  0.00    -0.452 C  
HETATM    8  C   UNL     1     -10.496  17.839  67.463  1.00  0.00    -0.376 C  
HETATM    9  C   UNL     1     -11.276  17.889  68.755  1.00  0.00     0.967 C  
HETATM   10  C   UNL     1     -11.336  16.488  69.329  1.00  0.00    -0.133 C  
HETATM   11  C   UNL     1     -12.247  15.648  68.442  1.00  0.00     0.249 C  
HETATM   12  C   UNL     1     -12.528  14.312  69.164  1.00  0.00    -0.011 C  
HETATM   13  C   UNL     1     -11.568  13.161  68.903  1.00  0.00    -0.311 C  
HETATM   14  O   UNL     1     -10.498  13.167  69.831  1.00  0.00     0.116 OA 
HETATM   15  C   UNL     1     -11.043  13.099  67.468  1.00  0.00    -0.296 C  
HETATM   16  H   UNL     1      -9.899  12.449  69.668  1.00  0.00     0.000 HD 
HETATM   17  C   UNL     1     -10.667  14.456  66.836  1.00  0.00    -0.292 C  
HETATM   18  C   UNL     1     -11.756  15.569  66.943  1.00  0.00     0.218 C  
HETATM   19  C   UNL     1     -12.964  15.128  66.077  1.00  0.00     1.347 C  
HETATM   20  C   UNL     1     -11.264  17.045  66.390  1.00  0.00     0.605 C  
HETATM   21  C   UNL     1     -10.379  17.047  65.118  1.00  0.00     0.173 C  
ENDROOT
BRANCH   1  22
HETATM   22  C   UNL     1      -6.606  20.472  66.474  1.00  0.00    -0.247 C  
HETATM   23  C   UNL     1      -5.651  20.867  65.336  1.00  0.00    -0.261 C  
HETATM   24  O   UNL     1      -6.505  21.060  67.539  1.00  0.00    -0.304 OA 
ENDBRANCH   1  22
TORSDOF 1
ENDMDL
MODEL      117
REMARK 921   NORMALIZED FREE ENERGY PREDICTED BY IDOCK:    7.37 KCAL/MOL
REMARK 922        TOTAL FREE ENERGY PREDICTED BY IDOCK:    8.19 KCAL/MOL
REMARK 923 INTER-LIGAND FREE ENERGY PREDICTED BY IDOCK:    7.39 KCAL/MOL
REMARK 924 INTRA-LIGAND FREE ENERGY PREDICTED BY IDOCK:    0.81 KCAL/MOL
REMARK 927      BINDING AFFINITY PREDICTED BY RF-SCORE:    0.00 PKD
ROOT
HETATM    1  C   UNL     1      -7.510  11.127  68.130  1.00  0.00    -0.093 C  
HETATM    2  C   UNL     1      -5.739  12.398  69.513  1.00  0.00    -0.096 C  
HETATM    3  C   UNL     1      -7.443   9.643  67.803  1.00  0.00    -0.087 C  
HETATM    4  C   UNL     1      -6.028   9.313  68.272  1.00  0.00    -0.045 C  
HETATM    5  C   UNL     1      -6.738  11.206  69.571  1.00  0.00    -0.132 C  
HETATM    6  C   UNL     1      -7.520  11.477  70.913  1.00  0.00     4.069 C  
HETATM    7  C   UNL     1      -6.068   9.786  69.728  1.00  0.00    -0.043 C  
HETATM    8  C   UNL     1      -6.887   8.678  70.492  1.00  0.00    -0.042 C  
HETATM    9  C   UNL     1      -6.092   7.396  70.568  1.00  0.00    -0.031 C  
HETATM   10  C   UNL     1      -7.052   6.258  70.851  1.00  0.00    -0.070 C  
HETATM   11  C   UNL     1      -7.556   6.404  72.283  1.00  0.00    -0.097 C  
HETATM   12  C   UNL     1      -8.311   5.111  72.663  1.00  0.00    -0.113 C  
HETATM   13  C   UNL     1      -9.803   5.061  72.370  1.00  0.00    -0.169 C  
HETATM   14  O   UNL     1     -10.052   4.546  71.074  1.00  0.00    -0.198 OA 
HETATM   15  C   UNL     1     -10.524   6.395  72.572  1.00  0.00    -0.225 C  
HETATM   16  H   UNL     1     -10.984   4.514  70.891  1.00  0.00     0.000 HD 
HETATM   17  C   UNL     1      -9.771   7.644  72.065  1.00  0.00    -0.209 C  
HETATM   18  C   UNL     1      -8.293   7.775  72.546  1.00  0.00    -0.170 C  
HETATM   19  C   UNL     1      -8.316   8.007  74.079  1.00  0.00    -0.323 C  
HETATM   20  C   UNL     1      -7.476   9.040  71.868  1.00  0.00     0.122 C  
HETATM   21  C   UNL     1      -8.273  10.355  71.678  1.00  0.00     4.578 C  
ENDROOT
BRANCH   1  22
HETATM   22  C   UNL     1      -6.901  11.709  66.770  1.00  0.00    -0.086 C  
HETATM   23  C   UNL     1      -5.813  12.789  66.890  1.00  0.00     0.577 C  
HETATM   24  O   UNL     1      -7.298  11.415  65.653  1.00  0.00     0.269 OA 
ENDBRANCH   1  22
TORSDOF 1
ENDMDL
MODEL      118
REMARK 921   NORMALIZED FREE ENERGY PREDICTED BY IDOCK:   10.59 KCAL/MOL
REMARK 922        TOTAL FREE ENERGY PREDICTED BY IDOCK:   11.61 KCAL/MOL
REMARK 923 INTER-LIGAND FREE ENERGY PREDICTED BY IDOCK:   11.30 KCAL/MOL
REMARK 924 INTRA-LIGAND FREE ENERGY PREDICTED BY IDOCK:    0.30 KCAL/MOL
REMARK 927      BINDING AFFINITY PREDICTED BY RF-SCORE:    0.00 PKD
ROOT
HETATM    1  C   UNL     1     -12.477  12.679  71.358  1.00  0.00    -0.209 C  
HETATM    2  C   UNL     1     -11.059  14.648  72.238  1.00  0.00     0.989 C  
HETATM    3  C   UNL     1     -13.317  12.724  70.090  1.00  0.00     1.408 C  
HETATM    4  C   UNL     1     -13.246  14.211  69.755  1.00  0.00     0.960 C  
HETATM    5  C   UNL     1     -11.258  13.714  71.009  1.00  0.00     1.423 C  
HETATM    6  C   UNL     1      -9.794  13.200  70.726  1.00  0.00     6.262 C  
HETATM    7  C   UNL     1     -11.733  14.442  69.693  1.00  0.00    -0.362 C  
HETATM    8  C   UNL     1     -11.285  13.818  68.317  1.00  0.00    -0.301 C  
HETATM    9  C   UNL     1     -11.807  14.649  67.169  1.00  0.00    -0.367 C  
HETATM   10  C   UNL     1     -11.788  13.794  65.917  1.00  0.00    -0.405 C  
HETATM   11  C   UNL     1     -10.334  13.574  65.513  1.00  0.00    -0.309 C  
HETATM   12  C   UNL     1     -10.315  12.944  64.103  1.00  0.00    -0.385 C  
HETATM   13  C   UNL     1     -10.346  11.426  64.015  1.00  0.00    -0.362 C  
HETATM   14  O   UNL     1     -11.677  10.945  63.955  1.00  0.00     0.114 OA 
HETATM   15  C   UNL     1      -9.562  10.720  65.123  1.00  0.00    -0.295 C  
HETATM   16  H   UNL     1     -11.697   9.996  63.901  1.00  0.00     0.000 HD 
HETATM   17  C   UNL     1      -9.713  11.324  66.536  1.00  0.00    -0.230 C  
HETATM   18  C   UNL     1      -9.478  12.864  66.634  1.00  0.00    -0.255 C  
HETATM   19  C   UNL     1      -7.984  13.132  66.321  1.00  0.00     1.250 C  
HETATM   20  C   UNL     1      -9.791  13.497  68.126  1.00  0.00    -0.237 C  
HETATM   21  C   UNL     1      -9.362  12.642  69.344  1.00  0.00     1.200 C  
ENDROOT
BRANCH   1  22
HETATM   22  C   UNL     1     -13.625  12.996  72.427  1.00  0.00    -0.529 C  
HETATM   23  C   UNL     1     -14.408  11.801  72.995  1.00  0.00     2.580 C  
HETATM   24  O   UNL     1     -13.971  14.120  72.757  1.00  0.00    -0.638 OA 
ENDBRANCH   1  22
TORSDOF 1
ENDMDL
MODEL      119
REMARK 921   NORMALIZED FREE ENERGY PREDICTED BY IDOCK:   13.82 KCAL/MOL
REMARK 922        TOTAL FREE ENERGY PREDICTED BY IDOCK:   15.02 KCAL/MOL
REMARK 923 INTER-LIGAND FREE ENERGY PREDICTED BY IDOCK:   14.64 KCAL/MOL
REMARK 924 INTRA-LIGAND FREE ENERGY PREDICTED BY IDOCK:    0.38 KCAL/MOL
REMARK 927      BINDING AFFINITY PREDICTED BY RF-SCORE:    0.00 PKD
ROOT
HETATM    1  C   UNL     1      -7.470  14.758  67.311  1.00  0.00    -0.173 C  
HETATM    2  C   UNL     1      -7.164  17.280  66.854  1.00  0.00    -0.235 C  
HETATM    3  C   UNL     1      -7.500  14.133  68.698  1.00  0.00    -0.125 C  
HETATM    4  C   UNL     1      -7.063  15.320  69.553  1.00  0.00    -0.201 C  
HETATM    5  C   UNL     1      -8.077  16.253  67.585  1.00  0.00    -0.161 C  
HETATM    6  C   UNL     1      -9.518  16.662  67.093  1.00  0.00    -0.236 C  
HETATM    7  C   UNL     1      -8.092  16.382  69.157  1.00  0.00    -0.198 C  
HETATM    8  C   UNL     1      -9.414  15.963  69.905  1.00  0.00     0.113 C  
HETATM    9  C   UNL     1      -9.263  16.169  71.394  1.00  0.00     5.043 C  
HETATM   10  C   UNL     1     -10.311  15.331  72.099  1.00  0.00     1.970 C  
HETATM   11  C   UNL     1     -11.677  15.953  71.831  1.00  0.00    -0.590 C  
HETATM   12  C   UNL     1     -12.708  15.273  72.759  1.00  0.00    -0.495 C  
HETATM   13  C   UNL     1     -13.408  14.029  72.233  1.00  0.00    -0.478 C  
HETATM   14  O   UNL     1     -12.686  12.857  72.566  1.00  0.00    -0.015 OA 
HETATM   15  C   UNL     1     -13.716  14.071  70.736  1.00  0.00     0.248 C  
HETATM   16  H   UNL     1     -13.124  12.080  72.238  1.00  0.00     0.000 HD 
HETATM   17  C   UNL     1     -12.599  14.654  69.842  1.00  0.00    -0.223 C  
HETATM   18  C   UNL     1     -12.032  16.035  70.294  1.00  0.00    -0.226 C  
HETATM   19  C   UNL     1     -13.163  17.083  70.132  1.00  0.00     7.554 C  
HETATM   20  C   UNL     1     -10.743  16.557  69.403  1.00  0.00    -0.330 C  
HETATM   21  C   UNL     1     -10.802  16.286  67.879  1.00  0.00    -0.330 C  
ENDROOT
BRANCH   1  22
HETATM   22  C   UNL     1      -5.936  14.482  66.947  1.00  0.00     1.638 C  
HETATM   23  C   UNL     1      -5.257  13.281  67.626  1.00  0.00    -0.026 C  
HETATM   24  O   UNL     1      -5.253  15.203  66.237  1.00  0.00     2.117 OA 
ENDBRANCH   1  22
TORSDOF 1
ENDMDL
MODEL      120
REMARK 921   NORMALIZED FREE ENERGY PREDICTED BY IDOCK:   16.03 KCAL/MOL
REMARK 922        TOTAL FREE ENERGY PREDICTED BY IDOCK:   17.36 KCAL/MOL
REMARK 923 INTER-LIGAND FREE ENERGY PREDICTED BY IDOCK:   17.12 KCAL/MOL
REMARK 924 INTRA-LIGAND FREE ENERGY PREDICTED BY IDOCK:    0.23 KCAL/MOL
REMARK 927      BINDING AFFINITY PREDICTED BY RF-SCORE:    0.00 PKD
ROOT
HETATM    1  C   UNL     1     -12.076  16.441  71.299  1.00  0.00     0.056 C  
HETATM    2  C   UNL     1     -10.630  14.342  71.704  1.00  0.00     2.415 C  
HETATM    3  C   UNL     1     -11.520  17.846  71.116  1.00  0.00     3.637 C  
HETATM    4  C   UNL     1     -10.058  17.623  71.490  1.00  0.00     4.852 C  
HETATM    5  C   UNL     1     -10.874  15.506  70.700  1.00  0.00    -0.333 C  
HETATM    6  C   UNL     1     -11.024  14.750  69.325  1.00  0.00    -0.275 C  
HETATM    7  C   UNL     1      -9.661  16.500  70.529  1.00  0.00     2.010 C  
HETATM    8  C   UNL     1      -9.493  17.205  69.129  1.00  0.00    -0.085 C  
HETATM    9  C   UNL     1      -8.276  18.099  69.135  1.00  0.00     0.074 C  
HETATM   10  C   UNL     1      -8.415  19.098  68.003  1.00  0.00    -0.345 C  
HETATM   11  C   UNL     1      -8.252  18.349  66.685  1.00  0.00    -0.283 C  
HETATM   12  C   UNL     1      -8.121  19.391  65.551  1.00  0.00     0.389 C  
HETATM   13  C   UNL     1      -9.404  19.860  64.881  1.00  0.00     2.248 C  
HETATM   14  O   UNL     1      -9.940  20.993  65.540  1.00  0.00     0.280 OA 
HETATM   15  C   UNL     1     -10.463  18.768  64.727  1.00  0.00     2.632 C  
HETATM   16  H   UNL     1     -10.741  21.286  65.122  1.00  0.00     0.000 HD 
HETATM   17  C   UNL     1     -10.633  17.827  65.940  1.00  0.00    -0.205 C  
HETATM   18  C   UNL     1      -9.315  17.198  66.488  1.00  0.00    -0.286 C  
HETATM   19  C   UNL     1      -8.766  16.236  65.402  1.00  0.00     1.236 C  
HETATM   20  C   UNL     1      -9.515  16.318  67.871  1.00  0.00    -0.218 C  
HETATM   21  C   UNL     1     -10.798  15.453  67.960  1.00  0.00    -0.292 C  
ENDROOT
BRANCH   1  22
HETATM   22  C   UNL     1     -12.441  16.519  72.856  1.00  0.00    -0.139 C  
HETATM   23  C   UNL     1     -13.440  15.485  73.398  1.00  0.00    -0.394 C  
HETATM   24  O   UNL     1     -12.044  17.389  73.616  1.00  0.00     0.148 OA 
ENDBRANCH   1  22
TORSDOF 1
ENDMDL
MODEL      121
REMARK 921   NORMALIZED FREE ENERGY PREDICTED BY IDOCK:   16.42 KCAL/MOL
REMARK 922        TOTAL FREE ENERGY PREDICTED BY IDOCK:   17.77 KCAL/MOL
REMARK 923 INTER-LIGAND FREE ENERGY PREDICTED BY IDOCK:   17.54 KCAL/MOL
REMARK 924 INTRA-LIGAND FREE ENERGY PREDICTED BY IDOCK:    0.23 KCAL/MOL
REMARK 927      BINDING AFFINITY PREDICTED BY RF-SCORE:    0.00 PKD
ROOT
HETATM    1  C   UNL     1     -12.017  12.260  70.680  1.00  0.00    -0.218 C  
HETATM    2  C   UNL     1     -11.252  13.816  72.591  1.00  0.00     3.848 C  
HETATM    3  C   UNL     1     -13.023  12.649  69.606  1.00  0.00     1.126 C  
HETATM    4  C   UNL     1     -13.537  13.973  70.164  1.00  0.00     1.189 C  
HETATM    5  C   UNL     1     -11.317  13.694  71.041  1.00  0.00     1.082 C  
HETATM    6  C   UNL     1      -9.838  14.024  70.607  1.00  0.00     3.027 C  
HETATM    7  C   UNL     1     -12.236  14.763  70.331  1.00  0.00    -0.395 C  
HETATM    8  C   UNL     1     -11.839  15.203  68.871  1.00  0.00    -0.337 C  
HETATM    9  C   UNL     1     -12.808  16.241  68.355  1.00  0.00     2.524 C  
HETATM   10  C   UNL     1     -12.704  16.277  66.843  1.00  0.00     3.639 C  
HETATM   11  C   UNL     1     -11.358  16.888  66.472  1.00  0.00     0.773 C  
HETATM   12  C   UNL     1     -11.360  17.177  64.955  1.00  0.00     0.599 C  
HETATM   13  C   UNL     1     -10.871  16.071  64.032  1.00  0.00     1.267 C  
HETATM   14  O   UNL     1     -11.938  15.228  63.635  1.00  0.00    -0.826 OA 
HETATM   15  C   UNL     1      -9.713  15.250  64.600  1.00  0.00     1.173 C  
HETATM   16  H   UNL     1     -11.633  14.537  63.058  1.00  0.00     0.000 HD 
HETATM   17  C   UNL     1      -9.822  14.890  66.098  1.00  0.00    -0.332 C  
HETATM   18  C   UNL     1     -10.129  16.085  67.053  1.00  0.00    -0.271 C  
HETATM   19  C   UNL     1      -8.900  17.030  67.032  1.00  0.00    -0.242 C  
HETATM   20  C   UNL     1     -10.384  15.641  68.623  1.00  0.00    -0.216 C  
HETATM   21  C   UNL     1      -9.480  14.512  69.178  1.00  0.00    -0.017 C  
ENDROOT
BRANCH   1  22
HETATM   22  C   UNL     1     -13.002  11.483  71.673  1.00  0.00    -0.394 C  
HETATM   23  C   UNL     1     -12.497  10.162  72.275  1.00  0.00     0.083 C  
HETATM   24  O   UNL     1     -14.149  11.825  71.918  1.00  0.00     0.454 OA 
ENDBRANCH   1  22
TORSDOF 1
ENDMDL
MODEL      122
REMARK 921   NORMALIZED FREE ENERGY PREDICTED BY IDOCK:   19.99 KCAL/MOL
REMARK 922        TOTAL FREE ENERGY PREDICTED BY IDOCK:   21.55 KCAL/MOL
REMARK 923 INTER-LIGAND FREE ENERGY PREDICTED BY IDOCK:   20.99 KCAL/MOL
REMARK 924 INTRA-LIGAND FREE ENERGY PREDICTED BY IDOCK:    0.56 KCAL/MOL
REMARK 927      BINDING AFFINITY PREDICTED BY RF-SCORE:    0.00 PKD
ROOT
HETATM    1  C   UNL     1     -11.518   4.806  65.818  1.00  0.00     1.041 C  
HETATM    2  C   UNL     1     -10.978   7.073  64.709  1.00  0.00     8.682 C  
HETATM    3  C   UNL     1     -10.518   3.671  65.987  1.00  0.00     0.895 C  
HETATM    4  C   UNL     1      -9.360   4.186  65.136  1.00  0.00    -0.164 C  
HETATM    5  C   UNL     1     -10.561   6.131  65.875  1.00  0.00     0.687 C  
HETATM    6  C   UNL     1     -10.566   7.100  67.119  1.00  0.00    -0.417 C  
HETATM    7  C   UNL     1      -9.096   5.555  65.769  1.00  0.00    -0.152 C  
HETATM    8  C   UNL     1      -8.342   5.239  67.117  1.00  0.00    -0.107 C  
HETATM    9  C   UNL     1      -6.953   4.718  66.832  1.00  0.00    -0.060 C  
HETATM   10  C   UNL     1      -6.458   3.987  68.064  1.00  0.00    -0.038 C  
HETATM   11  C   UNL     1      -6.191   5.018  69.154  1.00  0.00    -0.030 C  
HETATM   12  C   UNL     1      -5.436   4.319  70.306  1.00  0.00    -0.012 C  
HETATM   13  C   UNL     1      -6.272   3.685  71.407  1.00  0.00    -0.015 C  
HETATM   14  O   UNL     1      -6.578   2.336  71.103  1.00  0.00    -0.022 OA 
HETATM   15  C   UNL     1      -7.540   4.465  71.756  1.00  0.00    -0.071 C  
HETATM   16  H   UNL     1      -7.100   1.939  71.791  1.00  0.00     0.000 HD 
HETATM   17  C   UNL     1      -8.320   5.042  70.555  1.00  0.00    -0.101 C  
HETATM   18  C   UNL     1      -7.470   5.863  69.537  1.00  0.00    -0.076 C  
HETATM   19  C   UNL     1      -6.983   7.146  70.259  1.00  0.00    -0.061 C  
HETATM   20  C   UNL     1      -8.304   6.339  68.194  1.00  0.00    -0.115 C  
HETATM   21  C   UNL     1      -9.768   6.794  68.415  1.00  0.00    -0.128 C  
ENDROOT
BRANCH   1  22
HETATM   22  C   UNL     1     -12.245   4.299  64.485  1.00  0.00     3.654 C  
HETATM   23  C   UNL     1     -11.687   3.032  63.816  1.00  0.00     1.888 C  
HETATM   24  O   UNL     1     -13.152   4.894  63.923  1.00  0.00     5.712 OA 
ENDBRANCH   1  22
TORSDOF 1
ENDMDL
MODEL      123
REMARK 921   NORMALIZED FREE ENERGY PREDICTED BY IDOCK:   33.07 KCAL/MOL
REMARK 922        TOTAL FREE ENERGY PREDICTED BY IDOCK:   35.39 KCAL/MOL
REMARK 923 INTER-LIGAND FREE ENERGY PREDICTED BY IDOCK:   34.53 KCAL/MOL
REMARK 924 INTRA-LIGAND FREE ENERGY PREDICTED BY IDOCK:    0.86 KCAL/MOL
REMARK 927      BINDING AFFINITY PREDICTED BY RF-SCORE:    0.00 PKD
ROOT
HETATM    1  C   UNL     1     -10.857  11.404  69.514  1.00  0.00    -0.165 C  
HETATM    2  C   UNL     1     -13.436  11.495  69.456  1.00  0.00     2.781 C  
HETATM    3  C   UNL     1      -9.946  12.277  68.662  1.00  0.00    -0.127 C  
HETATM    4  C   UNL     1     -10.963  12.907  67.714  1.00  0.00    -0.269 C  
HETATM    5  C   UNL     1     -12.169  12.360  69.719  1.00  0.00    -0.198 C  
HETATM    6  C   UNL     1     -12.493  13.030  71.110  1.00  0.00    -0.364 C  
HETATM    7  C   UNL     1     -11.950  13.542  68.699  1.00  0.00    -0.378 C  
HETATM    8  C   UNL     1     -11.217  14.832  69.230  1.00  0.00    -0.303 C  
HETATM    9  C   UNL     1     -11.111  15.866  68.133  1.00  0.00    -0.338 C  
HETATM   10  C   UNL     1     -10.016  16.845  68.508  1.00  0.00    -0.275 C  
HETATM   11  C   UNL     1     -10.507  17.681  69.684  1.00  0.00     0.333 C  
HETATM   12  C   UNL     1      -9.518  18.850  69.891  1.00  0.00     0.830 C  
HETATM   13  C   UNL     1      -8.342  18.614  70.825  1.00  0.00     4.432 C  
HETATM   14  O   UNL     1      -7.224  18.103  70.120  1.00  0.00     0.753 OA 
HETATM   15  C   UNL     1      -8.670  17.735  72.033  1.00  0.00    14.556 C  
HETATM   16  H   UNL     1      -6.489  17.955  70.704  1.00  0.00     0.000 HD 
HETATM   17  C   UNL     1      -9.567  16.512  71.744  1.00  0.00     6.546 C  
HETATM   18  C   UNL     1     -10.877  16.815  70.951  1.00  0.00     0.606 C  
HETATM   19  C   UNL     1     -11.786  17.681  71.860  1.00  0.00     3.346 C  
HETATM   20  C   UNL     1     -11.736  15.468  70.533  1.00  0.00    -0.377 C  
HETATM   21  C   UNL     1     -11.798  14.333  71.586  1.00  0.00    -0.033 C  
ENDROOT
BRANCH   1  22
HETATM   22  C   UNL     1     -10.859  10.086  68.605  1.00  0.00    -0.229 C  
HETATM   23  C   UNL     1     -12.224   9.553  68.140  1.00  0.00     3.554 C  
HETATM   24  O   UNL     1      -9.863   9.436  68.328  1.00  0.00    -0.152 OA 
ENDBRANCH   1  22
TORSDOF 1
ENDMDL
MODEL      124
REMARK 921   NORMALIZED FREE ENERGY PREDICTED BY IDOCK:   34.46 KCAL/MOL
REMARK 922        TOTAL FREE ENERGY PREDICTED BY IDOCK:   36.86 KCAL/MOL
REMARK 923 INTER-LIGAND FREE ENERGY PREDICTED BY IDOCK:   36.26 KCAL/MOL
REMARK 924 INTRA-LIGAND FREE ENERGY PREDICTED BY IDOCK:    0.60 KCAL/MOL
REMARK 927      BINDING AFFINITY PREDICTED BY RF-SCORE:    0.00 PKD
ROOT
HETATM    1  C   UNL     1     -11.630  14.499  64.967  1.00  0.00    -0.382 C  
HETATM    2  C   UNL     1     -11.505  12.103  64.015  1.00  0.00    -0.488 C  
HETATM    3  C   UNL     1     -12.521  14.917  66.128  1.00  0.00     0.305 C  
HETATM    4  C   UNL     1     -13.379  13.666  66.292  1.00  0.00     1.553 C  
HETATM    5  C   UNL     1     -11.309  12.933  65.317  1.00  0.00    -0.333 C  
HETATM    6  C   UNL     1      -9.883  12.472  65.807  1.00  0.00    -0.244 C  
HETATM    7  C   UNL     1     -12.312  12.584  66.483  1.00  0.00     0.198 C  
HETATM    8  C   UNL     1     -11.801  12.775  67.961  1.00  0.00    -0.386 C  
HETATM    9  C   UNL     1     -12.876  12.376  68.944  1.00  0.00     1.582 C  
HETATM   10  C   UNL     1     -12.554  13.011  70.283  1.00  0.00    -0.108 C  
HETATM   11  C   UNL     1     -11.325  12.315  70.857  1.00  0.00     1.628 C  
HETATM   12  C   UNL     1     -11.158  12.765  72.326  1.00  0.00     7.451 C  
HETATM   13  C   UNL     1     -10.315  14.004  72.586  1.00  0.00     6.667 C  
HETATM   14  O   UNL     1     -11.109  15.176  72.564  1.00  0.00    -0.345 OA 
HETATM   15  C   UNL     1      -9.110  14.146  71.655  1.00  0.00     7.426 C  
HETATM   16  H   UNL     1     -10.582  15.950  72.727  1.00  0.00     0.000 HD 
HETATM   17  C   UNL     1      -9.366  13.795  70.174  1.00  0.00     2.650 C  
HETATM   18  C   UNL     1     -10.057  12.419  69.921  1.00  0.00     1.850 C  
HETATM   19  C   UNL     1      -9.065  11.309  70.354  1.00  0.00     3.236 C  
HETATM   20  C   UNL     1     -10.449  12.143  68.341  1.00  0.00    -0.242 C  
HETATM   21  C   UNL     1      -9.423  12.620  67.282  1.00  0.00    -0.199 C  
ENDROOT
BRANCH   1  22
HETATM   22  C   UNL     1     -12.569  14.958  63.755  1.00  0.00     0.593 C  
HETATM   23  C   UNL     1     -12.371  14.252  62.404  1.00  0.00     3.602 C  
HETATM   24  O   UNL     1     -13.368  15.879  63.810  1.00  0.00     0.248 OA 
ENDBRANCH   1  22
TORSDOF 1
ENDMDL
MODEL      125
REMARK 921   NORMALIZED FREE ENERGY PREDICTED BY IDOCK:   36.88 KCAL/MOL
REMARK 922        TOTAL FREE ENERGY PREDICTED BY IDOCK:   39.43 KCAL/MOL
REMARK 923 INTER-LIGAND FREE ENERGY PREDICTED BY IDOCK:   38.64 KCAL/MOL
REMARK 924 INTRA-LIGAND FREE ENERGY PREDICTED BY IDOCK:    0.78 KCAL/MOL
REMARK 927      BINDING AFFINITY PREDICTED BY RF-SCORE:    0.00 PKD
ROOT
HETATM    1  C   UNL     1     -11.375  11.534  67.247  1.00  0.00    -0.359 C  
HETATM    2  C   UNL     1     -10.094  11.984  65.052  1.00  0.00    -0.293 C  
HETATM    3  C   UNL     1     -11.056  10.401  68.212  1.00  0.00    -0.338 C  
HETATM    4  C   UNL     1     -10.056   9.597  67.385  1.00  0.00    -0.257 C  
HETATM    5  C   UNL     1      -9.911  11.861  66.593  1.00  0.00    -0.220 C  
HETATM    6  C   UNL     1      -9.122  13.178  66.952  1.00  0.00    -0.231 C  
HETATM    7  C   UNL     1      -9.002  10.659  67.059  1.00  0.00    -0.145 C  
HETATM    8  C   UNL     1      -8.186  10.843  68.395  1.00  0.00    -0.133 C  
HETATM    9  C   UNL     1      -7.358   9.612  68.678  1.00  0.00    -0.074 C  
HETATM   10  C   UNL     1      -6.990   9.615  70.148  1.00  0.00    -0.105 C  
HETATM   11  C   UNL     1      -5.983  10.735  70.385  1.00  0.00    -0.128 C  
HETATM   12  C   UNL     1      -5.404  10.570  71.808  1.00  0.00     0.087 C  
HETATM   13  C   UNL     1      -6.131  11.272  72.945  1.00  0.00     2.981 C  
HETATM   14  O   UNL     1      -7.127  10.437  73.508  1.00  0.00     2.959 OA 
HETATM   15  C   UNL     1      -6.715  12.634  72.566  1.00  0.00     6.060 C  
HETATM   16  H   UNL     1      -7.581  10.875  74.218  1.00  0.00     0.000 HD 
HETATM   17  C   UNL     1      -7.387  12.709  71.178  1.00  0.00     5.652 C  
HETATM   18  C   UNL     1      -6.535  12.161  69.991  1.00  0.00     0.048 C  
HETATM   19  C   UNL     1      -5.315  13.102  69.815  1.00  0.00    -0.090 C  
HETATM   20  C   UNL     1      -7.339  12.120  68.549  1.00  0.00    -0.105 C  
HETATM   21  C   UNL     1      -8.278  13.315  68.248  1.00  0.00    -0.156 C  
ENDROOT
BRANCH   1  22
HETATM   22  C   UNL     1     -12.569  10.841  66.437  1.00  0.00     5.668 C  
HETATM   23  C   UNL     1     -12.299   9.452  65.835  1.00  0.00    10.598 C  
HETATM   24  O   UNL     1     -13.641  11.373  66.197  1.00  0.00     7.221 OA 
ENDBRANCH   1  22
TORSDOF 1
ENDMDL
MODEL      126
REMARK 921   NORMALIZED FREE ENERGY PREDICTED BY IDOCK:   46.24 KCAL/MOL
REMARK 922        TOTAL FREE ENERGY PREDICTED BY IDOCK:   49.33 KCAL/MOL
REMARK 923 INTER-LIGAND FREE ENERGY PREDICTED BY IDOCK:   48.65 KCAL/MOL
REMARK 924 INTRA-LIGAND FREE ENERGY PREDICTED BY IDOCK:    0.68 KCAL/MOL
REMARK 927      BINDING AFFINITY PREDICTED BY RF-SCORE:    0.00 PKD
ROOT
HETATM    1  C   UNL     1      -7.826  14.309  70.422  1.00  0.00     1.504 C  
HETATM    2  C   UNL     1      -5.803  13.543  71.830  1.00  0.00     0.282 C  
HETATM    3  C   UNL     1      -8.254  13.666  69.111  1.00  0.00     0.376 C  
HETATM    4  C   UNL     1      -7.065  12.748  68.845  1.00  0.00    -0.067 C  
HETATM    5  C   UNL     1      -7.151  13.054  71.226  1.00  0.00     4.359 C  
HETATM    6  C   UNL     1      -7.864  12.389  72.466  1.00  0.00    16.269 C  
HETATM    7  C   UNL     1      -7.017  11.923  70.134  1.00  0.00     0.781 C  
HETATM    8  C   UNL     1      -8.206  10.897  70.003  1.00  0.00     0.894 C  
HETATM    9  C   UNL     1      -7.903   9.877  68.931  1.00  0.00    -0.091 C  
HETATM   10  C   UNL     1      -9.209   9.237  68.501  1.00  0.00    -0.135 C  
HETATM   11  C   UNL     1      -9.707   8.359  69.643  1.00  0.00    -0.173 C  
HETATM   12  C   UNL     1     -10.878   7.501  69.116  1.00  0.00    -0.105 C  
HETATM   13  C   UNL     1     -12.279   8.081  69.235  1.00  0.00     2.335 C  
HETATM   14  O   UNL     1     -12.620   8.833  68.084  1.00  0.00     4.608 OA 
HETATM   15  C   UNL     1     -12.510   8.899  70.507  1.00  0.00     0.302 C  
HETATM   16  H   UNL     1     -13.495   9.195  68.159  1.00  0.00     0.000 HD 
HETATM   17  C   UNL     1     -11.349   9.829  70.921  1.00  0.00    -0.439 C  
HETATM   18  C   UNL     1      -9.942   9.157  70.985  1.00  0.00    -0.367 C  
HETATM   19  C   UNL     1      -9.967   8.127  72.143  1.00  0.00    -0.315 C  
HETATM   20  C   UNL     1      -8.707  10.210  71.287  1.00  0.00     2.392 C  
HETATM   21  C   UNL     1      -8.994  11.337  72.310  1.00  0.00    15.969 C  
ENDROOT
BRANCH   1  22
HETATM   22  C   UNL     1      -6.983  15.536  69.834  1.00  0.00    -0.073 C  
HETATM   23  C   UNL     1      -6.345  15.352  68.447  1.00  0.00    -0.110 C  
HETATM   24  O   UNL     1      -6.746  16.567  70.443  1.00  0.00     0.453 OA 
ENDBRANCH   1  22
TORSDOF 1
ENDMDL
