MODEL        1
REMARK 921   NORMALIZED FREE ENERGY PREDICTED BY IDOCK:   -7.56 KCAL/MOL
REMARK 922        TOTAL FREE ENERGY PREDICTED BY IDOCK:  -11.95 KCAL/MOL
REMARK 923 INTER-LIGAND FREE ENERGY PREDICTED BY IDOCK:  -10.65 KCAL/MOL
REMARK 924 INTRA-LIGAND FREE ENERGY PREDICTED BY IDOCK:   -1.30 KCAL/MOL
REMARK 927      BINDING AFFINITY PREDICTED BY RF-SCORE:    0.00 PKD
ROOT
HETATM    1  O   UNL     1     -13.901  16.081  73.301  1.00  0.00    -0.520 OA 
HETATM    2  C   UNL     1     -13.450  15.270  72.500  1.00  0.00    -0.485 C  
HETATM    3  N   UNL     1     -13.665  13.924  72.617  1.00  0.00    -0.532 N  
HETATM    4  C   UNL     1     -13.132  12.977  71.732  1.00  0.00    -0.373 A  
HETATM    5  H   UNL     1     -14.242  13.593  73.390  1.00  0.00     0.000 HD 
HETATM    6  C   UNL     1     -13.381  11.619  71.929  1.00  0.00    -0.403 A  
HETATM    7  C   UNL     1     -12.827  10.678  71.058  1.00  0.00    -0.402 A  
HETATM    8  C   UNL     1     -12.636  15.720  71.343  1.00  0.00    -0.516 C  
HETATM    9  C   UNL     1     -12.027  11.114  69.994  1.00  0.00    -0.447 A  
HETATM   10  C   UNL     1     -12.115  14.846  70.474  1.00  0.00    -0.378 C  
HETATM   11  C   UNL     1     -11.786  12.475  69.792  1.00  0.00    -0.380 A  
HETATM   12  C   UNL     1     -12.343  13.414  70.659  1.00  0.00    -0.423 A  
ENDROOT
BRANCH   7  13
HETATM   13  O   UNL     1     -13.135   9.373  71.343  1.00  0.00    -0.341 OA 
BRANCH  13  14
HETATM   14  C   UNL     1     -12.099   8.628  71.981  1.00  0.00    -0.375 C  
BRANCH  14  15
HETATM   15  C   UNL     1     -12.266   7.141  71.683  1.00  0.00    -0.385 C  
BRANCH  15  16
HETATM   16  C   UNL     1     -11.251   6.651  70.647  1.00  0.00    -0.370 C  
BRANCH  16  17
HETATM   17  C   UNL     1     -10.321   7.737  70.076  1.00  0.00    -0.221 C  
BRANCH  17  18
HETATM   18  N   UNL     1      -9.379   7.258  69.055  1.00  0.00    -0.148 NA 
HETATM   19  C   UNL     1     -10.041   6.834  67.797  1.00  0.00    -0.154 C  
HETATM   20  C   UNL     1     -10.642   7.976  66.941  1.00  0.00    -0.254 C  
HETATM   21  N   UNL     1      -9.635   9.013  66.691  1.00  0.00    -0.193 NA 
HETATM   22  C   UNL     1      -8.385   8.311  68.709  1.00  0.00    -0.124 C  
HETATM   23  C   UNL     1      -8.941   9.508  67.891  1.00  0.00    -0.123 C  
BRANCH  21  24
HETATM   24  C   UNL     1      -9.698   9.814  65.546  1.00  0.00    -0.312 A  
HETATM   25  C   UNL     1     -10.521  10.981  65.382  1.00  0.00    -0.306 A  
HETATM   26  C   UNL     1     -11.301  11.750  66.326  1.00  0.00    -0.350 A  
HETATM   27  C   UNL     1     -12.011  12.781  65.760  1.00  0.00    -0.449 A  
HETATM   28  S   UNL     1     -11.720  12.903  64.093  1.00  0.00    -0.440 SA 
HETATM   29  C   UNL     1     -10.623  11.570  64.113  1.00  0.00    -0.363 A  
HETATM   30  C   UNL     1      -9.908  11.090  63.001  1.00  0.00    -0.370 A  
HETATM   31  C   UNL     1      -9.063  10.005  63.172  1.00  0.00    -0.296 A  
HETATM   32  C   UNL     1      -8.967   9.386  64.411  1.00  0.00    -0.215 A  
ENDBRANCH  21  24
ENDBRANCH  17  18
ENDBRANCH  16  17
ENDBRANCH  15  16
ENDBRANCH  14  15
ENDBRANCH  13  14
ENDBRANCH   7  13
TORSDOF 7
ENDMDL
MODEL        2
REMARK 921   NORMALIZED FREE ENERGY PREDICTED BY IDOCK:   -7.55 KCAL/MOL
REMARK 922        TOTAL FREE ENERGY PREDICTED BY IDOCK:  -11.94 KCAL/MOL
REMARK 923 INTER-LIGAND FREE ENERGY PREDICTED BY IDOCK:  -10.52 KCAL/MOL
REMARK 924 INTRA-LIGAND FREE ENERGY PREDICTED BY IDOCK:   -1.42 KCAL/MOL
REMARK 927      BINDING AFFINITY PREDICTED BY RF-SCORE:    0.00 PKD
ROOT
HETATM    1  O   UNL     1     -12.532  16.818  74.328  1.00  0.00    -0.645 OA 
HETATM    2  C   UNL     1     -12.472  16.072  73.357  1.00  0.00    -0.558 C  
HETATM    3  N   UNL     1     -11.924  16.459  72.166  1.00  0.00    -0.634 N  
HETATM    4  C   UNL     1     -11.873  15.633  71.034  1.00  0.00    -0.400 A  
HETATM    5  H   UNL     1     -11.531  17.398  72.097  1.00  0.00     0.000 HD 
HETATM    6  C   UNL     1     -11.314  16.108  69.848  1.00  0.00    -0.318 A  
HETATM    7  C   UNL     1     -11.289  15.290  68.716  1.00  0.00    -0.308 A  
HETATM    8  C   UNL     1     -13.000  14.687  73.432  1.00  0.00    -0.483 C  
HETATM    9  C   UNL     1     -11.828  13.998  68.789  1.00  0.00    -0.396 A  
HETATM   10  C   UNL     1     -12.966  13.868  72.374  1.00  0.00    -0.457 C  
HETATM   11  C   UNL     1     -12.380  13.521  69.981  1.00  0.00    -0.315 A  
HETATM   12  C   UNL     1     -12.400  14.337  71.111  1.00  0.00    -0.440 A  
ENDROOT
BRANCH   7  13
HETATM   13  O   UNL     1     -10.716  15.855  67.605  1.00  0.00    -0.301 OA 
BRANCH  13  14
HETATM   14  C   UNL     1     -11.122  15.292  66.358  1.00  0.00    -0.273 C  
BRANCH  14  15
HETATM   15  C   UNL     1      -9.934  14.621  65.677  1.00  0.00    -0.381 C  
BRANCH  15  16
HETATM   16  C   UNL     1     -10.006  13.095  65.782  1.00  0.00    -0.260 C  
BRANCH  16  17
HETATM   17  C   UNL     1      -9.030  12.460  66.788  1.00  0.00    -0.205 C  
BRANCH  17  18
HETATM   18  N   UNL     1      -9.019  10.991  66.784  1.00  0.00    -0.154 NA 
HETATM   19  C   UNL     1      -8.329  10.405  67.959  1.00  0.00    -0.118 C  
HETATM   20  C   UNL     1      -9.067  10.559  69.312  1.00  0.00    -0.145 C  
HETATM   21  N   UNL     1     -10.446  10.068  69.201  1.00  0.00    -0.206 NA 
HETATM   22  C   UNL     1     -10.404  10.447  66.756  1.00  0.00    -0.235 C  
HETATM   23  C   UNL     1     -11.212  10.615  68.071  1.00  0.00    -0.307 C  
BRANCH  21  24
HETATM   24  C   UNL     1     -11.120   9.566  70.320  1.00  0.00    -0.271 A  
HETATM   25  C   UNL     1     -10.995   8.236  70.850  1.00  0.00    -0.275 A  
HETATM   26  C   UNL     1     -10.064   7.168  70.560  1.00  0.00    -0.202 A  
HETATM   27  C   UNL     1     -10.314   6.004  71.245  1.00  0.00    -0.215 A  
HETATM   28  S   UNL     1     -11.629   6.169  72.304  1.00  0.00    -0.284 SA 
HETATM   29  C   UNL     1     -11.875   7.818  71.858  1.00  0.00    -0.297 A  
HETATM   30  C   UNL     1     -12.848   8.671  72.409  1.00  0.00    -0.413 A  
HETATM   31  C   UNL     1     -12.927   9.975  71.946  1.00  0.00    -0.547 A  
HETATM   32  C   UNL     1     -12.086  10.404  70.927  1.00  0.00    -0.477 A  
ENDBRANCH  21  24
ENDBRANCH  17  18
ENDBRANCH  16  17
ENDBRANCH  15  16
ENDBRANCH  14  15
ENDBRANCH  13  14
ENDBRANCH   7  13
TORSDOF 7
ENDMDL
MODEL        3
REMARK 921   NORMALIZED FREE ENERGY PREDICTED BY IDOCK:   -7.51 KCAL/MOL
REMARK 922        TOTAL FREE ENERGY PREDICTED BY IDOCK:  -11.88 KCAL/MOL
REMARK 923 INTER-LIGAND FREE ENERGY PREDICTED BY IDOCK:  -10.83 KCAL/MOL
REMARK 924 INTRA-LIGAND FREE ENERGY PREDICTED BY IDOCK:   -1.06 KCAL/MOL
REMARK 927      BINDING AFFINITY PREDICTED BY RF-SCORE:    0.00 PKD
ROOT
HETATM    1  O   UNL     1     -13.139  13.908  65.141  1.00  0.00    -0.773 OA 
HETATM    2  C   UNL     1     -12.296  13.035  64.968  1.00  0.00    -0.473 C  
HETATM    3  N   UNL     1     -11.991  12.108  65.925  1.00  0.00    -0.291 N  
HETATM    4  C   UNL     1     -11.010  11.121  65.760  1.00  0.00    -0.091 A  
HETATM    5  H   UNL     1     -12.505  12.135  66.806  1.00  0.00     0.000 HD 
HETATM    6  C   UNL     1     -10.743  10.222  66.792  1.00  0.00    -0.216 A  
HETATM    7  C   UNL     1      -9.746   9.257  66.631  1.00  0.00    -0.219 A  
HETATM    8  C   UNL     1     -11.555  12.942  63.685  1.00  0.00    -0.547 C  
HETATM    9  C   UNL     1      -9.025   9.206  65.430  1.00  0.00    -0.255 A  
HETATM   10  C   UNL     1     -10.614  12.011  63.489  1.00  0.00    -0.514 C  
HETATM   11  C   UNL     1      -9.300  10.102  64.394  1.00  0.00    -0.348 A  
HETATM   12  C   UNL     1     -10.298  11.062  64.553  1.00  0.00    -0.420 A  
ENDROOT
BRANCH   7  13
HETATM   13  O   UNL     1      -9.567   8.423  67.705  1.00  0.00    -0.149 OA 
BRANCH  13  14
HETATM   14  C   UNL     1     -10.670   7.567  68.002  1.00  0.00    -0.106 C  
BRANCH  14  15
HETATM   15  C   UNL     1     -10.200   6.386  68.844  1.00  0.00    -0.215 C  
BRANCH  15  16
HETATM   16  C   UNL     1     -11.080   6.184  70.081  1.00  0.00    -0.448 C  
BRANCH  16  17
HETATM   17  C   UNL     1     -11.961   7.388  70.463  1.00  0.00    -0.108 C  
BRANCH  17  18
HETATM   18  N   UNL     1     -11.480   8.152  71.621  1.00  0.00    -0.262 NA 
HETATM   19  C   UNL     1     -10.539   9.241  71.257  1.00  0.00    -0.347 C  
HETATM   20  C   UNL     1     -11.168  10.446  70.516  1.00  0.00    -0.314 C  
HETATM   21  N   UNL     1     -12.320  10.963  71.264  1.00  0.00    -0.358 NA 
HETATM   22  C   UNL     1     -12.614   8.765  72.365  1.00  0.00    -0.363 C  
HETATM   23  C   UNL     1     -13.317   9.950  71.649  1.00  0.00    -0.389 C  
BRANCH  21  24
HETATM   24  C   UNL     1     -12.699  12.305  71.161  1.00  0.00    -0.243 A  
HETATM   25  C   UNL     1     -12.129  13.273  70.263  1.00  0.00    -0.405 A  
HETATM   26  C   UNL     1     -11.226  13.131  69.142  1.00  0.00    -0.303 A  
HETATM   27  C   UNL     1     -10.859  14.321  68.563  1.00  0.00    -0.253 A  
HETATM   28  S   UNL     1     -11.628  15.642  69.300  1.00  0.00    -0.380 SA 
HETATM   29  C   UNL     1     -12.477  14.624  70.406  1.00  0.00    -0.352 A  
HETATM   30  C   UNL     1     -13.405  15.064  71.365  1.00  0.00    -0.513 A  
HETATM   31  C   UNL     1     -14.007  14.125  72.189  1.00  0.00    -0.626 A  
HETATM   32  C   UNL     1     -13.657  12.785  72.087  1.00  0.00    -0.547 A  
ENDBRANCH  21  24
ENDBRANCH  17  18
ENDBRANCH  16  17
ENDBRANCH  15  16
ENDBRANCH  14  15
ENDBRANCH  13  14
ENDBRANCH   7  13
TORSDOF 7
ENDMDL
MODEL        4
REMARK 921   NORMALIZED FREE ENERGY PREDICTED BY IDOCK:   -7.49 KCAL/MOL
REMARK 922        TOTAL FREE ENERGY PREDICTED BY IDOCK:  -11.86 KCAL/MOL
REMARK 923 INTER-LIGAND FREE ENERGY PREDICTED BY IDOCK:  -10.44 KCAL/MOL
REMARK 924 INTRA-LIGAND FREE ENERGY PREDICTED BY IDOCK:   -1.42 KCAL/MOL
REMARK 927      BINDING AFFINITY PREDICTED BY RF-SCORE:    0.00 PKD
ROOT
HETATM    1  O   UNL     1     -11.987   5.863  72.022  1.00  0.00    -0.244 OA 
HETATM    2  C   UNL     1     -11.874   7.016  71.623  1.00  0.00    -0.313 C  
HETATM    3  N   UNL     1     -12.570   8.056  72.175  1.00  0.00    -0.439 N  
HETATM    4  C   UNL     1     -12.480   9.377  71.714  1.00  0.00    -0.391 A  
HETATM    5  H   UNL     1     -13.187   7.860  72.963  1.00  0.00     0.000 HD 
HETATM    6  C   UNL     1     -13.237  10.380  72.318  1.00  0.00    -0.285 A  
HETATM    7  C   UNL     1     -13.163  11.690  71.837  1.00  0.00    -0.369 A  
HETATM    8  C   UNL     1     -10.958   7.344  70.502  1.00  0.00    -0.270 C  
HETATM    9  C   UNL     1     -12.324  11.978  70.752  1.00  0.00    -0.403 A  
HETATM   10  C   UNL     1     -10.842   8.593  70.037  1.00  0.00    -0.226 C  
HETATM   11  C   UNL     1     -11.560  10.973  70.154  1.00  0.00    -0.421 A  
HETATM   12  C   UNL     1     -11.631   9.667  70.637  1.00  0.00    -0.371 A  
ENDROOT
BRANCH   7  13
HETATM   13  O   UNL     1     -13.947  12.597  72.504  1.00  0.00    -0.412 OA 
BRANCH  13  14
HETATM   14  C   UNL     1     -13.941  13.918  71.965  1.00  0.00    -0.495 C  
BRANCH  14  15
HETATM   15  C   UNL     1     -13.041  14.819  72.803  1.00  0.00    -0.569 C  
BRANCH  15  16
HETATM   16  C   UNL     1     -12.404  15.929  71.961  1.00  0.00    -0.550 C  
BRANCH  16  17
HETATM   17  C   UNL     1     -11.057  15.568  71.311  1.00  0.00    -0.284 C  
BRANCH  17  18
HETATM   18  N   UNL     1     -10.832  16.180  69.995  1.00  0.00    -0.347 NA 
HETATM   19  C   UNL     1      -9.514  15.838  69.405  1.00  0.00    -0.275 C  
HETATM   20  C   UNL     1      -9.355  14.371  68.932  1.00  0.00    -0.096 C  
HETATM   21  N   UNL     1     -10.455  14.000  68.035  1.00  0.00    -0.237 NA 
HETATM   22  C   UNL     1     -11.882  15.763  69.025  1.00  0.00    -0.355 C  
HETATM   23  C   UNL     1     -11.803  14.287  68.552  1.00  0.00    -0.347 C  
BRANCH  21  24
HETATM   24  C   UNL     1     -10.281  13.016  67.057  1.00  0.00    -0.245 A  
HETATM   25  C   UNL     1     -10.879  13.015  65.750  1.00  0.00    -0.292 A  
HETATM   26  C   UNL     1     -11.601  14.034  65.021  1.00  0.00    -0.351 A  
HETATM   27  C   UNL     1     -12.075  13.622  63.799  1.00  0.00    -0.382 A  
HETATM   28  S   UNL     1     -11.619  12.024  63.456  1.00  0.00    -0.445 SA 
HETATM   29  C   UNL     1     -10.767  11.869  64.949  1.00  0.00    -0.301 A  
HETATM   30  C   UNL     1     -10.045  10.734  65.357  1.00  0.00    -0.347 A  
HETATM   31  C   UNL     1      -9.412  10.756  66.590  1.00  0.00    -0.201 A  
HETATM   32  C   UNL     1      -9.533  11.868  67.414  1.00  0.00    -0.175 A  
ENDBRANCH  21  24
ENDBRANCH  17  18
ENDBRANCH  16  17
ENDBRANCH  15  16
ENDBRANCH  14  15
ENDBRANCH  13  14
ENDBRANCH   7  13
TORSDOF 7
ENDMDL
MODEL        5
REMARK 921   NORMALIZED FREE ENERGY PREDICTED BY IDOCK:   -7.46 KCAL/MOL
REMARK 922        TOTAL FREE ENERGY PREDICTED BY IDOCK:  -11.82 KCAL/MOL
REMARK 923 INTER-LIGAND FREE ENERGY PREDICTED BY IDOCK:  -10.57 KCAL/MOL
REMARK 924 INTRA-LIGAND FREE ENERGY PREDICTED BY IDOCK:   -1.25 KCAL/MOL
REMARK 927      BINDING AFFINITY PREDICTED BY RF-SCORE:    0.00 PKD
ROOT
HETATM    1  O   UNL     1     -13.362  15.631  70.867  1.00  0.00    -0.556 OA 
HETATM    2  C   UNL     1     -13.151  14.433  71.022  1.00  0.00    -0.353 C  
HETATM    3  N   UNL     1     -12.309  13.725  70.210  1.00  0.00    -0.343 N  
HETATM    4  C   UNL     1     -12.078  12.349  70.349  1.00  0.00    -0.297 A  
HETATM    5  H   UNL     1     -11.825  14.223  69.463  1.00  0.00     0.000 HD 
HETATM    6  C   UNL     1     -11.219  11.693  69.468  1.00  0.00    -0.282 A  
HETATM    7  C   UNL     1     -11.012  10.318  69.595  1.00  0.00    -0.270 A  
HETATM    8  C   UNL     1     -13.810  13.684  72.120  1.00  0.00    -0.642 C  
HETATM    9  C   UNL     1     -11.672   9.614  70.612  1.00  0.00    -0.353 A  
HETATM   10  C   UNL     1     -13.610  12.371  72.287  1.00  0.00    -0.371 C  
HETATM   11  C   UNL     1     -12.525  10.275  71.499  1.00  0.00    -0.524 A  
HETATM   12  C   UNL     1     -12.728  11.648  71.374  1.00  0.00    -0.445 A  
ENDROOT
BRANCH   7  13
HETATM   13  O   UNL     1     -10.149   9.774  68.679  1.00  0.00    -0.159 OA 
BRANCH  13  14
HETATM   14  C   UNL     1     -10.748   9.354  67.453  1.00  0.00    -0.210 C  
BRANCH  14  15
HETATM   15  C   UNL     1      -9.968   9.920  66.271  1.00  0.00    -0.322 C  
BRANCH  15  16
HETATM   16  C   UNL     1     -10.754  11.016  65.545  1.00  0.00    -0.218 C  
BRANCH  16  17
HETATM   17  C   UNL     1     -10.454  12.453  66.006  1.00  0.00    -0.254 C  
BRANCH  17  18
HETATM   18  N   UNL     1     -11.461  13.445  65.605  1.00  0.00    -0.311 NA 
HETATM   19  C   UNL     1     -11.963  14.263  66.736  1.00  0.00    -0.436 C  
HETATM   20  C   UNL     1     -10.954  15.283  67.322  1.00  0.00    -0.327 C  
HETATM   21  N   UNL     1     -10.401  16.126  66.255  1.00  0.00    -0.315 NA 
HETATM   22  C   UNL     1     -10.915  14.377  64.581  1.00  0.00    -0.354 C  
HETATM   23  C   UNL     1      -9.862  15.392  65.100  1.00  0.00    -0.101 C  
BRANCH  21  24
HETATM   24  C   UNL     1      -9.952  17.423  66.527  1.00  0.00    -0.311 A  
HETATM   25  C   UNL     1      -8.903  17.774  67.444  1.00  0.00    -0.240 A  
HETATM   26  C   UNL     1      -7.927  16.969  68.145  1.00  0.00    -0.206 A  
HETATM   27  C   UNL     1      -7.116  17.681  68.994  1.00  0.00    -0.227 A  
HETATM   28  S   UNL     1      -7.453  19.343  68.936  1.00  0.00    -0.342 SA 
HETATM   29  C   UNL     1      -8.693  19.125  67.754  1.00  0.00    -0.301 A  
HETATM   30  C   UNL     1      -9.439  20.158  67.161  1.00  0.00    -0.537 A  
HETATM   31  C   UNL     1     -10.408  19.827  66.226  1.00  0.00    -0.626 A  
HETATM   32  C   UNL     1     -10.655  18.494  65.924  1.00  0.00    -0.336 A  
ENDBRANCH  21  24
ENDBRANCH  17  18
ENDBRANCH  16  17
ENDBRANCH  15  16
ENDBRANCH  14  15
ENDBRANCH  13  14
ENDBRANCH   7  13
TORSDOF 7
ENDMDL
MODEL        6
REMARK 921   NORMALIZED FREE ENERGY PREDICTED BY IDOCK:   -7.41 KCAL/MOL
REMARK 922        TOTAL FREE ENERGY PREDICTED BY IDOCK:  -11.74 KCAL/MOL
REMARK 923 INTER-LIGAND FREE ENERGY PREDICTED BY IDOCK:  -10.21 KCAL/MOL
REMARK 924 INTRA-LIGAND FREE ENERGY PREDICTED BY IDOCK:   -1.53 KCAL/MOL
REMARK 927      BINDING AFFINITY PREDICTED BY RF-SCORE:    0.00 PKD
ROOT
HETATM    1  O   UNL     1     -10.064  14.982  67.858  1.00  0.00    -0.225 OA 
HETATM    2  C   UNL     1     -10.791  14.776  68.824  1.00  0.00    -0.255 C  
HETATM    3  N   UNL     1     -11.117  13.515  69.243  1.00  0.00    -0.393 N  
HETATM    4  C   UNL     1     -11.971  13.257  70.324  1.00  0.00    -0.300 A  
HETATM    5  H   UNL     1     -10.717  12.722  68.742  1.00  0.00     0.000 HD 
HETATM    6  C   UNL     1     -12.270  11.942  70.678  1.00  0.00    -0.424 A  
HETATM    7  C   UNL     1     -13.142  11.691  71.740  1.00  0.00    -0.382 A  
HETATM    8  C   UNL     1     -11.360  15.906  69.598  1.00  0.00    -0.342 C  
HETATM    9  C   UNL     1     -13.704  12.768  72.438  1.00  0.00    -0.457 A  
HETATM   10  C   UNL     1     -12.176  15.699  70.639  1.00  0.00    -0.446 C  
HETATM   11  C   UNL     1     -13.396  14.085  72.086  1.00  0.00    -0.545 A  
HETATM   12  C   UNL     1     -12.523  14.335  71.029  1.00  0.00    -0.432 A  
ENDROOT
BRANCH   7  13
HETATM   13  O   UNL     1     -13.366  10.363  72.004  1.00  0.00    -0.433 OA 
BRANCH  13  14
HETATM   14  C   UNL     1     -12.580   9.450  71.240  1.00  0.00    -0.325 C  
BRANCH  14  15
HETATM   15  C   UNL     1     -11.876   8.465  72.169  1.00  0.00    -0.441 C  
BRANCH  15  16
HETATM   16  C   UNL     1     -10.417   8.242  71.761  1.00  0.00    -0.325 C  
BRANCH  16  17
HETATM   17  C   UNL     1      -9.920   9.118  70.597  1.00  0.00    -0.248 C  
BRANCH  17  18
HETATM   18  N   UNL     1      -9.090   8.412  69.614  1.00  0.00    -0.152 NA 
HETATM   19  C   UNL     1      -9.877   7.776  68.528  1.00  0.00    -0.172 C  
HETATM   20  C   UNL     1     -10.531   8.752  67.519  1.00  0.00    -0.271 C  
HETATM   21  N   UNL     1      -9.529   9.679  66.980  1.00  0.00    -0.150 NA 
HETATM   22  C   UNL     1      -8.110   9.336  68.979  1.00  0.00    -0.106 C  
HETATM   23  C   UNL     1      -8.714  10.370  67.992  1.00  0.00    -0.123 C  
BRANCH  21  24
HETATM   24  C   UNL     1      -9.683  10.242  65.709  1.00  0.00    -0.238 A  
HETATM   25  C   UNL     1     -10.627  11.265  65.352  1.00  0.00    -0.312 A  
HETATM   26  C   UNL     1     -11.483  12.108  66.156  1.00  0.00    -0.429 A  
HETATM   27  C   UNL     1     -12.303  12.936  65.427  1.00  0.00    -0.485 A  
HETATM   28  S   UNL     1     -12.032  12.776  63.760  1.00  0.00    -0.547 SA 
HETATM   29  C   UNL     1     -10.797  11.594  63.999  1.00  0.00    -0.392 A  
HETATM   30  C   UNL     1     -10.038  10.995  62.978  1.00  0.00    -0.285 A  
HETATM   31  C   UNL     1      -9.080  10.056  63.326  1.00  0.00    -0.300 A  
HETATM   32  C   UNL     1      -8.914   9.691  64.655  1.00  0.00    -0.274 A  
ENDBRANCH  21  24
ENDBRANCH  17  18
ENDBRANCH  16  17
ENDBRANCH  15  16
ENDBRANCH  14  15
ENDBRANCH  13  14
ENDBRANCH   7  13
TORSDOF 7
ENDMDL
MODEL        7
REMARK 921   NORMALIZED FREE ENERGY PREDICTED BY IDOCK:   -7.40 KCAL/MOL
REMARK 922        TOTAL FREE ENERGY PREDICTED BY IDOCK:  -11.73 KCAL/MOL
REMARK 923 INTER-LIGAND FREE ENERGY PREDICTED BY IDOCK:  -10.39 KCAL/MOL
REMARK 924 INTRA-LIGAND FREE ENERGY PREDICTED BY IDOCK:   -1.34 KCAL/MOL
REMARK 927      BINDING AFFINITY PREDICTED BY RF-SCORE:    0.00 PKD
ROOT
HETATM    1  O   UNL     1     -13.326  15.809  70.863  1.00  0.00    -0.576 OA 
HETATM    2  C   UNL     1     -13.177  14.606  71.050  1.00  0.00    -0.374 C  
HETATM    3  N   UNL     1     -12.446  13.817  70.206  1.00  0.00    -0.316 N  
HETATM    4  C   UNL     1     -12.288  12.435  70.382  1.00  0.00    -0.227 A  
HETATM    5  H   UNL     1     -11.991  14.256  69.405  1.00  0.00     0.000 HD 
HETATM    6  C   UNL     1     -11.542  11.695  69.466  1.00  0.00    -0.397 A  
HETATM    7  C   UNL     1     -11.410  10.314  69.634  1.00  0.00    -0.257 A  
HETATM    8  C   UNL     1     -13.793  13.940  72.224  1.00  0.00    -0.669 C  
HETATM    9  C   UNL     1     -12.031   9.691  70.725  1.00  0.00    -0.356 A  
HETATM   10  C   UNL     1     -13.662  12.624  72.428  1.00  0.00    -0.377 C  
HETATM   11  C   UNL     1     -12.771  10.436  71.646  1.00  0.00    -0.560 A  
HETATM   12  C   UNL     1     -12.899  11.814  71.481  1.00  0.00    -0.450 A  
ENDROOT
BRANCH   7  13
HETATM   13  O   UNL     1     -10.655   9.684  68.678  1.00  0.00    -0.210 OA 
BRANCH  13  14
HETATM   14  C   UNL     1     -10.042  10.547  67.720  1.00  0.00    -0.175 C  
BRANCH  14  15
HETATM   15  C   UNL     1     -10.135   9.930  66.328  1.00  0.00    -0.311 C  
BRANCH  15  16
HETATM   16  C   UNL     1     -10.645  10.936  65.293  1.00  0.00    -0.259 C  
BRANCH  16  17
HETATM   17  C   UNL     1     -11.635  11.985  65.831  1.00  0.00    -0.300 C  
BRANCH  17  18
HETATM   18  N   UNL     1     -11.688  13.229  65.052  1.00  0.00    -0.321 NA 
HETATM   19  C   UNL     1     -12.393  14.332  65.752  1.00  0.00    -0.405 C  
HETATM   20  C   UNL     1     -11.649  14.933  66.970  1.00  0.00    -0.304 C  
HETATM   21  N   UNL     1     -10.285  15.324  66.594  1.00  0.00    -0.264 NA 
HETATM   22  C   UNL     1     -10.319  13.709  64.719  1.00  0.00    -0.392 C  
HETATM   23  C   UNL     1      -9.505  14.280  65.911  1.00  0.00    -0.125 C  
BRANCH  21  24
HETATM   24  C   UNL     1      -9.624  16.356  67.268  1.00  0.00    -0.234 A  
HETATM   25  C   UNL     1      -9.716  17.757  66.958  1.00  0.00    -0.290 A  
HETATM   26  C   UNL     1     -10.600  18.492  66.081  1.00  0.00    -0.377 A  
HETATM   27  C   UNL     1     -10.328  19.837  66.008  1.00  0.00    -0.511 A  
HETATM   28  S   UNL     1      -9.049  20.275  67.033  1.00  0.00    -0.342 SA 
HETATM   29  C   UNL     1      -8.849  18.655  67.596  1.00  0.00    -0.275 A  
HETATM   30  C   UNL     1      -7.924  18.243  68.571  1.00  0.00    -0.324 A  
HETATM   31  C   UNL     1      -7.878  16.903  68.921  1.00  0.00    -0.233 A  
HETATM   32  C   UNL     1      -8.705  15.989  68.281  1.00  0.00    -0.177 A  
ENDBRANCH  21  24
ENDBRANCH  17  18
ENDBRANCH  16  17
ENDBRANCH  15  16
ENDBRANCH  14  15
ENDBRANCH  13  14
ENDBRANCH   7  13
TORSDOF 7
ENDMDL
MODEL        8
REMARK 921   NORMALIZED FREE ENERGY PREDICTED BY IDOCK:   -7.38 KCAL/MOL
REMARK 922        TOTAL FREE ENERGY PREDICTED BY IDOCK:  -11.70 KCAL/MOL
REMARK 923 INTER-LIGAND FREE ENERGY PREDICTED BY IDOCK:  -10.41 KCAL/MOL
REMARK 924 INTRA-LIGAND FREE ENERGY PREDICTED BY IDOCK:   -1.28 KCAL/MOL
REMARK 927      BINDING AFFINITY PREDICTED BY RF-SCORE:    0.00 PKD
ROOT
HETATM    1  O   UNL     1     -12.374   5.918  72.259  1.00  0.00    -0.206 OA 
HETATM    2  C   UNL     1     -12.166   7.031  71.789  1.00  0.00    -0.351 C  
HETATM    3  N   UNL     1     -12.757   8.160  72.284  1.00  0.00    -0.507 N  
HETATM    4  C   UNL     1     -12.557   9.437  71.743  1.00  0.00    -0.387 A  
HETATM    5  H   UNL     1     -13.375   8.068  73.090  1.00  0.00     0.000 HD 
HETATM    6  C   UNL     1     -13.211  10.539  72.294  1.00  0.00    -0.253 A  
HETATM    7  C   UNL     1     -13.028  11.806  71.734  1.00  0.00    -0.361 A  
HETATM    8  C   UNL     1     -11.243   7.207  70.640  1.00  0.00    -0.311 C  
HETATM    9  C   UNL     1     -12.186  11.952  70.624  1.00  0.00    -0.424 A  
HETATM   10  C   UNL     1     -11.024   8.411  70.098  1.00  0.00    -0.216 C  
HETATM   11  C   UNL     1     -11.525  10.848  70.079  1.00  0.00    -0.411 A  
HETATM   12  C   UNL     1     -11.704   9.586  70.641  1.00  0.00    -0.330 A  
ENDROOT
BRANCH   7  13
HETATM   13  O   UNL     1     -13.717  12.817  72.353  1.00  0.00    -0.546 OA 
BRANCH  13  14
HETATM   14  C   UNL     1     -13.574  14.105  71.755  1.00  0.00    -0.399 C  
BRANCH  14  15
HETATM   15  C   UNL     1     -12.832  15.041  72.703  1.00  0.00    -0.475 C  
BRANCH  15  16
HETATM   16  C   UNL     1     -11.902  15.996  71.948  1.00  0.00    -0.619 C  
BRANCH  16  17
HETATM   17  C   UNL     1     -10.932  15.322  70.960  1.00  0.00    -0.226 C  
BRANCH  17  18
HETATM   18  N   UNL     1     -10.678  16.091  69.735  1.00  0.00    -0.305 NA 
HETATM   19  C   UNL     1      -9.518  15.590  68.957  1.00  0.00    -0.242 C  
HETATM   20  C   UNL     1      -9.725  14.226  68.254  1.00  0.00    -0.221 C  
HETATM   21  N   UNL     1     -10.945  14.250  67.439  1.00  0.00    -0.289 NA 
HETATM   22  C   UNL     1     -11.865  16.074  68.837  1.00  0.00    -0.242 C  
HETATM   23  C   UNL     1     -12.152  14.717  68.140  1.00  0.00    -0.164 C  
BRANCH  21  24
HETATM   24  C   UNL     1     -11.070  13.434  66.309  1.00  0.00    -0.293 A  
HETATM   25  C   UNL     1     -10.418  12.169  66.111  1.00  0.00    -0.281 A  
HETATM   26  C   UNL     1      -9.674  11.317  67.012  1.00  0.00    -0.208 A  
HETATM   27  C   UNL     1      -9.146  10.196  66.419  1.00  0.00    -0.152 A  
HETATM   28  S   UNL     1      -9.574  10.093  64.780  1.00  0.00    -0.316 SA 
HETATM   29  C   UNL     1     -10.486  11.557  64.851  1.00  0.00    -0.291 A  
HETATM   30  C   UNL     1     -11.215  12.111  63.784  1.00  0.00    -0.509 A  
HETATM   31  C   UNL     1     -11.900  13.298  63.992  1.00  0.00    -0.512 A  
HETATM   32  C   UNL     1     -11.823  13.939  65.221  1.00  0.00    -0.365 A  
ENDBRANCH  21  24
ENDBRANCH  17  18
ENDBRANCH  16  17
ENDBRANCH  15  16
ENDBRANCH  14  15
ENDBRANCH  13  14
ENDBRANCH   7  13
TORSDOF 7
ENDMDL
MODEL        9
REMARK 921   NORMALIZED FREE ENERGY PREDICTED BY IDOCK:   -7.36 KCAL/MOL
REMARK 922        TOTAL FREE ENERGY PREDICTED BY IDOCK:  -11.68 KCAL/MOL
REMARK 923 INTER-LIGAND FREE ENERGY PREDICTED BY IDOCK:   -9.99 KCAL/MOL
REMARK 924 INTRA-LIGAND FREE ENERGY PREDICTED BY IDOCK:   -1.69 KCAL/MOL
REMARK 927      BINDING AFFINITY PREDICTED BY RF-SCORE:    0.00 PKD
ROOT
HETATM    1  O   UNL     1      -9.643  19.138  66.675  1.00  0.00    -0.315 OA 
HETATM    2  C   UNL     1     -10.131  18.018  66.780  1.00  0.00    -0.356 C  
HETATM    3  N   UNL     1     -10.503  17.274  65.696  1.00  0.00    -0.267 N  
HETATM    4  C   UNL     1     -11.090  16.005  65.794  1.00  0.00    -0.032 A  
HETATM    5  H   UNL     1     -10.345  17.662  64.766  1.00  0.00     0.000 HD 
HETATM    6  C   UNL     1     -11.460  15.315  64.640  1.00  0.00    -0.356 A  
HETATM    7  C   UNL     1     -12.069  14.063  64.746  1.00  0.00    -0.437 A  
HETATM    8  C   UNL     1     -10.340  17.407  68.116  1.00  0.00    -0.366 C  
HETATM    9  C   UNL     1     -12.299  13.514  66.015  1.00  0.00    -0.486 A  
HETATM   10  C   UNL     1     -10.895  16.196  68.250  1.00  0.00    -0.326 C  
HETATM   11  C   UNL     1     -11.919  14.203  67.169  1.00  0.00    -0.460 A  
HETATM   12  C   UNL     1     -11.308  15.451  67.063  1.00  0.00    -0.175 A  
ENDROOT
BRANCH   7  13
HETATM   13  O   UNL     1     -12.391  13.472  63.550  1.00  0.00    -0.711 OA 
BRANCH  13  14
HETATM   14  C   UNL     1     -12.146  12.068  63.479  1.00  0.00    -0.526 C  
BRANCH  14  15
HETATM   15  C   UNL     1     -10.692  11.811  63.101  1.00  0.00    -0.319 C  
BRANCH  15  16
HETATM   16  C   UNL     1     -10.024  10.813  64.052  1.00  0.00    -0.403 C  
BRANCH  16  17
HETATM   17  C   UNL     1      -9.319  11.439  65.269  1.00  0.00    -0.171 C  
BRANCH  17  18
HETATM   18  N   UNL     1      -8.924  10.477  66.306  1.00  0.00    -0.154 NA 
HETATM   19  C   UNL     1      -8.437  11.122  67.551  1.00  0.00    -0.126 C  
HETATM   20  C   UNL     1      -9.516  11.841  68.397  1.00  0.00    -0.188 C  
HETATM   21  N   UNL     1     -10.640  10.938  68.668  1.00  0.00    -0.183 NA 
HETATM   22  C   UNL     1     -10.063   9.591  66.674  1.00  0.00    -0.252 C  
HETATM   23  C   UNL     1     -11.201  10.269  67.483  1.00  0.00    -0.117 C  
BRANCH  21  24
HETATM   24  C   UNL     1     -11.428  11.097  69.813  1.00  0.00    -0.312 A  
HETATM   25  C   UNL     1     -11.973  10.034  70.612  1.00  0.00    -0.401 A  
HETATM   26  C   UNL     1     -11.727   8.609  70.616  1.00  0.00    -0.178 A  
HETATM   27  C   UNL     1     -12.504   7.907  71.506  1.00  0.00    -0.318 A  
HETATM   28  S   UNL     1     -13.507   8.935  72.409  1.00  0.00    -0.421 SA 
HETATM   29  C   UNL     1     -12.900  10.344  71.618  1.00  0.00    -0.474 A  
HETATM   30  C   UNL     1     -13.280  11.666  71.910  1.00  0.00    -0.475 A  
HETATM   31  C   UNL     1     -12.706  12.698  71.185  1.00  0.00    -0.347 A  
HETATM   32  C   UNL     1     -11.808  12.415  70.164  1.00  0.00    -0.341 A  
ENDBRANCH  21  24
ENDBRANCH  17  18
ENDBRANCH  16  17
ENDBRANCH  15  16
ENDBRANCH  14  15
ENDBRANCH  13  14
ENDBRANCH   7  13
TORSDOF 7
ENDMDL
MODEL       10
REMARK 921   NORMALIZED FREE ENERGY PREDICTED BY IDOCK:   -7.24 KCAL/MOL
REMARK 922        TOTAL FREE ENERGY PREDICTED BY IDOCK:  -11.51 KCAL/MOL
REMARK 923 INTER-LIGAND FREE ENERGY PREDICTED BY IDOCK:   -9.99 KCAL/MOL
REMARK 924 INTRA-LIGAND FREE ENERGY PREDICTED BY IDOCK:   -1.53 KCAL/MOL
REMARK 927      BINDING AFFINITY PREDICTED BY RF-SCORE:    0.00 PKD
ROOT
HETATM    1  O   UNL     1     -10.449  20.054  66.403  1.00  0.00    -0.454 OA 
HETATM    2  C   UNL     1     -10.098  18.883  66.499  1.00  0.00    -0.398 C  
HETATM    3  N   UNL     1     -10.611  17.894  65.706  1.00  0.00    -0.292 N  
HETATM    4  C   UNL     1     -10.247  16.545  65.820  1.00  0.00    -0.329 A  
HETATM    5  H   UNL     1     -11.295  18.151  64.994  1.00  0.00     0.000 HD 
HETATM    6  C   UNL     1     -10.830  15.592  64.986  1.00  0.00    -0.468 A  
HETATM    7  C   UNL     1     -10.482  14.246  65.122  1.00  0.00    -0.411 A  
HETATM    8  C   UNL     1      -9.078  18.478  67.499  1.00  0.00    -0.289 C  
HETATM    9  C   UNL     1      -9.548  13.872  66.098  1.00  0.00    -0.249 A  
HETATM   10  C   UNL     1      -8.702  17.201  67.635  1.00  0.00    -0.213 C  
HETATM   11  C   UNL     1      -8.958  14.830  66.926  1.00  0.00    -0.276 A  
HETATM   12  C   UNL     1      -9.303  16.173  66.787  1.00  0.00    -0.255 A  
ENDROOT
BRANCH   7  13
HETATM   13  O   UNL     1     -11.113  13.394  64.252  1.00  0.00    -0.374 OA 
BRANCH  13  14
HETATM   14  C   UNL     1     -11.143  12.025  64.655  1.00  0.00    -0.322 C  
BRANCH  14  15
HETATM   15  C   UNL     1     -10.144  11.218  63.832  1.00  0.00    -0.392 C  
BRANCH  15  16
HETATM   16  C   UNL     1      -9.500  10.099  64.657  1.00  0.00    -0.357 C  
BRANCH  16  17
HETATM   17  C   UNL     1      -8.821  10.554  65.962  1.00  0.00    -0.165 C  
BRANCH  17  18
HETATM   18  N   UNL     1      -9.073   9.681  67.116  1.00  0.00    -0.134 NA 
HETATM   19  C   UNL     1      -8.612  10.260  68.402  1.00  0.00    -0.125 C  
HETATM   20  C   UNL     1      -9.434  11.464  68.925  1.00  0.00    -0.050 C  
HETATM   21  N   UNL     1     -10.861  11.127  68.972  1.00  0.00    -0.218 NA 
HETATM   22  C   UNL     1     -10.524   9.380  67.252  1.00  0.00    -0.264 C  
HETATM   23  C   UNL     1     -11.408  10.564  67.728  1.00  0.00    -0.190 C  
BRANCH  21  24
HETATM   24  C   UNL     1     -11.715  11.753  69.887  1.00  0.00    -0.323 A  
HETATM   25  C   UNL     1     -11.978  13.164  69.962  1.00  0.00    -0.391 A  
HETATM   26  C   UNL     1     -11.648  14.254  69.071  1.00  0.00    -0.342 A  
HETATM   27  C   UNL     1     -12.027  15.491  69.532  1.00  0.00    -0.350 A  
HETATM   28  S   UNL     1     -12.845  15.385  71.014  1.00  0.00    -0.478 SA 
HETATM   29  C   UNL     1     -12.707  13.664  71.051  1.00  0.00    -0.332 A  
HETATM   30  C   UNL     1     -13.237  12.828  72.049  1.00  0.00    -0.538 A  
HETATM   31  C   UNL     1     -13.042  11.460  71.944  1.00  0.00    -0.505 A  
HETATM   32  C   UNL     1     -12.298  10.943  70.892  1.00  0.00    -0.501 A  
ENDBRANCH  21  24
ENDBRANCH  17  18
ENDBRANCH  16  17
ENDBRANCH  15  16
ENDBRANCH  14  15
ENDBRANCH  13  14
ENDBRANCH   7  13
TORSDOF 7
ENDMDL
MODEL       11
REMARK 921   NORMALIZED FREE ENERGY PREDICTED BY IDOCK:   -7.19 KCAL/MOL
REMARK 922        TOTAL FREE ENERGY PREDICTED BY IDOCK:  -11.43 KCAL/MOL
REMARK 923 INTER-LIGAND FREE ENERGY PREDICTED BY IDOCK:   -9.57 KCAL/MOL
REMARK 924 INTRA-LIGAND FREE ENERGY PREDICTED BY IDOCK:   -1.86 KCAL/MOL
REMARK 927      BINDING AFFINITY PREDICTED BY RF-SCORE:    0.00 PKD
ROOT
HETATM    1  O   UNL     1     -12.634   6.684  71.585  1.00  0.00    -0.347 OA 
HETATM    2  C   UNL     1     -11.743   7.392  71.128  1.00  0.00    -0.294 C  
HETATM    3  N   UNL     1     -11.507   7.502  69.786  1.00  0.00    -0.469 N  
HETATM    4  C   UNL     1     -10.475   8.281  69.244  1.00  0.00    -0.210 A  
HETATM    5  H   UNL     1     -12.115   6.991  69.145  1.00  0.00     0.000 HD 
HETATM    6  C   UNL     1     -10.287   8.327  67.863  1.00  0.00    -0.278 A  
HETATM    7  C   UNL     1      -9.241   9.084  67.330  1.00  0.00    -0.138 A  
HETATM    8  C   UNL     1     -10.864   8.179  72.029  1.00  0.00    -0.349 C  
HETATM    9  C   UNL     1      -8.393   9.790  68.194  1.00  0.00    -0.110 A  
HETATM   10  C   UNL     1      -9.871   8.936  71.549  1.00  0.00    -0.384 C  
HETATM   11  C   UNL     1      -8.589   9.749  69.577  1.00  0.00    -0.186 A  
HETATM   12  C   UNL     1      -9.635   8.997  70.108  1.00  0.00    -0.217 A  
ENDROOT
BRANCH   7  13
HETATM   13  O   UNL     1      -9.147   9.060  65.962  1.00  0.00    -0.178 OA 
BRANCH  13  14
HETATM   14  C   UNL     1      -9.962  10.013  65.280  1.00  0.00    -0.298 C  
BRANCH  14  15
HETATM   15  C   UNL     1      -9.410  10.263  63.880  1.00  0.00    -0.337 C  
BRANCH  15  16
HETATM   16  C   UNL     1      -9.916  11.586  63.297  1.00  0.00    -0.435 C  
BRANCH  16  17
HETATM   17  C   UNL     1     -11.084  12.235  64.061  1.00  0.00    -0.386 C  
BRANCH  17  18
HETATM   18  N   UNL     1     -10.868  13.641  64.425  1.00  0.00    -0.394 NA 
HETATM   19  C   UNL     1     -12.092  14.312  64.931  1.00  0.00    -0.435 C  
HETATM   20  C   UNL     1     -12.574  13.853  66.329  1.00  0.00    -0.330 C  
HETATM   21  N   UNL     1     -11.478  13.936  67.301  1.00  0.00    -0.326 NA 
HETATM   22  C   UNL     1      -9.819  13.767  65.473  1.00  0.00    -0.163 C  
HETATM   23  C   UNL     1     -10.229  13.278  66.888  1.00  0.00    -0.250 C  
BRANCH  21  24
HETATM   24  C   UNL     1     -11.739  14.140  68.660  1.00  0.00    -0.350 A  
HETATM   25  C   UNL     1     -12.129  13.127  69.602  1.00  0.00    -0.317 A  
HETATM   26  C   UNL     1     -12.160  11.684  69.507  1.00  0.00    -0.336 A  
HETATM   27  C   UNL     1     -12.662  11.058  70.622  1.00  0.00    -0.288 A  
HETATM   28  S   UNL     1     -13.053  12.169  71.843  1.00  0.00    -0.249 SA 
HETATM   29  C   UNL     1     -12.542  13.512  70.886  1.00  0.00    -0.337 A  
HETATM   30  C   UNL     1     -12.541  14.854  71.306  1.00  0.00    -0.402 A  
HETATM   31  C   UNL     1     -12.102  15.827  70.422  1.00  0.00    -0.399 A  
HETATM   32  C   UNL     1     -11.717  15.474  69.135  1.00  0.00    -0.380 A  
ENDBRANCH  21  24
ENDBRANCH  17  18
ENDBRANCH  16  17
ENDBRANCH  15  16
ENDBRANCH  14  15
ENDBRANCH  13  14
ENDBRANCH   7  13
TORSDOF 7
ENDMDL
MODEL       12
REMARK 921   NORMALIZED FREE ENERGY PREDICTED BY IDOCK:   -7.15 KCAL/MOL
REMARK 922        TOTAL FREE ENERGY PREDICTED BY IDOCK:  -11.38 KCAL/MOL
REMARK 923 INTER-LIGAND FREE ENERGY PREDICTED BY IDOCK:   -9.83 KCAL/MOL
REMARK 924 INTRA-LIGAND FREE ENERGY PREDICTED BY IDOCK:   -1.55 KCAL/MOL
REMARK 927      BINDING AFFINITY PREDICTED BY RF-SCORE:    0.00 PKD
ROOT
HETATM    1  O   UNL     1     -12.465  14.485  63.902  1.00  0.00    -0.814 OA 
HETATM    2  C   UNL     1     -11.994  13.498  64.455  1.00  0.00    -0.422 C  
HETATM    3  N   UNL     1     -12.184  13.238  65.783  1.00  0.00    -0.442 N  
HETATM    4  C   UNL     1     -11.628  12.132  66.442  1.00  0.00    -0.364 A  
HETATM    5  H   UNL     1     -12.760  13.883  66.324  1.00  0.00     0.000 HD 
HETATM    6  C   UNL     1     -11.853  11.946  67.806  1.00  0.00    -0.289 A  
HETATM    7  C   UNL     1     -11.276  10.857  68.462  1.00  0.00    -0.274 A  
HETATM    8  C   UNL     1     -11.181  12.518  63.691  1.00  0.00    -0.545 C  
HETATM    9  C   UNL     1     -10.477   9.962  67.737  1.00  0.00    -0.292 A  
HETATM   10  C   UNL     1     -10.638  11.448  64.284  1.00  0.00    -0.416 C  
HETATM   11  C   UNL     1     -10.261  10.145  66.369  1.00  0.00    -0.288 A  
HETATM   12  C   UNL     1     -10.840  11.230  65.714  1.00  0.00    -0.257 A  
ENDROOT
BRANCH   7  13
HETATM   13  O   UNL     1     -11.562  10.768  69.800  1.00  0.00    -0.263 OA 
BRANCH  13  14
HETATM   14  C   UNL     1     -12.862  11.222  70.176  1.00  0.00     0.056 C  
BRANCH  14  15
HETATM   15  C   UNL     1     -12.930  11.415  71.687  1.00  0.00    -0.523 C  
BRANCH  15  16
HETATM   16  C   UNL     1     -13.611  12.734  72.062  1.00  0.00    -0.460 C  
BRANCH  16  17
HETATM   17  C   UNL     1     -12.668  13.835  72.580  1.00  0.00    -0.098 C  
BRANCH  17  18
HETATM   18  N   UNL     1     -12.979  15.184  72.091  1.00  0.00    -0.328 NA 
HETATM   19  C   UNL     1     -11.822  16.112  72.149  1.00  0.00    -0.536 C  
HETATM   20  C   UNL     1     -10.688  15.828  71.133  1.00  0.00     0.189 C  
HETATM   21  N   UNL     1     -11.230  15.733  69.773  1.00  0.00    -0.301 NA 
HETATM   22  C   UNL     1     -13.456  15.145  70.682  1.00  0.00    -0.200 C  
HETATM   23  C   UNL     1     -12.371  14.817  69.621  1.00  0.00    -0.215 C  
BRANCH  21  24
HETATM   24  C   UNL     1     -10.440  16.050  68.663  1.00  0.00    -0.251 A  
HETATM   25  C   UNL     1     -10.163  17.375  68.179  1.00  0.00    -0.350 A  
HETATM   26  C   UNL     1     -10.406  18.680  68.753  1.00  0.00    -0.203 A  
HETATM   27  C   UNL     1     -10.045  19.727  67.941  1.00  0.00    -0.430 A  
HETATM   28  S   UNL     1      -9.347  19.186  66.492  1.00  0.00    -0.357 SA 
HETATM   29  C   UNL     1      -9.514  17.528  66.946  1.00  0.00    -0.274 A  
HETATM   30  C   UNL     1      -9.076  16.431  66.184  1.00  0.00    -0.362 A  
HETATM   31  C   UNL     1      -9.283  15.153  66.680  1.00  0.00    -0.298 A  
HETATM   32  C   UNL     1      -9.950  14.973  67.885  1.00  0.00    -0.222 A  
ENDBRANCH  21  24
ENDBRANCH  17  18
ENDBRANCH  16  17
ENDBRANCH  15  16
ENDBRANCH  14  15
ENDBRANCH  13  14
ENDBRANCH   7  13
TORSDOF 7
ENDMDL
MODEL       13
REMARK 921   NORMALIZED FREE ENERGY PREDICTED BY IDOCK:   -7.15 KCAL/MOL
REMARK 922        TOTAL FREE ENERGY PREDICTED BY IDOCK:  -11.38 KCAL/MOL
REMARK 923 INTER-LIGAND FREE ENERGY PREDICTED BY IDOCK:  -10.06 KCAL/MOL
REMARK 924 INTRA-LIGAND FREE ENERGY PREDICTED BY IDOCK:   -1.32 KCAL/MOL
REMARK 927      BINDING AFFINITY PREDICTED BY RF-SCORE:    0.00 PKD
ROOT
HETATM    1  O   UNL     1     -12.667  14.470  64.020  1.00  0.00    -0.759 OA 
HETATM    2  C   UNL     1     -12.070  13.435  64.295  1.00  0.00    -0.424 C  
HETATM    3  N   UNL     1     -12.059  12.907  65.556  1.00  0.00    -0.434 N  
HETATM    4  C   UNL     1     -11.358  11.742  65.900  1.00  0.00    -0.263 A  
HETATM    5  H   UNL     1     -12.588  13.385  66.285  1.00  0.00     0.000 HD 
HETATM    6  C   UNL     1     -11.379  11.276  67.214  1.00  0.00    -0.329 A  
HETATM    7  C   UNL     1     -10.658  10.130  67.555  1.00  0.00    -0.273 A  
HETATM    8  C   UNL     1     -11.321  12.693  63.251  1.00  0.00    -0.306 C  
HETATM    9  C   UNL     1      -9.921   9.461  66.568  1.00  0.00    -0.339 A  
HETATM   10  C   UNL     1     -10.643  11.575  63.540  1.00  0.00    -0.487 C  
HETATM   11  C   UNL     1      -9.908   9.925  65.250  1.00  0.00    -0.373 A  
HETATM   12  C   UNL     1     -10.632  11.066  64.909  1.00  0.00    -0.328 A  
ENDROOT
BRANCH   7  13
HETATM   13  O   UNL     1     -10.749   9.759  68.872  1.00  0.00    -0.216 OA 
BRANCH  13  14
HETATM   14  C   UNL     1     -10.803  10.838  69.806  1.00  0.00    -0.226 C  
BRANCH  14  15
HETATM   15  C   UNL     1     -12.021  10.683  70.710  1.00  0.00    -0.477 C  
BRANCH  15  16
HETATM   16  C   UNL     1     -12.659  12.035  71.042  1.00  0.00    -0.370 C  
BRANCH  16  17
HETATM   17  C   UNL     1     -11.886  13.266  70.536  1.00  0.00    -0.134 C  
BRANCH  17  18
HETATM   18  N   UNL     1     -12.733  14.350  70.021  1.00  0.00    -0.235 NA 
HETATM   19  C   UNL     1     -12.514  15.645  70.710  1.00  0.00    -0.435 C  
HETATM   20  C   UNL     1     -11.163  16.340  70.412  1.00  0.00    -0.324 C  
HETATM   21  N   UNL     1     -10.959  16.463  68.964  1.00  0.00    -0.319 NA 
HETATM   22  C   UNL     1     -12.499  14.566  68.567  1.00  0.00     0.201 C  
HETATM   23  C   UNL     1     -11.137  15.217  68.202  1.00  0.00    -0.304 C  
BRANCH  21  24
HETATM   24  C   UNL     1     -10.175  17.494  68.435  1.00  0.00    -0.372 A  
HETATM   25  C   UNL     1      -8.750  17.620  68.570  1.00  0.00    -0.285 A  
HETATM   26  C   UNL     1      -7.744  16.702  69.058  1.00  0.00    -0.221 A  
HETATM   27  C   UNL     1      -6.474  17.224  69.086  1.00  0.00    -0.235 A  
HETATM   28  S   UNL     1      -6.431  18.805  68.472  1.00  0.00    -0.230 SA 
HETATM   29  C   UNL     1      -8.127  18.805  68.151  1.00  0.00    -0.299 A  
HETATM   30  C   UNL     1      -8.840  19.859  67.554  1.00  0.00    -0.411 A  
HETATM   31  C   UNL     1     -10.205  19.714  67.363  1.00  0.00    -0.561 A  
HETATM   32  C   UNL     1     -10.850  18.563  67.796  1.00  0.00    -0.289 A  
ENDBRANCH  21  24
ENDBRANCH  17  18
ENDBRANCH  16  17
ENDBRANCH  15  16
ENDBRANCH  14  15
ENDBRANCH  13  14
ENDBRANCH   7  13
TORSDOF 7
ENDMDL
MODEL       14
REMARK 921   NORMALIZED FREE ENERGY PREDICTED BY IDOCK:   -7.07 KCAL/MOL
REMARK 922        TOTAL FREE ENERGY PREDICTED BY IDOCK:  -11.27 KCAL/MOL
REMARK 923 INTER-LIGAND FREE ENERGY PREDICTED BY IDOCK:  -10.53 KCAL/MOL
REMARK 924 INTRA-LIGAND FREE ENERGY PREDICTED BY IDOCK:   -0.74 KCAL/MOL
REMARK 927      BINDING AFFINITY PREDICTED BY RF-SCORE:    0.00 PKD
ROOT
HETATM    1  O   UNL     1     -12.744  16.452  74.125  1.00  0.00    -0.691 OA 
HETATM    2  C   UNL     1     -12.534  15.941  73.031  1.00  0.00    -0.491 C  
HETATM    3  N   UNL     1     -11.830  16.576  72.046  1.00  0.00    -0.643 N  
HETATM    4  C   UNL     1     -11.604  16.023  70.778  1.00  0.00    -0.400 A  
HETATM    5  H   UNL     1     -11.448  17.501  72.245  1.00  0.00     0.000 HD 
HETATM    6  C   UNL     1     -10.891  16.743  69.819  1.00  0.00    -0.156 A  
HETATM    7  C   UNL     1     -10.692  16.197  68.549  1.00  0.00    -0.300 A  
HETATM    8  C   UNL     1     -13.042  14.581  72.720  1.00  0.00    -0.589 C  
HETATM    9  C   UNL     1     -11.213  14.929  68.255  1.00  0.00    -0.306 A  
HETATM   10  C   UNL     1     -12.844  14.019  71.522  1.00  0.00    -0.440 C  
HETATM   11  C   UNL     1     -11.919  14.207  69.220  1.00  0.00    -0.382 A  
HETATM   12  C   UNL     1     -12.114  14.750  70.489  1.00  0.00    -0.378 A  
ENDROOT
BRANCH   7  13
HETATM   13  O   UNL     1      -9.978  16.987  67.685  1.00  0.00    -0.265 OA 
BRANCH  13  14
HETATM   14  C   UNL     1      -9.646  16.379  66.437  1.00  0.00    -0.288 C  
BRANCH  14  15
HETATM   15  C   UNL     1     -10.634  16.821  65.362  1.00  0.00    -0.218 C  
BRANCH  15  16
HETATM   16  C   UNL     1     -11.074  15.651  64.478  1.00  0.00    -0.303 C  
BRANCH  16  17
HETATM   17  C   UNL     1     -10.397  14.304  64.788  1.00  0.00    -0.343 C  
BRANCH  17  18
HETATM   18  N   UNL     1     -11.129  13.127  64.302  1.00  0.00    -0.379 NA 
HETATM   19  C   UNL     1     -10.246  11.983  63.965  1.00  0.00    -0.365 C  
HETATM   20  C   UNL     1      -9.582  11.275  65.171  1.00  0.00    -0.235 C  
HETATM   21  N   UNL     1     -10.594  10.894  66.162  1.00  0.00    -0.237 NA 
HETATM   22  C   UNL     1     -12.113  12.654  65.313  1.00  0.00    -0.467 C  
HETATM   23  C   UNL     1     -11.503  11.977  66.570  1.00  0.00    -0.349 C  
BRANCH  21  24
HETATM   24  C   UNL     1     -10.392   9.801  67.011  1.00  0.00    -0.239 A  
HETATM   25  C   UNL     1     -10.722   9.750  68.409  1.00  0.00    -0.262 A  
HETATM   26  C   UNL     1     -11.492  10.640  69.250  1.00  0.00    -0.351 A  
HETATM   27  C   UNL     1     -11.531  10.271  70.572  1.00  0.00    -0.343 A  
HETATM   28  S   UNL     1     -10.702   8.815  70.842  1.00  0.00    -0.245 SA 
HETATM   29  C   UNL     1     -10.286   8.658  69.173  1.00  0.00    -0.217 A  
HETATM   30  C   UNL     1      -9.578   7.581  68.611  1.00  0.00    -0.151 A  
HETATM   31  C   UNL     1      -9.315   7.596  67.250  1.00  0.00    -0.174 A  
HETATM   32  C   UNL     1      -9.711   8.680  66.478  1.00  0.00    -0.325 A  
ENDBRANCH  21  24
ENDBRANCH  17  18
ENDBRANCH  16  17
ENDBRANCH  15  16
ENDBRANCH  14  15
ENDBRANCH  13  14
ENDBRANCH   7  13
TORSDOF 7
ENDMDL
MODEL       15
REMARK 921   NORMALIZED FREE ENERGY PREDICTED BY IDOCK:   -7.05 KCAL/MOL
REMARK 922        TOTAL FREE ENERGY PREDICTED BY IDOCK:  -11.24 KCAL/MOL
REMARK 923 INTER-LIGAND FREE ENERGY PREDICTED BY IDOCK:   -9.16 KCAL/MOL
REMARK 924 INTRA-LIGAND FREE ENERGY PREDICTED BY IDOCK:   -2.09 KCAL/MOL
REMARK 927      BINDING AFFINITY PREDICTED BY RF-SCORE:    0.00 PKD
ROOT
HETATM    1  O   UNL     1     -13.948   6.843  71.695  1.00  0.00    -0.299 OA 
HETATM    2  C   UNL     1     -12.804   7.238  71.499  1.00  0.00    -0.388 C  
HETATM    3  N   UNL     1     -12.199   7.159  70.275  1.00  0.00    -0.592 N  
HETATM    4  C   UNL     1     -10.882   7.576  70.036  1.00  0.00    -0.249 A  
HETATM    5  H   UNL     1     -12.734   6.777  69.495  1.00  0.00     0.000 HD 
HETATM    6  C   UNL     1     -10.329   7.446  68.763  1.00  0.00    -0.209 A  
HETATM    7  C   UNL     1      -9.008   7.839  68.536  1.00  0.00    -0.133 A  
HETATM    8  C   UNL     1     -12.009   7.833  72.602  1.00  0.00    -0.257 C  
HETATM    9  C   UNL     1      -8.255   8.362  69.596  1.00  0.00    -0.117 A  
HETATM   10  C   UNL     1     -10.750   8.246  72.411  1.00  0.00    -0.411 C  
HETATM   11  C   UNL     1      -8.814   8.500  70.869  1.00  0.00    -0.203 A  
HETATM   12  C   UNL     1     -10.133   8.111  71.093  1.00  0.00    -0.222 A  
ENDROOT
BRANCH   7  13
HETATM   13  O   UNL     1      -8.565   7.669  67.249  1.00  0.00    -0.120 OA 
BRANCH  13  14
HETATM   14  C   UNL     1      -9.302   8.377  66.253  1.00  0.00    -0.219 C  
BRANCH  14  15
HETATM   15  C   UNL     1      -8.371   8.809  65.125  1.00  0.00    -0.176 C  
BRANCH  15  16
HETATM   16  C   UNL     1      -8.240  10.333  65.048  1.00  0.00    -0.154 C  
BRANCH  16  17
HETATM   17  C   UNL     1      -9.558  11.113  65.208  1.00  0.00    -0.230 C  
BRANCH  17  18
HETATM   18  N   UNL     1      -9.423  12.401  65.901  1.00  0.00    -0.182 NA 
HETATM   19  C   UNL     1     -10.706  13.135  66.030  1.00  0.00    -0.276 C  
HETATM   20  C   UNL     1     -11.729  12.524  67.020  1.00  0.00    -0.367 C  
HETATM   21  N   UNL     1     -11.105  12.303  68.329  1.00  0.00    -0.222 NA 
HETATM   22  C   UNL     1      -8.869  12.216  67.270  1.00  0.00    -0.186 C  
HETATM   23  C   UNL     1      -9.834  11.562  68.295  1.00  0.00    -0.203 C  
BRANCH  21  24
HETATM   24  C   UNL     1     -11.870  12.316  69.500  1.00  0.00    -0.315 A  
HETATM   25  C   UNL     1     -12.199  13.479  70.277  1.00  0.00    -0.417 A  
HETATM   26  C   UNL     1     -12.044  14.892  70.007  1.00  0.00    -0.387 A  
HETATM   27  C   UNL     1     -12.430  15.707  71.043  1.00  0.00    -0.447 A  
HETATM   28  S   UNL     1     -13.048  14.815  72.347  1.00  0.00    -0.413 SA 
HETATM   29  C   UNL     1     -12.811  13.314  71.527  1.00  0.00    -0.327 A  
HETATM   30  C   UNL     1     -13.165  12.050  72.030  1.00  0.00    -0.481 A  
HETATM   31  C   UNL     1     -12.910  10.930  71.254  1.00  0.00    -0.536 A  
HETATM   32  C   UNL     1     -12.277  11.065  70.026  1.00  0.00    -0.418 A  
ENDBRANCH  21  24
ENDBRANCH  17  18
ENDBRANCH  16  17
ENDBRANCH  15  16
ENDBRANCH  14  15
ENDBRANCH  13  14
ENDBRANCH   7  13
TORSDOF 7
ENDMDL
MODEL       16
REMARK 921   NORMALIZED FREE ENERGY PREDICTED BY IDOCK:   -7.00 KCAL/MOL
REMARK 922        TOTAL FREE ENERGY PREDICTED BY IDOCK:  -11.17 KCAL/MOL
REMARK 923 INTER-LIGAND FREE ENERGY PREDICTED BY IDOCK:   -9.70 KCAL/MOL
REMARK 924 INTRA-LIGAND FREE ENERGY PREDICTED BY IDOCK:   -1.47 KCAL/MOL
REMARK 927      BINDING AFFINITY PREDICTED BY RF-SCORE:    0.00 PKD
ROOT
HETATM    1  O   UNL     1     -10.762  16.552  69.536  1.00  0.00    -0.300 OA 
HETATM    2  C   UNL     1     -11.361  15.691  70.172  1.00  0.00    -0.344 C  
HETATM    3  N   UNL     1     -11.259  14.359  69.881  1.00  0.00    -0.404 N  
HETATM    4  C   UNL     1     -11.958  13.361  70.574  1.00  0.00    -0.255 A  
HETATM    5  H   UNL     1     -10.641  14.076  69.120  1.00  0.00     0.000 HD 
HETATM    6  C   UNL     1     -11.816  12.024  70.206  1.00  0.00    -0.356 A  
HETATM    7  C   UNL     1     -12.535  11.037  70.883  1.00  0.00    -0.410 A  
HETATM    8  C   UNL     1     -12.240  16.063  71.309  1.00  0.00    -0.399 C  
HETATM    9  C   UNL     1     -13.393  11.406  71.928  1.00  0.00    -0.409 A  
HETATM   10  C   UNL     1     -12.921  15.139  71.996  1.00  0.00    -0.437 C  
HETATM   11  C   UNL     1     -13.527  12.745  72.302  1.00  0.00    -0.591 A  
HETATM   12  C   UNL     1     -12.806  13.729  71.628  1.00  0.00    -0.438 A  
ENDROOT
BRANCH   7  13
HETATM   13  O   UNL     1     -12.320   9.757  70.441  1.00  0.00    -0.154 OA 
BRANCH  13  14
HETATM   14  C   UNL     1     -12.003   8.806  71.458  1.00  0.00    -0.324 C  
BRANCH  14  15
HETATM   15  C   UNL     1     -10.503   8.816  71.732  1.00  0.00    -0.417 C  
BRANCH  15  16
HETATM   16  C   UNL     1      -9.719   8.093  70.632  1.00  0.00    -0.184 C  
BRANCH  16  17
HETATM   17  C   UNL     1      -8.977   9.012  69.644  1.00  0.00    -0.153 C  
BRANCH  17  18
HETATM   18  N   UNL     1      -8.914   8.502  68.268  1.00  0.00    -0.139 NA 
HETATM   19  C   UNL     1     -10.240   8.433  67.606  1.00  0.00    -0.236 C  
HETATM   20  C   UNL     1     -10.878   9.797  67.245  1.00  0.00    -0.177 C  
HETATM   21  N   UNL     1      -9.936  10.614  66.472  1.00  0.00    -0.208 NA 
HETATM   22  C   UNL     1      -8.031   9.353  67.424  1.00  0.00    -0.106 C  
HETATM   23  C   UNL     1      -8.598  10.754  67.069  1.00  0.00    -0.130 C  
BRANCH  21  24
HETATM   24  C   UNL     1     -10.397  11.577  65.568  1.00  0.00    -0.273 A  
HETATM   25  C   UNL     1     -10.307  13.001  65.738  1.00  0.00    -0.296 A  
HETATM   26  C   UNL     1      -9.590  13.813  66.697  1.00  0.00    -0.295 A  
HETATM   27  C   UNL     1      -9.810  15.163  66.566  1.00  0.00    -0.262 A  
HETATM   28  S   UNL     1     -10.830  15.508  65.255  1.00  0.00    -0.413 SA 
HETATM   29  C   UNL     1     -10.982  13.840  64.839  1.00  0.00    -0.375 A  
HETATM   30  C   UNL     1     -11.705  13.339  63.742  1.00  0.00    -0.475 A  
HETATM   31  C   UNL     1     -11.739  11.969  63.537  1.00  0.00    -0.566 A  
HETATM   32  C   UNL     1     -11.103  11.116  64.430  1.00  0.00    -0.175 A  
ENDBRANCH  21  24
ENDBRANCH  17  18
ENDBRANCH  16  17
ENDBRANCH  15  16
ENDBRANCH  14  15
ENDBRANCH  13  14
ENDBRANCH   7  13
TORSDOF 7
ENDMDL
MODEL       17
REMARK 921   NORMALIZED FREE ENERGY PREDICTED BY IDOCK:   -6.99 KCAL/MOL
REMARK 922        TOTAL FREE ENERGY PREDICTED BY IDOCK:  -11.15 KCAL/MOL
REMARK 923 INTER-LIGAND FREE ENERGY PREDICTED BY IDOCK:  -10.14 KCAL/MOL
REMARK 924 INTRA-LIGAND FREE ENERGY PREDICTED BY IDOCK:   -1.02 KCAL/MOL
REMARK 927      BINDING AFFINITY PREDICTED BY RF-SCORE:    0.00 PKD
ROOT
HETATM    1  O   UNL     1     -10.834   9.123  69.927  1.00  0.00    -0.230 OA 
HETATM    2  C   UNL     1     -11.516  10.016  70.417  1.00  0.00    -0.314 C  
HETATM    3  N   UNL     1     -11.445  11.313  69.991  1.00  0.00    -0.416 N  
HETATM    4  C   UNL     1     -12.192  12.355  70.556  1.00  0.00    -0.295 A  
HETATM    5  H   UNL     1     -10.814  11.534  69.220  1.00  0.00     0.000 HD 
HETATM    6  C   UNL     1     -12.049  13.657  70.078  1.00  0.00    -0.417 A  
HETATM    7  C   UNL     1     -12.778  14.695  70.663  1.00  0.00    -0.357 A  
HETATM    8  C   UNL     1     -12.472   9.724  71.515  1.00  0.00    -0.495 C  
HETATM    9  C   UNL     1     -13.646  14.412  71.726  1.00  0.00    -0.479 A  
HETATM   10  C   UNL     1     -13.206  10.691  72.078  1.00  0.00    -0.473 C  
HETATM   11  C   UNL     1     -13.795  13.106  72.198  1.00  0.00    -0.506 A  
HETATM   12  C   UNL     1     -13.071  12.069  71.611  1.00  0.00    -0.422 A  
ENDROOT
BRANCH   7  13
HETATM   13  O   UNL     1     -12.563  15.934  70.116  1.00  0.00    -0.297 OA 
BRANCH  13  14
HETATM   14  C   UNL     1     -11.542  15.990  69.120  1.00  0.00    -0.336 C  
BRANCH  14  15
HETATM   15  C   UNL     1     -10.426  16.927  69.570  1.00  0.00    -0.228 C  
BRANCH  15  16
HETATM   16  C   UNL     1      -9.826  17.703  68.393  1.00  0.00    -0.334 C  
BRANCH  16  17
HETATM   17  C   UNL     1     -10.691  17.737  67.121  1.00  0.00    -0.216 C  
BRANCH  17  18
HETATM   18  N   UNL     1      -9.963  17.437  65.881  1.00  0.00    -0.541 NA 
HETATM   19  C   UNL     1      -8.801  16.538  66.084  1.00  0.00    -0.306 C  
HETATM   20  C   UNL     1      -9.147  15.068  66.430  1.00  0.00    -0.277 C  
HETATM   21  N   UNL     1     -10.083  14.517  65.444  1.00  0.00    -0.365 NA 
HETATM   22  C   UNL     1     -10.858  16.798  64.877  1.00  0.00    -0.073 C  
HETATM   23  C   UNL     1     -11.278  15.337  65.195  1.00  0.00    -0.370 C  
BRANCH  21  24
HETATM   24  C   UNL     1     -10.113  13.144  65.173  1.00  0.00    -0.223 A  
HETATM   25  C   UNL     1      -9.593  12.109  66.023  1.00  0.00    -0.242 A  
HETATM   26  C   UNL     1      -9.117  12.132  67.389  1.00  0.00    -0.181 A  
HETATM   27  C   UNL     1      -8.635  10.926  67.837  1.00  0.00    -0.130 A  
HETATM   28  S   UNL     1      -8.793   9.712  66.661  1.00  0.00    -0.139 SA 
HETATM   29  C   UNL     1      -9.523  10.796  65.534  1.00  0.00    -0.210 A  
HETATM   30  C   UNL     1      -9.991  10.444  64.256  1.00  0.00    -0.368 A  
HETATM   31  C   UNL     1     -10.554  11.428  63.459  1.00  0.00    -0.468 A  
HETATM   32  C   UNL     1     -10.608  12.741  63.909  1.00  0.00    -0.427 A  
ENDBRANCH  21  24
ENDBRANCH  17  18
ENDBRANCH  16  17
ENDBRANCH  15  16
ENDBRANCH  14  15
ENDBRANCH  13  14
ENDBRANCH   7  13
TORSDOF 7
ENDMDL
MODEL       18
REMARK 921   NORMALIZED FREE ENERGY PREDICTED BY IDOCK:   -6.98 KCAL/MOL
REMARK 922        TOTAL FREE ENERGY PREDICTED BY IDOCK:  -11.14 KCAL/MOL
REMARK 923 INTER-LIGAND FREE ENERGY PREDICTED BY IDOCK:  -10.03 KCAL/MOL
REMARK 924 INTRA-LIGAND FREE ENERGY PREDICTED BY IDOCK:   -1.11 KCAL/MOL
REMARK 927      BINDING AFFINITY PREDICTED BY RF-SCORE:    0.00 PKD
ROOT
HETATM    1  O   UNL     1      -9.845   6.659  68.789  1.00  0.00    -0.136 OA 
HETATM    2  C   UNL     1     -10.657   7.222  69.515  1.00  0.00    -0.234 C  
HETATM    3  N   UNL     1     -10.796   8.583  69.545  1.00  0.00    -0.384 N  
HETATM    4  C   UNL     1     -11.695   9.249  70.389  1.00  0.00    -0.114 A  
HETATM    5  H   UNL     1     -10.213   9.142  68.921  1.00  0.00     0.000 HD 
HETATM    6  C   UNL     1     -11.764  10.642  70.376  1.00  0.00    -0.446 A  
HETATM    7  C   UNL     1     -12.644  11.301  71.237  1.00  0.00    -0.382 A  
HETATM    8  C   UNL     1     -11.546   6.439  70.409  1.00  0.00    -0.440 C  
HETATM    9  C   UNL     1     -13.448  10.551  72.105  1.00  0.00    -0.265 A  
HETATM   10  C   UNL     1     -12.420   7.039  71.226  1.00  0.00    -0.430 C  
HETATM   11  C   UNL     1     -13.384   9.155  72.111  1.00  0.00    -0.525 A  
HETATM   12  C   UNL     1     -12.509   8.498  71.248  1.00  0.00    -0.275 A  
ENDROOT
BRANCH   7  13
HETATM   13  O   UNL     1     -12.632  12.669  71.141  1.00  0.00    -0.366 OA 
BRANCH  13  14
HETATM   14  C   UNL     1     -13.424  13.354  72.111  1.00  0.00    -0.552 C  
BRANCH  14  15
HETATM   15  C   UNL     1     -13.349  14.859  71.876  1.00  0.00    -0.458 C  
BRANCH  15  16
HETATM   16  C   UNL     1     -11.994  15.278  71.297  1.00  0.00    -0.409 C  
BRANCH  16  17
HETATM   17  C   UNL     1     -12.033  15.799  69.849  1.00  0.00    -0.332 C  
BRANCH  17  18
HETATM   18  N   UNL     1     -10.746  15.734  69.144  1.00  0.00    -0.230 NA 
HETATM   19  C   UNL     1     -10.147  14.377  69.137  1.00  0.00    -0.098 C  
HETATM   20  C   UNL     1     -10.871  13.332  68.253  1.00  0.00    -0.256 C  
HETATM   21  N   UNL     1     -11.043  13.846  66.890  1.00  0.00    -0.296 NA 
HETATM   22  C   UNL     1     -10.891  16.170  67.728  1.00  0.00    -0.318 C  
HETATM   23  C   UNL     1     -11.652  15.183  66.802  1.00  0.00    -0.134 C  
BRANCH  21  24
HETATM   24  C   UNL     1     -11.122  12.974  65.799  1.00  0.00    -0.278 A  
HETATM   25  C   UNL     1     -10.157  11.966  65.457  1.00  0.00    -0.277 A  
HETATM   26  C   UNL     1      -9.022  11.436  66.180  1.00  0.00    -0.207 A  
HETATM   27  C   UNL     1      -8.294  10.505  65.479  1.00  0.00    -0.170 A  
HETATM   28  S   UNL     1      -8.978  10.189  63.959  1.00  0.00    -0.258 SA 
HETATM   29  C   UNL     1     -10.273  11.298  64.230  1.00  0.00    -0.327 A  
HETATM   30  C   UNL     1     -11.333  11.541  63.338  1.00  0.00    -0.303 A  
HETATM   31  C   UNL     1     -12.302  12.466  63.694  1.00  0.00    -0.647 A  
HETATM   32  C   UNL     1     -12.193  13.162  64.891  1.00  0.00    -0.477 A  
ENDBRANCH  21  24
ENDBRANCH  17  18
ENDBRANCH  16  17
ENDBRANCH  15  16
ENDBRANCH  14  15
ENDBRANCH  13  14
ENDBRANCH   7  13
TORSDOF 7
ENDMDL
MODEL       19
REMARK 921   NORMALIZED FREE ENERGY PREDICTED BY IDOCK:   -6.93 KCAL/MOL
REMARK 922        TOTAL FREE ENERGY PREDICTED BY IDOCK:  -11.07 KCAL/MOL
REMARK 923 INTER-LIGAND FREE ENERGY PREDICTED BY IDOCK:   -8.98 KCAL/MOL
REMARK 924 INTRA-LIGAND FREE ENERGY PREDICTED BY IDOCK:   -2.09 KCAL/MOL
REMARK 927      BINDING AFFINITY PREDICTED BY RF-SCORE:    0.00 PKD
ROOT
HETATM    1  O   UNL     1     -11.370   6.091  71.595  1.00  0.00    -0.278 OA 
HETATM    2  C   UNL     1     -10.847   7.048  71.036  1.00  0.00    -0.238 C  
HETATM    3  N   UNL     1     -10.965   7.267  69.691  1.00  0.00    -0.354 N  
HETATM    4  C   UNL     1     -10.350   8.337  69.026  1.00  0.00    -0.221 A  
HETATM    5  H   UNL     1     -11.530   6.618  69.144  1.00  0.00     0.000 HD 
HETATM    6  C   UNL     1     -10.503   8.482  67.647  1.00  0.00    -0.308 A  
HETATM    7  C   UNL     1      -9.866   9.535  66.986  1.00  0.00    -0.190 A  
HETATM    8  C   UNL     1     -10.048   8.032  71.807  1.00  0.00    -0.249 C  
HETATM    9  C   UNL     1      -9.081  10.434  67.721  1.00  0.00    -0.134 A  
HETATM   10  C   UNL     1      -9.449   9.068  71.208  1.00  0.00    -0.339 C  
HETATM   11  C   UNL     1      -8.937  10.292  69.103  1.00  0.00    -0.187 A  
HETATM   12  C   UNL     1      -9.576   9.244  69.763  1.00  0.00    -0.203 A  
ENDROOT
BRANCH   7  13
HETATM   13  O   UNL     1     -10.084   9.585  65.633  1.00  0.00    -0.285 OA 
BRANCH  13  14
HETATM   14  C   UNL     1      -9.736  10.819  65.006  1.00  0.00    -0.269 C  
BRANCH  14  15
HETATM   15  C   UNL     1     -10.770  11.173  63.943  1.00  0.00    -0.407 C  
BRANCH  15  16
HETATM   16  C   UNL     1     -10.872  12.687  63.731  1.00  0.00    -0.466 C  
BRANCH  16  17
HETATM   17  C   UNL     1     -10.066  13.544  64.723  1.00  0.00    -0.240 C  
BRANCH  17  18
HETATM   18  N   UNL     1     -10.847  14.586  65.403  1.00  0.00    -0.332 NA 
HETATM   19  C   UNL     1     -12.259  14.198  65.645  1.00  0.00    -0.435 C  
HETATM   20  C   UNL     1     -12.476  13.104  66.720  1.00  0.00     0.074 C  
HETATM   21  N   UNL     1     -11.801  13.473  67.969  1.00  0.00    -0.360 NA 
HETATM   22  C   UNL     1     -10.243  14.934  66.718  1.00  0.00    -0.259 C  
HETATM   23  C   UNL     1     -10.387  13.854  67.824  1.00  0.00    -0.240 C  
BRANCH  21  24
HETATM   24  C   UNL     1     -12.272  13.011  69.203  1.00  0.00    -0.061 A  
HETATM   25  C   UNL     1     -12.602  13.830  70.337  1.00  0.00    -0.325 A  
HETATM   26  C   UNL     1     -12.747  15.262  70.481  1.00  0.00    -0.440 A  
HETATM   27  C   UNL     1     -13.016  15.673  71.764  1.00  0.00    -0.465 A  
HETATM   28  S   UNL     1     -13.166  14.358  72.826  1.00  0.00    -0.503 SA 
HETATM   29  C   UNL     1     -12.879  13.213  71.566  1.00  0.00    -0.307 A  
HETATM   30  C   UNL     1     -12.896  11.816  71.719  1.00  0.00    -0.403 A  
HETATM   31  C   UNL     1     -12.643  11.022  70.612  1.00  0.00    -0.427 A  
HETATM   32  C   UNL     1     -12.337  11.609  69.391  1.00  0.00    -0.131 A  
ENDBRANCH  21  24
ENDBRANCH  17  18
ENDBRANCH  16  17
ENDBRANCH  15  16
ENDBRANCH  14  15
ENDBRANCH  13  14
ENDBRANCH   7  13
TORSDOF 7
ENDMDL
MODEL       20
REMARK 921   NORMALIZED FREE ENERGY PREDICTED BY IDOCK:   -6.93 KCAL/MOL
REMARK 922        TOTAL FREE ENERGY PREDICTED BY IDOCK:  -11.07 KCAL/MOL
REMARK 923 INTER-LIGAND FREE ENERGY PREDICTED BY IDOCK:  -10.11 KCAL/MOL
REMARK 924 INTRA-LIGAND FREE ENERGY PREDICTED BY IDOCK:   -0.96 KCAL/MOL
REMARK 927      BINDING AFFINITY PREDICTED BY RF-SCORE:    0.00 PKD
ROOT
HETATM    1  O   UNL     1     -12.845  11.764  71.108  1.00  0.00    -0.350 OA 
HETATM    2  C   UNL     1     -12.154  10.967  70.482  1.00  0.00    -0.371 C  
HETATM    3  N   UNL     1     -11.822  11.155  69.169  1.00  0.00    -0.328 N  
HETATM    4  C   UNL     1     -11.061  10.242  68.426  1.00  0.00    -0.247 A  
HETATM    5  H   UNL     1     -12.146  12.004  68.706  1.00  0.00     0.000 HD 
HETATM    6  C   UNL     1     -10.780  10.497  67.084  1.00  0.00    -0.323 A  
HETATM    7  C   UNL     1     -10.043   9.571  66.342  1.00  0.00    -0.258 A  
HETATM    8  C   UNL     1     -11.635   9.739  71.135  1.00  0.00    -0.469 C  
HETATM    9  C   UNL     1      -9.593   8.396  66.960  1.00  0.00    -0.248 A  
HETATM   10  C   UNL     1     -10.902   8.846  70.459  1.00  0.00    -0.276 C  
HETATM   11  C   UNL     1      -9.868   8.147  68.307  1.00  0.00    -0.191 A  
HETATM   12  C   UNL     1     -10.600   9.073  69.048  1.00  0.00    -0.209 A  
ENDROOT
BRANCH   7  13
HETATM   13  O   UNL     1      -9.823   9.920  65.034  1.00  0.00    -0.317 OA 
BRANCH  13  14
HETATM   14  C   UNL     1      -9.984  11.308  64.740  1.00  0.00    -0.277 C  
BRANCH  14  15
HETATM   15  C   UNL     1     -10.713  11.477  63.411  1.00  0.00    -0.444 C  
BRANCH  15  16
HETATM   16  C   UNL     1     -11.875  12.469  63.523  1.00  0.00    -0.616 C  
BRANCH  16  17
HETATM   17  C   UNL     1     -12.547  12.538  64.907  1.00  0.00    -0.390 C  
BRANCH  17  18
HETATM   18  N   UNL     1     -12.967  13.885  65.314  1.00  0.00    -0.774 NA 
HETATM   19  C   UNL     1     -12.618  14.210  66.718  1.00  0.00     0.018 C  
HETATM   20  C   UNL     1     -11.109  14.418  67.000  1.00  0.00    -0.313 C  
HETATM   21  N   UNL     1     -10.545  15.400  66.068  1.00  0.00    -0.310 NA 
HETATM   22  C   UNL     1     -12.350  14.923  64.443  1.00  0.00    -0.323 C  
HETATM   23  C   UNL     1     -10.827  15.142  64.647  1.00  0.00    -0.263 C  
BRANCH  21  24
HETATM   24  C   UNL     1      -9.437  16.175  66.426  1.00  0.00    -0.295 A  
HETATM   25  C   UNL     1      -9.360  17.609  66.367  1.00  0.00    -0.265 A  
HETATM   26  C   UNL     1     -10.371  18.619  66.148  1.00  0.00    -0.481 A  
HETATM   27  C   UNL     1      -9.882  19.902  66.101  1.00  0.00    -0.458 A  
HETATM   28  S   UNL     1      -8.209  19.947  66.379  1.00  0.00    -0.317 SA 
HETATM   29  C   UNL     1      -8.122  18.234  66.576  1.00  0.00    -0.269 A  
HETATM   30  C   UNL     1      -6.958  17.512  66.893  1.00  0.00    -0.219 A  
HETATM   31  C   UNL     1      -7.044  16.134  67.017  1.00  0.00    -0.248 A  
HETATM   32  C   UNL     1      -8.251  15.489  66.785  1.00  0.00    -0.277 A  
ENDBRANCH  21  24
ENDBRANCH  17  18
ENDBRANCH  16  17
ENDBRANCH  15  16
ENDBRANCH  14  15
ENDBRANCH  13  14
ENDBRANCH   7  13
TORSDOF 7
ENDMDL
MODEL       21
REMARK 921   NORMALIZED FREE ENERGY PREDICTED BY IDOCK:   -6.90 KCAL/MOL
REMARK 922        TOTAL FREE ENERGY PREDICTED BY IDOCK:  -11.03 KCAL/MOL
REMARK 923 INTER-LIGAND FREE ENERGY PREDICTED BY IDOCK:   -9.99 KCAL/MOL
REMARK 924 INTRA-LIGAND FREE ENERGY PREDICTED BY IDOCK:   -1.04 KCAL/MOL
REMARK 927      BINDING AFFINITY PREDICTED BY RF-SCORE:    0.00 PKD
ROOT
HETATM    1  O   UNL     1     -14.407   8.800  72.426  1.00  0.00    -0.509 OA 
HETATM    2  C   UNL     1     -13.261   8.957  72.021  1.00  0.00    -0.409 C  
HETATM    3  N   UNL     1     -12.955   9.796  70.986  1.00  0.00    -0.493 N  
HETATM    4  C   UNL     1     -11.656   9.966  70.487  1.00  0.00    -0.309 A  
HETATM    5  H   UNL     1     -13.712  10.325  70.553  1.00  0.00     0.000 HD 
HETATM    6  C   UNL     1     -11.428  10.827  69.414  1.00  0.00    -0.366 A  
HETATM    7  C   UNL     1     -10.136  10.973  68.904  1.00  0.00    -0.199 A  
HETATM    8  C   UNL     1     -12.130   8.231  72.651  1.00  0.00    -0.326 C  
HETATM    9  C   UNL     1      -9.083  10.251  69.482  1.00  0.00    -0.187 A  
HETATM   10  C   UNL     1     -10.875   8.371  72.205  1.00  0.00    -0.422 C  
HETATM   11  C   UNL     1      -9.312   9.396  70.563  1.00  0.00    -0.319 A  
HETATM   12  C   UNL     1     -10.601   9.253  71.073  1.00  0.00    -0.386 A  
ENDROOT
BRANCH   7  13
HETATM   13  O   UNL     1     -10.023  11.844  67.851  1.00  0.00    -0.181 OA 
BRANCH  13  14
HETATM   14  C   UNL     1      -8.988  11.539  66.916  1.00  0.00    -0.179 C  
BRANCH  14  15
HETATM   15  C   UNL     1      -9.560  11.491  65.503  1.00  0.00    -0.252 C  
BRANCH  15  16
HETATM   16  C   UNL     1     -11.029  11.925  65.469  1.00  0.00    -0.347 C  
BRANCH  16  17
HETATM   17  C   UNL     1     -11.333  13.138  64.573  1.00  0.00    -0.349 C  
BRANCH  17  18
HETATM   18  N   UNL     1     -12.254  14.117  65.165  1.00  0.00    -0.414 NA 
HETATM   19  C   UNL     1     -12.053  14.306  66.623  1.00  0.00    -0.420 C  
HETATM   20  C   UNL     1     -10.751  15.041  67.027  1.00  0.00    -0.304 C  
HETATM   21  N   UNL     1     -10.634  16.312  66.303  1.00  0.00    -0.288 NA 
HETATM   22  C   UNL     1     -12.111  15.448  64.514  1.00  0.00    -0.182 C  
HETATM   23  C   UNL     1     -10.801  16.213  64.844  1.00  0.00    -0.334 C  
BRANCH  21  24
HETATM   24  C   UNL     1      -9.926  17.387  66.850  1.00  0.00    -0.300 A  
HETATM   25  C   UNL     1      -8.502  17.451  67.029  1.00  0.00    -0.245 A  
HETATM   26  C   UNL     1      -7.432  16.604  66.550  1.00  0.00    -0.306 A  
HETATM   27  C   UNL     1      -6.184  16.969  66.994  1.00  0.00    -0.190 A  
HETATM   28  S   UNL     1      -6.243  18.372  67.946  1.00  0.00    -0.184 SA 
HETATM   29  C   UNL     1      -7.954  18.512  67.765  1.00  0.00    -0.250 A  
HETATM   30  C   UNL     1      -8.744  19.547  68.294  1.00  0.00    -0.380 A  
HETATM   31  C   UNL     1     -10.111  19.523  68.066  1.00  0.00    -0.531 A  
HETATM   32  C   UNL     1     -10.681  18.468  67.366  1.00  0.00    -0.424 A  
ENDBRANCH  21  24
ENDBRANCH  17  18
ENDBRANCH  16  17
ENDBRANCH  15  16
ENDBRANCH  14  15
ENDBRANCH  13  14
ENDBRANCH   7  13
TORSDOF 7
ENDMDL
MODEL       22
REMARK 921   NORMALIZED FREE ENERGY PREDICTED BY IDOCK:   -6.90 KCAL/MOL
REMARK 922        TOTAL FREE ENERGY PREDICTED BY IDOCK:  -11.02 KCAL/MOL
REMARK 923 INTER-LIGAND FREE ENERGY PREDICTED BY IDOCK:   -9.65 KCAL/MOL
REMARK 924 INTRA-LIGAND FREE ENERGY PREDICTED BY IDOCK:   -1.37 KCAL/MOL
REMARK 927      BINDING AFFINITY PREDICTED BY RF-SCORE:    0.00 PKD
ROOT
HETATM    1  O   UNL     1      -8.621  18.142  66.876  1.00  0.00    -0.244 OA 
HETATM    2  C   UNL     1      -9.416  17.208  66.888  1.00  0.00    -0.259 C  
HETATM    3  N   UNL     1      -9.531  16.328  65.849  1.00  0.00    -0.319 N  
HETATM    4  C   UNL     1     -10.453  15.272  65.829  1.00  0.00    -0.349 A  
HETATM    5  H   UNL     1      -8.913  16.445  65.046  1.00  0.00     0.000 HD 
HETATM    6  C   UNL     1     -10.523  14.427  64.722  1.00  0.00    -0.394 A  
HETATM    7  C   UNL     1     -11.462  13.393  64.698  1.00  0.00    -0.348 A  
HETATM    8  C   UNL     1     -10.304  16.986  68.056  1.00  0.00    -0.341 C  
HETATM    9  C   UNL     1     -12.323  13.219  65.790  1.00  0.00    -0.505 A  
HETATM   10  C   UNL     1     -11.194  15.987  68.076  1.00  0.00    -0.303 C  
HETATM   11  C   UNL     1     -12.245  14.062  66.901  1.00  0.00    -0.415 A  
HETATM   12  C   UNL     1     -11.305  15.090  66.927  1.00  0.00    -0.302 A  
ENDROOT
BRANCH   7  13
HETATM   13  O   UNL     1     -11.445  12.622  63.563  1.00  0.00    -0.461 OA 
BRANCH  13  14
HETATM   14  C   UNL     1     -10.219  11.936  63.313  1.00  0.00    -0.395 C  
BRANCH  14  15
HETATM   15  C   UNL     1     -10.139  10.679  64.172  1.00  0.00    -0.402 C  
BRANCH  15  16
HETATM   16  C   UNL     1      -8.700  10.368  64.594  1.00  0.00    -0.198 C  
BRANCH  16  17
HETATM   17  C   UNL     1      -8.352  10.725  66.050  1.00  0.00    -0.163 C  
BRANCH  17  18
HETATM   18  N   UNL     1      -8.315   9.578  66.967  1.00  0.00    -0.123 NA 
HETATM   19  C   UNL     1      -8.041   9.960  68.374  1.00  0.00    -0.101 C  
HETATM   20  C   UNL     1      -9.186  10.711  69.098  1.00  0.00    -0.148 C  
HETATM   21  N   UNL     1     -10.442   9.961  68.982  1.00  0.00    -0.200 NA 
HETATM   22  C   UNL     1      -9.604   8.834  66.944  1.00  0.00    -0.190 C  
HETATM   23  C   UNL     1     -10.803   9.559  67.613  1.00  0.00    -0.187 C  
BRANCH  21  24
HETATM   24  C   UNL     1     -11.439  10.077  69.957  1.00  0.00    -0.248 A  
HETATM   25  C   UNL     1     -11.997  11.307  70.446  1.00  0.00    -0.471 A  
HETATM   26  C   UNL     1     -11.879  12.671  69.979  1.00  0.00    -0.358 A  
HETATM   27  C   UNL     1     -12.527  13.593  70.765  1.00  0.00    -0.359 A  
HETATM   28  S   UNL     1     -13.350  12.852  72.051  1.00  0.00    -0.407 SA 
HETATM   29  C   UNL     1     -12.850  11.275  71.559  1.00  0.00    -0.414 A  
HETATM   30  C   UNL     1     -13.222  10.073  72.186  1.00  0.00    -0.489 A  
HETATM   31  C   UNL     1     -12.737   8.879  71.677  1.00  0.00    -0.403 A  
HETATM   32  C   UNL     1     -11.868   8.887  70.594  1.00  0.00    -0.159 A  
ENDBRANCH  21  24
ENDBRANCH  17  18
ENDBRANCH  16  17
ENDBRANCH  15  16
ENDBRANCH  14  15
ENDBRANCH  13  14
ENDBRANCH   7  13
TORSDOF 7
ENDMDL
MODEL       23
REMARK 921   NORMALIZED FREE ENERGY PREDICTED BY IDOCK:   -6.89 KCAL/MOL
REMARK 922        TOTAL FREE ENERGY PREDICTED BY IDOCK:  -11.01 KCAL/MOL
REMARK 923 INTER-LIGAND FREE ENERGY PREDICTED BY IDOCK:   -9.41 KCAL/MOL
REMARK 924 INTRA-LIGAND FREE ENERGY PREDICTED BY IDOCK:   -1.60 KCAL/MOL
REMARK 927      BINDING AFFINITY PREDICTED BY RF-SCORE:    0.00 PKD
ROOT
HETATM    1  O   UNL     1     -10.158  18.201  67.941  1.00  0.00    -0.321 OA 
HETATM    2  C   UNL     1     -10.562  17.061  67.745  1.00  0.00    -0.350 C  
HETATM    3  N   UNL     1     -10.335  16.392  66.573  1.00  0.00    -0.300 N  
HETATM    4  C   UNL     1     -10.813  15.100  66.315  1.00  0.00    -0.333 A  
HETATM    5  H   UNL     1      -9.788  16.859  65.849  1.00  0.00     0.000 HD 
HETATM    6  C   UNL     1     -10.556  14.493  65.087  1.00  0.00    -0.429 A  
HETATM    7  C   UNL     1     -11.058  13.215  64.827  1.00  0.00    -0.330 A  
HETATM    8  C   UNL     1     -11.328  16.338  68.790  1.00  0.00    -0.329 C  
HETATM    9  C   UNL     1     -11.815  12.560  65.807  1.00  0.00    -0.494 A  
HETATM   10  C   UNL     1     -11.798  15.102  68.582  1.00  0.00    -0.329 C  
HETATM   11  C   UNL     1     -12.064  13.167  67.040  1.00  0.00    -0.366 A  
HETATM   12  C   UNL     1     -11.560  14.440  67.302  1.00  0.00    -0.401 A  
ENDROOT
BRANCH   7  13
HETATM   13  O   UNL     1     -10.745  12.711  63.590  1.00  0.00    -0.425 OA 
BRANCH  13  14
HETATM   14  C   UNL     1     -10.660  11.288  63.516  1.00  0.00    -0.369 C  
BRANCH  14  15
HETATM   15  C   UNL     1      -9.368  10.879  62.817  1.00  0.00    -0.366 C  
BRANCH  15  16
HETATM   16  C   UNL     1      -8.393  10.193  63.778  1.00  0.00    -0.171 C  
BRANCH  16  17
HETATM   17  C   UNL     1      -8.493  10.646  65.246  1.00  0.00    -0.150 C  
BRANCH  17  18
HETATM   18  N   UNL     1      -8.304   9.571  66.229  1.00  0.00    -0.115 NA 
HETATM   19  C   UNL     1      -7.814  10.056  67.543  1.00  0.00    -0.095 C  
HETATM   20  C   UNL     1      -8.835  10.866  68.380  1.00  0.00    -0.147 C  
HETATM   21  N   UNL     1     -10.090  10.118  68.520  1.00  0.00    -0.162 NA 
HETATM   22  C   UNL     1      -9.576   8.836  66.466  1.00  0.00    -0.237 C  
HETATM   23  C   UNL     1     -10.659   9.616  67.260  1.00  0.00    -0.247 C  
BRANCH  21  24
HETATM   24  C   UNL     1     -10.920  10.312  69.629  1.00  0.00    -0.270 A  
HETATM   25  C   UNL     1     -11.394   9.285  70.515  1.00  0.00    -0.306 A  
HETATM   26  C   UNL     1     -11.026   7.894  70.660  1.00  0.00    -0.248 A  
HETATM   27  C   UNL     1     -11.764   7.212  71.597  1.00  0.00    -0.291 A  
HETATM   28  S   UNL     1     -12.878   8.226  72.378  1.00  0.00    -0.160 SA 
HETATM   29  C   UNL     1     -12.373   9.603  71.468  1.00  0.00    -0.390 A  
HETATM   30  C   UNL     1     -12.874  10.908  71.624  1.00  0.00    -0.554 A  
HETATM   31  C   UNL     1     -12.370  11.915  70.815  1.00  0.00    -0.416 A  
HETATM   32  C   UNL     1     -11.423  11.619  69.845  1.00  0.00    -0.308 A  
ENDBRANCH  21  24
ENDBRANCH  17  18
ENDBRANCH  16  17
ENDBRANCH  15  16
ENDBRANCH  14  15
ENDBRANCH  13  14
ENDBRANCH   7  13
TORSDOF 7
ENDMDL
MODEL       24
REMARK 921   NORMALIZED FREE ENERGY PREDICTED BY IDOCK:   -6.86 KCAL/MOL
REMARK 922        TOTAL FREE ENERGY PREDICTED BY IDOCK:  -10.97 KCAL/MOL
REMARK 923 INTER-LIGAND FREE ENERGY PREDICTED BY IDOCK:   -9.47 KCAL/MOL
REMARK 924 INTRA-LIGAND FREE ENERGY PREDICTED BY IDOCK:   -1.50 KCAL/MOL
REMARK 927      BINDING AFFINITY PREDICTED BY RF-SCORE:    0.00 PKD
ROOT
HETATM    1  O   UNL     1     -10.049   8.060  72.903  1.00  0.00    -0.282 OA 
HETATM    2  C   UNL     1     -10.234   7.708  71.743  1.00  0.00    -0.188 C  
HETATM    3  N   UNL     1      -9.738   8.404  70.676  1.00  0.00    -0.174 N  
HETATM    4  C   UNL     1      -9.963   8.038  69.342  1.00  0.00    -0.190 A  
HETATM    5  H   UNL     1      -9.174   9.234  70.861  1.00  0.00     0.000 HD 
HETATM    6  C   UNL     1      -9.439   8.812  68.308  1.00  0.00    -0.150 A  
HETATM    7  C   UNL     1      -9.689   8.456  66.980  1.00  0.00    -0.206 A  
HETATM    8  C   UNL     1     -11.018   6.485  71.439  1.00  0.00    -0.303 C  
HETATM    9  C   UNL     1     -10.465   7.322  66.706  1.00  0.00    -0.311 A  
HETATM   10  C   UNL     1     -11.252   6.101  70.178  1.00  0.00    -0.452 C  
HETATM   11  C   UNL     1     -10.982   6.543  67.744  1.00  0.00    -0.407 A  
HETATM   12  C   UNL     1     -10.729   6.896  69.068  1.00  0.00    -0.259 A  
ENDROOT
BRANCH   7  13
HETATM   13  O   UNL     1      -9.125   9.284  66.043  1.00  0.00    -0.161 OA 
BRANCH  13  14
HETATM   14  C   UNL     1     -10.052  10.029  65.253  1.00  0.00    -0.229 C  
BRANCH  14  15
HETATM   15  C   UNL     1      -9.483  10.253  63.856  1.00  0.00    -0.356 C  
BRANCH  15  16
HETATM   16  C   UNL     1      -9.752  11.675  63.354  1.00  0.00    -0.369 C  
BRANCH  16  17
HETATM   17  C   UNL     1     -11.077  12.298  63.827  1.00  0.00    -0.442 C  
BRANCH  17  18
HETATM   18  N   UNL     1     -10.973  13.697  64.262  1.00  0.00    -0.358 NA 
HETATM   19  C   UNL     1     -12.228  14.225  64.851  1.00  0.00    -0.440 C  
HETATM   20  C   UNL     1     -12.607  13.650  66.239  1.00  0.00    -0.291 C  
HETATM   21  N   UNL     1     -11.482  13.781  67.172  1.00  0.00    -0.324 NA 
HETATM   22  C   UNL     1      -9.894  13.862  65.274  1.00  0.00    -0.138 C  
HETATM   23  C   UNL     1     -10.198  13.263  66.674  1.00  0.00    -0.265 C  
BRANCH  21  24
HETATM   24  C   UNL     1     -11.701  13.888  68.549  1.00  0.00    -0.355 A  
HETATM   25  C   UNL     1     -12.019  12.802  69.436  1.00  0.00    -0.321 A  
HETATM   26  C   UNL     1     -12.000  11.368  69.248  1.00  0.00    -0.400 A  
HETATM   27  C   UNL     1     -12.438  10.653  70.336  1.00  0.00    -0.338 A  
HETATM   28  S   UNL     1     -12.826  11.668  71.639  1.00  0.00    -0.265 SA 
HETATM   29  C   UNL     1     -12.399  13.088  70.755  1.00  0.00    -0.310 A  
HETATM   30  C   UNL     1     -12.432  14.400  71.261  1.00  0.00    -0.423 A  
HETATM   31  C   UNL     1     -12.063  15.443  70.427  1.00  0.00    -0.408 A  
HETATM   32  C   UNL     1     -11.711  15.189  69.108  1.00  0.00    -0.349 A  
ENDBRANCH  21  24
ENDBRANCH  17  18
ENDBRANCH  16  17
ENDBRANCH  15  16
ENDBRANCH  14  15
ENDBRANCH  13  14
ENDBRANCH   7  13
TORSDOF 7
ENDMDL
MODEL       25
REMARK 921   NORMALIZED FREE ENERGY PREDICTED BY IDOCK:   -6.76 KCAL/MOL
REMARK 922        TOTAL FREE ENERGY PREDICTED BY IDOCK:  -10.83 KCAL/MOL
REMARK 923 INTER-LIGAND FREE ENERGY PREDICTED BY IDOCK:   -9.67 KCAL/MOL
REMARK 924 INTRA-LIGAND FREE ENERGY PREDICTED BY IDOCK:   -1.16 KCAL/MOL
REMARK 927      BINDING AFFINITY PREDICTED BY RF-SCORE:    0.00 PKD
ROOT
HETATM    1  O   UNL     1      -8.998   9.044  64.654  1.00  0.00    -0.174 OA 
HETATM    2  C   UNL     1      -9.650  10.077  64.768  1.00  0.00    -0.308 C  
HETATM    3  N   UNL     1     -10.038  10.571  65.982  1.00  0.00    -0.248 N  
HETATM    4  C   UNL     1     -10.809  11.732  66.134  1.00  0.00    -0.291 A  
HETATM    5  H   UNL     1      -9.751  10.068  66.822  1.00  0.00     0.000 HD 
HETATM    6  C   UNL     1     -11.181  12.162  67.407  1.00  0.00    -0.362 A  
HETATM    7  C   UNL     1     -11.971  13.305  67.549  1.00  0.00    -0.324 A  
HETATM    8  C   UNL     1     -10.053  10.853  63.569  1.00  0.00    -0.406 C  
HETATM    9  C   UNL     1     -12.379  14.006  66.407  1.00  0.00    -0.468 A  
HETATM   10  C   UNL     1     -10.786  11.968  63.673  1.00  0.00    -0.506 C  
HETATM   11  C   UNL     1     -11.998  13.578  65.133  1.00  0.00    -0.391 A  
HETATM   12  C   UNL     1     -11.206  12.440  64.991  1.00  0.00    -0.354 A  
ENDROOT
BRANCH   7  13
HETATM   13  O   UNL     1     -12.278  13.639  68.844  1.00  0.00    -0.336 OA 
BRANCH  13  14
HETATM   14  C   UNL     1     -11.964  12.646  69.820  1.00  0.00    -0.295 C  
BRANCH  14  15
HETATM   15  C   UNL     1     -12.714  12.934  71.116  1.00  0.00    -0.366 C  
BRANCH  15  16
HETATM   16  C   UNL     1     -13.081  11.646  71.859  1.00  0.00    -0.490 C  
BRANCH  16  17
HETATM   17  C   UNL     1     -12.748  10.341  71.113  1.00  0.00    -0.403 C  
BRANCH  17  18
HETATM   18  N   UNL     1     -11.666   9.553  71.717  1.00  0.00    -0.383 NA 
HETATM   19  C   UNL     1     -12.048   8.146  71.995  1.00  0.00    -0.340 C  
HETATM   20  C   UNL     1     -12.230   7.245  70.748  1.00  0.00    -0.217 C  
HETATM   21  N   UNL     1     -11.044   7.317  69.888  1.00  0.00    -0.242 NA 
HETATM   22  C   UNL     1     -10.466   9.528  70.837  1.00  0.00    -0.312 C  
HETATM   23  C   UNL     1     -10.605   8.679  69.545  1.00  0.00    -0.213 C  
BRANCH  21  24
HETATM   24  C   UNL     1     -10.693   6.245  69.060  1.00  0.00    -0.302 A  
HETATM   25  C   UNL     1     -10.058   5.027  69.486  1.00  0.00    -0.301 A  
HETATM   26  C   UNL     1      -9.804   4.483  70.801  1.00  0.00    -0.280 A  
HETATM   27  C   UNL     1      -9.106   3.299  70.794  1.00  0.00    -0.114 A  
HETATM   28  S   UNL     1      -8.786   2.769  69.215  1.00  0.00    -0.109 SA 
HETATM   29  C   UNL     1      -9.594   4.126  68.517  1.00  0.00    -0.125 A  
HETATM   30  C   UNL     1      -9.772   4.344  67.139  1.00  0.00    -0.230 A  
HETATM   31  C   UNL     1     -10.442   5.485  66.728  1.00  0.00    -0.355 A  
HETATM   32  C   UNL     1     -10.885   6.408  67.667  1.00  0.00    -0.425 A  
ENDBRANCH  21  24
ENDBRANCH  17  18
ENDBRANCH  16  17
ENDBRANCH  15  16
ENDBRANCH  14  15
ENDBRANCH  13  14
ENDBRANCH   7  13
TORSDOF 7
ENDMDL
MODEL       26
REMARK 921   NORMALIZED FREE ENERGY PREDICTED BY IDOCK:   -6.76 KCAL/MOL
REMARK 922        TOTAL FREE ENERGY PREDICTED BY IDOCK:  -10.82 KCAL/MOL
REMARK 923 INTER-LIGAND FREE ENERGY PREDICTED BY IDOCK:   -9.51 KCAL/MOL
REMARK 924 INTRA-LIGAND FREE ENERGY PREDICTED BY IDOCK:   -1.32 KCAL/MOL
REMARK 927      BINDING AFFINITY PREDICTED BY RF-SCORE:    0.00 PKD
ROOT
HETATM    1  O   UNL     1     -13.282  11.664  62.983  1.00  0.00    -0.411 OA 
HETATM    2  C   UNL     1     -12.470  12.055  63.815  1.00  0.00    -0.485 C  
HETATM    3  N   UNL     1     -12.791  12.966  64.783  1.00  0.00    -0.744 N  
HETATM    4  C   UNL     1     -11.871  13.450  65.723  1.00  0.00    -0.377 A  
HETATM    5  H   UNL     1     -13.749  13.313  64.822  1.00  0.00     0.000 HD 
HETATM    6  C   UNL     1     -12.270  14.395  66.668  1.00  0.00    -0.340 A  
HETATM    7  C   UNL     1     -11.342  14.892  67.586  1.00  0.00    -0.337 A  
HETATM    8  C   UNL     1     -11.077  11.545  63.811  1.00  0.00    -0.471 C  
HETATM    9  C   UNL     1     -10.019  14.432  67.545  1.00  0.00    -0.224 A  
HETATM   10  C   UNL     1     -10.171  11.980  64.695  1.00  0.00    -0.313 C  
HETATM   11  C   UNL     1      -9.624  13.479  66.603  1.00  0.00    -0.282 A  
HETATM   12  C   UNL     1     -10.550  12.980  65.690  1.00  0.00    -0.297 A  
ENDROOT
BRANCH   7  13
HETATM   13  O   UNL     1     -11.840  15.815  68.471  1.00  0.00    -0.363 OA 
BRANCH  13  14
HETATM   14  C   UNL     1     -11.466  15.615  69.834  1.00  0.00    -0.338 C  
BRANCH  14  15
HETATM   15  C   UNL     1     -12.705  15.334  70.678  1.00  0.00    -0.470 C  
BRANCH  15  16
HETATM   16  C   UNL     1     -12.991  13.833  70.786  1.00  0.00    -0.238 C  
BRANCH  16  17
HETATM   17  C   UNL     1     -11.808  12.913  70.435  1.00  0.00    -0.157 C  
BRANCH  17  18
HETATM   18  N   UNL     1     -12.161  11.759  69.598  1.00  0.00    -0.283 NA 
HETATM   19  C   UNL     1     -10.981  10.996  69.120  1.00  0.00    -0.237 C  
HETATM   20  C   UNL     1     -10.225  10.188  70.204  1.00  0.00    -0.179 C  
HETATM   21  N   UNL     1     -11.156   9.326  70.941  1.00  0.00    -0.279 NA 
HETATM   22  C   UNL     1     -13.040  10.812  70.337  1.00  0.00    -0.018 C  
HETATM   23  C   UNL     1     -12.348  10.006  71.470  1.00  0.00    -0.419 C  
BRANCH  21  24
HETATM   24  C   UNL     1     -10.716   8.136  71.531  1.00  0.00    -0.233 A  
HETATM   25  C   UNL     1     -10.368   6.929  70.832  1.00  0.00    -0.218 A  
HETATM   26  C   UNL     1     -10.170   6.655  69.426  1.00  0.00    -0.207 A  
HETATM   27  C   UNL     1      -9.900   5.338  69.143  1.00  0.00    -0.187 A  
HETATM   28  S   UNL     1      -9.812   4.399  70.554  1.00  0.00    -0.190 SA 
HETATM   29  C   UNL     1     -10.129   5.760  71.568  1.00  0.00    -0.196 A  
HETATM   30  C   UNL     1     -10.167   5.734  72.973  1.00  0.00    -0.209 A  
HETATM   31  C   UNL     1     -10.438   6.911  73.653  1.00  0.00    -0.400 A  
HETATM   32  C   UNL     1     -10.707   8.076  72.946  1.00  0.00    -0.403 A  
ENDBRANCH  21  24
ENDBRANCH  17  18
ENDBRANCH  16  17
ENDBRANCH  15  16
ENDBRANCH  14  15
ENDBRANCH  13  14
ENDBRANCH   7  13
TORSDOF 7
ENDMDL
MODEL       27
REMARK 921   NORMALIZED FREE ENERGY PREDICTED BY IDOCK:   -6.72 KCAL/MOL
REMARK 922        TOTAL FREE ENERGY PREDICTED BY IDOCK:  -10.78 KCAL/MOL
REMARK 923 INTER-LIGAND FREE ENERGY PREDICTED BY IDOCK:   -9.66 KCAL/MOL
REMARK 924 INTRA-LIGAND FREE ENERGY PREDICTED BY IDOCK:   -1.11 KCAL/MOL
REMARK 927      BINDING AFFINITY PREDICTED BY RF-SCORE:    0.00 PKD
ROOT
HETATM    1  O   UNL     1      -9.436  18.940  65.943  1.00  0.00    -0.458 OA 
HETATM    2  C   UNL     1      -9.867  17.957  66.536  1.00  0.00    -0.343 C  
HETATM    3  N   UNL     1     -10.384  16.873  65.882  1.00  0.00    -0.348 N  
HETATM    4  C   UNL     1     -10.911  15.753  66.540  1.00  0.00    -0.230 A  
HETATM    5  H   UNL     1     -10.387  16.880  64.862  1.00  0.00     0.000 HD 
HETATM    6  C   UNL     1     -11.438  14.694  65.802  1.00  0.00    -0.338 A  
HETATM    7  C   UNL     1     -11.984  13.591  66.464  1.00  0.00    -0.413 A  
HETATM    8  C   UNL     1      -9.845  17.897  68.018  1.00  0.00    -0.320 C  
HETATM    9  C   UNL     1     -11.994  13.565  67.865  1.00  0.00    -0.372 A  
HETATM   10  C   UNL     1     -10.335  16.843  68.682  1.00  0.00    -0.332 C  
HETATM   11  C   UNL     1     -11.457  14.624  68.602  1.00  0.00    -0.326 A  
HETATM   12  C   UNL     1     -10.908  15.721  67.942  1.00  0.00    -0.314 A  
ENDROOT
BRANCH   7  13
HETATM   13  O   UNL     1     -12.473  12.607  65.643  1.00  0.00    -0.622 OA 
BRANCH  13  14
HETATM   14  C   UNL     1     -12.378  12.877  64.245  1.00  0.00    -0.385 C  
BRANCH  14  15
HETATM   15  C   UNL     1     -11.706  11.707  63.534  1.00  0.00    -0.384 C  
BRANCH  15  16
HETATM   16  C   UNL     1     -10.182  11.750  63.684  1.00  0.00    -0.461 C  
BRANCH  16  17
HETATM   17  C   UNL     1      -9.519  10.404  64.029  1.00  0.00    -0.299 C  
BRANCH  17  18
HETATM   18  N   UNL     1      -8.640  10.442  65.206  1.00  0.00    -0.170 NA 
HETATM   19  C   UNL     1      -9.301  10.990  66.416  1.00  0.00    -0.183 C  
HETATM   20  C   UNL     1     -10.386  10.085  67.051  1.00  0.00    -0.243 C  
HETATM   21  N   UNL     1      -9.851   8.740  67.296  1.00  0.00    -0.185 NA 
HETATM   22  C   UNL     1      -8.139   9.082  65.542  1.00  0.00    -0.110 C  
HETATM   23  C   UNL     1      -9.194   8.112  66.139  1.00  0.00    -0.173 C  
BRANCH  21  24
HETATM   24  C   UNL     1     -10.365   7.940  68.322  1.00  0.00    -0.197 A  
HETATM   25  C   UNL     1     -10.825   8.407  69.601  1.00  0.00    -0.153 A  
HETATM   26  C   UNL     1     -11.082   9.738  70.105  1.00  0.00    -0.335 A  
HETATM   27  C   UNL     1     -11.462   9.775  71.425  1.00  0.00    -0.365 A  
HETATM   28  S   UNL     1     -11.583   8.218  72.088  1.00  0.00    -0.390 SA 
HETATM   29  C   UNL     1     -11.134   7.470  70.598  1.00  0.00    -0.265 A  
HETATM   30  C   UNL     1     -11.060   6.084  70.376  1.00  0.00    -0.399 A  
HETATM   31  C   UNL     1     -10.680   5.630  69.123  1.00  0.00    -0.325 A  
HETATM   32  C   UNL     1     -10.340   6.538  68.128  1.00  0.00    -0.223 A  
ENDBRANCH  21  24
ENDBRANCH  17  18
ENDBRANCH  16  17
ENDBRANCH  15  16
ENDBRANCH  14  15
ENDBRANCH  13  14
ENDBRANCH   7  13
TORSDOF 7
ENDMDL
MODEL       28
REMARK 921   NORMALIZED FREE ENERGY PREDICTED BY IDOCK:   -6.67 KCAL/MOL
REMARK 922        TOTAL FREE ENERGY PREDICTED BY IDOCK:  -10.70 KCAL/MOL
REMARK 923 INTER-LIGAND FREE ENERGY PREDICTED BY IDOCK:   -9.64 KCAL/MOL
REMARK 924 INTRA-LIGAND FREE ENERGY PREDICTED BY IDOCK:   -1.06 KCAL/MOL
REMARK 927      BINDING AFFINITY PREDICTED BY RF-SCORE:    0.00 PKD
ROOT
HETATM    1  O   UNL     1      -7.798  20.584  67.211  1.00  0.00    -0.320 OA 
HETATM    2  C   UNL     1      -8.519  19.619  67.439  1.00  0.00    -0.305 C  
HETATM    3  N   UNL     1      -8.734  18.629  66.521  1.00  0.00    -0.302 N  
HETATM    4  C   UNL     1      -9.578  17.533  66.749  1.00  0.00    -0.282 A  
HETATM    5  H   UNL     1      -8.255  18.691  65.622  1.00  0.00     0.000 HD 
HETATM    6  C   UNL     1      -9.761  16.574  65.754  1.00  0.00    -0.237 A  
HETATM    7  C   UNL     1     -10.623  15.498  65.977  1.00  0.00    -0.325 A  
HETATM    8  C   UNL     1      -9.203  19.477  68.749  1.00  0.00    -0.394 C  
HETATM    9  C   UNL     1     -11.294  15.398  67.204  1.00  0.00    -0.203 A  
HETATM   10  C   UNL     1     -10.014  18.443  69.005  1.00  0.00    -0.304 C  
HETATM   11  C   UNL     1     -11.103  16.355  68.202  1.00  0.00    -0.320 A  
HETATM   12  C   UNL     1     -10.239  17.426  67.980  1.00  0.00    -0.345 A  
ENDROOT
BRANCH   7  13
HETATM   13  O   UNL     1     -10.729  14.613  64.934  1.00  0.00    -0.402 OA 
BRANCH  13  14
HETATM   14  C   UNL     1     -12.034  14.079  64.719  1.00  0.00    -0.417 C  
BRANCH  14  15
HETATM   15  C   UNL     1     -11.978  12.971  63.672  1.00  0.00    -0.608 C  
BRANCH  15  16
HETATM   16  C   UNL     1     -10.690  12.150  63.782  1.00  0.00    -0.488 C  
BRANCH  16  17
HETATM   17  C   UNL     1     -10.711  11.035  64.843  1.00  0.00    -0.208 C  
BRANCH  17  18
HETATM   18  N   UNL     1      -9.585  11.070  65.786  1.00  0.00    -0.211 NA 
HETATM   19  C   UNL     1      -9.757  12.069  66.870  1.00  0.00    -0.203 C  
HETATM   20  C   UNL     1     -10.842  11.732  67.923  1.00  0.00    -0.211 C  
HETATM   21  N   UNL     1     -10.627  10.386  68.465  1.00  0.00    -0.196 NA 
HETATM   22  C   UNL     1      -9.382   9.741  66.425  1.00  0.00    -0.171 C  
HETATM   23  C   UNL     1     -10.466   9.326  67.457  1.00  0.00    -0.274 C  
BRANCH  21  24
HETATM   24  C   UNL     1     -11.054  10.057  69.756  1.00  0.00    -0.274 A  
HETATM   25  C   UNL     1     -10.285   9.345  70.740  1.00  0.00    -0.368 A  
HETATM   26  C   UNL     1      -8.889   8.970  70.785  1.00  0.00    -0.281 A  
HETATM   27  C   UNL     1      -8.541   8.229  71.888  1.00  0.00    -0.168 A  
HETATM   28  S   UNL     1      -9.856   8.009  72.937  1.00  0.00    -0.277 SA 
HETATM   29  C   UNL     1     -10.913   8.920  71.920  1.00  0.00    -0.369 A  
HETATM   30  C   UNL     1     -12.260   9.211  72.202  1.00  0.00    -0.408 A  
HETATM   31  C   UNL     1     -12.986   9.954  71.285  1.00  0.00    -0.488 A  
HETATM   32  C   UNL     1     -12.395  10.361  70.095  1.00  0.00    -0.281 A  
ENDBRANCH  21  24
ENDBRANCH  17  18
ENDBRANCH  16  17
ENDBRANCH  15  16
ENDBRANCH  14  15
ENDBRANCH  13  14
ENDBRANCH   7  13
TORSDOF 7
ENDMDL
MODEL       29
REMARK 921   NORMALIZED FREE ENERGY PREDICTED BY IDOCK:   -6.65 KCAL/MOL
REMARK 922        TOTAL FREE ENERGY PREDICTED BY IDOCK:  -10.68 KCAL/MOL
REMARK 923 INTER-LIGAND FREE ENERGY PREDICTED BY IDOCK:   -9.77 KCAL/MOL
REMARK 924 INTRA-LIGAND FREE ENERGY PREDICTED BY IDOCK:   -0.91 KCAL/MOL
REMARK 927      BINDING AFFINITY PREDICTED BY RF-SCORE:    0.00 PKD
ROOT
HETATM    1  O   UNL     1      -5.351  18.712  69.214  1.00  0.00    -0.192 OA 
HETATM    2  C   UNL     1      -6.380  18.928  68.585  1.00  0.00    -0.236 C  
HETATM    3  N   UNL     1      -7.216  17.926  68.175  1.00  0.00    -0.223 N  
HETATM    4  C   UNL     1      -8.381  18.148  67.428  1.00  0.00    -0.239 A  
HETATM    5  H   UNL     1      -6.978  16.966  68.426  1.00  0.00     0.000 HD 
HETATM    6  C   UNL     1      -9.172  17.070  67.031  1.00  0.00    -0.247 A  
HETATM    7  C   UNL     1     -10.318  17.296  66.265  1.00  0.00    -0.322 A  
HETATM    8  C   UNL     1      -6.776  20.315  68.234  1.00  0.00    -0.331 C  
HETATM    9  C   UNL     1     -10.658  18.607  65.906  1.00  0.00    -0.365 A  
HETATM   10  C   UNL     1      -7.884  20.567  67.526  1.00  0.00    -0.314 C  
HETATM   11  C   UNL     1      -9.869  19.686  66.313  1.00  0.00    -0.540 A  
HETATM   12  C   UNL     1      -8.728  19.461  67.080  1.00  0.00    -0.332 A  
ENDROOT
BRANCH   7  13
HETATM   13  O   UNL     1     -11.022  16.168  65.930  1.00  0.00    -0.212 OA 
BRANCH  13  14
HETATM   14  C   UNL     1     -11.182  15.943  64.530  1.00  0.00    -0.312 C  
BRANCH  14  15
HETATM   15  C   UNL     1     -12.089  14.740  64.296  1.00  0.00    -0.415 C  
BRANCH  15  16
HETATM   16  C   UNL     1     -12.640  14.178  65.610  1.00  0.00    -0.495 C  
BRANCH  16  17
HETATM   17  C   UNL     1     -12.099  12.793  66.008  1.00  0.00    -0.395 C  
BRANCH  17  18
HETATM   18  N   UNL     1     -10.861  12.826  66.798  1.00  0.00    -0.260 NA 
HETATM   19  C   UNL     1     -11.047  13.389  68.158  1.00  0.00    -0.258 C  
HETATM   20  C   UNL     1     -11.846  12.501  69.145  1.00  0.00    -0.296 C  
HETATM   21  N   UNL     1     -11.273  11.151  69.198  1.00  0.00    -0.240 NA 
HETATM   22  C   UNL     1     -10.287  11.461  66.949  1.00  0.00    -0.227 C  
HETATM   23  C   UNL     1     -11.073  10.508  67.889  1.00  0.00    -0.304 C  
BRANCH  21  24
HETATM   24  C   UNL     1     -11.399  10.363  70.347  1.00  0.00    -0.337 A  
HETATM   25  C   UNL     1     -10.377   9.521  70.905  1.00  0.00    -0.372 A  
HETATM   26  C   UNL     1      -8.966   9.398  70.614  1.00  0.00    -0.285 A  
HETATM   27  C   UNL     1      -8.327   8.419  71.335  1.00  0.00    -0.145 A  
HETATM   28  S   UNL     1      -9.378   7.656  72.427  1.00  0.00    -0.173 SA 
HETATM   29  C   UNL     1     -10.710   8.645  71.948  1.00  0.00    -0.344 A  
HETATM   30  C   UNL     1     -11.999   8.595  72.506  1.00  0.00    -0.358 A  
HETATM   31  C   UNL     1     -12.970   9.453  72.014  1.00  0.00    -0.508 A  
HETATM   32  C   UNL     1     -12.674  10.309  70.962  1.00  0.00    -0.491 A  
ENDBRANCH  21  24
ENDBRANCH  17  18
ENDBRANCH  16  17
ENDBRANCH  15  16
ENDBRANCH  14  15
ENDBRANCH  13  14
ENDBRANCH   7  13
TORSDOF 7
ENDMDL
MODEL       30
REMARK 921   NORMALIZED FREE ENERGY PREDICTED BY IDOCK:   -6.65 KCAL/MOL
REMARK 922        TOTAL FREE ENERGY PREDICTED BY IDOCK:  -10.68 KCAL/MOL
REMARK 923 INTER-LIGAND FREE ENERGY PREDICTED BY IDOCK:   -9.71 KCAL/MOL
REMARK 924 INTRA-LIGAND FREE ENERGY PREDICTED BY IDOCK:   -0.97 KCAL/MOL
REMARK 927      BINDING AFFINITY PREDICTED BY RF-SCORE:    0.00 PKD
ROOT
HETATM    1  O   UNL     1     -14.036  16.059  72.983  1.00  0.00    -0.508 OA 
HETATM    2  C   UNL     1     -13.581  15.197  72.239  1.00  0.00    -0.462 C  
HETATM    3  N   UNL     1     -13.656  13.862  72.529  1.00  0.00    -0.554 N  
HETATM    4  C   UNL     1     -13.116  12.862  71.709  1.00  0.00    -0.360 A  
HETATM    5  H   UNL     1     -14.130  13.580  73.387  1.00  0.00     0.000 HD 
HETATM    6  C   UNL     1     -13.216  11.523  72.083  1.00  0.00    -0.315 A  
HETATM    7  C   UNL     1     -12.653  10.532  71.275  1.00  0.00    -0.426 A  
HETATM    8  C   UNL     1     -12.917  15.569  70.965  1.00  0.00    -0.550 C  
HETATM    9  C   UNL     1     -11.993  10.901  70.095  1.00  0.00    -0.435 A  
HETATM   10  C   UNL     1     -12.392  14.642  70.155  1.00  0.00    -0.390 C  
HETATM   11  C   UNL     1     -11.901  12.242  69.717  1.00  0.00    -0.388 A  
HETATM   12  C   UNL     1     -12.467  13.230  70.522  1.00  0.00    -0.332 A  
ENDROOT
BRANCH   7  13
HETATM   13  O   UNL     1     -12.811   9.250  71.735  1.00  0.00    -0.331 OA 
BRANCH  13  14
HETATM   14  C   UNL     1     -12.074   8.254  71.026  1.00  0.00    -0.208 C  
BRANCH  14  15
HETATM   15  C   UNL     1     -10.704   8.064  71.667  1.00  0.00    -0.284 C  
BRANCH  15  16
HETATM   16  C   UNL     1      -9.585   8.042  70.621  1.00  0.00    -0.172 C  
BRANCH  16  17
HETATM   17  C   UNL     1     -10.048   8.203  69.162  1.00  0.00    -0.202 C  
BRANCH  17  18
HETATM   18  N   UNL     1      -8.977   8.548  68.218  1.00  0.00    -0.139 NA 
HETATM   19  C   UNL     1      -9.480   8.953  66.882  1.00  0.00    -0.177 C  
HETATM   20  C   UNL     1     -10.196  10.326  66.826  1.00  0.00    -0.228 C  
HETATM   21  N   UNL     1      -9.350  11.368  67.417  1.00  0.00    -0.166 NA 
HETATM   22  C   UNL     1      -8.141   9.663  68.741  1.00  0.00    -0.097 C  
HETATM   23  C   UNL     1      -8.823  11.057  68.755  1.00  0.00    -0.147 C  
BRANCH  21  24
HETATM   24  C   UNL     1      -9.464  12.701  67.008  1.00  0.00    -0.220 A  
HETATM   25  C   UNL     1     -10.469  13.226  66.124  1.00  0.00    -0.296 A  
HETATM   26  C   UNL     1     -11.688  12.650  65.602  1.00  0.00    -0.458 A  
HETATM   27  C   UNL     1     -12.362  13.462  64.723  1.00  0.00    -0.396 A  
HETATM   28  S   UNL     1     -11.592  14.963  64.539  1.00  0.00    -0.304 SA 
HETATM   29  C   UNL     1     -10.343  14.541  65.653  1.00  0.00    -0.349 A  
HETATM   30  C   UNL     1      -9.294  15.387  66.054  1.00  0.00    -0.364 A  
HETATM   31  C   UNL     1      -8.360  14.905  66.958  1.00  0.00    -0.246 A  
HETATM   32  C   UNL     1      -8.446  13.597  67.416  1.00  0.00    -0.206 A  
ENDBRANCH  21  24
ENDBRANCH  17  18
ENDBRANCH  16  17
ENDBRANCH  15  16
ENDBRANCH  14  15
ENDBRANCH  13  14
ENDBRANCH   7  13
TORSDOF 7
ENDMDL
MODEL       31
REMARK 921   NORMALIZED FREE ENERGY PREDICTED BY IDOCK:   -6.65 KCAL/MOL
REMARK 922        TOTAL FREE ENERGY PREDICTED BY IDOCK:  -10.67 KCAL/MOL
REMARK 923 INTER-LIGAND FREE ENERGY PREDICTED BY IDOCK:   -9.08 KCAL/MOL
REMARK 924 INTRA-LIGAND FREE ENERGY PREDICTED BY IDOCK:   -1.59 KCAL/MOL
REMARK 927      BINDING AFFINITY PREDICTED BY RF-SCORE:    0.00 PKD
ROOT
HETATM    1  O   UNL     1     -12.649   7.033  71.812  1.00  0.00    -0.344 OA 
HETATM    2  C   UNL     1     -12.179   7.963  71.167  1.00  0.00    -0.255 C  
HETATM    3  N   UNL     1     -11.341   7.771  70.104  1.00  0.00    -0.447 N  
HETATM    4  C   UNL     1     -10.767   8.820  69.372  1.00  0.00    -0.169 A  
HETATM    5  H   UNL     1     -11.122   6.813  69.828  1.00  0.00     0.000 HD 
HETATM    6  C   UNL     1      -9.906   8.542  68.312  1.00  0.00    -0.190 A  
HETATM    7  C   UNL     1      -9.317   9.592  67.603  1.00  0.00    -0.126 A  
HETATM    8  C   UNL     1     -12.505   9.368  71.516  1.00  0.00    -0.450 C  
HETATM    9  C   UNL     1      -9.602  10.915  67.969  1.00  0.00    -0.170 A  
HETATM   10  C   UNL     1     -11.980  10.396  70.839  1.00  0.00    -0.478 C  
HETATM   11  C   UNL     1     -10.472  11.191  69.027  1.00  0.00    -0.233 A  
HETATM   12  C   UNL     1     -11.062  10.143  69.731  1.00  0.00    -0.328 A  
ENDROOT
BRANCH   7  13
HETATM   13  O   UNL     1      -8.488   9.208  66.580  1.00  0.00    -0.119 OA 
BRANCH  13  14
HETATM   14  C   UNL     1      -8.330  10.165  65.532  1.00  0.00    -0.158 C  
BRANCH  14  15
HETATM   15  C   UNL     1      -8.800   9.571  64.209  1.00  0.00    -0.247 C  
BRANCH  15  16
HETATM   16  C   UNL     1      -9.811  10.480  63.504  1.00  0.00    -0.339 C  
BRANCH  16  17
HETATM   17  C   UNL     1     -10.914  11.059  64.408  1.00  0.00    -0.087 C  
BRANCH  17  18
HETATM   18  N   UNL     1     -11.401  12.384  64.005  1.00  0.00    -0.365 NA 
HETATM   19  C   UNL     1     -12.613  12.815  64.743  1.00  0.00    -0.446 C  
HETATM   20  C   UNL     1     -12.396  13.168  66.235  1.00  0.00    -0.276 C  
HETATM   21  N   UNL     1     -11.309  14.144  66.378  1.00  0.00    -0.328 NA 
HETATM   22  C   UNL     1     -10.354  13.423  64.211  1.00  0.00    -0.226 C  
HETATM   23  C   UNL     1     -10.058  13.785  65.691  1.00  0.00    -0.298 C  
BRANCH  21  24
HETATM   24  C   UNL     1     -11.279  15.031  67.459  1.00  0.00    -0.330 A  
HETATM   25  C   UNL     1     -10.732  16.360  67.441  1.00  0.00    -0.278 A  
HETATM   26  C   UNL     1     -10.282  17.201  66.353  1.00  0.00    -0.331 A  
HETATM   27  C   UNL     1      -9.759  18.406  66.755  1.00  0.00    -0.326 A  
HETATM   28  S   UNL     1      -9.845  18.598  68.438  1.00  0.00    -0.401 SA 
HETATM   29  C   UNL     1     -10.599  17.059  68.649  1.00  0.00    -0.362 A  
HETATM   30  C   UNL     1     -11.030  16.528  69.877  1.00  0.00    -0.273 A  
HETATM   31  C   UNL     1     -11.619  15.273  69.889  1.00  0.00    -0.335 A  
HETATM   32  C   UNL     1     -11.735  14.548  68.710  1.00  0.00    -0.362 A  
ENDBRANCH  21  24
ENDBRANCH  17  18
ENDBRANCH  16  17
ENDBRANCH  15  16
ENDBRANCH  14  15
ENDBRANCH  13  14
ENDBRANCH   7  13
TORSDOF 7
ENDMDL
MODEL       32
REMARK 921   NORMALIZED FREE ENERGY PREDICTED BY IDOCK:   -6.63 KCAL/MOL
REMARK 922        TOTAL FREE ENERGY PREDICTED BY IDOCK:  -10.65 KCAL/MOL
REMARK 923 INTER-LIGAND FREE ENERGY PREDICTED BY IDOCK:   -9.16 KCAL/MOL
REMARK 924 INTRA-LIGAND FREE ENERGY PREDICTED BY IDOCK:   -1.49 KCAL/MOL
REMARK 927      BINDING AFFINITY PREDICTED BY RF-SCORE:    0.00 PKD
ROOT
HETATM    1  O   UNL     1     -13.231  11.971  71.869  1.00  0.00    -0.480 OA 
HETATM    2  C   UNL     1     -12.940  10.794  71.691  1.00  0.00    -0.476 C  
HETATM    3  N   UNL     1     -11.855  10.408  70.954  1.00  0.00    -0.359 N  
HETATM    4  C   UNL     1     -11.521   9.069  70.712  1.00  0.00    -0.282 A  
HETATM    5  H   UNL     1     -11.256  11.134  70.560  1.00  0.00     0.000 HD 
HETATM    6  C   UNL     1     -10.407   8.756  69.934  1.00  0.00    -0.212 A  
HETATM    7  C   UNL     1     -10.095   7.419  69.675  1.00  0.00    -0.186 A  
HETATM    8  C   UNL     1     -13.767   9.712  72.281  1.00  0.00    -0.384 C  
HETATM    9  C   UNL     1     -10.908   6.408  70.204  1.00  0.00    -0.355 A  
HETATM   10  C   UNL     1     -13.478   8.421  72.075  1.00  0.00    -0.375 C  
HETATM   11  C   UNL     1     -12.018   6.723  70.991  1.00  0.00    -0.431 A  
HETATM   12  C   UNL     1     -12.327   8.057  71.253  1.00  0.00    -0.290 A  
ENDROOT
BRANCH   7  13
HETATM   13  O   UNL     1      -8.979   7.225  68.900  1.00  0.00    -0.134 OA 
BRANCH  13  14
HETATM   14  C   UNL     1      -9.087   6.184  67.929  1.00  0.00    -0.117 C  
BRANCH  14  15
HETATM   15  C   UNL     1      -9.679   6.736  66.637  1.00  0.00    -0.213 C  
BRANCH  15  16
HETATM   16  C   UNL     1      -9.072   8.093  66.268  1.00  0.00    -0.231 C  
BRANCH  16  17
HETATM   17  C   UNL     1     -10.070   9.265  66.213  1.00  0.00    -0.252 C  
BRANCH  17  18
HETATM   18  N   UNL     1      -9.542  10.486  65.590  1.00  0.00    -0.210 NA 
HETATM   19  C   UNL     1     -10.602  11.387  65.074  1.00  0.00    -0.299 C  
HETATM   20  C   UNL     1     -11.450  12.107  66.152  1.00  0.00    -0.371 C  
HETATM   21  N   UNL     1     -10.580  12.798  67.110  1.00  0.00    -0.236 NA 
HETATM   22  C   UNL     1      -8.718  11.264  66.554  1.00  0.00    -0.178 C  
HETATM   23  C   UNL     1      -9.509  11.970  67.688  1.00  0.00    -0.185 C  
BRANCH  21  24
HETATM   24  C   UNL     1     -11.026  13.934  67.794  1.00  0.00    -0.256 A  
HETATM   25  C   UNL     1     -10.718  15.296  67.454  1.00  0.00    -0.293 A  
HETATM   26  C   UNL     1     -10.092  15.878  66.288  1.00  0.00    -0.317 A  
HETATM   27  C   UNL     1      -9.916  17.239  66.365  1.00  0.00    -0.311 A  
HETATM   28  S   UNL     1     -10.549  17.872  67.806  1.00  0.00    -0.336 SA 
HETATM   29  C   UNL     1     -11.078  16.319  68.342  1.00  0.00    -0.362 A  
HETATM   30  C   UNL     1     -11.779  16.067  69.535  1.00  0.00    -0.275 A  
HETATM   31  C   UNL     1     -12.136  14.762  69.834  1.00  0.00    -0.381 A  
HETATM   32  C   UNL     1     -11.765  13.728  68.985  1.00  0.00    -0.372 A  
ENDBRANCH  21  24
ENDBRANCH  17  18
ENDBRANCH  16  17
ENDBRANCH  15  16
ENDBRANCH  14  15
ENDBRANCH  13  14
ENDBRANCH   7  13
TORSDOF 7
ENDMDL
MODEL       33
REMARK 921   NORMALIZED FREE ENERGY PREDICTED BY IDOCK:   -6.62 KCAL/MOL
REMARK 922        TOTAL FREE ENERGY PREDICTED BY IDOCK:  -10.64 KCAL/MOL
REMARK 923 INTER-LIGAND FREE ENERGY PREDICTED BY IDOCK:   -9.26 KCAL/MOL
REMARK 924 INTRA-LIGAND FREE ENERGY PREDICTED BY IDOCK:   -1.37 KCAL/MOL
REMARK 927      BINDING AFFINITY PREDICTED BY RF-SCORE:    0.00 PKD
ROOT
HETATM    1  O   UNL     1      -8.179   7.100  70.050  1.00  0.00    -0.131 OA 
HETATM    2  C   UNL     1      -9.344   7.304  70.374  1.00  0.00    -0.158 C  
HETATM    3  N   UNL     1      -9.837   8.561  70.590  1.00  0.00    -0.180 N  
HETATM    4  C   UNL     1     -11.156   8.816  70.990  1.00  0.00    -0.270 A  
HETATM    5  H   UNL     1      -9.212   9.355  70.453  1.00  0.00     0.000 HD 
HETATM    6  C   UNL     1     -11.579  10.126  71.210  1.00  0.00    -0.387 A  
HETATM    7  C   UNL     1     -12.887  10.371  71.633  1.00  0.00    -0.474 A  
HETATM    8  C   UNL     1     -10.292   6.175  70.546  1.00  0.00    -0.270 C  
HETATM    9  C   UNL     1     -13.760   9.293  71.831  1.00  0.00    -0.464 A  
HETATM   10  C   UNL     1     -11.559   6.378  70.923  1.00  0.00    -0.393 C  
HETATM   11  C   UNL     1     -13.337   7.981  71.603  1.00  0.00    -0.364 A  
HETATM   12  C   UNL     1     -12.033   7.737  71.176  1.00  0.00    -0.312 A  
ENDROOT
BRANCH   7  13
HETATM   13  O   UNL     1     -13.198  11.695  71.818  1.00  0.00    -0.453 OA 
BRANCH  13  14
HETATM   14  C   UNL     1     -12.573  12.599  70.908  1.00  0.00    -0.249 C  
BRANCH  14  15
HETATM   15  C   UNL     1     -13.004  14.029  71.216  1.00  0.00    -0.418 C  
BRANCH  15  16
HETATM   16  C   UNL     1     -12.318  15.041  70.293  1.00  0.00    -0.392 C  
BRANCH  16  17
HETATM   17  C   UNL     1     -11.192  14.468  69.413  1.00  0.00    -0.280 C  
BRANCH  17  18
HETATM   18  N   UNL     1     -11.161  14.995  68.043  1.00  0.00    -0.303 NA 
HETATM   19  C   UNL     1      -9.833  14.869  67.394  1.00  0.00    -0.221 C  
HETATM   20  C   UNL     1      -9.404  13.427  67.025  1.00  0.00    -0.243 C  
HETATM   21  N   UNL     1     -10.450  12.769  66.233  1.00  0.00    -0.253 NA 
HETATM   22  C   UNL     1     -12.152  14.296  67.180  1.00  0.00    -0.377 C  
HETATM   23  C   UNL     1     -11.800  12.829  66.815  1.00  0.00    -0.382 C  
BRANCH  21  24
HETATM   24  C   UNL     1     -10.130  11.757  65.323  1.00  0.00    -0.262 A  
HETATM   25  C   UNL     1      -9.601  10.462  65.657  1.00  0.00    -0.281 A  
HETATM   26  C   UNL     1      -9.452   9.781  66.924  1.00  0.00    -0.202 A  
HETATM   27  C   UNL     1      -8.836   8.556  66.834  1.00  0.00    -0.137 A  
HETATM   28  S   UNL     1      -8.472   8.153  65.227  1.00  0.00    -0.103 SA 
HETATM   29  C   UNL     1      -9.150   9.624  64.627  1.00  0.00    -0.235 A  
HETATM   30  C   UNL     1      -9.242   9.981  63.271  1.00  0.00    -0.317 A  
HETATM   31  C   UNL     1      -9.812  11.201  62.942  1.00  0.00    -0.323 A  
HETATM   32  C   UNL     1     -10.239  12.062  63.944  1.00  0.00    -0.424 A  
ENDBRANCH  21  24
ENDBRANCH  17  18
ENDBRANCH  16  17
ENDBRANCH  15  16
ENDBRANCH  14  15
ENDBRANCH  13  14
ENDBRANCH   7  13
TORSDOF 7
ENDMDL
MODEL       34
REMARK 921   NORMALIZED FREE ENERGY PREDICTED BY IDOCK:   -6.60 KCAL/MOL
REMARK 922        TOTAL FREE ENERGY PREDICTED BY IDOCK:  -10.61 KCAL/MOL
REMARK 923 INTER-LIGAND FREE ENERGY PREDICTED BY IDOCK:   -9.87 KCAL/MOL
REMARK 924 INTRA-LIGAND FREE ENERGY PREDICTED BY IDOCK:   -0.74 KCAL/MOL
REMARK 927      BINDING AFFINITY PREDICTED BY RF-SCORE:    0.00 PKD
ROOT
HETATM    1  O   UNL     1     -10.518   5.216  67.215  1.00  0.00    -0.196 OA 
HETATM    2  C   UNL     1     -10.547   5.497  68.408  1.00  0.00    -0.140 C  
HETATM    3  N   UNL     1     -11.113   6.650  68.878  1.00  0.00    -0.482 N  
HETATM    4  C   UNL     1     -11.130   7.006  70.233  1.00  0.00    -0.285 A  
HETATM    5  H   UNL     1     -11.546   7.284  68.206  1.00  0.00     0.000 HD 
HETATM    6  C   UNL     1     -11.711   8.209  70.633  1.00  0.00    -0.148 A  
HETATM    7  C   UNL     1     -11.701   8.570  71.982  1.00  0.00    -0.362 A  
HETATM    8  C   UNL     1      -9.959   4.581  69.416  1.00  0.00    -0.212 C  
HETATM    9  C   UNL     1     -11.107   7.714  72.919  1.00  0.00    -0.448 A  
HETATM   10  C   UNL     1      -9.960   4.884  70.720  1.00  0.00    -0.292 C  
HETATM   11  C   UNL     1     -10.533   6.505  72.518  1.00  0.00    -0.229 A  
HETATM   12  C   UNL     1     -10.547   6.143  71.172  1.00  0.00    -0.300 A  
ENDROOT
BRANCH   7  13
HETATM   13  O   UNL     1     -12.300   9.772  72.264  1.00  0.00    -0.248 OA 
BRANCH  13  14
HETATM   14  C   UNL     1     -12.950  10.402  71.161  1.00  0.00    -0.412 C  
BRANCH  14  15
HETATM   15  C   UNL     1     -12.290  11.743  70.864  1.00  0.00    -0.420 C  
BRANCH  15  16
HETATM   16  C   UNL     1     -11.678  11.778  69.460  1.00  0.00    -0.408 C  
BRANCH  16  17
HETATM   17  C   UNL     1     -11.038  13.118  69.056  1.00  0.00    -0.234 C  
BRANCH  17  18
HETATM   18  N   UNL     1     -11.981  14.108  68.521  1.00  0.00    -0.349 NA 
HETATM   19  C   UNL     1     -12.144  15.297  69.394  1.00  0.00    -0.270 C  
HETATM   20  C   UNL     1     -10.925  16.251  69.456  1.00  0.00    -0.339 C  
HETATM   21  N   UNL     1     -10.505  16.634  68.103  1.00  0.00    -0.305 NA 
HETATM   22  C   UNL     1     -11.549  14.588  67.181  1.00  0.00    -0.388 C  
HETATM   23  C   UNL     1     -10.301  15.511  67.174  1.00  0.00    -0.272 C  
BRANCH  21  24
HETATM   24  C   UNL     1      -9.861  17.854  67.871  1.00  0.00    -0.309 A  
HETATM   25  C   UNL     1      -8.515  18.180  68.253  1.00  0.00    -0.294 A  
HETATM   26  C   UNL     1      -7.432  17.363  68.754  1.00  0.00    -0.258 A  
HETATM   27  C   UNL     1      -6.294  18.068  69.067  1.00  0.00    -0.236 A  
HETATM   28  S   UNL     1      -6.463  19.719  68.714  1.00  0.00    -0.305 SA 
HETATM   29  C   UNL     1      -8.071  19.504  68.125  1.00  0.00    -0.319 A  
HETATM   30  C   UNL     1      -8.880  20.519  67.585  1.00  0.00    -0.288 A  
HETATM   31  C   UNL     1     -10.157  20.194  67.154  1.00  0.00    -0.590 A  
HETATM   32  C   UNL     1     -10.630  18.896  67.298  1.00  0.00    -0.529 A  
ENDBRANCH  21  24
ENDBRANCH  17  18
ENDBRANCH  16  17
ENDBRANCH  15  16
ENDBRANCH  14  15
ENDBRANCH  13  14
ENDBRANCH   7  13
TORSDOF 7
ENDMDL
MODEL       35
REMARK 921   NORMALIZED FREE ENERGY PREDICTED BY IDOCK:   -6.59 KCAL/MOL
REMARK 922        TOTAL FREE ENERGY PREDICTED BY IDOCK:  -10.60 KCAL/MOL
REMARK 923 INTER-LIGAND FREE ENERGY PREDICTED BY IDOCK:   -8.93 KCAL/MOL
REMARK 924 INTRA-LIGAND FREE ENERGY PREDICTED BY IDOCK:   -1.67 KCAL/MOL
REMARK 927      BINDING AFFINITY PREDICTED BY RF-SCORE:    0.00 PKD
ROOT
HETATM    1  O   UNL     1     -12.725  15.456  63.908  1.00  0.00    -0.695 OA 
HETATM    2  C   UNL     1     -12.231  14.428  64.358  1.00  0.00    -0.458 C  
HETATM    3  N   UNL     1     -11.471  13.583  63.598  1.00  0.00    -0.610 N  
HETATM    4  C   UNL     1     -10.923  12.388  64.084  1.00  0.00    -0.367 A  
HETATM    5  H   UNL     1     -11.294  13.836  62.626  1.00  0.00     0.000 HD 
HETATM    6  C   UNL     1     -10.174  11.569  63.240  1.00  0.00    -0.432 A  
HETATM    7  C   UNL     1      -9.653  10.367  63.723  1.00  0.00    -0.310 A  
HETATM    8  C   UNL     1     -12.438  14.048  65.778  1.00  0.00    -0.523 C  
HETATM    9  C   UNL     1      -9.890  10.000  65.055  1.00  0.00    -0.374 A  
HETATM   10  C   UNL     1     -11.928  12.917  66.280  1.00  0.00    -0.472 C  
HETATM   11  C   UNL     1     -10.633  10.826  65.901  1.00  0.00    -0.216 A  
HETATM   12  C   UNL     1     -11.150  12.028  65.420  1.00  0.00    -0.369 A  
ENDROOT
BRANCH   7  13
HETATM   13  O   UNL     1      -8.932   9.640  62.811  1.00  0.00    -0.238 OA 
BRANCH  13  14
HETATM   14  C   UNL     1      -7.809   8.938  63.343  1.00  0.00    -0.144 C  
BRANCH  14  15
HETATM   15  C   UNL     1      -6.670   9.913  63.622  1.00  0.00    -0.125 C  
BRANCH  15  16
HETATM   16  C   UNL     1      -6.045   9.678  65.000  1.00  0.00    -0.085 C  
BRANCH  16  17
HETATM   17  C   UNL     1      -6.425  10.710  66.077  1.00  0.00    -0.129 C  
BRANCH  17  18
HETATM   18  N   UNL     1      -6.040  10.334  67.444  1.00  0.00    -0.053 NA 
HETATM   19  C   UNL     1      -6.413  11.350  68.459  1.00  0.00    -0.056 C  
HETATM   20  C   UNL     1      -7.929  11.481  68.747  1.00  0.00    -0.107 C  
HETATM   21  N   UNL     1      -8.504  10.169  69.066  1.00  0.00    -0.140 NA 
HETATM   22  C   UNL     1      -6.670   9.046  67.842  1.00  0.00    -0.068 C  
HETATM   23  C   UNL     1      -8.200   9.104  68.097  1.00  0.00    -0.116 C  
BRANCH  21  24
HETATM   24  C   UNL     1      -9.634  10.061  69.885  1.00  0.00    -0.192 A  
HETATM   25  C   UNL     1      -9.791   9.148  70.983  1.00  0.00    -0.366 A  
HETATM   26  C   UNL     1      -8.848   8.287  71.663  1.00  0.00    -0.224 A  
HETATM   27  C   UNL     1      -9.407   7.505  72.644  1.00  0.00    -0.159 A  
HETATM   28  S   UNL     1     -11.065   7.818  72.828  1.00  0.00    -0.393 SA 
HETATM   29  C   UNL     1     -11.049   9.022  71.590  1.00  0.00    -0.363 A  
HETATM   30  C   UNL     1     -12.155   9.796  71.197  1.00  0.00    -0.460 A  
HETATM   31  C   UNL     1     -11.989  10.725  70.182  1.00  0.00    -0.432 A  
HETATM   32  C   UNL     1     -10.761  10.848  69.545  1.00  0.00    -0.251 A  
ENDBRANCH  21  24
ENDBRANCH  17  18
ENDBRANCH  16  17
ENDBRANCH  15  16
ENDBRANCH  14  15
ENDBRANCH  13  14
ENDBRANCH   7  13
TORSDOF 7
ENDMDL
MODEL       36
REMARK 921   NORMALIZED FREE ENERGY PREDICTED BY IDOCK:   -6.59 KCAL/MOL
REMARK 922        TOTAL FREE ENERGY PREDICTED BY IDOCK:  -10.58 KCAL/MOL
REMARK 923 INTER-LIGAND FREE ENERGY PREDICTED BY IDOCK:   -9.62 KCAL/MOL
REMARK 924 INTRA-LIGAND FREE ENERGY PREDICTED BY IDOCK:   -0.97 KCAL/MOL
REMARK 927      BINDING AFFINITY PREDICTED BY RF-SCORE:    0.00 PKD
ROOT
HETATM    1  O   UNL     1     -13.541   6.734  71.617  1.00  0.00    -0.257 OA 
HETATM    2  C   UNL     1     -12.511   7.341  71.346  1.00  0.00    -0.383 C  
HETATM    3  N   UNL     1     -11.965   7.336  70.092  1.00  0.00    -0.543 N  
HETATM    4  C   UNL     1     -10.772   7.997  69.766  1.00  0.00    -0.231 A  
HETATM    5  H   UNL     1     -12.451   6.825  69.355  1.00  0.00     0.000 HD 
HETATM    6  C   UNL     1     -10.268   7.929  68.468  1.00  0.00    -0.229 A  
HETATM    7  C   UNL     1      -9.066   8.568  68.156  1.00  0.00    -0.138 A  
HETATM    8  C   UNL     1     -11.798   8.125  72.384  1.00  0.00    -0.448 C  
HETATM    9  C   UNL     1      -8.381   9.271  69.156  1.00  0.00    -0.127 A  
HETATM   10  C   UNL     1     -10.658   8.772  72.110  1.00  0.00    -0.386 C  
HETATM   11  C   UNL     1      -8.892   9.345  70.454  1.00  0.00    -0.290 A  
HETATM   12  C   UNL     1     -10.094   8.711  70.764  1.00  0.00    -0.244 A  
ENDROOT
BRANCH   7  13
HETATM   13  O   UNL     1      -8.662   8.439  66.852  1.00  0.00    -0.125 OA 
BRANCH  13  14
HETATM   14  C   UNL     1      -9.594   8.908  65.877  1.00  0.00    -0.223 C  
BRANCH  14  15
HETATM   15  C   UNL     1      -9.439  10.414  65.691  1.00  0.00    -0.262 C  
BRANCH  15  16
HETATM   16  C   UNL     1     -10.706  11.171  66.100  1.00  0.00    -0.285 C  
BRANCH  16  17
HETATM   17  C   UNL     1     -10.472  12.587  66.656  1.00  0.00    -0.233 C  
BRANCH  17  18
HETATM   18  N   UNL     1     -11.449  13.587  66.207  1.00  0.00    -0.316 NA 
HETATM   19  C   UNL     1     -11.909  14.489  67.292  1.00  0.00    -0.392 C  
HETATM   20  C   UNL     1     -10.859  15.505  67.805  1.00  0.00    -0.309 C  
HETATM   21  N   UNL     1     -10.291  16.264  66.685  1.00  0.00    -0.298 NA 
HETATM   22  C   UNL     1     -10.884  14.437  65.123  1.00  0.00    -0.386 C  
HETATM   23  C   UNL     1      -9.790  15.445  65.570  1.00  0.00    -0.324 C  
BRANCH  21  24
HETATM   24  C   UNL     1      -9.795  17.558  66.874  1.00  0.00    -0.302 A  
HETATM   25  C   UNL     1      -8.652  17.912  67.670  1.00  0.00    -0.242 A  
HETATM   26  C   UNL     1      -7.623  17.106  68.289  1.00  0.00    -0.224 A  
HETATM   27  C   UNL     1      -6.717  17.824  69.032  1.00  0.00    -0.246 A  
HETATM   28  S   UNL     1      -7.030  19.490  68.962  1.00  0.00    -0.361 SA 
HETATM   29  C   UNL     1      -8.388  19.266  67.920  1.00  0.00    -0.303 A  
HETATM   30  C   UNL     1      -9.174  20.298  67.378  1.00  0.00    -0.507 A  
HETATM   31  C   UNL     1     -10.238  19.962  66.557  1.00  0.00    -0.611 A  
HETATM   32  C   UNL     1     -10.538  18.628  66.317  1.00  0.00    -0.396 A  
ENDBRANCH  21  24
ENDBRANCH  17  18
ENDBRANCH  16  17
ENDBRANCH  15  16
ENDBRANCH  14  15
ENDBRANCH  13  14
ENDBRANCH   7  13
TORSDOF 7
ENDMDL
MODEL       37
REMARK 921   NORMALIZED FREE ENERGY PREDICTED BY IDOCK:   -6.57 KCAL/MOL
REMARK 922        TOTAL FREE ENERGY PREDICTED BY IDOCK:  -10.56 KCAL/MOL
REMARK 923 INTER-LIGAND FREE ENERGY PREDICTED BY IDOCK:   -9.22 KCAL/MOL
REMARK 924 INTRA-LIGAND FREE ENERGY PREDICTED BY IDOCK:   -1.34 KCAL/MOL
REMARK 927      BINDING AFFINITY PREDICTED BY RF-SCORE:    0.00 PKD
ROOT
HETATM    1  O   UNL     1     -11.576  15.997  68.849  1.00  0.00    -0.372 OA 
HETATM    2  C   UNL     1     -11.964  15.114  69.606  1.00  0.00    -0.329 C  
HETATM    3  N   UNL     1     -11.634  13.798  69.430  1.00  0.00    -0.292 N  
HETATM    4  C   UNL     1     -12.091  12.769  70.264  1.00  0.00    -0.297 A  
HETATM    5  H   UNL     1     -11.024  13.553  68.650  1.00  0.00     0.000 HD 
HETATM    6  C   UNL     1     -11.726  11.448  70.007  1.00  0.00    -0.416 A  
HETATM    7  C   UNL     1     -12.205  10.423  70.827  1.00  0.00    -0.359 A  
HETATM    8  C   UNL     1     -12.822  15.438  70.772  1.00  0.00    -0.524 C  
HETATM    9  C   UNL     1     -13.049  10.739  71.901  1.00  0.00    -0.557 A  
HETATM   10  C   UNL     1     -13.275  14.483  71.593  1.00  0.00    -0.424 C  
HETATM   11  C   UNL     1     -13.406  12.064  72.162  1.00  0.00    -0.396 A  
HETATM   12  C   UNL     1     -12.924  13.086  71.346  1.00  0.00    -0.373 A  
ENDROOT
BRANCH   7  13
HETATM   13  O   UNL     1     -11.784   9.163  70.486  1.00  0.00    -0.247 OA 
BRANCH  13  14
HETATM   14  C   UNL     1     -10.560   8.747  71.090  1.00  0.00    -0.241 C  
BRANCH  14  15
HETATM   15  C   UNL     1      -9.684   8.042  70.060  1.00  0.00    -0.173 C  
BRANCH  15  16
HETATM   16  C   UNL     1      -8.601   8.971  69.503  1.00  0.00    -0.138 C  
BRANCH  16  17
HETATM   17  C   UNL     1      -8.400   8.903  67.978  1.00  0.00    -0.121 C  
BRANCH  17  18
HETATM   18  N   UNL     1      -7.570   9.980  67.425  1.00  0.00    -0.091 NA 
HETATM   19  C   UNL     1      -7.686  10.114  65.951  1.00  0.00    -0.127 C  
HETATM   20  C   UNL     1      -9.038  10.668  65.436  1.00  0.00    -0.189 C  
HETATM   21  N   UNL     1      -9.367  11.926  66.115  1.00  0.00    -0.227 NA 
HETATM   22  C   UNL     1      -7.928  11.294  68.026  1.00  0.00    -0.119 C  
HETATM   23  C   UNL     1      -9.297  11.878  67.584  1.00  0.00    -0.183 C  
BRANCH  21  24
HETATM   24  C   UNL     1     -10.164  12.891  65.489  1.00  0.00    -0.287 A  
HETATM   25  C   UNL     1     -10.043  14.314  65.651  1.00  0.00    -0.364 A  
HETATM   26  C   UNL     1      -9.024  15.129  66.275  1.00  0.00    -0.274 A  
HETATM   27  C   UNL     1      -9.305  16.474  66.278  1.00  0.00    -0.302 A  
HETATM   28  S   UNL     1     -10.763  16.813  65.480  1.00  0.00    -0.084 SA 
HETATM   29  C   UNL     1     -11.033  15.148  65.111  1.00  0.00    -0.417 A  
HETATM   30  C   UNL     1     -12.117  14.647  64.370  1.00  0.00    -0.481 A  
HETATM   31  C   UNL     1     -12.201  13.280  64.156  1.00  0.00    -0.465 A  
HETATM   32  C   UNL     1     -11.250  12.430  64.706  1.00  0.00    -0.353 A  
ENDBRANCH  21  24
ENDBRANCH  17  18
ENDBRANCH  16  17
ENDBRANCH  15  16
ENDBRANCH  14  15
ENDBRANCH  13  14
ENDBRANCH   7  13
TORSDOF 7
ENDMDL
MODEL       38
REMARK 921   NORMALIZED FREE ENERGY PREDICTED BY IDOCK:   -6.54 KCAL/MOL
REMARK 922        TOTAL FREE ENERGY PREDICTED BY IDOCK:  -10.53 KCAL/MOL
REMARK 923 INTER-LIGAND FREE ENERGY PREDICTED BY IDOCK:   -9.10 KCAL/MOL
REMARK 924 INTRA-LIGAND FREE ENERGY PREDICTED BY IDOCK:   -1.43 KCAL/MOL
REMARK 927      BINDING AFFINITY PREDICTED BY RF-SCORE:    0.00 PKD
ROOT
HETATM    1  O   UNL     1     -12.718  15.210  63.758  1.00  0.00    -0.722 OA 
HETATM    2  C   UNL     1     -12.229  14.242  64.331  1.00  0.00    -0.447 C  
HETATM    3  N   UNL     1     -11.431  13.336  63.690  1.00  0.00    -0.625 N  
HETATM    4  C   UNL     1     -10.887  12.206  64.317  1.00  0.00    -0.341 A  
HETATM    5  H   UNL     1     -11.219  13.490  62.704  1.00  0.00     0.000 HD 
HETATM    6  C   UNL     1     -10.097  11.317  63.590  1.00  0.00    -0.432 A  
HETATM    7  C   UNL     1      -9.579  10.179  64.213  1.00  0.00    -0.290 A  
HETATM    8  C   UNL     1     -12.485  14.007  65.774  1.00  0.00    -0.523 C  
HETATM    9  C   UNL     1      -9.862   9.947  65.566  1.00  0.00    -0.381 A  
HETATM   10  C   UNL     1     -11.980  12.942  66.408  1.00  0.00    -0.462 C  
HETATM   11  C   UNL     1     -10.647  10.844  66.295  1.00  0.00    -0.276 A  
HETATM   12  C   UNL     1     -11.160  11.981  65.674  1.00  0.00    -0.361 A  
ENDROOT
BRANCH   7  13
HETATM   13  O   UNL     1      -8.815   9.374  63.408  1.00  0.00    -0.225 OA 
BRANCH  13  14
HETATM   14  C   UNL     1      -7.939   8.481  64.095  1.00  0.00    -0.150 C  
BRANCH  14  15
HETATM   15  C   UNL     1      -6.626   9.185  64.419  1.00  0.00    -0.080 C  
BRANCH  15  16
HETATM   16  C   UNL     1      -5.984   8.633  65.695  1.00  0.00    -0.051 C  
BRANCH  16  17
HETATM   17  C   UNL     1      -6.626   9.111  67.011  1.00  0.00    -0.064 C  
BRANCH  17  18
HETATM   18  N   UNL     1      -6.563   8.136  68.108  1.00  0.00    -0.055 NA 
HETATM   19  C   UNL     1      -6.602   8.762  69.453  1.00  0.00    -0.045 C  
HETATM   20  C   UNL     1      -7.961   9.382  69.862  1.00  0.00    -0.130 C  
HETATM   21  N   UNL     1      -9.041   8.401  69.697  1.00  0.00    -0.152 NA 
HETATM   22  C   UNL     1      -7.692   7.169  68.028  1.00  0.00    -0.113 C  
HETATM   23  C   UNL     1      -9.089   7.745  68.381  1.00  0.00    -0.131 C  
BRANCH  21  24
HETATM   24  C   UNL     1     -10.196   8.468  70.483  1.00  0.00    -0.194 A  
HETATM   25  C   UNL     1     -11.086   9.594  70.575  1.00  0.00    -0.369 A  
HETATM   26  C   UNL     1     -11.183  10.810  69.799  1.00  0.00    -0.365 A  
HETATM   27  C   UNL     1     -12.145  11.685  70.243  1.00  0.00    -0.358 A  
HETATM   28  S   UNL     1     -13.004  11.054  71.563  1.00  0.00    -0.395 SA 
HETATM   29  C   UNL     1     -12.096   9.586  71.548  1.00  0.00    -0.389 A  
HETATM   30  C   UNL     1     -12.305   8.493  72.407  1.00  0.00    -0.424 A  
HETATM   31  C   UNL     1     -11.491   7.379  72.276  1.00  0.00    -0.329 A  
HETATM   32  C   UNL     1     -10.465   7.374  71.341  1.00  0.00    -0.218 A  
ENDBRANCH  21  24
ENDBRANCH  17  18
ENDBRANCH  16  17
ENDBRANCH  15  16
ENDBRANCH  14  15
ENDBRANCH  13  14
ENDBRANCH   7  13
TORSDOF 7
ENDMDL
MODEL       39
REMARK 921   NORMALIZED FREE ENERGY PREDICTED BY IDOCK:   -6.53 KCAL/MOL
REMARK 922        TOTAL FREE ENERGY PREDICTED BY IDOCK:  -10.50 KCAL/MOL
REMARK 923 INTER-LIGAND FREE ENERGY PREDICTED BY IDOCK:   -9.77 KCAL/MOL
REMARK 924 INTRA-LIGAND FREE ENERGY PREDICTED BY IDOCK:   -0.73 KCAL/MOL
REMARK 927      BINDING AFFINITY PREDICTED BY RF-SCORE:    0.00 PKD
ROOT
HETATM    1  O   UNL     1      -8.447   7.522  68.463  1.00  0.00    -0.128 OA 
HETATM    2  C   UNL     1      -9.473   7.493  69.134  1.00  0.00    -0.150 C  
HETATM    3  N   UNL     1     -10.033   8.619  69.669  1.00  0.00    -0.187 N  
HETATM    4  C   UNL     1     -11.187   8.606  70.464  1.00  0.00    -0.241 A  
HETATM    5  H   UNL     1      -9.587   9.517  69.480  1.00  0.00     0.000 HD 
HETATM    6  C   UNL     1     -11.687   9.796  70.991  1.00  0.00    -0.453 A  
HETATM    7  C   UNL     1     -12.822   9.773  71.804  1.00  0.00    -0.434 A  
HETATM    8  C   UNL     1     -10.169   6.209  69.398  1.00  0.00    -0.248 C  
HETATM    9  C   UNL     1     -13.447   8.549  72.079  1.00  0.00    -0.409 A  
HETATM   10  C   UNL     1     -11.276   6.156  70.149  1.00  0.00    -0.452 C  
HETATM   11  C   UNL     1     -12.950   7.358  71.543  1.00  0.00    -0.421 A  
HETATM   12  C   UNL     1     -11.819   7.382  70.729  1.00  0.00    -0.288 A  
ENDROOT
BRANCH   7  13
HETATM   13  O   UNL     1     -13.229  10.999  72.267  1.00  0.00    -0.405 OA 
BRANCH  13  14
HETATM   14  C   UNL     1     -12.911  12.104  71.422  1.00  0.00    -0.257 C  
BRANCH  14  15
HETATM   15  C   UNL     1     -13.295  13.411  72.108  1.00  0.00    -0.613 C  
BRANCH  15  16
HETATM   16  C   UNL     1     -12.871  14.631  71.285  1.00  0.00    -0.405 C  
BRANCH  16  17
HETATM   17  C   UNL     1     -12.378  14.322  69.859  1.00  0.00    -0.324 C  
BRANCH  17  18
HETATM   18  N   UNL     1     -10.918  14.353  69.699  1.00  0.00    -0.203 NA 
HETATM   19  C   UNL     1     -10.482  14.295  68.282  1.00  0.00    -0.247 C  
HETATM   20  C   UNL     1     -10.766  15.565  67.443  1.00  0.00    -0.301 C  
HETATM   21  N   UNL     1     -10.233  16.754  68.118  1.00  0.00    -0.286 NA 
HETATM   22  C   UNL     1     -10.342  15.588  70.298  1.00  0.00    -0.197 C  
HETATM   23  C   UNL     1     -10.635  16.902  69.526  1.00  0.00    -0.239 C  
BRANCH  21  24
HETATM   24  C   UNL     1      -9.842  17.880  67.385  1.00  0.00    -0.305 A  
HETATM   25  C   UNL     1      -8.547  18.092  66.799  1.00  0.00    -0.272 A  
HETATM   26  C   UNL     1      -7.419  17.207  66.610  1.00  0.00    -0.293 A  
HETATM   27  C   UNL     1      -6.318  17.812  66.053  1.00  0.00    -0.234 A  
HETATM   28  S   UNL     1      -6.617  19.440  65.681  1.00  0.00    -0.263 SA 
HETATM   29  C   UNL     1      -8.241  19.350  66.258  1.00  0.00    -0.330 A  
HETATM   30  C   UNL     1      -9.175  20.400  66.222  1.00  0.00    -0.222 A  
HETATM   31  C   UNL     1     -10.446  20.178  66.727  1.00  0.00    -0.438 A  
HETATM   32  C   UNL     1     -10.764  18.951  67.295  1.00  0.00    -0.523 A  
ENDBRANCH  21  24
ENDBRANCH  17  18
ENDBRANCH  16  17
ENDBRANCH  15  16
ENDBRANCH  14  15
ENDBRANCH  13  14
ENDBRANCH   7  13
TORSDOF 7
ENDMDL
MODEL       40
REMARK 921   NORMALIZED FREE ENERGY PREDICTED BY IDOCK:   -6.50 KCAL/MOL
REMARK 922        TOTAL FREE ENERGY PREDICTED BY IDOCK:  -10.47 KCAL/MOL
REMARK 923 INTER-LIGAND FREE ENERGY PREDICTED BY IDOCK:   -8.94 KCAL/MOL
REMARK 924 INTRA-LIGAND FREE ENERGY PREDICTED BY IDOCK:   -1.53 KCAL/MOL
REMARK 927      BINDING AFFINITY PREDICTED BY RF-SCORE:    0.00 PKD
ROOT
HETATM    1  O   UNL     1     -14.158  15.820  72.709  1.00  0.00    -0.576 OA 
HETATM    2  C   UNL     1     -13.642  14.942  72.026  1.00  0.00    -0.407 C  
HETATM    3  N   UNL     1     -13.745  13.615  72.336  1.00  0.00    -0.570 N  
HETATM    4  C   UNL     1     -13.137  12.597  71.589  1.00  0.00    -0.323 A  
HETATM    5  H   UNL     1     -14.293  13.351  73.156  1.00  0.00     0.000 HD 
HETATM    6  C   UNL     1     -13.273  11.266  71.981  1.00  0.00    -0.437 A  
HETATM    7  C   UNL     1     -12.644  10.258  71.246  1.00  0.00    -0.418 A  
HETATM    8  C   UNL     1     -12.869  15.287  70.807  1.00  0.00    -0.494 C  
HETATM    9  C   UNL     1     -11.883  10.601  70.120  1.00  0.00    -0.421 A  
HETATM   10  C   UNL     1     -12.277  14.343  70.065  1.00  0.00    -0.408 C  
HETATM   11  C   UNL     1     -11.755  11.934  69.724  1.00  0.00    -0.403 A  
HETATM   12  C   UNL     1     -12.387  12.939  70.455  1.00  0.00    -0.333 A  
ENDROOT
BRANCH   7  13
HETATM   13  O   UNL     1     -12.844   8.986  71.718  1.00  0.00    -0.329 OA 
BRANCH  13  14
HETATM   14  C   UNL     1     -12.161   7.957  71.002  1.00  0.00    -0.230 C  
BRANCH  14  15
HETATM   15  C   UNL     1     -11.492   6.998  71.981  1.00  0.00    -0.308 C  
BRANCH  15  16
HETATM   16  C   UNL     1     -10.636   5.953  71.258  1.00  0.00    -0.311 C  
BRANCH  16  17
HETATM   17  C   UNL     1     -10.811   5.906  69.729  1.00  0.00    -0.377 C  
BRANCH  17  18
HETATM   18  N   UNL     1      -9.565   6.066  68.968  1.00  0.00    -0.129 NA 
HETATM   19  C   UNL     1      -9.788   6.383  67.536  1.00  0.00    -0.123 C  
HETATM   20  C   UNL     1     -10.341   7.800  67.244  1.00  0.00    -0.301 C  
HETATM   21  N   UNL     1      -9.507   8.818  67.893  1.00  0.00    -0.141 NA 
HETATM   22  C   UNL     1      -8.723   7.150  69.544  1.00  0.00    -0.134 C  
HETATM   23  C   UNL     1      -9.252   8.593  69.325  1.00  0.00    -0.150 C  
BRANCH  21  24
HETATM   24  C   UNL     1      -9.414  10.111  67.366  1.00  0.00    -0.153 A  
HETATM   25  C   UNL     1      -8.422  11.091  67.715  1.00  0.00    -0.122 A  
HETATM   26  C   UNL     1      -7.199  10.993  68.482  1.00  0.00    -0.085 A  
HETATM   27  C   UNL     1      -6.543  12.188  68.647  1.00  0.00    -0.077 A  
HETATM   28  S   UNL     1      -7.333  13.455  67.841  1.00  0.00    -0.160 SA 
HETATM   29  C   UNL     1      -8.568  12.405  67.248  1.00  0.00    -0.185 A  
HETATM   30  C   UNL     1      -9.625  12.790  66.405  1.00  0.00    -0.254 A  
HETATM   31  C   UNL     1     -10.546  11.832  66.013  1.00  0.00    -0.302 A  
HETATM   32  C   UNL     1     -10.440  10.531  66.486  1.00  0.00    -0.276 A  
ENDBRANCH  21  24
ENDBRANCH  17  18
ENDBRANCH  16  17
ENDBRANCH  15  16
ENDBRANCH  14  15
ENDBRANCH  13  14
ENDBRANCH   7  13
TORSDOF 7
ENDMDL
MODEL       41
REMARK 921   NORMALIZED FREE ENERGY PREDICTED BY IDOCK:   -6.50 KCAL/MOL
REMARK 922        TOTAL FREE ENERGY PREDICTED BY IDOCK:  -10.46 KCAL/MOL
REMARK 923 INTER-LIGAND FREE ENERGY PREDICTED BY IDOCK:   -9.77 KCAL/MOL
REMARK 924 INTRA-LIGAND FREE ENERGY PREDICTED BY IDOCK:   -0.69 KCAL/MOL
REMARK 927      BINDING AFFINITY PREDICTED BY RF-SCORE:    0.00 PKD
ROOT
HETATM    1  O   UNL     1      -9.024  19.524  67.695  1.00  0.00    -0.299 OA 
HETATM    2  C   UNL     1      -9.599  18.441  67.733  1.00  0.00    -0.287 C  
HETATM    3  N   UNL     1     -10.076  17.903  68.895  1.00  0.00    -0.372 N  
HETATM    4  C   UNL     1     -10.708  16.654  68.966  1.00  0.00    -0.343 A  
HETATM    5  H   UNL     1      -9.967  18.439  69.757  1.00  0.00     0.000 HD 
HETATM    6  C   UNL     1     -11.152  16.164  70.194  1.00  0.00    -0.373 A  
HETATM    7  C   UNL     1     -11.757  14.907  70.262  1.00  0.00    -0.303 A  
HETATM    8  C   UNL     1      -9.808  17.652  66.494  1.00  0.00    -0.323 C  
HETATM    9  C   UNL     1     -11.913  14.154  69.090  1.00  0.00    -0.388 A  
HETATM   10  C   UNL     1     -10.411  16.457  66.521  1.00  0.00    -0.306 C  
HETATM   11  C   UNL     1     -11.476  14.651  67.860  1.00  0.00    -0.350 A  
HETATM   12  C   UNL     1     -10.875  15.906  67.792  1.00  0.00    -0.324 A  
ENDROOT
BRANCH   7  13
HETATM   13  O   UNL     1     -12.156  14.524  71.517  1.00  0.00    -0.340 OA 
BRANCH  13  14
HETATM   14  C   UNL     1     -13.434  13.890  71.582  1.00  0.00    -0.352 C  
BRANCH  14  15
HETATM   15  C   UNL     1     -13.292  12.493  72.178  1.00  0.00    -0.540 C  
BRANCH  15  16
HETATM   16  C   UNL     1     -12.741  11.493  71.158  1.00  0.00    -0.458 C  
BRANCH  16  17
HETATM   17  C   UNL     1     -13.033  10.013  71.467  1.00  0.00    -0.434 C  
BRANCH  17  18
HETATM   18  N   UNL     1     -11.903   9.278  72.050  1.00  0.00    -0.346 NA 
HETATM   19  C   UNL     1     -12.199   7.846  72.298  1.00  0.00    -0.287 C  
HETATM   20  C   UNL     1     -12.333   6.962  71.033  1.00  0.00    -0.351 C  
HETATM   21  N   UNL     1     -11.158   7.123  70.169  1.00  0.00    -0.270 NA 
HETATM   22  C   UNL     1     -10.709   9.345  71.164  1.00  0.00    -0.347 C  
HETATM   23  C   UNL     1     -10.804   8.516  69.854  1.00  0.00    -0.205 C  
BRANCH  21  24
HETATM   24  C   UNL     1     -10.748   6.093  69.317  1.00  0.00    -0.318 A  
HETATM   25  C   UNL     1     -10.080   4.885  69.720  1.00  0.00    -0.319 A  
HETATM   26  C   UNL     1      -9.839   4.307  71.023  1.00  0.00    -0.251 A  
HETATM   27  C   UNL     1      -9.098   3.150  70.996  1.00  0.00    -0.114 A  
HETATM   28  S   UNL     1      -8.721   2.683  69.409  1.00  0.00    -0.092 SA 
HETATM   29  C   UNL     1      -9.560   4.033  68.735  1.00  0.00    -0.130 A  
HETATM   30  C   UNL     1      -9.712   4.290  67.361  1.00  0.00    -0.210 A  
HETATM   31  C   UNL     1     -10.412   5.420  66.969  1.00  0.00    -0.319 A  
HETATM   32  C   UNL     1     -10.911   6.295  67.925  1.00  0.00    -0.421 A  
ENDBRANCH  21  24
ENDBRANCH  17  18
ENDBRANCH  16  17
ENDBRANCH  15  16
ENDBRANCH  14  15
ENDBRANCH  13  14
ENDBRANCH   7  13
TORSDOF 7
ENDMDL
MODEL       42
REMARK 921   NORMALIZED FREE ENERGY PREDICTED BY IDOCK:   -6.48 KCAL/MOL
REMARK 922        TOTAL FREE ENERGY PREDICTED BY IDOCK:  -10.44 KCAL/MOL
REMARK 923 INTER-LIGAND FREE ENERGY PREDICTED BY IDOCK:   -9.87 KCAL/MOL
REMARK 924 INTRA-LIGAND FREE ENERGY PREDICTED BY IDOCK:   -0.57 KCAL/MOL
REMARK 927      BINDING AFFINITY PREDICTED BY RF-SCORE:    0.00 PKD
ROOT
HETATM    1  O   UNL     1     -12.507  15.698  63.876  1.00  0.00    -0.693 OA 
HETATM    2  C   UNL     1     -12.274  14.691  64.535  1.00  0.00    -0.456 C  
HETATM    3  N   UNL     1     -12.232  14.699  65.901  1.00  0.00    -0.226 N  
HETATM    4  C   UNL     1     -11.937  13.567  66.673  1.00  0.00    -0.404 A  
HETATM    5  H   UNL     1     -12.425  15.577  66.385  1.00  0.00     0.000 HD 
HETATM    6  C   UNL     1     -11.894  13.661  68.063  1.00  0.00    -0.397 A  
HETATM    7  C   UNL     1     -11.575  12.534  68.825  1.00  0.00    -0.322 A  
HETATM    8  C   UNL     1     -12.026  13.389  63.866  1.00  0.00    -0.520 C  
HETATM    9  C   UNL     1     -11.302  11.321  68.179  1.00  0.00    -0.372 A  
HETATM   10  C   UNL     1     -11.745  12.285  64.568  1.00  0.00    -0.421 C  
HETATM   11  C   UNL     1     -11.354  11.227  66.786  1.00  0.00    -0.187 A  
HETATM   12  C   UNL     1     -11.677  12.350  66.026  1.00  0.00    -0.469 A  
ENDROOT
BRANCH   7  13
HETATM   13  O   UNL     1     -11.562  12.737  70.182  1.00  0.00    -0.200 OA 
BRANCH  13  14
HETATM   14  C   UNL     1     -12.844  12.910  70.783  1.00  0.00    -0.050 C  
BRANCH  14  15
HETATM   15  C   UNL     1     -13.088  11.814  71.815  1.00  0.00    -0.480 C  
BRANCH  15  16
HETATM   16  C   UNL     1     -12.973  10.417  71.199  1.00  0.00    -0.506 C  
BRANCH  16  17
HETATM   17  C   UNL     1     -12.843   9.263  72.210  1.00  0.00    -0.384 C  
BRANCH  17  18
HETATM   18  N   UNL     1     -11.477   8.750  72.377  1.00  0.00    -0.308 NA 
HETATM   19  C   UNL     1     -11.420   7.279  72.567  1.00  0.00    -0.281 C  
HETATM   20  C   UNL     1     -11.762   6.431  71.317  1.00  0.00    -0.300 C  
HETATM   21  N   UNL     1     -10.946   6.854  70.173  1.00  0.00    -0.265 NA 
HETATM   22  C   UNL     1     -10.632   9.085  71.197  1.00  0.00    -0.290 C  
HETATM   23  C   UNL     1     -10.961   8.299  69.899  1.00  0.00    -0.166 C  
BRANCH  21  24
HETATM   24  C   UNL     1     -10.628   5.955  69.149  1.00  0.00    -0.299 A  
HETATM   25  C   UNL     1      -9.893   4.730  69.303  1.00  0.00    -0.269 A  
HETATM   26  C   UNL     1      -9.479   3.998  70.480  1.00  0.00    -0.248 A  
HETATM   27  C   UNL     1      -8.727   2.880  70.210  1.00  0.00    -0.074 A  
HETATM   28  S   UNL     1      -8.544   2.635  68.541  1.00  0.00    -0.089 SA 
HETATM   29  C   UNL     1      -9.486   4.030  68.159  1.00  0.00    -0.158 A  
HETATM   30  C   UNL     1      -9.814   4.456  66.860  1.00  0.00    -0.235 A  
HETATM   31  C   UNL     1     -10.579   5.602  66.709  1.00  0.00    -0.372 A  
HETATM   32  C   UNL     1     -10.970   6.329  67.826  1.00  0.00    -0.427 A  
ENDBRANCH  21  24
ENDBRANCH  17  18
ENDBRANCH  16  17
ENDBRANCH  15  16
ENDBRANCH  14  15
ENDBRANCH  13  14
ENDBRANCH   7  13
TORSDOF 7
ENDMDL
MODEL       43
REMARK 921   NORMALIZED FREE ENERGY PREDICTED BY IDOCK:   -6.46 KCAL/MOL
REMARK 922        TOTAL FREE ENERGY PREDICTED BY IDOCK:  -10.41 KCAL/MOL
REMARK 923 INTER-LIGAND FREE ENERGY PREDICTED BY IDOCK:   -9.12 KCAL/MOL
REMARK 924 INTRA-LIGAND FREE ENERGY PREDICTED BY IDOCK:   -1.29 KCAL/MOL
REMARK 927      BINDING AFFINITY PREDICTED BY RF-SCORE:    0.00 PKD
ROOT
HETATM    1  O   UNL     1     -12.775  14.886  63.821  1.00  0.00    -0.754 OA 
HETATM    2  C   UNL     1     -12.258  13.883  64.301  1.00  0.00    -0.408 C  
HETATM    3  N   UNL     1     -12.180  13.670  65.649  1.00  0.00    -0.423 N  
HETATM    4  C   UNL     1     -11.567  12.546  66.220  1.00  0.00    -0.394 A  
HETATM    5  H   UNL     1     -12.590  14.365  66.273  1.00  0.00     0.000 HD 
HETATM    6  C   UNL     1     -11.510  12.409  67.606  1.00  0.00    -0.399 A  
HETATM    7  C   UNL     1     -10.875  11.300  68.169  1.00  0.00    -0.217 A  
HETATM    8  C   UNL     1     -11.685  12.832  63.423  1.00  0.00    -0.556 C  
HETATM    9  C   UNL     1     -10.302  10.336  67.329  1.00  0.00    -0.284 A  
HETATM   10  C   UNL     1     -11.095  11.743  63.930  1.00  0.00    -0.482 C  
HETATM   11  C   UNL     1     -10.367  10.470  65.940  1.00  0.00    -0.275 A  
HETATM   12  C   UNL     1     -11.005  11.575  65.379  1.00  0.00    -0.288 A  
ENDROOT
BRANCH   7  13
HETATM   13  O   UNL     1     -10.878  11.265  69.540  1.00  0.00    -0.226 OA 
BRANCH  13  14
HETATM   14  C   UNL     1     -12.081  11.721  70.158  1.00  0.00    -0.317 C  
BRANCH  14  15
HETATM   15  C   UNL     1     -12.990  10.536  70.467  1.00  0.00    -0.289 C  
BRANCH  15  16
HETATM   16  C   UNL     1     -12.819  10.048  71.908  1.00  0.00    -0.524 C  
BRANCH  16  17
HETATM   17  C   UNL     1     -12.580   8.536  72.064  1.00  0.00    -0.364 C  
BRANCH  17  18
HETATM   18  N   UNL     1     -11.286   8.181  72.663  1.00  0.00    -0.393 NA 
HETATM   19  C   UNL     1     -11.076   6.718  72.785  1.00  0.00    -0.257 C  
HETATM   20  C   UNL     1     -10.851   5.962  71.451  1.00  0.00    -0.271 C  
HETATM   21  N   UNL     1      -9.775   6.595  70.680  1.00  0.00    -0.172 NA 
HETATM   22  C   UNL     1     -10.159   8.734  71.864  1.00  0.00    -0.339 C  
HETATM   23  C   UNL     1      -9.915   8.048  70.493  1.00  0.00    -0.190 C  
BRANCH  21  24
HETATM   24  C   UNL     1      -9.003   5.850  69.782  1.00  0.00    -0.131 A  
HETATM   25  C   UNL     1      -9.382   5.495  68.442  1.00  0.00    -0.130 A  
HETATM   26  C   UNL     1     -10.475   5.933  67.602  1.00  0.00    -0.301 A  
HETATM   27  C   UNL     1     -10.534   5.304  66.382  1.00  0.00    -0.292 A  
HETATM   28  S   UNL     1      -9.249   4.215  66.175  1.00  0.00    -0.162 SA 
HETATM   29  C   UNL     1      -8.590   4.584  67.728  1.00  0.00    -0.103 A  
HETATM   30  C   UNL     1      -7.405   4.042  68.256  1.00  0.00    -0.059 A  
HETATM   31  C   UNL     1      -7.002   4.434  69.523  1.00  0.00    -0.049 A  
HETATM   32  C   UNL     1      -7.785   5.311  70.262  1.00  0.00    -0.072 A  
ENDBRANCH  21  24
ENDBRANCH  17  18
ENDBRANCH  16  17
ENDBRANCH  15  16
ENDBRANCH  14  15
ENDBRANCH  13  14
ENDBRANCH   7  13
TORSDOF 7
ENDMDL
MODEL       44
REMARK 921   NORMALIZED FREE ENERGY PREDICTED BY IDOCK:   -6.45 KCAL/MOL
REMARK 922        TOTAL FREE ENERGY PREDICTED BY IDOCK:  -10.40 KCAL/MOL
REMARK 923 INTER-LIGAND FREE ENERGY PREDICTED BY IDOCK:   -9.77 KCAL/MOL
REMARK 924 INTRA-LIGAND FREE ENERGY PREDICTED BY IDOCK:   -0.63 KCAL/MOL
REMARK 927      BINDING AFFINITY PREDICTED BY RF-SCORE:    0.00 PKD
ROOT
HETATM    1  O   UNL     1     -12.590  13.875  63.661  1.00  0.00    -0.790 OA 
HETATM    2  C   UNL     1     -12.100  14.383  64.663  1.00  0.00    -0.471 C  
HETATM    3  N   UNL     1     -12.347  13.911  65.922  1.00  0.00    -0.466 N  
HETATM    4  C   UNL     1     -11.823  14.495  67.084  1.00  0.00    -0.387 A  
HETATM    5  H   UNL     1     -12.946  13.091  66.022  1.00  0.00     0.000 HD 
HETATM    6  C   UNL     1     -12.138  13.966  68.335  1.00  0.00    -0.327 A  
HETATM    7  C   UNL     1     -11.633  14.568  69.490  1.00  0.00    -0.307 A  
HETATM    8  C   UNL     1     -11.195  15.554  64.553  1.00  0.00    -0.327 C  
HETATM    9  C   UNL     1     -10.813  15.698  69.374  1.00  0.00    -0.264 A  
HETATM   10  C   UNL     1     -10.672  16.137  65.639  1.00  0.00    -0.321 C  
HETATM   11  C   UNL     1     -10.492  16.221  68.119  1.00  0.00    -0.289 A  
HETATM   12  C   UNL     1     -10.992  15.618  66.967  1.00  0.00    -0.261 A  
ENDROOT
BRANCH   7  13
HETATM   13  O   UNL     1     -12.004  13.967  70.665  1.00  0.00    -0.323 OA 
BRANCH  13  14
HETATM   14  C   UNL     1     -12.342  12.584  70.562  1.00  0.00    -0.262 C  
BRANCH  14  15
HETATM   15  C   UNL     1     -13.085  12.134  71.816  1.00  0.00    -0.457 C  
BRANCH  15  16
HETATM   16  C   UNL     1     -13.260  10.613  71.858  1.00  0.00    -0.528 C  
BRANCH  16  17
HETATM   17  C   UNL     1     -11.978   9.798  71.611  1.00  0.00    -0.375 C  
BRANCH  17  18
HETATM   18  N   UNL     1     -11.861   8.583  72.427  1.00  0.00    -0.384 NA 
HETATM   19  C   UNL     1     -12.658   7.446  71.906  1.00  0.00    -0.291 C  
HETATM   20  C   UNL     1     -12.137   6.811  70.594  1.00  0.00    -0.314 C  
HETATM   21  N   UNL     1     -10.720   6.454  70.725  1.00  0.00    -0.237 NA 
HETATM   22  C   UNL     1     -10.444   8.136  72.520  1.00  0.00    -0.339 C  
HETATM   23  C   UNL     1      -9.850   7.534  71.218  1.00  0.00    -0.179 C  
BRANCH  21  24
HETATM   24  C   UNL     1     -10.171   5.407  69.977  1.00  0.00    -0.279 A  
HETATM   25  C   UNL     1     -10.140   5.326  68.542  1.00  0.00    -0.232 A  
HETATM   26  C   UNL     1     -10.438   6.301  67.516  1.00  0.00    -0.295 A  
HETATM   27  C   UNL     1     -10.347   5.814  66.235  1.00  0.00    -0.074 A  
HETATM   28  S   UNL     1      -9.842   4.194  66.214  1.00  0.00    -0.156 SA 
HETATM   29  C   UNL     1      -9.730   4.130  67.935  1.00  0.00    -0.102 A  
HETATM   30  C   UNL     1      -9.298   3.019  68.679  1.00  0.00    -0.237 A  
HETATM   31  C   UNL     1      -9.264   3.117  70.062  1.00  0.00    -0.221 A  
HETATM   32  C   UNL     1      -9.693   4.280  70.687  1.00  0.00    -0.274 A  
ENDBRANCH  21  24
ENDBRANCH  17  18
ENDBRANCH  16  17
ENDBRANCH  15  16
ENDBRANCH  14  15
ENDBRANCH  13  14
ENDBRANCH   7  13
TORSDOF 7
ENDMDL
MODEL       45
REMARK 921   NORMALIZED FREE ENERGY PREDICTED BY IDOCK:   -6.44 KCAL/MOL
REMARK 922        TOTAL FREE ENERGY PREDICTED BY IDOCK:  -10.38 KCAL/MOL
REMARK 923 INTER-LIGAND FREE ENERGY PREDICTED BY IDOCK:   -9.09 KCAL/MOL
REMARK 924 INTRA-LIGAND FREE ENERGY PREDICTED BY IDOCK:   -1.29 KCAL/MOL
REMARK 927      BINDING AFFINITY PREDICTED BY RF-SCORE:    0.00 PKD
ROOT
HETATM    1  O   UNL     1     -12.771  11.338  70.789  1.00  0.00    -0.318 OA 
HETATM    2  C   UNL     1     -12.048  10.577  70.155  1.00  0.00    -0.300 C  
HETATM    3  N   UNL     1     -11.662  10.832  68.868  1.00  0.00    -0.436 N  
HETATM    4  C   UNL     1     -10.862   9.961  68.115  1.00  0.00    -0.234 A  
HETATM    5  H   UNL     1     -11.973  11.701  68.434  1.00  0.00     0.000 HD 
HETATM    6  C   UNL     1     -10.527  10.283  66.800  1.00  0.00    -0.279 A  
HETATM    7  C   UNL     1      -9.751   9.399  66.046  1.00  0.00    -0.275 A  
HETATM    8  C   UNL     1     -11.547   9.322  70.768  1.00  0.00    -0.345 C  
HETATM    9  C   UNL     1      -9.319   8.198  66.624  1.00  0.00    -0.250 A  
HETATM   10  C   UNL     1     -10.778   8.468  70.082  1.00  0.00    -0.240 C  
HETATM   11  C   UNL     1      -9.649   7.882  67.944  1.00  0.00    -0.169 A  
HETATM   12  C   UNL     1     -10.419   8.766  68.698  1.00  0.00    -0.213 A  
ENDROOT
BRANCH   7  13
HETATM   13  O   UNL     1      -9.479   9.814  64.767  1.00  0.00    -0.274 OA 
BRANCH  13  14
HETATM   14  C   UNL     1      -9.662  11.209  64.528  1.00  0.00    -0.265 C  
BRANCH  14  15
HETATM   15  C   UNL     1     -10.352  11.421  63.184  1.00  0.00    -0.357 C  
BRANCH  15  16
HETATM   16  C   UNL     1     -11.755  12.011  63.352  1.00  0.00    -0.519 C  
BRANCH  16  17
HETATM   17  C   UNL     1     -12.170  12.313  64.804  1.00  0.00    -0.365 C  
BRANCH  17  18
HETATM   18  N   UNL     1     -12.798  13.626  64.998  1.00  0.00    -0.733 NA 
HETATM   19  C   UNL     1     -12.905  14.022  66.424  1.00  0.00     0.114 C  
HETATM   20  C   UNL     1     -11.567  14.375  67.121  1.00  0.00    -0.386 C  
HETATM   21  N   UNL     1     -10.834  15.379  66.341  1.00  0.00    -0.315 NA 
HETATM   22  C   UNL     1     -12.037  14.692  64.290  1.00  0.00    -0.415 C  
HETATM   23  C   UNL     1     -10.664  15.056  64.915  1.00  0.00    -0.397 C  
BRANCH  21  24
HETATM   24  C   UNL     1      -9.946  16.263  66.964  1.00  0.00    -0.255 A  
HETATM   25  C   UNL     1      -8.701  15.904  67.585  1.00  0.00    -0.174 A  
HETATM   26  C   UNL     1      -7.938  14.675  67.574  1.00  0.00    -0.208 A  
HETATM   27  C   UNL     1      -6.807  14.709  68.353  1.00  0.00    -0.102 A  
HETATM   28  S   UNL     1      -6.587  16.229  69.074  1.00  0.00    -0.181 SA 
HETATM   29  C   UNL     1      -8.011  16.867  68.335  1.00  0.00    -0.232 A  
HETATM   30  C   UNL     1      -8.468  18.191  68.462  1.00  0.00    -0.312 A  
HETATM   31  C   UNL     1      -9.634  18.557  67.810  1.00  0.00    -0.311 A  
HETATM   32  C   UNL     1     -10.351  17.614  67.085  1.00  0.00    -0.343 A  
ENDBRANCH  21  24
ENDBRANCH  17  18
ENDBRANCH  16  17
ENDBRANCH  15  16
ENDBRANCH  14  15
ENDBRANCH  13  14
ENDBRANCH   7  13
TORSDOF 7
ENDMDL
MODEL       46
REMARK 921   NORMALIZED FREE ENERGY PREDICTED BY IDOCK:   -6.42 KCAL/MOL
REMARK 922        TOTAL FREE ENERGY PREDICTED BY IDOCK:  -10.35 KCAL/MOL
REMARK 923 INTER-LIGAND FREE ENERGY PREDICTED BY IDOCK:   -9.57 KCAL/MOL
REMARK 924 INTRA-LIGAND FREE ENERGY PREDICTED BY IDOCK:   -0.78 KCAL/MOL
REMARK 927      BINDING AFFINITY PREDICTED BY RF-SCORE:    0.00 PKD
ROOT
HETATM    1  O   UNL     1     -10.904   7.934  73.076  1.00  0.00    -0.383 OA 
HETATM    2  C   UNL     1     -10.860   7.563  71.908  1.00  0.00    -0.227 C  
HETATM    3  N   UNL     1     -10.670   8.430  70.868  1.00  0.00    -0.217 N  
HETATM    4  C   UNL     1     -10.647   8.031  69.524  1.00  0.00    -0.214 A  
HETATM    5  H   UNL     1     -10.539   9.418  71.081  1.00  0.00     0.000 HD 
HETATM    6  C   UNL     1     -10.468   8.979  68.517  1.00  0.00    -0.232 A  
HETATM    7  C   UNL     1     -10.472   8.579  67.179  1.00  0.00    -0.299 A  
HETATM    8  C   UNL     1     -11.010   6.127  71.564  1.00  0.00    -0.328 C  
HETATM    9  C   UNL     1     -10.656   7.225  66.866  1.00  0.00    -0.375 A  
HETATM   10  C   UNL     1     -10.990   5.707  70.293  1.00  0.00    -0.287 C  
HETATM   11  C   UNL     1     -10.827   6.276  67.877  1.00  0.00    -0.417 A  
HETATM   12  C   UNL     1     -10.818   6.675  69.212  1.00  0.00    -0.335 A  
ENDROOT
BRANCH   7  13
HETATM   13  O   UNL     1     -10.286   9.591  66.272  1.00  0.00    -0.271 OA 
BRANCH  13  14
HETATM   14  C   UNL     1      -8.945   9.757  65.812  1.00  0.00    -0.160 C  
BRANCH  14  15
HETATM   15  C   UNL     1      -8.944  10.408  64.432  1.00  0.00    -0.247 C  
BRANCH  15  16
HETATM   16  C   UNL     1     -10.363  10.729  63.954  1.00  0.00    -0.329 C  
BRANCH  16  17
HETATM   17  C   UNL     1     -10.629  12.212  63.638  1.00  0.00    -0.461 C  
BRANCH  17  18
HETATM   18  N   UNL     1     -11.869  12.746  64.215  1.00  0.00    -0.368 NA 
HETATM   19  C   UNL     1     -12.056  12.386  65.642  1.00  0.00    -0.329 C  
HETATM   20  C   UNL     1     -11.098  13.085  66.638  1.00  0.00    -0.289 C  
HETATM   21  N   UNL     1     -11.131  14.539  66.445  1.00  0.00    -0.324 NA 
HETATM   22  C   UNL     1     -11.909  14.230  64.115  1.00  0.00    -0.312 C  
HETATM   23  C   UNL     1     -10.933  14.987  65.057  1.00  0.00    -0.423 C  
BRANCH  21  24
HETATM   24  C   UNL     1     -10.848  15.410  67.503  1.00  0.00    -0.305 A  
HETATM   25  C   UNL     1     -11.233  15.219  68.874  1.00  0.00    -0.291 A  
HETATM   26  C   UNL     1     -11.788  14.078  69.568  1.00  0.00    -0.378 A  
HETATM   27  C   UNL     1     -12.082  14.313  70.890  1.00  0.00    -0.347 A  
HETATM   28  S   UNL     1     -11.646  15.884  71.360  1.00  0.00    -0.464 SA 
HETATM   29  C   UNL     1     -11.046  16.267  69.787  1.00  0.00    -0.337 A  
HETATM   30  C   UNL     1     -10.446  17.485  69.422  1.00  0.00    -0.001 A  
HETATM   31  C   UNL     1     -10.014  17.648  68.115  1.00  0.00    -0.330 A  
HETATM   32  C   UNL     1     -10.215  16.636  67.185  1.00  0.00    -0.290 A  
ENDBRANCH  21  24
ENDBRANCH  17  18
ENDBRANCH  16  17
ENDBRANCH  15  16
ENDBRANCH  14  15
ENDBRANCH  13  14
ENDBRANCH   7  13
TORSDOF 7
ENDMDL
MODEL       47
REMARK 921   NORMALIZED FREE ENERGY PREDICTED BY IDOCK:   -6.40 KCAL/MOL
REMARK 922        TOTAL FREE ENERGY PREDICTED BY IDOCK:  -10.32 KCAL/MOL
REMARK 923 INTER-LIGAND FREE ENERGY PREDICTED BY IDOCK:   -9.40 KCAL/MOL
REMARK 924 INTRA-LIGAND FREE ENERGY PREDICTED BY IDOCK:   -0.92 KCAL/MOL
REMARK 927      BINDING AFFINITY PREDICTED BY RF-SCORE:    0.00 PKD
ROOT
HETATM    1  O   UNL     1     -12.056   7.165  71.663  1.00  0.00    -0.299 OA 
HETATM    2  C   UNL     1     -11.470   7.155  70.586  1.00  0.00    -0.308 C  
HETATM    3  N   UNL     1     -11.286   8.285  69.839  1.00  0.00    -0.454 N  
HETATM    4  C   UNL     1     -10.648   8.291  68.591  1.00  0.00    -0.108 A  
HETATM    5  H   UNL     1     -11.633   9.170  70.208  1.00  0.00     0.000 HD 
HETATM    6  C   UNL     1     -10.516   9.482  67.880  1.00  0.00    -0.293 A  
HETATM    7  C   UNL     1      -9.901   9.477  66.625  1.00  0.00    -0.231 A  
HETATM    8  C   UNL     1     -10.921   5.891  70.035  1.00  0.00    -0.430 C  
HETATM    9  C   UNL     1      -9.423   8.270  66.098  1.00  0.00    -0.241 A  
HETATM   10  C   UNL     1     -10.302   5.857  68.849  1.00  0.00    -0.290 C  
HETATM   11  C   UNL     1      -9.549   7.078  66.816  1.00  0.00    -0.221 A  
HETATM   12  C   UNL     1     -10.158   7.085  68.070  1.00  0.00    -0.199 A  
ENDROOT
BRANCH   7  13
HETATM   13  O   UNL     1      -9.823  10.703  66.013  1.00  0.00    -0.208 OA 
BRANCH  13  14
HETATM   14  C   UNL     1     -10.154  10.712  64.625  1.00  0.00    -0.349 C  
BRANCH  14  15
HETATM   15  C   UNL     1     -11.079  11.885  64.318  1.00  0.00    -0.418 C  
BRANCH  15  16
HETATM   16  C   UNL     1     -11.989  12.218  65.504  1.00  0.00    -0.387 C  
BRANCH  16  17
HETATM   17  C   UNL     1     -11.795  13.621  66.107  1.00  0.00    -0.392 C  
BRANCH  17  18
HETATM   18  N   UNL     1     -10.689  13.725  67.067  1.00  0.00    -0.281 NA 
HETATM   19  C   UNL     1      -9.428  14.217  66.459  1.00  0.00    -0.287 C  
HETATM   20  C   UNL     1      -9.425  15.710  66.045  1.00  0.00    -0.355 C  
HETATM   21  N   UNL     1      -9.841  16.554  67.171  1.00  0.00    -0.249 NA 
HETATM   22  C   UNL     1     -11.037  14.640  68.187  1.00  0.00    -0.274 C  
HETATM   23  C   UNL     1     -11.097  16.148  67.821  1.00  0.00    -0.254 C  
BRANCH  21  24
HETATM   24  C   UNL     1      -9.401  17.878  67.275  1.00  0.00    -0.258 A  
HETATM   25  C   UNL     1      -8.218  18.318  67.961  1.00  0.00    -0.274 A  
HETATM   26  C   UNL     1      -7.100  17.588  68.518  1.00  0.00    -0.226 A  
HETATM   27  C   UNL     1      -6.177  18.378  69.159  1.00  0.00    -0.239 A  
HETATM   28  S   UNL     1      -6.583  20.023  69.063  1.00  0.00    -0.290 SA 
HETATM   29  C   UNL     1      -8.007  19.692  68.145  1.00  0.00    -0.318 A  
HETATM   30  C   UNL     1      -8.889  20.663  67.637  1.00  0.00    -0.224 A  
HETATM   31  C   UNL     1      -9.997  20.243  66.918  1.00  0.00    -0.592 A  
HETATM   32  C   UNL     1     -10.243  18.887  66.748  1.00  0.00    -0.451 A  
ENDBRANCH  21  24
ENDBRANCH  17  18
ENDBRANCH  16  17
ENDBRANCH  15  16
ENDBRANCH  14  15
ENDBRANCH  13  14
ENDBRANCH   7  13
TORSDOF 7
ENDMDL
MODEL       48
REMARK 921   NORMALIZED FREE ENERGY PREDICTED BY IDOCK:   -6.38 KCAL/MOL
REMARK 922        TOTAL FREE ENERGY PREDICTED BY IDOCK:  -10.30 KCAL/MOL
REMARK 923 INTER-LIGAND FREE ENERGY PREDICTED BY IDOCK:   -8.84 KCAL/MOL
REMARK 924 INTRA-LIGAND FREE ENERGY PREDICTED BY IDOCK:   -1.45 KCAL/MOL
REMARK 927      BINDING AFFINITY PREDICTED BY RF-SCORE:    0.00 PKD
ROOT
HETATM    1  O   UNL     1     -12.752  15.505  63.836  1.00  0.00    -0.665 OA 
HETATM    2  C   UNL     1     -12.277  14.509  64.371  1.00  0.00    -0.458 C  
HETATM    3  N   UNL     1     -11.484  13.621  63.697  1.00  0.00    -0.581 N  
HETATM    4  C   UNL     1     -10.956  12.461  64.279  1.00  0.00    -0.351 A  
HETATM    5  H   UNL     1     -11.266  13.814  62.720  1.00  0.00     0.000 HD 
HETATM    6  C   UNL     1     -10.171  11.594  63.520  1.00  0.00    -0.474 A  
HETATM    7  C   UNL     1      -9.669  10.426  64.099  1.00  0.00    -0.324 A  
HETATM    8  C   UNL     1     -12.544  14.216  65.801  1.00  0.00    -0.475 C  
HETATM    9  C   UNL     1      -9.962  10.141  65.440  1.00  0.00    -0.377 A  
HETATM   10  C   UNL     1     -12.054  13.120  66.393  1.00  0.00    -0.447 C  
HETATM   11  C   UNL     1     -10.742  11.015  66.201  1.00  0.00    -0.257 A  
HETATM   12  C   UNL     1     -11.239  12.183  65.624  1.00  0.00    -0.381 A  
ENDROOT
BRANCH   7  13
HETATM   13  O   UNL     1      -8.908   9.647  63.265  1.00  0.00    -0.220 OA 
BRANCH  13  14
HETATM   14  C   UNL     1      -7.750   9.066  63.863  1.00  0.00    -0.125 C  
BRANCH  14  15
HETATM   15  C   UNL     1      -8.065   7.654  64.345  1.00  0.00    -0.084 C  
BRANCH  15  16
HETATM   16  C   UNL     1      -7.129   7.217  65.476  1.00  0.00    -0.064 C  
BRANCH  16  17
HETATM   17  C   UNL     1      -6.948   8.242  66.610  1.00  0.00    -0.069 C  
BRANCH  17  18
HETATM   18  N   UNL     1      -7.090   7.687  67.962  1.00  0.00    -0.082 NA 
HETATM   19  C   UNL     1      -6.985   8.710  69.032  1.00  0.00    -0.064 C  
HETATM   20  C   UNL     1      -8.176   9.694  69.134  1.00  0.00    -0.120 C  
HETATM   21  N   UNL     1      -9.442   8.958  69.221  1.00  0.00    -0.159 NA 
HETATM   22  C   UNL     1      -8.401   7.000  68.122  1.00  0.00    -0.123 C  
HETATM   23  C   UNL     1      -9.639   7.935  68.183  1.00  0.00    -0.152 C  
BRANCH  21  24
HETATM   24  C   UNL     1     -10.551   9.514  69.868  1.00  0.00    -0.241 A  
HETATM   25  C   UNL     1     -11.486   8.800  70.694  1.00  0.00    -0.263 A  
HETATM   26  C   UNL     1     -11.461   7.463  71.243  1.00  0.00    -0.297 A  
HETATM   27  C   UNL     1     -12.591   7.122  71.945  1.00  0.00    -0.293 A  
HETATM   28  S   UNL     1     -13.693   8.410  72.025  1.00  0.00    -0.360 SA 
HETATM   29  C   UNL     1     -12.654   9.450  71.120  1.00  0.00    -0.282 A  
HETATM   30  C   UNL     1     -12.922  10.795  70.810  1.00  0.00    -0.348 A  
HETATM   31  C   UNL     1     -11.990  11.505  70.069  1.00  0.00    -0.435 A  
HETATM   32  C   UNL     1     -10.840  10.876  69.611  1.00  0.00    -0.271 A  
ENDBRANCH  21  24
ENDBRANCH  17  18
ENDBRANCH  16  17
ENDBRANCH  15  16
ENDBRANCH  14  15
ENDBRANCH  13  14
ENDBRANCH   7  13
TORSDOF 7
ENDMDL
MODEL       49
REMARK 921   NORMALIZED FREE ENERGY PREDICTED BY IDOCK:   -6.33 KCAL/MOL
REMARK 922        TOTAL FREE ENERGY PREDICTED BY IDOCK:  -10.22 KCAL/MOL
REMARK 923 INTER-LIGAND FREE ENERGY PREDICTED BY IDOCK:   -9.42 KCAL/MOL
REMARK 924 INTRA-LIGAND FREE ENERGY PREDICTED BY IDOCK:   -0.80 KCAL/MOL
REMARK 927      BINDING AFFINITY PREDICTED BY RF-SCORE:    0.00 PKD
ROOT
HETATM    1  O   UNL     1      -8.627   6.153  73.851  1.00  0.00    -0.119 OA 
HETATM    2  C   UNL     1      -9.718   6.367  73.333  1.00  0.00    -0.165 C  
HETATM    3  N   UNL     1     -10.128   7.622  72.977  1.00  0.00    -0.275 N  
HETATM    4  C   UNL     1     -11.383   7.894  72.413  1.00  0.00    -0.369 A  
HETATM    5  H   UNL     1      -9.488   8.401  73.129  1.00  0.00     0.000 HD 
HETATM    6  C   UNL     1     -11.735   9.205  72.094  1.00  0.00    -0.305 A  
HETATM    7  C   UNL     1     -12.996   9.472  71.556  1.00  0.00    -0.386 A  
HETATM    8  C   UNL     1     -10.660   5.253  73.063  1.00  0.00    -0.278 C  
HETATM    9  C   UNL     1     -13.892   8.416  71.344  1.00  0.00    -0.307 A  
HETATM   10  C   UNL     1     -11.865   5.472  72.523  1.00  0.00    -0.158 C  
HETATM   11  C   UNL     1     -13.533   7.102  71.656  1.00  0.00    -0.397 A  
HETATM   12  C   UNL     1     -12.273   6.835  72.189  1.00  0.00    -0.260 A  
ENDROOT
BRANCH   7  13
HETATM   13  O   UNL     1     -13.239  10.793  71.278  1.00  0.00    -0.347 OA 
BRANCH  13  14
HETATM   14  C   UNL     1     -12.179  11.480  70.614  1.00  0.00    -0.378 C  
BRANCH  14  15
HETATM   15  C   UNL     1     -12.280  11.263  69.108  1.00  0.00    -0.251 C  
BRANCH  15  16
HETATM   16  C   UNL     1     -10.931  11.468  68.412  1.00  0.00    -0.267 C  
BRANCH  16  17
HETATM   17  C   UNL     1     -10.473  12.932  68.287  1.00  0.00    -0.242 C  
BRANCH  17  18
HETATM   18  N   UNL     1     -11.516  13.860  67.830  1.00  0.00    -0.304 NA 
HETATM   19  C   UNL     1     -11.749  14.989  68.764  1.00  0.00    -0.334 C  
HETATM   20  C   UNL     1     -10.614  16.041  68.836  1.00  0.00    -0.257 C  
HETATM   21  N   UNL     1     -10.276  16.521  67.491  1.00  0.00    -0.276 NA 
HETATM   22  C   UNL     1     -11.173  14.437  66.501  1.00  0.00    -0.340 C  
HETATM   23  C   UNL     1     -10.008  15.464  66.502  1.00  0.00    -0.268 C  
BRANCH  21  24
HETATM   24  C   UNL     1      -9.747  17.802  67.299  1.00  0.00    -0.285 A  
HETATM   25  C   UNL     1      -8.527  18.302  67.871  1.00  0.00    -0.263 A  
HETATM   26  C   UNL     1      -7.454  17.640  68.579  1.00  0.00    -0.269 A  
HETATM   27  C   UNL     1      -6.471  18.488  69.030  1.00  0.00    -0.252 A  
HETATM   28  S   UNL     1      -6.768  20.094  68.568  1.00  0.00    -0.272 SA 
HETATM   29  C   UNL     1      -8.223  19.665  67.745  1.00  0.00    -0.302 A  
HETATM   30  C   UNL     1      -9.045  20.556  67.031  1.00  0.00    -0.416 A  
HETATM   31  C   UNL     1     -10.188  20.063  66.422  1.00  0.00    -0.598 A  
HETATM   32  C   UNL     1     -10.526  18.723  66.558  1.00  0.00    -0.484 A  
ENDBRANCH  21  24
ENDBRANCH  17  18
ENDBRANCH  16  17
ENDBRANCH  15  16
ENDBRANCH  14  15
ENDBRANCH  13  14
ENDBRANCH   7  13
TORSDOF 7
ENDMDL
MODEL       50
REMARK 921   NORMALIZED FREE ENERGY PREDICTED BY IDOCK:   -6.33 KCAL/MOL
REMARK 922        TOTAL FREE ENERGY PREDICTED BY IDOCK:  -10.22 KCAL/MOL
REMARK 923 INTER-LIGAND FREE ENERGY PREDICTED BY IDOCK:   -8.32 KCAL/MOL
REMARK 924 INTRA-LIGAND FREE ENERGY PREDICTED BY IDOCK:   -1.90 KCAL/MOL
REMARK 927      BINDING AFFINITY PREDICTED BY RF-SCORE:    0.00 PKD
ROOT
HETATM    1  O   UNL     1      -9.233  10.949  65.962  1.00  0.00    -0.175 OA 
HETATM    2  C   UNL     1      -8.611  11.594  66.799  1.00  0.00    -0.180 C  
HETATM    3  N   UNL     1      -8.311  12.917  66.633  1.00  0.00    -0.418 N  
HETATM    4  C   UNL     1      -7.575  13.665  67.562  1.00  0.00    -0.170 A  
HETATM    5  H   UNL     1      -8.639  13.385  65.788  1.00  0.00     0.000 HD 
HETATM    6  C   UNL     1      -7.292  15.008  67.312  1.00  0.00    -0.195 A  
HETATM    7  C   UNL     1      -6.536  15.741  68.229  1.00  0.00    -0.120 A  
HETATM    8  C   UNL     1      -8.149  10.955  68.057  1.00  0.00    -0.119 C  
HETATM    9  C   UNL     1      -6.071  15.115  69.394  1.00  0.00    -0.112 A  
HETATM   10  C   UNL     1      -7.447  11.638  68.969  1.00  0.00    -0.051 C  
HETATM   11  C   UNL     1      -6.363  13.772  69.647  1.00  0.00    -0.116 A  
HETATM   12  C   UNL     1      -7.121  13.042  68.733  1.00  0.00    -0.097 A  
ENDROOT
BRANCH   7  13
HETATM   13  O   UNL     1      -6.319  17.051  67.885  1.00  0.00    -0.131 OA 
BRANCH  13  14
HETATM   14  C   UNL     1      -6.293  17.970  68.977  1.00  0.00    -0.236 C  
BRANCH  14  15
HETATM   15  C   UNL     1      -6.220  19.400  68.452  1.00  0.00    -0.261 C  
BRANCH  15  16
HETATM   16  C   UNL     1      -7.587  20.090  68.486  1.00  0.00    -0.215 C  
BRANCH  16  17
HETATM   17  C   UNL     1      -8.423  19.954  67.201  1.00  0.00    -0.324 C  
BRANCH  17  18
HETATM   18  N   UNL     1      -9.867  19.813  67.425  1.00  0.00    -0.365 NA 
HETATM   19  C   UNL     1     -10.571  19.134  66.309  1.00  0.00    -0.434 C  
HETATM   20  C   UNL     1     -10.281  17.620  66.159  1.00  0.00    -0.343 C  
HETATM   21  N   UNL     1     -10.504  16.927  67.433  1.00  0.00    -0.317 NA 
HETATM   22  C   UNL     1     -10.142  19.041  68.668  1.00  0.00    -0.382 C  
HETATM   23  C   UNL     1      -9.824  17.523  68.593  1.00  0.00    -0.338 C  
BRANCH  21  24
HETATM   24  C   UNL     1     -10.870  15.577  67.460  1.00  0.00    -0.306 A  
HETATM   25  C   UNL     1     -11.371  14.819  66.346  1.00  0.00    -0.339 A  
HETATM   26  C   UNL     1     -11.445  15.119  64.933  1.00  0.00    -0.374 A  
HETATM   27  C   UNL     1     -12.059  14.144  64.184  1.00  0.00    -0.406 A  
HETATM   28  S   UNL     1     -12.510  12.813  65.134  1.00  0.00    -0.425 SA 
HETATM   29  C   UNL     1     -11.875  13.530  66.570  1.00  0.00    -0.399 A  
HETATM   30  C   UNL     1     -11.862  12.927  67.840  1.00  0.00    -0.388 A  
HETATM   31  C   UNL     1     -11.318  13.630  68.904  1.00  0.00    -0.332 A  
HETATM   32  C   UNL     1     -10.840  14.919  68.714  1.00  0.00    -0.254 A  
ENDBRANCH  21  24
ENDBRANCH  17  18
ENDBRANCH  16  17
ENDBRANCH  15  16
ENDBRANCH  14  15
ENDBRANCH  13  14
ENDBRANCH   7  13
TORSDOF 7
ENDMDL
MODEL       51
REMARK 921   NORMALIZED FREE ENERGY PREDICTED BY IDOCK:   -6.32 KCAL/MOL
REMARK 922        TOTAL FREE ENERGY PREDICTED BY IDOCK:  -10.22 KCAL/MOL
REMARK 923 INTER-LIGAND FREE ENERGY PREDICTED BY IDOCK:   -9.15 KCAL/MOL
REMARK 924 INTRA-LIGAND FREE ENERGY PREDICTED BY IDOCK:   -1.06 KCAL/MOL
REMARK 927      BINDING AFFINITY PREDICTED BY RF-SCORE:    0.00 PKD
ROOT
HETATM    1  O   UNL     1     -12.935  16.078  70.452  1.00  0.00    -0.283 OA 
HETATM    2  C   UNL     1     -12.968  14.903  70.800  1.00  0.00    -0.365 C  
HETATM    3  N   UNL     1     -12.239  13.931  70.173  1.00  0.00    -0.345 N  
HETATM    4  C   UNL     1     -12.285  12.577  70.534  1.00  0.00    -0.297 A  
HETATM    5  H   UNL     1     -11.631  14.205  69.401  1.00  0.00     0.000 HD 
HETATM    6  C   UNL     1     -11.526  11.641  69.832  1.00  0.00    -0.308 A  
HETATM    7  C   UNL     1     -11.596  10.290  70.180  1.00  0.00    -0.299 A  
HETATM    8  C   UNL     1     -13.813  14.475  71.942  1.00  0.00    -0.545 C  
HETATM    9  C   UNL     1     -12.430   9.893  71.234  1.00  0.00    -0.479 A  
HETATM   10  C   UNL     1     -13.880  13.192  72.319  1.00  0.00    -0.586 C  
HETATM   11  C   UNL     1     -13.182  10.834  71.941  1.00  0.00    -0.524 A  
HETATM   12  C   UNL     1     -13.109  12.182  71.597  1.00  0.00    -0.413 A  
ENDROOT
BRANCH   7  13
HETATM   13  O   UNL     1     -10.809   9.457  69.426  1.00  0.00    -0.228 OA 
BRANCH  13  14
HETATM   14  C   UNL     1      -9.479   9.920  69.195  1.00  0.00    -0.196 C  
BRANCH  14  15
HETATM   15  C   UNL     1      -9.128   9.781  67.718  1.00  0.00    -0.138 C  
BRANCH  15  16
HETATM   16  C   UNL     1      -7.865  10.568  67.357  1.00  0.00    -0.106 C  
BRANCH  16  17
HETATM   17  C   UNL     1      -8.102  12.027  66.927  1.00  0.00    -0.127 C  
BRANCH  17  18
HETATM   18  N   UNL     1      -8.676  12.885  67.972  1.00  0.00    -0.183 NA 
HETATM   19  C   UNL     1      -7.667  13.726  68.662  1.00  0.00    -0.120 C  
HETATM   20  C   UNL     1      -7.067  14.877  67.817  1.00  0.00    -0.174 C  
HETATM   21  N   UNL     1      -8.137  15.695  67.234  1.00  0.00    -0.177 NA 
HETATM   22  C   UNL     1      -9.711  13.794  67.408  1.00  0.00    -0.235 C  
HETATM   23  C   UNL     1      -9.173  14.941  66.511  1.00  0.00    -0.285 C  
BRANCH  21  24
HETATM   24  C   UNL     1      -7.925  17.045  66.936  1.00  0.00    -0.222 A  
HETATM   25  C   UNL     1      -8.800  18.130  67.284  1.00  0.00    -0.251 A  
HETATM   26  C   UNL     1      -9.953  18.196  68.155  1.00  0.00    -0.368 A  
HETATM   27  C   UNL     1     -10.570  19.423  68.179  1.00  0.00    -0.278 A  
HETATM   28  S   UNL     1      -9.756  20.554  67.211  1.00  0.00    -0.393 SA 
HETATM   29  C   UNL     1      -8.553  19.404  66.753  1.00  0.00    -0.311 A  
HETATM   30  C   UNL     1      -7.445  19.673  65.929  1.00  0.00    -0.327 A  
HETATM   31  C   UNL     1      -6.562  18.644  65.645  1.00  0.00    -0.309 A  
HETATM   32  C   UNL     1      -6.802  17.367  66.135  1.00  0.00    -0.278 A  
ENDBRANCH  21  24
ENDBRANCH  17  18
ENDBRANCH  16  17
ENDBRANCH  15  16
ENDBRANCH  14  15
ENDBRANCH  13  14
ENDBRANCH   7  13
TORSDOF 7
ENDMDL
MODEL       52
REMARK 921   NORMALIZED FREE ENERGY PREDICTED BY IDOCK:   -6.32 KCAL/MOL
REMARK 922        TOTAL FREE ENERGY PREDICTED BY IDOCK:  -10.21 KCAL/MOL
REMARK 923 INTER-LIGAND FREE ENERGY PREDICTED BY IDOCK:   -8.08 KCAL/MOL
REMARK 924 INTRA-LIGAND FREE ENERGY PREDICTED BY IDOCK:   -2.13 KCAL/MOL
REMARK 927      BINDING AFFINITY PREDICTED BY RF-SCORE:    0.00 PKD
ROOT
HETATM    1  O   UNL     1     -10.112  10.242  65.131  1.00  0.00    -0.310 OA 
HETATM    2  C   UNL     1      -9.412  10.488  66.106  1.00  0.00    -0.180 C  
HETATM    3  N   UNL     1      -8.644  11.616  66.193  1.00  0.00    -0.354 N  
HETATM    4  C   UNL     1      -7.812  11.903  67.284  1.00  0.00    -0.168 A  
HETATM    5  H   UNL     1      -8.679  12.285  65.423  1.00  0.00     0.000 HD 
HETATM    6  C   UNL     1      -7.044  13.066  67.290  1.00  0.00    -0.055 A  
HETATM    7  C   UNL     1      -6.198  13.333  68.369  1.00  0.00    -0.086 A  
HETATM    8  C   UNL     1      -9.365   9.556  67.260  1.00  0.00    -0.161 C  
HETATM    9  C   UNL     1      -6.133  12.425  69.434  1.00  0.00    -0.108 A  
HETATM   10  C   UNL     1      -8.586   9.797  68.322  1.00  0.00    -0.119 C  
HETATM   11  C   UNL     1      -6.910  11.264  69.430  1.00  0.00    -0.121 A  
HETATM   12  C   UNL     1      -7.757  11.000  68.355  1.00  0.00    -0.119 A  
ENDROOT
BRANCH   7  13
HETATM   13  O   UNL     1      -5.490  14.504  68.274  1.00  0.00    -0.099 OA 
BRANCH  13  14
HETATM   14  C   UNL     1      -6.255  15.695  68.453  1.00  0.00    -0.102 C  
BRANCH  14  15
HETATM   15  C   UNL     1      -5.875  16.724  67.395  1.00  0.00    -0.190 C  
BRANCH  15  16
HETATM   16  C   UNL     1      -7.109  17.390  66.779  1.00  0.00    -0.245 C  
BRANCH  16  17
HETATM   17  C   UNL     1      -8.191  16.422  66.267  1.00  0.00    -0.308 C  
BRANCH  17  18
HETATM   18  N   UNL     1      -9.569  16.844  66.547  1.00  0.00    -0.264 NA 
HETATM   19  C   UNL     1     -10.589  15.884  66.056  1.00  0.00    -0.323 C  
HETATM   20  C   UNL     1     -10.670  14.543  66.826  1.00  0.00    -0.291 C  
HETATM   21  N   UNL     1     -10.816  14.789  68.266  1.00  0.00    -0.243 NA 
HETATM   22  C   UNL     1      -9.787  17.025  68.008  1.00  0.00    -0.275 C  
HETATM   23  C   UNL     1      -9.829  15.716  68.842  1.00  0.00    -0.219 C  
BRANCH  21  24
HETATM   24  C   UNL     1     -11.459  13.859  69.090  1.00  0.00    -0.299 A  
HETATM   25  C   UNL     1     -12.274  14.171  70.232  1.00  0.00    -0.416 A  
HETATM   26  C   UNL     1     -12.813  15.422  70.717  1.00  0.00    -0.524 A  
HETATM   27  C   UNL     1     -13.506  15.315  71.899  1.00  0.00    -0.450 A  
HETATM   28  S   UNL     1     -13.587  13.707  72.435  1.00  0.00    -0.597 SA 
HETATM   29  C   UNL     1     -12.696  13.131  71.073  1.00  0.00    -0.277 A  
HETATM   30  C   UNL     1     -12.394  11.783  70.812  1.00  0.00    -0.433 A  
HETATM   31  C   UNL     1     -11.664  11.473  69.675  1.00  0.00    -0.419 A  
HETATM   32  C   UNL     1     -11.210  12.487  68.842  1.00  0.00    -0.330 A  
ENDBRANCH  21  24
ENDBRANCH  17  18
ENDBRANCH  16  17
ENDBRANCH  15  16
ENDBRANCH  14  15
ENDBRANCH  13  14
ENDBRANCH   7  13
TORSDOF 7
ENDMDL
MODEL       53
REMARK 921   NORMALIZED FREE ENERGY PREDICTED BY IDOCK:   -6.30 KCAL/MOL
REMARK 922        TOTAL FREE ENERGY PREDICTED BY IDOCK:  -10.18 KCAL/MOL
REMARK 923 INTER-LIGAND FREE ENERGY PREDICTED BY IDOCK:   -8.11 KCAL/MOL
REMARK 924 INTRA-LIGAND FREE ENERGY PREDICTED BY IDOCK:   -2.07 KCAL/MOL
REMARK 927      BINDING AFFINITY PREDICTED BY RF-SCORE:    0.00 PKD
ROOT
HETATM    1  O   UNL     1     -11.714  12.873  63.117  1.00  0.00    -0.472 OA 
HETATM    2  C   UNL     1     -11.739  12.921  64.342  1.00  0.00    -0.372 C  
HETATM    3  N   UNL     1     -11.360  11.866  65.126  1.00  0.00    -0.300 N  
HETATM    4  C   UNL     1     -11.410  11.887  66.527  1.00  0.00    -0.341 A  
HETATM    5  H   UNL     1     -11.024  11.019  64.667  1.00  0.00     0.000 HD 
HETATM    6  C   UNL     1     -11.024  10.763  67.256  1.00  0.00    -0.359 A  
HETATM    7  C   UNL     1     -11.101  10.782  68.651  1.00  0.00    -0.259 A  
HETATM    8  C   UNL     1     -12.188  14.149  65.044  1.00  0.00    -0.450 C  
HETATM    9  C   UNL     1     -11.565  11.934  69.299  1.00  0.00    -0.376 A  
HETATM   10  C   UNL     1     -12.245  14.209  66.380  1.00  0.00    -0.473 C  
HETATM   11  C   UNL     1     -11.943  13.062  68.567  1.00  0.00    -0.296 A  
HETATM   12  C   UNL     1     -11.862  13.045  67.176  1.00  0.00    -0.431 A  
ENDROOT
BRANCH   7  13
HETATM   13  O   UNL     1     -10.696   9.626  69.269  1.00  0.00    -0.220 OA 
BRANCH  13  14
HETATM   14  C   UNL     1      -9.369   9.203  68.958  1.00  0.00    -0.151 C  
BRANCH  14  15
HETATM   15  C   UNL     1      -8.386   9.791  69.965  1.00  0.00    -0.211 C  
BRANCH  15  16
HETATM   16  C   UNL     1      -7.036  10.117  69.318  1.00  0.00    -0.076 C  
BRANCH  16  17
HETATM   17  C   UNL     1      -6.413  11.459  69.743  1.00  0.00    -0.133 C  
BRANCH  17  18
HETATM   18  N   UNL     1      -5.930  12.286  68.629  1.00  0.00    -0.054 NA 
HETATM   19  C   UNL     1      -6.918  12.427  67.530  1.00  0.00    -0.142 C  
HETATM   20  C   UNL     1      -8.157  13.298  67.855  1.00  0.00    -0.159 C  
HETATM   21  N   UNL     1      -7.741  14.607  68.372  1.00  0.00    -0.118 NA 
HETATM   22  C   UNL     1      -5.574  13.654  69.094  1.00  0.00    -0.075 C  
HETATM   23  C   UNL     1      -6.775  14.559  69.481  1.00  0.00    -0.151 C  
BRANCH  21  24
HETATM   24  C   UNL     1      -8.552  15.734  68.206  1.00  0.00    -0.170 A  
HETATM   25  C   UNL     1      -8.241  16.882  67.399  1.00  0.00    -0.199 A  
HETATM   26  C   UNL     1      -7.198  17.121  66.426  1.00  0.00    -0.325 A  
HETATM   27  C   UNL     1      -7.198  18.391  65.902  1.00  0.00    -0.232 A  
HETATM   28  S   UNL     1      -8.483  19.320  66.508  1.00  0.00    -0.335 SA 
HETATM   29  C   UNL     1      -9.063  18.016  67.480  1.00  0.00    -0.253 A  
HETATM   30  C   UNL     1     -10.213  18.055  68.287  1.00  0.00    -0.402 A  
HETATM   31  C   UNL     1     -10.553  16.926  69.016  1.00  0.00    -0.338 A  
HETATM   32  C   UNL     1      -9.739  15.801  68.975  1.00  0.00    -0.242 A  
ENDBRANCH  21  24
ENDBRANCH  17  18
ENDBRANCH  16  17
ENDBRANCH  15  16
ENDBRANCH  14  15
ENDBRANCH  13  14
ENDBRANCH   7  13
TORSDOF 7
ENDMDL
MODEL       54
REMARK 921   NORMALIZED FREE ENERGY PREDICTED BY IDOCK:   -6.30 KCAL/MOL
REMARK 922        TOTAL FREE ENERGY PREDICTED BY IDOCK:  -10.18 KCAL/MOL
REMARK 923 INTER-LIGAND FREE ENERGY PREDICTED BY IDOCK:   -9.44 KCAL/MOL
REMARK 924 INTRA-LIGAND FREE ENERGY PREDICTED BY IDOCK:   -0.74 KCAL/MOL
REMARK 927      BINDING AFFINITY PREDICTED BY RF-SCORE:    0.00 PKD
ROOT
HETATM    1  O   UNL     1     -11.621   4.737  73.400  1.00  0.00    -0.323 OA 
HETATM    2  C   UNL     1     -11.231   5.742  72.815  1.00  0.00    -0.292 C  
HETATM    3  N   UNL     1     -12.033   6.830  72.610  1.00  0.00    -0.497 N  
HETATM    4  C   UNL     1     -11.619   7.976  71.917  1.00  0.00    -0.298 A  
HETATM    5  H   UNL     1     -12.983   6.807  72.981  1.00  0.00     0.000 HD 
HETATM    6  C   UNL     1     -12.502   9.039  71.732  1.00  0.00    -0.438 A  
HETATM    7  C   UNL     1     -12.091  10.167  71.019  1.00  0.00    -0.377 A  
HETATM    8  C   UNL     1      -9.844   5.825  72.294  1.00  0.00    -0.185 C  
HETATM    9  C   UNL     1     -10.792  10.215  70.497  1.00  0.00    -0.340 A  
HETATM   10  C   UNL     1      -9.410   6.903  71.631  1.00  0.00    -0.154 C  
HETATM   11  C   UNL     1      -9.905   9.153  70.691  1.00  0.00    -0.308 A  
HETATM   12  C   UNL     1     -10.314   8.029  71.407  1.00  0.00    -0.243 A  
ENDROOT
BRANCH   7  13
HETATM   13  O   UNL     1     -13.038  11.152  70.898  1.00  0.00    -0.246 OA 
BRANCH  13  14
HETATM   14  C   UNL     1     -13.122  12.054  72.000  1.00  0.00    -0.351 C  
BRANCH  14  15
HETATM   15  C   UNL     1     -13.485  13.450  71.505  1.00  0.00    -0.288 C  
BRANCH  15  16
HETATM   16  C   UNL     1     -12.285  14.156  70.865  1.00  0.00    -0.434 C  
BRANCH  16  17
HETATM   17  C   UNL     1     -12.184  14.019  69.335  1.00  0.00    -0.292 C  
BRANCH  17  18
HETATM   18  N   UNL     1     -10.810  13.953  68.819  1.00  0.00    -0.258 NA 
HETATM   19  C   UNL     1     -10.709  14.280  67.375  1.00  0.00    -0.282 C  
HETATM   20  C   UNL     1     -10.951  15.766  67.009  1.00  0.00    -0.221 C  
HETATM   21  N   UNL     1     -10.091  16.638  67.816  1.00  0.00    -0.266 NA 
HETATM   22  C   UNL     1      -9.917  14.888  69.557  1.00  0.00    -0.077 C  
HETATM   23  C   UNL     1     -10.145  16.396  69.266  1.00  0.00    -0.271 C  
BRANCH  21  24
HETATM   24  C   UNL     1      -9.685  17.888  67.336  1.00  0.00    -0.288 A  
HETATM   25  C   UNL     1      -8.409  18.186  66.744  1.00  0.00    -0.270 A  
HETATM   26  C   UNL     1      -7.329  17.332  66.302  1.00  0.00    -0.342 A  
HETATM   27  C   UNL     1      -6.229  18.012  65.838  1.00  0.00    -0.248 A  
HETATM   28  S   UNL     1      -6.474  19.690  65.858  1.00  0.00    -0.229 SA 
HETATM   29  C   UNL     1      -8.074  19.523  66.485  1.00  0.00    -0.310 A  
HETATM   30  C   UNL     1      -8.962  20.584  66.735  1.00  0.00    -0.269 A  
HETATM   31  C   UNL     1     -10.219  20.293  67.243  1.00  0.00    -0.495 A  
HETATM   32  C   UNL     1     -10.563  18.980  67.537  1.00  0.00    -0.546 A  
ENDBRANCH  21  24
ENDBRANCH  17  18
ENDBRANCH  16  17
ENDBRANCH  15  16
ENDBRANCH  14  15
ENDBRANCH  13  14
ENDBRANCH   7  13
TORSDOF 7
ENDMDL
MODEL       55
REMARK 921   NORMALIZED FREE ENERGY PREDICTED BY IDOCK:   -6.29 KCAL/MOL
REMARK 922        TOTAL FREE ENERGY PREDICTED BY IDOCK:  -10.17 KCAL/MOL
REMARK 923 INTER-LIGAND FREE ENERGY PREDICTED BY IDOCK:   -9.53 KCAL/MOL
REMARK 924 INTRA-LIGAND FREE ENERGY PREDICTED BY IDOCK:   -0.65 KCAL/MOL
REMARK 927      BINDING AFFINITY PREDICTED BY RF-SCORE:    0.00 PKD
ROOT
HETATM    1  O   UNL     1      -9.539   2.519  71.174  1.00  0.00    -0.144 OA 
HETATM    2  C   UNL     1      -9.919   3.624  71.548  1.00  0.00    -0.111 C  
HETATM    3  N   UNL     1      -9.997   4.697  70.705  1.00  0.00    -0.226 N  
HETATM    4  C   UNL     1     -10.398   5.976  71.117  1.00  0.00    -0.214 A  
HETATM    5  H   UNL     1      -9.751   4.561  69.724  1.00  0.00     0.000 HD 
HETATM    6  C   UNL     1     -10.434   7.026  70.200  1.00  0.00    -0.232 A  
HETATM    7  C   UNL     1     -10.810   8.303  70.622  1.00  0.00    -0.236 A  
HETATM    8  C   UNL     1     -10.320   3.850  72.959  1.00  0.00    -0.239 C  
HETATM    9  C   UNL     1     -11.147   8.512  71.966  1.00  0.00    -0.412 A  
HETATM   10  C   UNL     1     -10.712   5.055  73.389  1.00  0.00    -0.330 C  
HETATM   11  C   UNL     1     -11.119   7.457  72.881  1.00  0.00    -0.397 A  
HETATM   12  C   UNL     1     -10.748   6.181  72.459  1.00  0.00    -0.257 A  
ENDROOT
BRANCH   7  13
HETATM   13  O   UNL     1     -10.812   9.261  69.640  1.00  0.00    -0.232 OA 
BRANCH  13  14
HETATM   14  C   UNL     1     -11.202  10.566  70.064  1.00  0.00    -0.315 C  
BRANCH  14  15
HETATM   15  C   UNL     1     -11.959  11.273  68.945  1.00  0.00    -0.378 C  
BRANCH  15  16
HETATM   16  C   UNL     1     -11.167  11.271  67.633  1.00  0.00    -0.357 C  
BRANCH  16  17
HETATM   17  C   UNL     1     -10.529  12.619  67.250  1.00  0.00    -0.228 C  
BRANCH  17  18
HETATM   18  N   UNL     1     -11.435  13.547  66.561  1.00  0.00    -0.326 NA 
HETATM   19  C   UNL     1     -11.996  14.592  67.453  1.00  0.00    -0.335 C  
HETATM   20  C   UNL     1     -10.992  15.669  67.934  1.00  0.00    -0.319 C  
HETATM   21  N   UNL     1     -10.292  16.263  66.790  1.00  0.00    -0.292 NA 
HETATM   22  C   UNL     1     -10.740  14.237  65.440  1.00  0.00    -0.343 C  
HETATM   23  C   UNL     1      -9.685  15.296  65.861  1.00  0.00    -0.355 C  
BRANCH  21  24
HETATM   24  C   UNL     1      -9.798  17.570  66.852  1.00  0.00    -0.302 A  
HETATM   25  C   UNL     1      -8.662  18.004  67.618  1.00  0.00    -0.247 A  
HETATM   26  C   UNL     1      -7.639  17.266  68.325  1.00  0.00    -0.227 A  
HETATM   27  C   UNL     1      -6.740  18.057  69.000  1.00  0.00    -0.251 A  
HETATM   28  S   UNL     1      -7.053  19.707  68.760  1.00  0.00    -0.340 SA 
HETATM   29  C   UNL     1      -8.401  19.378  67.733  1.00  0.00    -0.305 A  
HETATM   30  C   UNL     1      -9.182  20.349  67.083  1.00  0.00    -0.511 A  
HETATM   31  C   UNL     1     -10.239  19.930  66.289  1.00  0.00    -0.614 A  
HETATM   32  C   UNL     1     -10.535  18.577  66.183  1.00  0.00    -0.447 A  
ENDBRANCH  21  24
ENDBRANCH  17  18
ENDBRANCH  16  17
ENDBRANCH  15  16
ENDBRANCH  14  15
ENDBRANCH  13  14
ENDBRANCH   7  13
TORSDOF 7
ENDMDL
MODEL       56
REMARK 921   NORMALIZED FREE ENERGY PREDICTED BY IDOCK:   -6.29 KCAL/MOL
REMARK 922        TOTAL FREE ENERGY PREDICTED BY IDOCK:  -10.17 KCAL/MOL
REMARK 923 INTER-LIGAND FREE ENERGY PREDICTED BY IDOCK:   -9.51 KCAL/MOL
REMARK 924 INTRA-LIGAND FREE ENERGY PREDICTED BY IDOCK:   -0.66 KCAL/MOL
REMARK 927      BINDING AFFINITY PREDICTED BY RF-SCORE:    0.00 PKD
ROOT
HETATM    1  O   UNL     1     -12.143   5.788  72.686  1.00  0.00    -0.212 OA 
HETATM    2  C   UNL     1     -11.892   6.807  72.050  1.00  0.00    -0.314 C  
HETATM    3  N   UNL     1     -12.497   8.004  72.314  1.00  0.00    -0.479 N  
HETATM    4  C   UNL     1     -12.249   9.173  71.581  1.00  0.00    -0.361 A  
HETATM    5  H   UNL     1     -13.164   8.050  73.085  1.00  0.00     0.000 HD 
HETATM    6  C   UNL     1     -12.921  10.353  71.899  1.00  0.00    -0.555 A  
HETATM    7  C   UNL     1     -12.689  11.508  71.149  1.00  0.00    -0.356 A  
HETATM    8  C   UNL     1     -10.900   6.786  70.947  1.00  0.00    -0.289 C  
HETATM    9  C   UNL     1     -11.780  11.464  70.083  1.00  0.00    -0.414 A  
HETATM   10  C   UNL     1     -10.634   7.883  70.227  1.00  0.00    -0.231 C  
HETATM   11  C   UNL     1     -11.101  10.284  69.771  1.00  0.00    -0.340 A  
HETATM   12  C   UNL     1     -11.330   9.133  70.523  1.00  0.00    -0.300 A  
ENDROOT
BRANCH   7  13
HETATM   13  O   UNL     1     -13.400  12.611  71.548  1.00  0.00    -0.302 OA 
BRANCH  13  14
HETATM   14  C   UNL     1     -12.668  13.560  72.322  1.00  0.00    -0.090 C  
BRANCH  14  15
HETATM   15  C   UNL     1     -12.771  14.942  71.685  1.00  0.00    -0.401 C  
BRANCH  15  16
HETATM   16  C   UNL     1     -12.217  14.953  70.257  1.00  0.00    -0.389 C  
BRANCH  16  17
HETATM   17  C   UNL     1     -10.981  15.845  70.041  1.00  0.00    -0.358 C  
BRANCH  17  18
HETATM   18  N   UNL     1     -10.637  16.078  68.632  1.00  0.00    -0.252 NA 
HETATM   19  C   UNL     1     -10.909  17.465  68.182  1.00  0.00    -0.273 C  
HETATM   20  C   UNL     1      -9.968  18.551  68.762  1.00  0.00    -0.380 C  
HETATM   21  N   UNL     1      -8.565  18.182  68.541  1.00  0.00    -0.301 NA 
HETATM   22  C   UNL     1      -9.198  15.795  68.379  1.00  0.00    -0.192 C  
HETATM   23  C   UNL     1      -8.202  16.825  68.978  1.00  0.00    -0.172 C  
BRANCH  21  24
HETATM   24  C   UNL     1      -7.574  19.164  68.431  1.00  0.00    -0.312 A  
HETATM   25  C   UNL     1      -7.087  19.732  67.204  1.00  0.00    -0.243 A  
HETATM   26  C   UNL     1      -7.568  19.641  65.843  1.00  0.00    -0.320 A  
HETATM   27  C   UNL     1      -6.779  20.289  64.924  1.00  0.00    -0.257 A  
HETATM   28  S   UNL     1      -5.474  21.081  65.664  1.00  0.00    -0.225 SA 
HETATM   29  C   UNL     1      -5.960  20.566  67.239  1.00  0.00    -0.196 A  
HETATM   30  C   UNL     1      -5.316  20.910  68.440  1.00  0.00    -0.350 A  
HETATM   31  C   UNL     1      -5.823  20.417  69.632  1.00  0.00    -0.396 A  
HETATM   32  C   UNL     1      -6.920  19.566  69.621  1.00  0.00    -0.247 A  
ENDBRANCH  21  24
ENDBRANCH  17  18
ENDBRANCH  16  17
ENDBRANCH  15  16
ENDBRANCH  14  15
ENDBRANCH  13  14
ENDBRANCH   7  13
TORSDOF 7
ENDMDL
MODEL       57
REMARK 921   NORMALIZED FREE ENERGY PREDICTED BY IDOCK:   -6.27 KCAL/MOL
REMARK 922        TOTAL FREE ENERGY PREDICTED BY IDOCK:  -10.14 KCAL/MOL
REMARK 923 INTER-LIGAND FREE ENERGY PREDICTED BY IDOCK:   -8.91 KCAL/MOL
REMARK 924 INTRA-LIGAND FREE ENERGY PREDICTED BY IDOCK:   -1.23 KCAL/MOL
REMARK 927      BINDING AFFINITY PREDICTED BY RF-SCORE:    0.00 PKD
ROOT
HETATM    1  O   UNL     1     -11.466   4.128  73.759  1.00  0.00    -0.186 OA 
HETATM    2  C   UNL     1     -11.055   5.199  73.328  1.00  0.00    -0.327 C  
HETATM    3  N   UNL     1     -11.189   5.565  72.017  1.00  0.00    -0.203 N  
HETATM    4  C   UNL     1     -10.699   6.770  71.497  1.00  0.00    -0.226 A  
HETATM    5  H   UNL     1     -11.672   4.926  71.385  1.00  0.00     0.000 HD 
HETATM    6  C   UNL     1     -10.859   7.063  70.143  1.00  0.00    -0.285 A  
HETATM    7  C   UNL     1     -10.346   8.254  69.625  1.00  0.00    -0.218 A  
HETATM    8  C   UNL     1     -10.381   6.169  74.227  1.00  0.00    -0.291 C  
HETATM    9  C   UNL     1      -9.676   9.142  70.477  1.00  0.00    -0.287 A  
HETATM   10  C   UNL     1      -9.903   7.332  73.768  1.00  0.00    -0.358 C  
HETATM   11  C   UNL     1      -9.525   8.852  71.835  1.00  0.00    -0.301 A  
HETATM   12  C   UNL     1     -10.041   7.665  72.352  1.00  0.00    -0.265 A  
ENDROOT
BRANCH   7  13
HETATM   13  O   UNL     1     -10.560   8.442  68.283  1.00  0.00    -0.192 OA 
BRANCH  13  14
HETATM   14  C   UNL     1      -9.396   8.757  67.520  1.00  0.00    -0.136 C  
BRANCH  14  15
HETATM   15  C   UNL     1      -9.692   8.603  66.032  1.00  0.00    -0.238 C  
BRANCH  15  16
HETATM   16  C   UNL     1      -9.271   9.842  65.236  1.00  0.00    -0.280 C  
BRANCH  16  17
HETATM   17  C   UNL     1     -10.385  10.878  65.000  1.00  0.00    -0.288 C  
BRANCH  17  18
HETATM   18  N   UNL     1      -9.958  12.276  65.144  1.00  0.00    -0.247 NA 
HETATM   19  C   UNL     1     -11.090  13.233  65.209  1.00  0.00    -0.288 C  
HETATM   20  C   UNL     1     -11.932  13.184  66.508  1.00  0.00    -0.398 C  
HETATM   21  N   UNL     1     -11.063  13.303  67.685  1.00  0.00    -0.261 NA 
HETATM   22  C   UNL     1      -9.140  12.461  66.374  1.00  0.00    -0.149 C  
HETATM   23  C   UNL     1      -9.922  12.374  67.713  1.00  0.00    -0.205 C  
BRANCH  21  24
HETATM   24  C   UNL     1     -11.546  13.845  68.881  1.00  0.00    -0.316 A  
HETATM   25  C   UNL     1     -12.130  13.103  69.965  1.00  0.00    -0.375 A  
HETATM   26  C   UNL     1     -12.198  11.684  70.233  1.00  0.00    -0.401 A  
HETATM   27  C   UNL     1     -12.907  11.359  71.365  1.00  0.00    -0.397 A  
HETATM   28  S   UNL     1     -13.460  12.743  72.177  1.00  0.00    -0.366 SA 
HETATM   29  C   UNL     1     -12.743  13.800  71.016  1.00  0.00    -0.343 A  
HETATM   30  C   UNL     1     -12.763  15.205  71.076  1.00  0.00    -0.458 A  
HETATM   31  C   UNL     1     -12.144  15.923  70.066  1.00  0.00    -0.264 A  
HETATM   32  C   UNL     1     -11.556  15.256  68.999  1.00  0.00    -0.360 A  
ENDBRANCH  21  24
ENDBRANCH  17  18
ENDBRANCH  16  17
ENDBRANCH  15  16
ENDBRANCH  14  15
ENDBRANCH  13  14
ENDBRANCH   7  13
TORSDOF 7
ENDMDL
MODEL       58
REMARK 921   NORMALIZED FREE ENERGY PREDICTED BY IDOCK:   -6.25 KCAL/MOL
REMARK 922        TOTAL FREE ENERGY PREDICTED BY IDOCK:  -10.12 KCAL/MOL
REMARK 923 INTER-LIGAND FREE ENERGY PREDICTED BY IDOCK:   -8.66 KCAL/MOL
REMARK 924 INTRA-LIGAND FREE ENERGY PREDICTED BY IDOCK:   -1.46 KCAL/MOL
REMARK 927      BINDING AFFINITY PREDICTED BY RF-SCORE:    0.00 PKD
ROOT
HETATM    1  O   UNL     1     -11.831  14.432  69.727  1.00  0.00    -0.281 OA 
HETATM    2  C   UNL     1     -12.145  13.411  70.328  1.00  0.00    -0.349 C  
HETATM    3  N   UNL     1     -11.522  12.212  70.114  1.00  0.00    -0.522 N  
HETATM    4  C   UNL     1     -11.885  11.026  70.766  1.00  0.00    -0.278 A  
HETATM    5  H   UNL     1     -10.754  12.180  69.444  1.00  0.00     0.000 HD 
HETATM    6  C   UNL     1     -11.214   9.838  70.479  1.00  0.00    -0.381 A  
HETATM    7  C   UNL     1     -11.597   8.653  71.113  1.00  0.00    -0.281 A  
HETATM    8  C   UNL     1     -13.233  13.429  71.337  1.00  0.00    -0.329 C  
HETATM    9  C   UNL     1     -12.654   8.677  72.033  1.00  0.00    -0.434 A  
HETATM   10  C   UNL     1     -13.605  12.317  71.983  1.00  0.00    -0.306 C  
HETATM   11  C   UNL     1     -13.319   9.870  72.326  1.00  0.00    -0.429 A  
HETATM   12  C   UNL     1     -12.934  11.052  71.696  1.00  0.00    -0.561 A  
ENDROOT
BRANCH   7  13
HETATM   13  O   UNL     1     -10.871   7.545  70.758  1.00  0.00    -0.233 OA 
BRANCH  13  14
HETATM   14  C   UNL     1     -10.911   7.209  69.372  1.00  0.00    -0.206 C  
BRANCH  14  15
HETATM   15  C   UNL     1     -10.140   5.916  69.126  1.00  0.00    -0.244 C  
BRANCH  15  16
HETATM   16  C   UNL     1      -8.989   6.120  68.137  1.00  0.00    -0.114 C  
BRANCH  16  17
HETATM   17  C   UNL     1      -8.472   7.565  68.020  1.00  0.00    -0.123 C  
BRANCH  17  18
HETATM   18  N   UNL     1      -8.429   8.088  66.648  1.00  0.00    -0.128 NA 
HETATM   19  C   UNL     1      -9.750   8.548  66.152  1.00  0.00    -0.189 C  
HETATM   20  C   UNL     1     -10.293   9.844  66.804  1.00  0.00    -0.217 C  
HETATM   21  N   UNL     1      -9.291  10.913  66.727  1.00  0.00    -0.164 NA 
HETATM   22  C   UNL     1      -7.484   9.233  66.542  1.00  0.00    -0.093 C  
HETATM   23  C   UNL     1      -7.953  10.549  67.219  1.00  0.00    -0.114 C  
BRANCH  21  24
HETATM   24  C   UNL     1      -9.678  12.257  66.699  1.00  0.00    -0.222 A  
HETATM   25  C   UNL     1     -10.590  12.850  65.759  1.00  0.00    -0.293 A  
HETATM   26  C   UNL     1     -11.476  12.264  64.778  1.00  0.00    -0.382 A  
HETATM   27  C   UNL     1     -12.155  13.183  64.014  1.00  0.00    -0.446 A  
HETATM   28  S   UNL     1     -11.801  14.774  64.486  1.00  0.00    -0.371 SA 
HETATM   29  C   UNL     1     -10.734  14.245  65.735  1.00  0.00    -0.305 A  
HETATM   30  C   UNL     1     -10.056  15.086  66.634  1.00  0.00    -0.267 A  
HETATM   31  C   UNL     1      -9.227  14.513  67.585  1.00  0.00    -0.195 A  
HETATM   32  C   UNL     1      -9.044  13.137  67.610  1.00  0.00    -0.201 A  
ENDBRANCH  21  24
ENDBRANCH  17  18
ENDBRANCH  16  17
ENDBRANCH  15  16
ENDBRANCH  14  15
ENDBRANCH  13  14
ENDBRANCH   7  13
TORSDOF 7
ENDMDL
MODEL       59
REMARK 921   NORMALIZED FREE ENERGY PREDICTED BY IDOCK:   -6.25 KCAL/MOL
REMARK 922        TOTAL FREE ENERGY PREDICTED BY IDOCK:  -10.11 KCAL/MOL
REMARK 923 INTER-LIGAND FREE ENERGY PREDICTED BY IDOCK:   -9.60 KCAL/MOL
REMARK 924 INTRA-LIGAND FREE ENERGY PREDICTED BY IDOCK:   -0.51 KCAL/MOL
REMARK 927      BINDING AFFINITY PREDICTED BY RF-SCORE:    0.00 PKD
ROOT
HETATM    1  O   UNL     1     -11.325   7.648  72.877  1.00  0.00    -0.369 OA 
HETATM    2  C   UNL     1     -11.124   7.476  71.679  1.00  0.00    -0.239 C  
HETATM    3  N   UNL     1     -10.815   8.503  70.831  1.00  0.00    -0.225 N  
HETATM    4  C   UNL     1     -10.612   8.334  69.455  1.00  0.00    -0.196 A  
HETATM    5  H   UNL     1     -10.729   9.442  71.221  1.00  0.00     0.000 HD 
HETATM    6  C   UNL     1     -10.320   9.435  68.651  1.00  0.00    -0.227 A  
HETATM    7  C   UNL     1     -10.144   9.264  67.276  1.00  0.00    -0.231 A  
HETATM    8  C   UNL     1     -11.205   6.119  71.085  1.00  0.00    -0.355 C  
HETATM    9  C   UNL     1     -10.264   7.983  66.722  1.00  0.00    -0.367 A  
HETATM   10  C   UNL     1     -11.014   5.917  69.776  1.00  0.00    -0.452 C  
HETATM   11  C   UNL     1     -10.548   6.879  67.530  1.00  0.00    -0.351 A  
HETATM   12  C   UNL     1     -10.719   7.050  68.902  1.00  0.00    -0.227 A  
ENDROOT
BRANCH   7  13
HETATM   13  O   UNL     1      -9.859  10.412  66.581  1.00  0.00    -0.187 OA 
BRANCH  13  14
HETATM   14  C   UNL     1      -9.271  10.215  65.296  1.00  0.00    -0.209 C  
BRANCH  14  15
HETATM   15  C   UNL     1     -10.239  10.663  64.206  1.00  0.00    -0.391 C  
BRANCH  15  16
HETATM   16  C   UNL     1     -11.443  11.410  64.787  1.00  0.00    -0.056 C  
BRANCH  16  17
HETATM   17  C   UNL     1     -11.843  12.694  64.037  1.00  0.00    -0.431 C  
BRANCH  17  18
HETATM   18  N   UNL     1     -12.607  13.656  64.841  1.00  0.00    -0.631 NA 
HETATM   19  C   UNL     1     -12.368  13.525  66.300  1.00  0.00    -0.383 C  
HETATM   20  C   UNL     1     -10.969  13.977  66.790  1.00  0.00    -0.297 C  
HETATM   21  N   UNL     1     -10.677  15.336  66.320  1.00  0.00    -0.310 NA 
HETATM   22  C   UNL     1     -12.278  15.056  64.454  1.00  0.00    -0.337 C  
HETATM   23  C   UNL     1     -10.869  15.550  64.877  1.00  0.00    -0.427 C  
BRANCH  21  24
HETATM   24  C   UNL     1      -9.816  16.173  67.038  1.00  0.00    -0.245 A  
HETATM   25  C   UNL     1      -9.686  17.593  66.864  1.00  0.00    -0.292 A  
HETATM   26  C   UNL     1     -10.478  18.549  66.121  1.00  0.00    -0.447 A  
HETATM   27  C   UNL     1      -9.987  19.831  66.153  1.00  0.00    -0.473 A  
HETATM   28  S   UNL     1      -8.599  19.948  67.122  1.00  0.00    -0.338 SA 
HETATM   29  C   UNL     1      -8.647  18.269  67.520  1.00  0.00    -0.250 A  
HETATM   30  C   UNL     1      -7.754  17.615  68.386  1.00  0.00    -0.269 A  
HETATM   31  C   UNL     1      -7.917  16.256  68.608  1.00  0.00    -0.215 A  
HETATM   32  C   UNL     1      -8.920  15.559  67.947  1.00  0.00    -0.173 A  
ENDBRANCH  21  24
ENDBRANCH  17  18
ENDBRANCH  16  17
ENDBRANCH  15  16
ENDBRANCH  14  15
ENDBRANCH  13  14
ENDBRANCH   7  13
TORSDOF 7
ENDMDL
MODEL       60
REMARK 921   NORMALIZED FREE ENERGY PREDICTED BY IDOCK:   -6.25 KCAL/MOL
REMARK 922        TOTAL FREE ENERGY PREDICTED BY IDOCK:  -10.11 KCAL/MOL
REMARK 923 INTER-LIGAND FREE ENERGY PREDICTED BY IDOCK:   -8.44 KCAL/MOL
REMARK 924 INTRA-LIGAND FREE ENERGY PREDICTED BY IDOCK:   -1.67 KCAL/MOL
REMARK 927      BINDING AFFINITY PREDICTED BY RF-SCORE:    0.00 PKD
ROOT
HETATM    1  O   UNL     1     -12.020  12.290  69.392  1.00  0.00    -0.297 OA 
HETATM    2  C   UNL     1     -11.880  11.344  70.160  1.00  0.00    -0.355 C  
HETATM    3  N   UNL     1     -10.734  10.600  70.208  1.00  0.00    -0.451 N  
HETATM    4  C   UNL     1     -10.564   9.496  71.055  1.00  0.00    -0.322 A  
HETATM    5  H   UNL     1      -9.962  10.862  69.595  1.00  0.00     0.000 HD 
HETATM    6  C   UNL     1      -9.371   8.775  71.032  1.00  0.00    -0.280 A  
HETATM    7  C   UNL     1      -9.217   7.661  71.860  1.00  0.00    -0.134 A  
HETATM    8  C   UNL     1     -12.969  10.957  71.091  1.00  0.00    -0.449 C  
HETATM    9  C   UNL     1     -10.269   7.282  72.706  1.00  0.00    -0.266 A  
HETATM   10  C   UNL     1     -12.843   9.912  71.918  1.00  0.00    -0.524 C  
HETATM   11  C   UNL     1     -11.460   8.011  72.733  1.00  0.00    -0.420 A  
HETATM   12  C   UNL     1     -11.611   9.125  71.910  1.00  0.00    -0.430 A  
ENDROOT
BRANCH   7  13
HETATM   13  O   UNL     1      -8.005   7.026  71.759  1.00  0.00    -0.098 OA 
BRANCH  13  14
HETATM   14  C   UNL     1      -8.072   5.621  71.519  1.00  0.00    -0.118 C  
BRANCH  14  15
HETATM   15  C   UNL     1      -7.507   5.299  70.140  1.00  0.00    -0.068 C  
BRANCH  15  16
HETATM   16  C   UNL     1      -8.573   5.414  69.047  1.00  0.00    -0.102 C  
BRANCH  16  17
HETATM   17  C   UNL     1      -8.465   6.662  68.153  1.00  0.00    -0.116 C  
BRANCH  17  18
HETATM   18  N   UNL     1      -9.278   6.609  66.931  1.00  0.00    -0.137 NA 
HETATM   19  C   UNL     1     -10.573   7.321  67.056  1.00  0.00    -0.344 C  
HETATM   20  C   UNL     1     -10.482   8.866  67.125  1.00  0.00    -0.274 C  
HETATM   21  N   UNL     1      -9.694   9.383  66.000  1.00  0.00    -0.258 NA 
HETATM   22  C   UNL     1      -8.547   7.201  65.777  1.00  0.00    -0.133 C  
HETATM   23  C   UNL     1      -8.382   8.744  65.814  1.00  0.00    -0.134 C  
BRANCH  21  24
HETATM   24  C   UNL     1      -9.917  10.670  65.499  1.00  0.00    -0.272 A  
HETATM   25  C   UNL     1      -9.719  11.898  66.220  1.00  0.00    -0.247 A  
HETATM   26  C   UNL     1      -9.083  12.178  67.488  1.00  0.00    -0.180 A  
HETATM   27  C   UNL     1      -9.150  13.495  67.871  1.00  0.00    -0.204 A  
HETATM   28  S   UNL     1      -9.920  14.451  66.700  1.00  0.00    -0.281 SA 
HETATM   29  C   UNL     1     -10.166  13.100  65.654  1.00  0.00    -0.286 A  
HETATM   30  C   UNL     1     -10.758  13.158  64.380  1.00  0.00    -0.426 A  
HETATM   31  C   UNL     1     -10.891  11.984  63.654  1.00  0.00    -0.510 A  
HETATM   32  C   UNL     1     -10.483  10.776  64.205  1.00  0.00    -0.330 A  
ENDBRANCH  21  24
ENDBRANCH  17  18
ENDBRANCH  16  17
ENDBRANCH  15  16
ENDBRANCH  14  15
ENDBRANCH  13  14
ENDBRANCH   7  13
TORSDOF 7
ENDMDL
MODEL       61
REMARK 921   NORMALIZED FREE ENERGY PREDICTED BY IDOCK:   -6.24 KCAL/MOL
REMARK 922        TOTAL FREE ENERGY PREDICTED BY IDOCK:  -10.09 KCAL/MOL
REMARK 923 INTER-LIGAND FREE ENERGY PREDICTED BY IDOCK:   -9.51 KCAL/MOL
REMARK 924 INTRA-LIGAND FREE ENERGY PREDICTED BY IDOCK:   -0.58 KCAL/MOL
REMARK 927      BINDING AFFINITY PREDICTED BY RF-SCORE:    0.00 PKD
ROOT
HETATM    1  O   UNL     1     -10.354  18.271  67.837  1.00  0.00    -0.366 OA 
HETATM    2  C   UNL     1     -10.611  17.196  67.306  1.00  0.00    -0.270 C  
HETATM    3  N   UNL     1     -10.996  16.097  68.022  1.00  0.00    -0.342 N  
HETATM    4  C   UNL     1     -11.264  14.851  67.440  1.00  0.00    -0.338 A  
HETATM    5  H   UNL     1     -11.091  16.188  69.034  1.00  0.00     0.000 HD 
HETATM    6  C   UNL     1     -11.633  13.770  68.241  1.00  0.00    -0.373 A  
HETATM    7  C   UNL     1     -11.875  12.525  67.657  1.00  0.00    -0.317 A  
HETATM    8  C   UNL     1     -10.518  17.037  65.834  1.00  0.00    -0.282 C  
HETATM    9  C   UNL     1     -11.744  12.378  66.269  1.00  0.00    -0.457 A  
HETATM   10  C   UNL     1     -10.770  15.864  65.241  1.00  0.00    -0.442 C  
HETATM   11  C   UNL     1     -11.382  13.464  65.468  1.00  0.00    -0.310 A  
HETATM   12  C   UNL     1     -11.146  14.707  66.050  1.00  0.00    -0.332 A  
ENDROOT
BRANCH   7  13
HETATM   13  O   UNL     1     -12.232  11.533  68.535  1.00  0.00    -0.524 OA 
BRANCH  13  14
HETATM   14  C   UNL     1     -11.582  11.581  69.805  1.00  0.00    -0.326 C  
BRANCH  14  15
HETATM   15  C   UNL     1     -12.613  11.788  70.910  1.00  0.00    -0.384 C  
BRANCH  15  16
HETATM   16  C   UNL     1     -12.789  10.531  71.766  1.00  0.00    -0.559 C  
BRANCH  16  17
HETATM   17  C   UNL     1     -11.670   9.482  71.628  1.00  0.00    -0.390 C  
BRANCH  17  18
HETATM   18  N   UNL     1     -11.927   8.220  72.335  1.00  0.00    -0.383 NA 
HETATM   19  C   UNL     1     -12.722   7.252  71.540  1.00  0.00    -0.384 C  
HETATM   20  C   UNL     1     -11.987   6.616  70.334  1.00  0.00    -0.280 C  
HETATM   21  N   UNL     1     -10.709   6.036  70.762  1.00  0.00    -0.260 NA 
HETATM   22  C   UNL     1     -10.653   7.553  72.717  1.00  0.00    -0.313 C  
HETATM   23  C   UNL     1      -9.846   6.937  71.542  1.00  0.00    -0.169 C  
BRANCH  21  24
HETATM   24  C   UNL     1     -10.143   4.959  70.071  1.00  0.00    -0.266 A  
HETATM   25  C   UNL     1      -9.891   4.906  68.657  1.00  0.00    -0.221 A  
HETATM   26  C   UNL     1      -9.934   5.927  67.633  1.00  0.00    -0.159 A  
HETATM   27  C   UNL     1      -9.683   5.462  66.365  1.00  0.00    -0.166 A  
HETATM   28  S   UNL     1      -9.328   3.803  66.364  1.00  0.00    -0.182 SA 
HETATM   29  C   UNL     1      -9.498   3.691  68.079  1.00  0.00    -0.161 A  
HETATM   30  C   UNL     1      -9.291   2.528  68.841  1.00  0.00    -0.218 A  
HETATM   31  C   UNL     1      -9.469   2.591  70.214  1.00  0.00    -0.164 A  
HETATM   32  C   UNL     1      -9.887   3.776  70.806  1.00  0.00    -0.173 A  
ENDBRANCH  21  24
ENDBRANCH  17  18
ENDBRANCH  16  17
ENDBRANCH  15  16
ENDBRANCH  14  15
ENDBRANCH  13  14
ENDBRANCH   7  13
TORSDOF 7
ENDMDL
MODEL       62
REMARK 921   NORMALIZED FREE ENERGY PREDICTED BY IDOCK:   -6.22 KCAL/MOL
REMARK 922        TOTAL FREE ENERGY PREDICTED BY IDOCK:  -10.07 KCAL/MOL
REMARK 923 INTER-LIGAND FREE ENERGY PREDICTED BY IDOCK:   -9.12 KCAL/MOL
REMARK 924 INTRA-LIGAND FREE ENERGY PREDICTED BY IDOCK:   -0.95 KCAL/MOL
REMARK 927      BINDING AFFINITY PREDICTED BY RF-SCORE:    0.00 PKD
ROOT
HETATM    1  O   UNL     1     -11.435   2.176  63.152  1.00  0.00    -0.347 OA 
HETATM    2  C   UNL     1     -10.665   2.983  63.660  1.00  0.00    -0.215 C  
HETATM    3  N   UNL     1     -10.992   3.711  64.771  1.00  0.00    -0.423 N  
HETATM    4  C   UNL     1     -10.141   4.661  65.350  1.00  0.00    -0.148 A  
HETATM    5  H   UNL     1     -11.904   3.554  65.200  1.00  0.00     0.000 HD 
HETATM    6  C   UNL     1     -10.554   5.378  66.473  1.00  0.00    -0.353 A  
HETATM    7  C   UNL     1      -9.711   6.342  67.030  1.00  0.00    -0.144 A  
HETATM    8  C   UNL     1      -9.317   3.210  63.084  1.00  0.00    -0.094 C  
HETATM    9  C   UNL     1      -8.456   6.575  66.452  1.00  0.00    -0.124 A  
HETATM   10  C   UNL     1      -8.474   4.106  63.612  1.00  0.00    -0.101 C  
HETATM   11  C   UNL     1      -8.040   5.850  65.333  1.00  0.00    -0.130 A  
HETATM   12  C   UNL     1      -8.880   4.885  64.779  1.00  0.00    -0.147 A  
ENDROOT
BRANCH   7  13
HETATM   13  O   UNL     1     -10.216   6.986  68.131  1.00  0.00    -0.166 OA 
BRANCH  13  14
HETATM   14  C   UNL     1     -11.152   6.233  68.901  1.00  0.00    -0.362 C  
BRANCH  14  15
HETATM   15  C   UNL     1     -10.431   5.501  70.028  1.00  0.00    -0.373 C  
BRANCH  15  16
HETATM   16  C   UNL     1     -11.148   5.675  71.370  1.00  0.00    -0.221 C  
BRANCH  16  17
HETATM   17  C   UNL     1     -12.271   6.728  71.381  1.00  0.00    -0.363 C  
BRANCH  17  18
HETATM   18  N   UNL     1     -12.132   7.757  72.420  1.00  0.00    -0.284 NA 
HETATM   19  C   UNL     1     -10.906   8.580  72.271  1.00  0.00    -0.348 C  
HETATM   20  C   UNL     1     -10.901   9.559  71.071  1.00  0.00    -0.353 C  
HETATM   21  N   UNL     1     -12.108  10.394  71.087  1.00  0.00    -0.375 NA 
HETATM   22  C   UNL     1     -13.299   8.680  72.418  1.00  0.00    -0.343 C  
HETATM   23  C   UNL     1     -13.374   9.655  71.211  1.00  0.00    -0.330 C  
BRANCH  21  24
HETATM   24  C   UNL     1     -12.103  11.672  70.518  1.00  0.00    -0.366 A  
HETATM   25  C   UNL     1     -12.669  12.855  71.105  1.00  0.00    -0.366 A  
HETATM   26  C   UNL     1     -13.179  13.122  72.432  1.00  0.00    -0.519 A  
HETATM   27  C   UNL     1     -13.701  14.383  72.591  1.00  0.00    -0.445 A  
HETATM   28  S   UNL     1     -13.542  15.310  71.178  1.00  0.00    -0.416 SA 
HETATM   29  C   UNL     1     -12.757  14.024  70.335  1.00  0.00    -0.253 A  
HETATM   30  C   UNL     1     -12.265  14.097  69.020  1.00  0.00    -0.274 A  
HETATM   31  C   UNL     1     -11.658  12.977  68.474  1.00  0.00    -0.363 A  
HETATM   32  C   UNL     1     -11.585  11.799  69.206  1.00  0.00    -0.378 A  
ENDBRANCH  21  24
ENDBRANCH  17  18
ENDBRANCH  16  17
ENDBRANCH  15  16
ENDBRANCH  14  15
ENDBRANCH  13  14
ENDBRANCH   7  13
TORSDOF 7
ENDMDL
MODEL       63
REMARK 921   NORMALIZED FREE ENERGY PREDICTED BY IDOCK:   -6.21 KCAL/MOL
REMARK 922        TOTAL FREE ENERGY PREDICTED BY IDOCK:  -10.05 KCAL/MOL
REMARK 923 INTER-LIGAND FREE ENERGY PREDICTED BY IDOCK:   -9.47 KCAL/MOL
REMARK 924 INTRA-LIGAND FREE ENERGY PREDICTED BY IDOCK:   -0.58 KCAL/MOL
REMARK 927      BINDING AFFINITY PREDICTED BY RF-SCORE:    0.00 PKD
ROOT
HETATM    1  O   UNL     1     -11.699   5.061  73.084  1.00  0.00    -0.313 OA 
HETATM    2  C   UNL     1     -11.472   5.998  72.326  1.00  0.00    -0.312 C  
HETATM    3  N   UNL     1     -12.020   7.238  72.506  1.00  0.00    -0.504 N  
HETATM    4  C   UNL     1     -11.799   8.314  71.635  1.00  0.00    -0.299 A  
HETATM    5  H   UNL     1     -12.621   7.388  73.316  1.00  0.00     0.000 HD 
HETATM    6  C   UNL     1     -12.410   9.544  71.876  1.00  0.00    -0.450 A  
HETATM    7  C   UNL     1     -12.206  10.605  70.990  1.00  0.00    -0.393 A  
HETATM    8  C   UNL     1     -10.573   5.826  71.158  1.00  0.00    -0.315 C  
HETATM    9  C   UNL     1     -11.387  10.417  69.869  1.00  0.00    -0.370 A  
HETATM   10  C   UNL     1     -10.335   6.831  70.306  1.00  0.00    -0.224 C  
HETATM   11  C   UNL     1     -10.769   9.187  69.634  1.00  0.00    -0.236 A  
HETATM   12  C   UNL     1     -10.969   8.130  70.520  1.00  0.00    -0.248 A  
ENDROOT
BRANCH   7  13
HETATM   13  O   UNL     1     -12.852  11.769  71.322  1.00  0.00    -0.386 OA 
BRANCH  13  14
HETATM   14  C   UNL     1     -12.355  12.944  70.683  1.00  0.00    -0.302 C  
BRANCH  14  15
HETATM   15  C   UNL     1     -12.654  14.169  71.540  1.00  0.00    -0.434 C  
BRANCH  15  16
HETATM   16  C   UNL     1     -12.658  15.457  70.710  1.00  0.00    -0.497 C  
BRANCH  16  17
HETATM   17  C   UNL     1     -11.274  15.930  70.229  1.00  0.00    -0.380 C  
BRANCH  17  18
HETATM   18  N   UNL     1     -10.893  15.443  68.897  1.00  0.00    -0.239 NA 
HETATM   19  C   UNL     1     -11.030  16.470  67.834  1.00  0.00    -0.288 C  
HETATM   20  C   UNL     1     -10.000  17.626  67.887  1.00  0.00    -0.323 C  
HETATM   21  N   UNL     1      -8.634  17.092  67.942  1.00  0.00    -0.204 NA 
HETATM   22  C   UNL     1      -9.483  14.967  68.886  1.00  0.00    -0.211 C  
HETATM   23  C   UNL     1      -8.404  16.079  68.984  1.00  0.00    -0.243 C  
BRANCH  21  24
HETATM   24  C   UNL     1      -7.556  17.827  67.438  1.00  0.00    -0.200 A  
HETATM   25  C   UNL     1      -6.815  18.830  68.153  1.00  0.00    -0.254 A  
HETATM   26  C   UNL     1      -6.804  19.206  69.549  1.00  0.00    -0.243 A  
HETATM   27  C   UNL     1      -5.988  20.273  69.837  1.00  0.00    -0.355 A  
HETATM   28  S   UNL     1      -5.160  20.820  68.461  1.00  0.00    -0.290 SA 
HETATM   29  C   UNL     1      -5.886  19.617  67.457  1.00  0.00    -0.181 A  
HETATM   30  C   UNL     1      -5.613  19.427  66.091  1.00  0.00    -0.172 A  
HETATM   31  C   UNL     1      -6.278  18.418  65.414  1.00  0.00    -0.286 A  
HETATM   32  C   UNL     1      -7.225  17.644  66.073  1.00  0.00    -0.316 A  
ENDBRANCH  21  24
ENDBRANCH  17  18
ENDBRANCH  16  17
ENDBRANCH  15  16
ENDBRANCH  14  15
ENDBRANCH  13  14
ENDBRANCH   7  13
TORSDOF 7
ENDMDL
MODEL       64
REMARK 921   NORMALIZED FREE ENERGY PREDICTED BY IDOCK:   -6.19 KCAL/MOL
REMARK 922        TOTAL FREE ENERGY PREDICTED BY IDOCK:  -10.03 KCAL/MOL
REMARK 923 INTER-LIGAND FREE ENERGY PREDICTED BY IDOCK:   -9.11 KCAL/MOL
REMARK 924 INTRA-LIGAND FREE ENERGY PREDICTED BY IDOCK:   -0.92 KCAL/MOL
REMARK 927      BINDING AFFINITY PREDICTED BY RF-SCORE:    0.00 PKD
ROOT
HETATM    1  O   UNL     1     -12.016   6.925  70.680  1.00  0.00    -0.369 OA 
HETATM    2  C   UNL     1     -11.302   6.908  69.683  1.00  0.00    -0.203 C  
HETATM    3  N   UNL     1     -11.093   8.017  68.911  1.00  0.00    -0.407 N  
HETATM    4  C   UNL     1     -10.307   8.013  67.750  1.00  0.00    -0.231 A  
HETATM    5  H   UNL     1     -11.533   8.893  69.193  1.00  0.00     0.000 HD 
HETATM    6  C   UNL     1     -10.157   9.182  67.004  1.00  0.00    -0.316 A  
HETATM    7  C   UNL     1      -9.393   9.165  65.835  1.00  0.00    -0.243 A  
HETATM    8  C   UNL     1     -10.616   5.661  69.264  1.00  0.00    -0.359 C  
HETATM    9  C   UNL     1      -8.784   7.970  65.428  1.00  0.00    -0.101 A  
HETATM   10  C   UNL     1      -9.854   5.619  68.164  1.00  0.00    -0.170 C  
HETATM   11  C   UNL     1      -8.928   6.803  66.182  1.00  0.00    -0.157 A  
HETATM   12  C   UNL     1      -9.687   6.821  67.350  1.00  0.00    -0.164 A  
ENDROOT
BRANCH   7  13
HETATM   13  O   UNL     1      -9.311  10.367  65.180  1.00  0.00    -0.186 OA 
BRANCH  13  14
HETATM   14  C   UNL     1      -9.114  10.279  63.769  1.00  0.00    -0.256 C  
BRANCH  14  15
HETATM   15  C   UNL     1      -9.681  11.518  63.085  1.00  0.00    -0.412 C  
BRANCH  15  16
HETATM   16  C   UNL     1     -10.557  12.341  64.034  1.00  0.00    -0.434 C  
BRANCH  16  17
HETATM   17  C   UNL     1      -9.794  13.305  64.961  1.00  0.00    -0.040 C  
BRANCH  17  18
HETATM   18  N   UNL     1     -10.531  14.525  65.312  1.00  0.00    -0.363 NA 
HETATM   19  C   UNL     1     -11.961  14.280  65.620  1.00  0.00    -0.386 C  
HETATM   20  C   UNL     1     -12.239  13.534  66.949  1.00  0.00    -0.327 C  
HETATM   21  N   UNL     1     -11.559  14.203  68.063  1.00  0.00    -0.315 NA 
HETATM   22  C   UNL     1      -9.923  15.196  66.493  1.00  0.00    -0.266 C  
HETATM   23  C   UNL     1     -10.127  14.468  67.850  1.00  0.00    -0.227 C  
BRANCH  21  24
HETATM   24  C   UNL     1     -12.062  14.118  69.366  1.00  0.00    -0.328 A  
HETATM   25  C   UNL     1     -12.237  12.909  70.122  1.00  0.00    -0.336 A  
HETATM   26  C   UNL     1     -11.789  11.553  69.888  1.00  0.00    -0.430 A  
HETATM   27  C   UNL     1     -12.217  10.650  70.830  1.00  0.00    -0.375 A  
HETATM   28  S   UNL     1     -13.114  11.401  72.058  1.00  0.00    -0.103 SA 
HETATM   29  C   UNL     1     -12.930  12.960  71.340  1.00  0.00    -0.270 A  
HETATM   30  C   UNL     1     -13.419  14.164  71.877  1.00  0.00    -0.489 A  
HETATM   31  C   UNL     1     -13.195  15.342  71.182  1.00  0.00    -0.567 A  
HETATM   32  C   UNL     1     -12.537  15.313  69.960  1.00  0.00    -0.277 A  
ENDBRANCH  21  24
ENDBRANCH  17  18
ENDBRANCH  16  17
ENDBRANCH  15  16
ENDBRANCH  14  15
ENDBRANCH  13  14
ENDBRANCH   7  13
TORSDOF 7
ENDMDL
MODEL       65
REMARK 921   NORMALIZED FREE ENERGY PREDICTED BY IDOCK:   -6.17 KCAL/MOL
REMARK 922        TOTAL FREE ENERGY PREDICTED BY IDOCK:   -9.99 KCAL/MOL
REMARK 923 INTER-LIGAND FREE ENERGY PREDICTED BY IDOCK:   -8.53 KCAL/MOL
REMARK 924 INTRA-LIGAND FREE ENERGY PREDICTED BY IDOCK:   -1.47 KCAL/MOL
REMARK 927      BINDING AFFINITY PREDICTED BY RF-SCORE:    0.00 PKD
ROOT
HETATM    1  O   UNL     1     -13.190  11.978  62.972  1.00  0.00    -0.427 OA 
HETATM    2  C   UNL     1     -12.238  12.102  63.735  1.00  0.00    -0.531 C  
HETATM    3  N   UNL     1     -11.285  11.133  63.885  1.00  0.00    -0.442 N  
HETATM    4  C   UNL     1     -10.207  11.241  64.774  1.00  0.00    -0.292 A  
HETATM    5  H   UNL     1     -11.363  10.287  63.320  1.00  0.00     0.000 HD 
HETATM    6  C   UNL     1      -9.285  10.200  64.883  1.00  0.00    -0.281 A  
HETATM    7  C   UNL     1      -8.227  10.302  65.790  1.00  0.00    -0.147 A  
HETATM    8  C   UNL     1     -12.073  13.334  64.545  1.00  0.00    -0.461 C  
HETATM    9  C   UNL     1      -8.106  11.454  66.578  1.00  0.00    -0.141 A  
HETATM   10  C   UNL     1     -11.055  13.476  65.402  1.00  0.00    -0.302 C  
HETATM   11  C   UNL     1      -9.026  12.500  66.461  1.00  0.00    -0.133 A  
HETATM   12  C   UNL     1     -10.078  12.399  65.553  1.00  0.00    -0.287 A  
ENDROOT
BRANCH   7  13
HETATM   13  O   UNL     1      -7.380   9.224  65.816  1.00  0.00    -0.091 OA 
BRANCH  13  14
HETATM   14  C   UNL     1      -6.409   9.238  66.861  1.00  0.00    -0.066 C  
BRANCH  14  15
HETATM   15  C   UNL     1      -6.403   7.896  67.586  1.00  0.00    -0.052 C  
BRANCH  15  16
HETATM   16  C   UNL     1      -7.821   7.421  67.915  1.00  0.00    -0.118 C  
BRANCH  16  17
HETATM   17  C   UNL     1      -8.628   8.355  68.835  1.00  0.00    -0.135 C  
BRANCH  17  18
HETATM   18  N   UNL     1     -10.057   8.030  68.931  1.00  0.00    -0.196 NA 
HETATM   19  C   UNL     1     -10.578   8.076  70.319  1.00  0.00    -0.231 C  
HETATM   20  C   UNL     1     -10.690   9.489  70.945  1.00  0.00    -0.333 C  
HETATM   21  N   UNL     1     -11.447  10.381  70.060  1.00  0.00    -0.285 NA 
HETATM   22  C   UNL     1     -10.875   8.966  68.112  1.00  0.00    -0.002 C  
HETATM   23  C   UNL     1     -10.984  10.413  68.664  1.00  0.00    -0.243 C  
BRANCH  21  24
HETATM   24  C   UNL     1     -12.166  11.464  70.578  1.00  0.00    -0.386 A  
HETATM   25  C   UNL     1     -11.986  12.843  70.215  1.00  0.00    -0.359 A  
HETATM   26  C   UNL     1     -11.234  13.468  69.150  1.00  0.00    -0.310 A  
HETATM   27  C   UNL     1     -11.263  14.841  69.172  1.00  0.00    -0.271 A  
HETATM   28  S   UNL     1     -12.239  15.428  70.430  1.00  0.00    -0.411 SA 
HETATM   29  C   UNL     1     -12.644  13.835  70.957  1.00  0.00    -0.371 A  
HETATM   30  C   UNL     1     -13.518  13.527  72.014  1.00  0.00    -0.584 A  
HETATM   31  C   UNL     1     -13.746  12.196  72.324  1.00  0.00    -0.107 A  
HETATM   32  C   UNL     1     -13.082  11.196  71.624  1.00  0.00    -0.529 A  
ENDBRANCH  21  24
ENDBRANCH  17  18
ENDBRANCH  16  17
ENDBRANCH  15  16
ENDBRANCH  14  15
ENDBRANCH  13  14
ENDBRANCH   7  13
TORSDOF 7
ENDMDL
MODEL       66
REMARK 921   NORMALIZED FREE ENERGY PREDICTED BY IDOCK:   -6.15 KCAL/MOL
REMARK 922        TOTAL FREE ENERGY PREDICTED BY IDOCK:   -9.97 KCAL/MOL
REMARK 923 INTER-LIGAND FREE ENERGY PREDICTED BY IDOCK:   -8.56 KCAL/MOL
REMARK 924 INTRA-LIGAND FREE ENERGY PREDICTED BY IDOCK:   -1.42 KCAL/MOL
REMARK 927      BINDING AFFINITY PREDICTED BY RF-SCORE:    0.00 PKD
ROOT
HETATM    1  O   UNL     1     -12.771  13.749  63.069  1.00  0.00    -0.671 OA 
HETATM    2  C   UNL     1     -12.069  12.963  63.695  1.00  0.00    -0.535 C  
HETATM    3  N   UNL     1     -11.174  12.130  63.082  1.00  0.00    -0.703 N  
HETATM    4  C   UNL     1     -10.383  11.202  63.775  1.00  0.00    -0.386 A  
HETATM    5  H   UNL     1     -11.077  12.186  62.068  1.00  0.00     0.000 HD 
HETATM    6  C   UNL     1      -9.507  10.372  63.076  1.00  0.00    -0.362 A  
HETATM    7  C   UNL     1      -8.741   9.432  63.769  1.00  0.00    -0.201 A  
HETATM    8  C   UNL     1     -12.157  12.880  65.174  1.00  0.00    -0.489 C  
HETATM    9  C   UNL     1      -8.864   9.336  65.162  1.00  0.00    -0.238 A  
HETATM   10  C   UNL     1     -11.416  12.009  65.870  1.00  0.00    -0.392 C  
HETATM   11  C   UNL     1      -9.736  10.174  65.861  1.00  0.00    -0.292 A  
HETATM   12  C   UNL     1     -10.497  11.115  65.169  1.00  0.00    -0.341 A  
ENDROOT
BRANCH   7  13
HETATM   13  O   UNL     1      -7.912   8.670  62.986  1.00  0.00    -0.145 OA 
BRANCH  13  14
HETATM   14  C   UNL     1      -7.250   7.600  63.661  1.00  0.00    -0.079 C  
BRANCH  14  15
HETATM   15  C   UNL     1      -7.861   6.266  63.247  1.00  0.00    -0.099 C  
BRANCH  15  16
HETATM   16  C   UNL     1      -8.588   5.587  64.412  1.00  0.00    -0.025 C  
BRANCH  16  17
HETATM   17  C   UNL     1      -8.181   6.078  65.813  1.00  0.00    -0.136 C  
BRANCH  17  18
HETATM   18  N   UNL     1      -8.448   5.121  66.895  1.00  0.00    -0.107 NA 
HETATM   19  C   UNL     1      -7.895   5.546  68.205  1.00  0.00    -0.089 C  
HETATM   20  C   UNL     1      -8.608   6.749  68.872  1.00  0.00    -0.130 C  
HETATM   21  N   UNL     1     -10.053   6.506  68.954  1.00  0.00    -0.157 NA 
HETATM   22  C   UNL     1      -9.910   4.907  67.071  1.00  0.00    -0.193 C  
HETATM   23  C   UNL     1     -10.688   6.099  67.691  1.00  0.00    -0.308 C  
BRANCH  21  24
HETATM   24  C   UNL     1     -10.823   7.100  69.959  1.00  0.00    -0.254 A  
HETATM   25  C   UNL     1     -11.227   8.479  70.005  1.00  0.00    -0.086 A  
HETATM   26  C   UNL     1     -11.159   9.535  69.019  1.00  0.00    -0.060 A  
HETATM   27  C   UNL     1     -11.600  10.755  69.471  1.00  0.00    -0.303 A  
HETATM   28  S   UNL     1     -12.167  10.665  71.067  1.00  0.00    -0.397 SA 
HETATM   29  C   UNL     1     -11.834   8.974  71.168  1.00  0.00    -0.301 A  
HETATM   30  C   UNL     1     -12.110   8.157  72.278  1.00  0.00    -0.419 A  
HETATM   31  C   UNL     1     -11.782   6.812  72.212  1.00  0.00    -0.300 A  
HETATM   32  C   UNL     1     -11.153   6.304  71.083  1.00  0.00    -0.356 A  
ENDBRANCH  21  24
ENDBRANCH  17  18
ENDBRANCH  16  17
ENDBRANCH  15  16
ENDBRANCH  14  15
ENDBRANCH  13  14
ENDBRANCH   7  13
TORSDOF 7
ENDMDL
MODEL       67
REMARK 921   NORMALIZED FREE ENERGY PREDICTED BY IDOCK:   -6.08 KCAL/MOL
REMARK 922        TOTAL FREE ENERGY PREDICTED BY IDOCK:   -9.87 KCAL/MOL
REMARK 923 INTER-LIGAND FREE ENERGY PREDICTED BY IDOCK:   -8.93 KCAL/MOL
REMARK 924 INTRA-LIGAND FREE ENERGY PREDICTED BY IDOCK:   -0.94 KCAL/MOL
REMARK 927      BINDING AFFINITY PREDICTED BY RF-SCORE:    0.00 PKD
ROOT
HETATM    1  O   UNL     1      -7.296  18.304  67.523  1.00  0.00    -0.207 OA 
HETATM    2  C   UNL     1      -8.198  17.474  67.483  1.00  0.00    -0.207 C  
HETATM    3  N   UNL     1      -9.144  17.368  68.464  1.00  0.00    -0.270 N  
HETATM    4  C   UNL     1     -10.164  16.406  68.454  1.00  0.00    -0.259 A  
HETATM    5  H   UNL     1      -9.105  18.023  69.245  1.00  0.00     0.000 HD 
HETATM    6  C   UNL     1     -11.080  16.350  69.503  1.00  0.00    -0.293 A  
HETATM    7  C   UNL     1     -12.079  15.373  69.500  1.00  0.00    -0.305 A  
HETATM    8  C   UNL     1      -8.307  16.529  66.343  1.00  0.00    -0.358 C  
HETATM    9  C   UNL     1     -12.146  14.461  68.438  1.00  0.00    -0.278 A  
HETATM   10  C   UNL     1      -9.269  15.600  66.296  1.00  0.00    -0.365 C  
HETATM   11  C   UNL     1     -11.232  14.525  67.384  1.00  0.00    -0.337 A  
HETATM   12  C   UNL     1     -10.238  15.503  67.385  1.00  0.00    -0.255 A  
ENDROOT
BRANCH   7  13
HETATM   13  O   UNL     1     -12.927  15.408  70.578  1.00  0.00    -0.409 OA 
BRANCH  13  14
HETATM   14  C   UNL     1     -12.289  15.422  71.854  1.00  0.00    -0.371 C  
BRANCH  14  15
HETATM   15  C   UNL     1     -13.048  14.525  72.826  1.00  0.00    -0.589 C  
BRANCH  15  16
HETATM   16  C   UNL     1     -13.693  13.332  72.113  1.00  0.00    -0.619 C  
BRANCH  16  17
HETATM   17  C   UNL     1     -12.816  12.071  72.021  1.00  0.00    -0.146 C  
BRANCH  17  18
HETATM   18  N   UNL     1     -13.233  11.112  70.990  1.00  0.00    -0.098 NA 
HETATM   19  C   UNL     1     -12.168  10.810  70.002  1.00  0.00    -0.334 C  
HETATM   20  C   UNL     1     -10.981   9.969  70.536  1.00  0.00    -0.326 C  
HETATM   21  N   UNL     1     -11.471   8.748  71.185  1.00  0.00    -0.273 NA 
HETATM   22  C   UNL     1     -13.661   9.823  71.600  1.00  0.00    -0.291 C  
HETATM   23  C   UNL     1     -12.518   8.957  72.197  1.00  0.00    -0.389 C  
BRANCH  21  24
HETATM   24  C   UNL     1     -10.679   7.595  71.233  1.00  0.00    -0.228 A  
HETATM   25  C   UNL     1      -9.545   7.390  72.092  1.00  0.00    -0.177 A  
HETATM   26  C   UNL     1      -9.042   8.144  73.219  1.00  0.00    -0.327 A  
HETATM   27  C   UNL     1      -7.876   7.649  73.750  1.00  0.00    -0.145 A  
HETATM   28  S   UNL     1      -7.377   6.233  72.959  1.00  0.00    -0.092 SA 
HETATM   29  C   UNL     1      -8.735   6.263  71.894  1.00  0.00    -0.136 A  
HETATM   30  C   UNL     1      -9.020   5.294  70.916  1.00  0.00    -0.160 A  
HETATM   31  C   UNL     1     -10.150   5.455  70.130  1.00  0.00    -0.322 A  
HETATM   32  C   UNL     1     -10.952   6.578  70.287  1.00  0.00    -0.365 A  
ENDBRANCH  21  24
ENDBRANCH  17  18
ENDBRANCH  16  17
ENDBRANCH  15  16
ENDBRANCH  14  15
ENDBRANCH  13  14
ENDBRANCH   7  13
TORSDOF 7
ENDMDL
MODEL       68
REMARK 921   NORMALIZED FREE ENERGY PREDICTED BY IDOCK:   -6.08 KCAL/MOL
REMARK 922        TOTAL FREE ENERGY PREDICTED BY IDOCK:   -9.87 KCAL/MOL
REMARK 923 INTER-LIGAND FREE ENERGY PREDICTED BY IDOCK:   -8.92 KCAL/MOL
REMARK 924 INTRA-LIGAND FREE ENERGY PREDICTED BY IDOCK:   -0.94 KCAL/MOL
REMARK 927      BINDING AFFINITY PREDICTED BY RF-SCORE:    0.00 PKD
ROOT
HETATM    1  O   UNL     1     -11.458   2.323  62.968  1.00  0.00    -0.313 OA 
HETATM    2  C   UNL     1     -10.651   2.991  63.605  1.00  0.00    -0.221 C  
HETATM    3  N   UNL     1     -11.017   3.768  64.669  1.00  0.00    -0.512 N  
HETATM    4  C   UNL     1     -10.117   4.564  65.391  1.00  0.00    -0.192 A  
HETATM    5  H   UNL     1     -11.997   3.769  64.952  1.00  0.00     0.000 HD 
HETATM    6  C   UNL     1     -10.572   5.345  66.453  1.00  0.00    -0.322 A  
HETATM    7  C   UNL     1      -9.675   6.156  67.152  1.00  0.00    -0.135 A  
HETATM    8  C   UNL     1      -9.211   2.986  63.244  1.00  0.00    -0.094 C  
HETATM    9  C   UNL     1      -8.325   6.172  66.775  1.00  0.00    -0.110 A  
HETATM   10  C   UNL     1      -8.321   3.730  63.912  1.00  0.00    -0.091 C  
HETATM   11  C   UNL     1      -7.870   5.383  65.716  1.00  0.00    -0.100 A  
HETATM   12  C   UNL     1      -8.765   4.571  65.022  1.00  0.00    -0.138 A  
ENDROOT
BRANCH   7  13
HETATM   13  O   UNL     1     -10.227   6.880  68.178  1.00  0.00    -0.159 OA 
BRANCH  13  14
HETATM   14  C   UNL     1     -11.168   6.173  68.984  1.00  0.00    -0.304 C  
BRANCH  14  15
HETATM   15  C   UNL     1     -10.460   5.543  70.179  1.00  0.00    -0.370 C  
BRANCH  15  16
HETATM   16  C   UNL     1     -11.258   5.726  71.474  1.00  0.00    -0.243 C  
BRANCH  16  17
HETATM   17  C   UNL     1     -12.280   6.877  71.457  1.00  0.00    -0.371 C  
BRANCH  17  18
HETATM   18  N   UNL     1     -11.989   7.964  72.401  1.00  0.00    -0.335 NA 
HETATM   19  C   UNL     1     -10.770   8.735  72.052  1.00  0.00    -0.347 C  
HETATM   20  C   UNL     1     -10.886   9.635  70.796  1.00  0.00    -0.330 C  
HETATM   21  N   UNL     1     -12.060  10.509  70.900  1.00  0.00    -0.351 NA 
HETATM   22  C   UNL     1     -13.124   8.925  72.475  1.00  0.00    -0.364 C  
HETATM   23  C   UNL     1     -13.320   9.822  71.224  1.00  0.00    -0.339 C  
BRANCH  21  24
HETATM   24  C   UNL     1     -12.091  11.748  70.250  1.00  0.00    -0.342 A  
HETATM   25  C   UNL     1     -11.695  11.994  68.890  1.00  0.00    -0.383 A  
HETATM   26  C   UNL     1     -11.378  11.095  67.802  1.00  0.00    -0.364 A  
HETATM   27  C   UNL     1     -10.978  11.727  66.650  1.00  0.00    -0.294 A  
HETATM   28  S   UNL     1     -11.028  13.416  66.811  1.00  0.00    -0.291 SA 
HETATM   29  C   UNL     1     -11.600  13.317  68.437  1.00  0.00    -0.337 A  
HETATM   30  C   UNL     1     -11.928  14.416  69.250  1.00  0.00    -0.362 A  
HETATM   31  C   UNL     1     -12.373  14.179  70.540  1.00  0.00    -0.434 A  
HETATM   32  C   UNL     1     -12.448  12.879  71.023  1.00  0.00    -0.374 A  
ENDBRANCH  21  24
ENDBRANCH  17  18
ENDBRANCH  16  17
ENDBRANCH  15  16
ENDBRANCH  14  15
ENDBRANCH  13  14
ENDBRANCH   7  13
TORSDOF 7
ENDMDL
MODEL       69
REMARK 921   NORMALIZED FREE ENERGY PREDICTED BY IDOCK:   -6.07 KCAL/MOL
REMARK 922        TOTAL FREE ENERGY PREDICTED BY IDOCK:   -9.85 KCAL/MOL
REMARK 923 INTER-LIGAND FREE ENERGY PREDICTED BY IDOCK:   -8.63 KCAL/MOL
REMARK 924 INTRA-LIGAND FREE ENERGY PREDICTED BY IDOCK:   -1.23 KCAL/MOL
REMARK 927      BINDING AFFINITY PREDICTED BY RF-SCORE:    0.00 PKD
ROOT
HETATM    1  O   UNL     1     -14.339  15.877  72.667  1.00  0.00    -0.476 OA 
HETATM    2  C   UNL     1     -13.753  15.006  72.035  1.00  0.00    -0.446 C  
HETATM    3  N   UNL     1     -13.887  13.675  72.321  1.00  0.00    -0.560 N  
HETATM    4  C   UNL     1     -13.203  12.664  71.632  1.00  0.00    -0.298 A  
HETATM    5  H   UNL     1     -14.518  13.404  73.075  1.00  0.00     0.000 HD 
HETATM    6  C   UNL     1     -13.378  11.330  71.996  1.00  0.00    -0.386 A  
HETATM    7  C   UNL     1     -12.674  10.329  71.322  1.00  0.00    -0.421 A  
HETATM    8  C   UNL     1     -12.857  15.361  70.907  1.00  0.00    -0.536 C  
HETATM    9  C   UNL     1     -11.799  10.682  70.286  1.00  0.00    -0.430 A  
HETATM   10  C   UNL     1     -12.189  14.424  70.223  1.00  0.00    -0.397 C  
HETATM   11  C   UNL     1     -11.632  12.018  69.917  1.00  0.00    -0.315 A  
HETATM   12  C   UNL     1     -12.338  13.016  70.586  1.00  0.00    -0.391 A  
ENDROOT
BRANCH   7  13
HETATM   13  O   UNL     1     -12.921   9.052  71.759  1.00  0.00    -0.332 OA 
BRANCH  13  14
HETATM   14  C   UNL     1     -12.212   8.024  71.067  1.00  0.00    -0.185 C  
BRANCH  14  15
HETATM   15  C   UNL     1     -11.269   7.306  72.026  1.00  0.00    -0.285 C  
BRANCH  15  16
HETATM   16  C   UNL     1     -10.589   6.105  71.362  1.00  0.00    -0.294 C  
BRANCH  16  17
HETATM   17  C   UNL     1     -10.968   5.870  69.888  1.00  0.00    -0.374 C  
BRANCH  17  18
HETATM   18  N   UNL     1      -9.824   5.664  68.990  1.00  0.00    -0.147 NA 
HETATM   19  C   UNL     1     -10.219   5.435  67.578  1.00  0.00    -0.194 C  
HETATM   20  C   UNL     1     -10.790   6.668  66.836  1.00  0.00    -0.345 C  
HETATM   21  N   UNL     1      -9.873   7.808  66.956  1.00  0.00    -0.197 NA 
HETATM   22  C   UNL     1      -8.907   6.836  69.017  1.00  0.00    -0.129 C  
HETATM   23  C   UNL     1      -9.445   8.119  68.329  1.00  0.00    -0.141 C  
BRANCH  21  24
HETATM   24  C   UNL     1      -9.833   8.802  65.973  1.00  0.00    -0.164 A  
HETATM   25  C   UNL     1      -8.998   8.794  64.804  1.00  0.00    -0.016 A  
HETATM   26  C   UNL     1      -8.176   7.761  64.214  1.00  0.00    -0.030 A  
HETATM   27  C   UNL     1      -7.468   8.167  63.109  1.00  0.00    -0.117 A  
HETATM   28  S   UNL     1      -7.810   9.779  62.703  1.00  0.00    -0.127 SA 
HETATM   29  C   UNL     1      -8.927   9.948  64.009  1.00  0.00    -0.243 A  
HETATM   30  C   UNL     1      -9.684  11.100  64.285  1.00  0.00    -0.315 A  
HETATM   31  C   UNL     1     -10.540  11.087  65.375  1.00  0.00    -0.270 A  
HETATM   32  C   UNL     1     -10.607   9.968  66.194  1.00  0.00    -0.071 A  
ENDBRANCH  21  24
ENDBRANCH  17  18
ENDBRANCH  16  17
ENDBRANCH  15  16
ENDBRANCH  14  15
ENDBRANCH  13  14
ENDBRANCH   7  13
TORSDOF 7
ENDMDL
MODEL       70
REMARK 921   NORMALIZED FREE ENERGY PREDICTED BY IDOCK:   -6.05 KCAL/MOL
REMARK 922        TOTAL FREE ENERGY PREDICTED BY IDOCK:   -9.84 KCAL/MOL
REMARK 923 INTER-LIGAND FREE ENERGY PREDICTED BY IDOCK:   -9.22 KCAL/MOL
REMARK 924 INTRA-LIGAND FREE ENERGY PREDICTED BY IDOCK:   -0.62 KCAL/MOL
REMARK 927      BINDING AFFINITY PREDICTED BY RF-SCORE:    0.00 PKD
ROOT
HETATM    1  O   UNL     1     -10.420   5.218  70.113  1.00  0.00    -0.282 OA 
HETATM    2  C   UNL     1     -10.336   6.115  69.282  1.00  0.00    -0.221 C  
HETATM    3  N   UNL     1      -9.670   7.284  69.527  1.00  0.00    -0.158 N  
HETATM    4  C   UNL     1      -9.588   8.335  68.604  1.00  0.00    -0.149 A  
HETATM    5  H   UNL     1      -9.209   7.397  70.430  1.00  0.00     0.000 HD 
HETATM    6  C   UNL     1      -8.906   9.505  68.936  1.00  0.00    -0.137 A  
HETATM    7  C   UNL     1      -8.849  10.559  68.021  1.00  0.00    -0.131 A  
HETATM    8  C   UNL     1     -10.964   5.971  67.945  1.00  0.00    -0.334 C  
HETATM    9  C   UNL     1      -9.481  10.425  66.777  1.00  0.00    -0.198 A  
HETATM   10  C   UNL     1     -10.904   6.951  67.035  1.00  0.00    -0.436 C  
HETATM   11  C   UNL     1     -10.157   9.249  66.443  1.00  0.00    -0.337 A  
HETATM   12  C   UNL     1     -10.209   8.196  67.355  1.00  0.00    -0.327 A  
ENDROOT
BRANCH   7  13
HETATM   13  O   UNL     1      -8.153  11.661  68.449  1.00  0.00    -0.141 OA 
BRANCH  13  14
HETATM   14  C   UNL     1      -7.404  12.337  67.439  1.00  0.00    -0.151 C  
BRANCH  14  15
HETATM   15  C   UNL     1      -7.606  13.844  67.562  1.00  0.00    -0.190 C  
BRANCH  15  16
HETATM   16  C   UNL     1      -8.678  14.355  66.595  1.00  0.00    -0.131 C  
BRANCH  16  17
HETATM   17  C   UNL     1      -8.922  15.874  66.630  1.00  0.00    -0.268 C  
BRANCH  17  18
HETATM   18  N   UNL     1     -10.337  16.265  66.640  1.00  0.00    -0.298 NA 
HETATM   19  C   UNL     1     -11.266  15.109  66.572  1.00  0.00    -0.283 C  
HETATM   20  C   UNL     1     -11.330  14.228  67.843  1.00  0.00    -0.297 C  
HETATM   21  N   UNL     1     -11.592  15.055  69.027  1.00  0.00    -0.302 NA 
HETATM   22  C   UNL     1     -10.669  17.038  67.868  1.00  0.00    -0.348 C  
HETATM   23  C   UNL     1     -10.701  16.215  69.185  1.00  0.00    -0.292 C  
BRANCH  21  24
HETATM   24  C   UNL     1     -12.243  14.521  70.144  1.00  0.00    -0.342 A  
HETATM   25  C   UNL     1     -12.299  13.130  70.499  1.00  0.00    -0.380 A  
HETATM   26  C   UNL     1     -11.591  11.977  69.989  1.00  0.00    -0.275 A  
HETATM   27  C   UNL     1     -11.973  10.786  70.557  1.00  0.00    -0.361 A  
HETATM   28  S   UNL     1     -13.146  11.013  71.762  1.00  0.00    -0.357 SA 
HETATM   29  C   UNL     1     -13.147  12.725  71.540  1.00  0.00    -0.286 A  
HETATM   30  C   UNL     1     -13.910  13.640  72.287  1.00  0.00    -0.689 A  
HETATM   31  C   UNL     1     -13.808  14.990  71.991  1.00  0.00    -0.578 A  
HETATM   32  C   UNL     1     -12.998  15.413  70.945  1.00  0.00    -0.539 A  
ENDBRANCH  21  24
ENDBRANCH  17  18
ENDBRANCH  16  17
ENDBRANCH  15  16
ENDBRANCH  14  15
ENDBRANCH  13  14
ENDBRANCH   7  13
TORSDOF 7
ENDMDL
MODEL       71
REMARK 921   NORMALIZED FREE ENERGY PREDICTED BY IDOCK:   -6.05 KCAL/MOL
REMARK 922        TOTAL FREE ENERGY PREDICTED BY IDOCK:   -9.83 KCAL/MOL
REMARK 923 INTER-LIGAND FREE ENERGY PREDICTED BY IDOCK:   -8.51 KCAL/MOL
REMARK 924 INTRA-LIGAND FREE ENERGY PREDICTED BY IDOCK:   -1.33 KCAL/MOL
REMARK 927      BINDING AFFINITY PREDICTED BY RF-SCORE:    0.00 PKD
ROOT
HETATM    1  O   UNL     1     -11.238   6.230  69.041  1.00  0.00    -0.375 OA 
HETATM    2  C   UNL     1     -10.503   6.822  68.258  1.00  0.00    -0.206 C  
HETATM    3  N   UNL     1     -10.927   7.890  67.517  1.00  0.00    -0.522 N  
HETATM    4  C   UNL     1     -10.114   8.562  66.594  1.00  0.00    -0.294 A  
HETATM    5  H   UNL     1     -11.886   8.215  67.643  1.00  0.00     0.000 HD 
HETATM    6  C   UNL     1     -10.627   9.632  65.862  1.00  0.00     0.221 A  
HETATM    7  C   UNL     1      -9.819  10.281  64.924  1.00  0.00    -0.336 A  
HETATM    8  C   UNL     1      -9.092   6.399  68.077  1.00  0.00    -0.113 C  
HETATM    9  C   UNL     1      -8.501   9.846  64.733  1.00  0.00    -0.179 A  
HETATM   10  C   UNL     1      -8.284   7.018  67.207  1.00  0.00    -0.119 C  
HETATM   11  C   UNL     1      -7.987   8.779  65.474  1.00  0.00    -0.102 A  
HETATM   12  C   UNL     1      -8.792   8.134  66.412  1.00  0.00    -0.182 A  
ENDROOT
BRANCH   7  13
HETATM   13  O   UNL     1     -10.421  11.320  64.261  1.00  0.00    -0.309 OA 
BRANCH  13  14
HETATM   14  C   UNL     1      -9.969  12.622  64.632  1.00  0.00    -0.143 C  
BRANCH  14  15
HETATM   15  C   UNL     1     -11.163  13.536  64.884  1.00  0.00    -0.353 C  
BRANCH  15  16
HETATM   16  C   UNL     1     -11.981  13.081  66.097  1.00  0.00    -0.488 C  
BRANCH  16  17
HETATM   17  C   UNL     1     -12.020  14.076  67.272  1.00  0.00    -0.413 C  
BRANCH  17  18
HETATM   18  N   UNL     1     -10.935  13.910  68.247  1.00  0.00    -0.247 NA 
HETATM   19  C   UNL     1     -11.371  14.112  69.651  1.00  0.00    -0.236 C  
HETATM   20  C   UNL     1     -12.284  13.004  70.232  1.00  0.00    -0.296 C  
HETATM   21  N   UNL     1     -11.669  11.685  70.048  1.00  0.00    -0.330 NA 
HETATM   22  C   UNL     1     -10.335  12.551  68.152  1.00  0.00    -0.232 C  
HETATM   23  C   UNL     1     -11.224  11.392  68.676  1.00  0.00    -0.243 C  
BRANCH  21  24
HETATM   24  C   UNL     1     -11.952  10.633  70.926  1.00  0.00    -0.363 A  
HETATM   25  C   UNL     1     -11.049   9.574  71.288  1.00  0.00    -0.449 A  
HETATM   26  C   UNL     1      -9.632   9.396  71.056  1.00  0.00    -0.272 A  
HETATM   27  C   UNL     1      -9.135   8.200  71.514  1.00  0.00    -0.158 A  
HETATM   28  S   UNL     1     -10.329   7.279  72.291  1.00  0.00    -0.218 SA 
HETATM   29  C   UNL     1     -11.535   8.487  72.028  1.00  0.00    -0.361 A  
HETATM   30  C   UNL     1     -12.865   8.416  72.476  1.00  0.00    -0.256 A  
HETATM   31  C   UNL     1     -13.722   9.467  72.185  1.00  0.00    -0.490 A  
HETATM   32  C   UNL     1     -13.273  10.541  71.428  1.00  0.00    -0.441 A  
ENDBRANCH  21  24
ENDBRANCH  17  18
ENDBRANCH  16  17
ENDBRANCH  15  16
ENDBRANCH  14  15
ENDBRANCH  13  14
ENDBRANCH   7  13
TORSDOF 7
ENDMDL
MODEL       72
REMARK 921   NORMALIZED FREE ENERGY PREDICTED BY IDOCK:   -6.03 KCAL/MOL
REMARK 922        TOTAL FREE ENERGY PREDICTED BY IDOCK:   -9.80 KCAL/MOL
REMARK 923 INTER-LIGAND FREE ENERGY PREDICTED BY IDOCK:   -9.23 KCAL/MOL
REMARK 924 INTRA-LIGAND FREE ENERGY PREDICTED BY IDOCK:   -0.57 KCAL/MOL
REMARK 927      BINDING AFFINITY PREDICTED BY RF-SCORE:    0.00 PKD
ROOT
HETATM    1  O   UNL     1     -10.708   2.914  74.544  1.00  0.00    -0.156 OA 
HETATM    2  C   UNL     1     -10.672   3.566  73.507  1.00  0.00    -0.216 C  
HETATM    3  N   UNL     1     -11.186   4.830  73.415  1.00  0.00    -0.338 N  
HETATM    4  C   UNL     1     -11.183   5.581  72.232  1.00  0.00    -0.220 A  
HETATM    5  H   UNL     1     -11.594   5.247  74.252  1.00  0.00     0.000 HD 
HETATM    6  C   UNL     1     -11.746   6.857  72.214  1.00  0.00    -0.296 A  
HETATM    7  C   UNL     1     -11.763   7.591  71.025  1.00  0.00    -0.292 A  
HETATM    8  C   UNL     1     -10.053   3.005  72.280  1.00  0.00    -0.219 C  
HETATM    9  C   UNL     1     -11.211   7.033  69.864  1.00  0.00    -0.286 A  
HETATM   10  C   UNL     1     -10.027   3.693  71.133  1.00  0.00    -0.118 C  
HETATM   11  C   UNL     1     -10.641   5.758  69.887  1.00  0.00    -0.388 A  
HETATM   12  C   UNL     1     -10.620   5.028  71.074  1.00  0.00    -0.146 A  
ENDROOT
BRANCH   7  13
HETATM   13  O   UNL     1     -12.338   8.833  71.119  1.00  0.00    -0.288 OA 
BRANCH  13  14
HETATM   14  C   UNL     1     -11.423   9.916  71.281  1.00  0.00    -0.361 C  
BRANCH  14  15
HETATM   15  C   UNL     1     -11.129  10.557  69.929  1.00  0.00    -0.371 C  
BRANCH  15  16
HETATM   16  C   UNL     1     -11.668  11.988  69.849  1.00  0.00    -0.374 C  
BRANCH  16  17
HETATM   17  C   UNL     1     -11.205  12.795  68.622  1.00  0.00    -0.282 C  
BRANCH  17  18
HETATM   18  N   UNL     1     -12.125  13.864  68.213  1.00  0.00    -0.346 NA 
HETATM   19  C   UNL     1     -12.225  14.964  69.204  1.00  0.00    -0.159 C  
HETATM   20  C   UNL     1     -10.971  15.866  69.329  1.00  0.00    -0.293 C  
HETATM   21  N   UNL     1     -10.569  16.369  68.011  1.00  0.00    -0.303 NA 
HETATM   22  C   UNL     1     -11.706  14.462  66.916  1.00  0.00    -0.402 C  
HETATM   23  C   UNL     1     -10.426  15.339  66.969  1.00  0.00    -0.292 C  
BRANCH  21  24
HETATM   24  C   UNL     1      -9.888  17.584  67.885  1.00  0.00    -0.293 A  
HETATM   25  C   UNL     1      -8.549  17.848  68.336  1.00  0.00    -0.296 A  
HETATM   26  C   UNL     1      -7.506  16.971  68.819  1.00  0.00    -0.242 A  
HETATM   27  C   UNL     1      -6.364  17.623  69.219  1.00  0.00    -0.247 A  
HETATM   28  S   UNL     1      -6.479  19.297  68.973  1.00  0.00    -0.302 SA 
HETATM   29  C   UNL     1      -8.069  19.165  68.314  1.00  0.00    -0.332 A  
HETATM   30  C   UNL     1      -8.833  20.236  67.816  1.00  0.00    -0.309 A  
HETATM   31  C   UNL     1     -10.099  19.974  67.318  1.00  0.00    -0.577 A  
HETATM   32  C   UNL     1     -10.609  18.683  67.357  1.00  0.00    -0.490 A  
ENDBRANCH  21  24
ENDBRANCH  17  18
ENDBRANCH  16  17
ENDBRANCH  15  16
ENDBRANCH  14  15
ENDBRANCH  13  14
ENDBRANCH   7  13
TORSDOF 7
ENDMDL
MODEL       73
REMARK 921   NORMALIZED FREE ENERGY PREDICTED BY IDOCK:   -6.01 KCAL/MOL
REMARK 922        TOTAL FREE ENERGY PREDICTED BY IDOCK:   -9.78 KCAL/MOL
REMARK 923 INTER-LIGAND FREE ENERGY PREDICTED BY IDOCK:   -8.69 KCAL/MOL
REMARK 924 INTRA-LIGAND FREE ENERGY PREDICTED BY IDOCK:   -1.09 KCAL/MOL
REMARK 927      BINDING AFFINITY PREDICTED BY RF-SCORE:    0.00 PKD
ROOT
HETATM    1  O   UNL     1     -10.856  20.666  68.504  1.00  0.00     0.225 OA 
HETATM    2  C   UNL     1     -10.218  19.667  68.189  1.00  0.00    -0.461 C  
HETATM    3  N   UNL     1     -10.627  18.817  67.200  1.00  0.00    -0.423 N  
HETATM    4  C   UNL     1      -9.930  17.653  66.845  1.00  0.00    -0.323 A  
HETATM    5  H   UNL     1     -11.483  19.040  66.693  1.00  0.00     0.000 HD 
HETATM    6  C   UNL     1     -10.422  16.825  65.837  1.00  0.00    -0.311 A  
HETATM    7  C   UNL     1      -9.737  15.653  65.506  1.00  0.00    -0.251 A  
HETATM    8  C   UNL     1      -8.948  19.331  68.880  1.00  0.00    -0.344 C  
HETATM    9  C   UNL     1      -8.561  15.326  66.194  1.00  0.00     0.074 A  
HETATM   10  C   UNL     1      -8.253  18.231  68.567  1.00  0.00    -0.329 C  
HETATM   11  C   UNL     1      -8.065  16.162  67.198  1.00  0.00    -0.223 A  
HETATM   12  C   UNL     1      -8.747  17.333  67.525  1.00  0.00    -0.212 A  
ENDROOT
BRANCH   7  13
HETATM   13  O   UNL     1     -10.306  14.914  64.500  1.00  0.00    -0.171 OA 
BRANCH  13  14
HETATM   14  C   UNL     1     -11.353  14.034  64.910  1.00  0.00    -0.354 C  
BRANCH  14  15
HETATM   15  C   UNL     1     -11.461  12.865  63.936  1.00  0.00    -0.504 C  
BRANCH  15  16
HETATM   16  C   UNL     1     -11.189  11.524  64.624  1.00  0.00    -0.276 C  
BRANCH  16  17
HETATM   17  C   UNL     1      -9.756  11.339  65.155  1.00  0.00    -0.244 C  
BRANCH  17  18
HETATM   18  N   UNL     1      -9.674  10.733  66.490  1.00  0.00    -0.190 NA 
HETATM   19  C   UNL     1      -8.802  11.485  67.425  1.00  0.00    -0.157 C  
HETATM   20  C   UNL     1      -9.354  12.852  67.900  1.00  0.00    -0.208 C  
HETATM   21  N   UNL     1     -10.708  12.696  68.442  1.00  0.00    -0.235 NA 
HETATM   22  C   UNL     1     -11.022  10.631  67.114  1.00  0.00    -0.247 C  
HETATM   23  C   UNL     1     -11.649  11.977  67.568  1.00  0.00    -0.330 C  
BRANCH  21  24
HETATM   24  C   UNL     1     -11.197  13.576  69.414  1.00  0.00    -0.187 A  
HETATM   25  C   UNL     1     -12.053  13.222  70.513  1.00  0.00    -0.391 A  
HETATM   26  C   UNL     1     -12.463  11.939  71.040  1.00  0.00    -0.390 A  
HETATM   27  C   UNL     1     -13.353  12.018  72.083  1.00  0.00    -0.290 A  
HETATM   28  S   UNL     1     -13.680  13.628  72.508  1.00  0.00    -0.467 SA 
HETATM   29  C   UNL     1     -12.616  14.241  71.294  1.00  0.00    -0.364 A  
HETATM   30  C   UNL     1     -12.335  15.601  71.074  1.00  0.00    -0.481 A  
HETATM   31  C   UNL     1     -11.458  15.942  70.056  1.00  0.00    -0.354 A  
HETATM   32  C   UNL     1     -10.910  14.953  69.249  1.00  0.00    -0.272 A  
ENDBRANCH  21  24
ENDBRANCH  17  18
ENDBRANCH  16  17
ENDBRANCH  15  16
ENDBRANCH  14  15
ENDBRANCH  13  14
ENDBRANCH   7  13
TORSDOF 7
ENDMDL
MODEL       74
REMARK 921   NORMALIZED FREE ENERGY PREDICTED BY IDOCK:   -5.99 KCAL/MOL
REMARK 922        TOTAL FREE ENERGY PREDICTED BY IDOCK:   -9.75 KCAL/MOL
REMARK 923 INTER-LIGAND FREE ENERGY PREDICTED BY IDOCK:   -8.47 KCAL/MOL
REMARK 924 INTRA-LIGAND FREE ENERGY PREDICTED BY IDOCK:   -1.28 KCAL/MOL
REMARK 927      BINDING AFFINITY PREDICTED BY RF-SCORE:    0.00 PKD
ROOT
HETATM    1  O   UNL     1     -12.476  12.407  70.907  1.00  0.00    -0.371 OA 
HETATM    2  C   UNL     1     -12.450  11.199  71.116  1.00  0.00    -0.393 C  
HETATM    3  N   UNL     1     -11.355  10.429  70.838  1.00  0.00    -0.348 N  
HETATM    4  C   UNL     1     -11.314   9.042  71.039  1.00  0.00    -0.297 A  
HETATM    5  H   UNL     1     -10.524  10.887  70.463  1.00  0.00     0.000 HD 
HETATM    6  C   UNL     1     -10.165   8.323  70.712  1.00  0.00    -0.219 A  
HETATM    7  C   UNL     1     -10.139   6.938  70.892  1.00  0.00    -0.194 A  
HETATM    8  C   UNL     1     -13.627  10.505  71.694  1.00  0.00    -0.167 C  
HETATM    9  C   UNL     1     -11.272   6.289  71.401  1.00  0.00    -0.349 A  
HETATM   10  C   UNL     1     -13.624   9.183  71.905  1.00  0.00    -0.493 C  
HETATM   11  C   UNL     1     -12.419   7.013  71.736  1.00  0.00    -0.393 A  
HETATM   12  C   UNL     1     -12.443   8.395  71.561  1.00  0.00    -0.342 A  
ENDROOT
BRANCH   7  13
HETATM   13  O   UNL     1      -8.961   6.330  70.540  1.00  0.00    -0.148 OA 
BRANCH  13  14
HETATM   14  C   UNL     1      -9.046   5.435  69.431  1.00  0.00    -0.108 C  
BRANCH  14  15
HETATM   15  C   UNL     1      -8.542   6.123  68.167  1.00  0.00    -0.115 C  
BRANCH  15  16
HETATM   16  C   UNL     1      -9.690   6.715  67.344  1.00  0.00    -0.155 C  
BRANCH  16  17
HETATM   17  C   UNL     1      -9.265   7.674  66.219  1.00  0.00    -0.154 C  
BRANCH  17  18
HETATM   18  N   UNL     1      -8.541   8.868  66.676  1.00  0.00    -0.120 NA 
HETATM   19  C   UNL     1      -7.994   9.685  65.565  1.00  0.00    -0.115 C  
HETATM   20  C   UNL     1      -9.043  10.446  64.716  1.00  0.00    -0.213 C  
HETATM   21  N   UNL     1      -9.922  11.240  65.582  1.00  0.00    -0.235 NA 
HETATM   22  C   UNL     1      -9.422   9.747  67.491  1.00  0.00    -0.147 C  
HETATM   23  C   UNL     1     -10.526  10.500  66.701  1.00  0.00    -0.228 C  
BRANCH  21  24
HETATM   24  C   UNL     1     -10.537  12.403  65.105  1.00  0.00    -0.292 A  
HETATM   25  C   UNL     1     -10.239  13.744  65.527  1.00  0.00    -0.332 A  
HETATM   26  C   UNL     1      -9.167  14.284  66.334  1.00  0.00    -0.226 A  
HETATM   27  C   UNL     1      -9.265  15.634  66.567  1.00  0.00    -0.293 A  
HETATM   28  S   UNL     1     -10.605  16.312  65.778  1.00  0.00    -0.283 SA 
HETATM   29  C   UNL     1     -11.067  14.792  65.102  1.00  0.00    -0.384 A  
HETATM   30  C   UNL     1     -12.154  14.588  64.233  1.00  0.00    -0.448 A  
HETATM   31  C   UNL     1     -12.405  13.305  63.772  1.00  0.00    -0.440 A  
HETATM   32  C   UNL     1     -11.616  12.245  64.202  1.00  0.00    -0.463 A  
ENDBRANCH  21  24
ENDBRANCH  17  18
ENDBRANCH  16  17
ENDBRANCH  15  16
ENDBRANCH  14  15
ENDBRANCH  13  14
ENDBRANCH   7  13
TORSDOF 7
ENDMDL
MODEL       75
REMARK 921   NORMALIZED FREE ENERGY PREDICTED BY IDOCK:   -5.98 KCAL/MOL
REMARK 922        TOTAL FREE ENERGY PREDICTED BY IDOCK:   -9.74 KCAL/MOL
REMARK 923 INTER-LIGAND FREE ENERGY PREDICTED BY IDOCK:   -8.69 KCAL/MOL
REMARK 924 INTRA-LIGAND FREE ENERGY PREDICTED BY IDOCK:   -1.05 KCAL/MOL
REMARK 927      BINDING AFFINITY PREDICTED BY RF-SCORE:    0.00 PKD
ROOT
HETATM    1  O   UNL     1      -9.602  11.185  63.459  1.00  0.00    -0.256 OA 
HETATM    2  C   UNL     1      -9.133  10.339  64.212  1.00  0.00    -0.243 C  
HETATM    3  N   UNL     1      -9.906   9.611  65.073  1.00  0.00    -0.434 N  
HETATM    4  C   UNL     1      -9.387   8.662  65.964  1.00  0.00    -0.218 A  
HETATM    5  H   UNL     1     -10.914   9.767  65.066  1.00  0.00     0.000 HD 
HETATM    6  C   UNL     1     -10.240   7.973  66.826  1.00  0.00    -0.367 A  
HETATM    7  C   UNL     1      -9.714   7.047  67.729  1.00  0.00    -0.135 A  
HETATM    8  C   UNL     1      -7.675  10.060  64.222  1.00  0.00    -0.141 C  
HETATM    9  C   UNL     1      -8.330   6.823  67.757  1.00  0.00    -0.119 A  
HETATM   10  C   UNL     1      -7.143   9.158  65.056  1.00  0.00    -0.092 C  
HETATM   11  C   UNL     1      -7.479   7.508  66.887  1.00  0.00    -0.098 A  
HETATM   12  C   UNL     1      -8.005   8.428  65.982  1.00  0.00    -0.101 A  
ENDROOT
BRANCH   7  13
HETATM   13  O   UNL     1     -10.640   6.426  68.528  1.00  0.00    -0.198 OA 
BRANCH  13  14
HETATM   14  C   UNL     1     -10.132   5.368  69.340  1.00  0.00    -0.234 C  
BRANCH  14  15
HETATM   15  C   UNL     1     -10.092   5.804  70.800  1.00  0.00    -0.260 C  
BRANCH  15  16
HETATM   16  C   UNL     1     -11.499   5.965  71.384  1.00  0.00    -0.191 C  
BRANCH  16  17
HETATM   17  C   UNL     1     -12.151   7.340  71.155  1.00  0.00    -0.340 C  
BRANCH  17  18
HETATM   18  N   UNL     1     -11.726   8.381  72.100  1.00  0.00    -0.349 NA 
HETATM   19  C   UNL     1     -10.572   9.179  71.615  1.00  0.00    -0.357 C  
HETATM   20  C   UNL     1     -10.873  10.140  70.438  1.00  0.00    -0.301 C  
HETATM   21  N   UNL     1     -12.020  10.997  70.758  1.00  0.00    -0.343 NA 
HETATM   22  C   UNL     1     -12.838   9.327  72.390  1.00  0.00    -0.346 C  
HETATM   23  C   UNL     1     -13.218  10.284  71.229  1.00  0.00    -0.356 C  
BRANCH  21  24
HETATM   24  C   UNL     1     -12.148  12.267  70.184  1.00  0.00    -0.287 A  
HETATM   25  C   UNL     1     -11.910  12.593  68.804  1.00  0.00    -0.341 A  
HETATM   26  C   UNL     1     -11.698  11.761  67.641  1.00  0.00    -0.320 A  
HETATM   27  C   UNL     1     -11.441  12.462  66.487  1.00  0.00    -0.371 A  
HETATM   28  S   UNL     1     -11.507  14.138  66.744  1.00  0.00    -0.387 SA 
HETATM   29  C   UNL     1     -11.893  13.940  68.415  1.00  0.00    -0.374 A  
HETATM   30  C   UNL     1     -12.150  14.987  69.318  1.00  0.00    -0.282 A  
HETATM   31  C   UNL     1     -12.444  14.672  70.635  1.00  0.00    -0.408 A  
HETATM   32  C   UNL     1     -12.439  13.347  71.052  1.00  0.00    -0.437 A  
ENDBRANCH  21  24
ENDBRANCH  17  18
ENDBRANCH  16  17
ENDBRANCH  15  16
ENDBRANCH  14  15
ENDBRANCH  13  14
ENDBRANCH   7  13
TORSDOF 7
ENDMDL
MODEL       76
REMARK 921   NORMALIZED FREE ENERGY PREDICTED BY IDOCK:   -5.98 KCAL/MOL
REMARK 922        TOTAL FREE ENERGY PREDICTED BY IDOCK:   -9.74 KCAL/MOL
REMARK 923 INTER-LIGAND FREE ENERGY PREDICTED BY IDOCK:   -8.37 KCAL/MOL
REMARK 924 INTRA-LIGAND FREE ENERGY PREDICTED BY IDOCK:   -1.37 KCAL/MOL
REMARK 927      BINDING AFFINITY PREDICTED BY RF-SCORE:    0.00 PKD
ROOT
HETATM    1  O   UNL     1      -9.891  10.397  63.094  1.00  0.00    -0.299 OA 
HETATM    2  C   UNL     1      -9.475  10.316  64.245  1.00  0.00    -0.307 C  
HETATM    3  N   UNL     1     -10.310  10.251  65.325  1.00  0.00    -0.232 N  
HETATM    4  C   UNL     1      -9.856  10.189  66.650  1.00  0.00    -0.200 A  
HETATM    5  H   UNL     1     -11.316  10.247  65.159  1.00  0.00     0.000 HD 
HETATM    6  C   UNL     1     -10.772  10.144  67.701  1.00  0.00    -0.339 A  
HETATM    7  C   UNL     1     -10.313  10.109  69.020  1.00  0.00    -0.212 A  
HETATM    8  C   UNL     1      -8.017  10.282  64.522  1.00  0.00    -0.133 C  
HETATM    9  C   UNL     1      -8.934  10.119  69.269  1.00  0.00    -0.193 A  
HETATM   10  C   UNL     1      -7.545  10.220  65.773  1.00  0.00    -0.143 C  
HETATM   11  C   UNL     1      -8.018  10.155  68.215  1.00  0.00    -0.101 A  
HETATM   12  C   UNL     1      -8.476  10.186  66.899  1.00  0.00    -0.126 A  
ENDROOT
BRANCH   7  13
HETATM   13  O   UNL     1     -11.297  10.065  69.974  1.00  0.00    -0.253 OA 
BRANCH  13  14
HETATM   14  C   UNL     1     -12.408  10.932  69.744  1.00  0.00    -0.256 C  
BRANCH  14  15
HETATM   15  C   UNL     1     -12.574  11.889  70.920  1.00  0.00    -0.361 C  
BRANCH  15  16
HETATM   16  C   UNL     1     -12.373  13.348  70.499  1.00  0.00    -0.401 C  
BRANCH  16  17
HETATM   17  C   UNL     1     -12.013  13.559  69.018  1.00  0.00    -0.335 C  
BRANCH  17  18
HETATM   18  N   UNL     1     -10.574  13.697  68.754  1.00  0.00    -0.249 NA 
HETATM   19  C   UNL     1     -10.262  13.972  67.330  1.00  0.00    -0.260 C  
HETATM   20  C   UNL     1     -10.657  15.381  66.820  1.00  0.00    -0.309 C  
HETATM   21  N   UNL     1     -10.103  16.417  67.699  1.00  0.00    -0.257 NA 
HETATM   22  C   UNL     1      -9.985  14.796  69.566  1.00  0.00    -0.020 C  
HETATM   23  C   UNL     1     -10.384  16.232  69.132  1.00  0.00    -0.272 C  
BRANCH  21  24
HETATM   24  C   UNL     1      -9.812  17.694  67.207  1.00  0.00    -0.303 A  
HETATM   25  C   UNL     1      -8.578  18.095  66.590  1.00  0.00    -0.284 A  
HETATM   26  C   UNL     1      -7.439  17.332  66.129  1.00  0.00    -0.321 A  
HETATM   27  C   UNL     1      -6.409  18.099  65.642  1.00  0.00    -0.253 A  
HETATM   28  S   UNL     1      -6.792  19.751  65.662  1.00  0.00    -0.302 SA 
HETATM   29  C   UNL     1      -8.360  19.454  66.321  1.00  0.00    -0.336 A  
HETATM   30  C   UNL     1      -9.329  20.438  66.586  1.00  0.00    -0.405 A  
HETATM   31  C   UNL     1     -10.546  20.046  67.120  1.00  0.00    -0.447 A  
HETATM   32  C   UNL     1     -10.775  18.710  67.423  1.00  0.00    -0.456 A  
ENDBRANCH  21  24
ENDBRANCH  17  18
ENDBRANCH  16  17
ENDBRANCH  15  16
ENDBRANCH  14  15
ENDBRANCH  13  14
ENDBRANCH   7  13
TORSDOF 7
ENDMDL
MODEL       77
REMARK 921   NORMALIZED FREE ENERGY PREDICTED BY IDOCK:   -5.97 KCAL/MOL
REMARK 922        TOTAL FREE ENERGY PREDICTED BY IDOCK:   -9.72 KCAL/MOL
REMARK 923 INTER-LIGAND FREE ENERGY PREDICTED BY IDOCK:   -8.75 KCAL/MOL
REMARK 924 INTRA-LIGAND FREE ENERGY PREDICTED BY IDOCK:   -0.97 KCAL/MOL
REMARK 927      BINDING AFFINITY PREDICTED BY RF-SCORE:    0.00 PKD
ROOT
HETATM    1  O   UNL     1      -7.456   8.286  64.296  1.00  0.00    -0.095 OA 
HETATM    2  C   UNL     1      -8.323   9.150  64.213  1.00  0.00    -0.173 C  
HETATM    3  N   UNL     1      -8.951   9.668  65.312  1.00  0.00    -0.189 N  
HETATM    4  C   UNL     1      -9.965  10.633  65.239  1.00  0.00    -0.294 A  
HETATM    5  H   UNL     1      -8.667   9.334  66.233  1.00  0.00     0.000 HD 
HETATM    6  C   UNL     1     -10.572  11.098  66.405  1.00  0.00    -0.315 A  
HETATM    7  C   UNL     1     -11.600  12.040  66.324  1.00  0.00    -0.310 A  
HETATM    8  C   UNL     1      -8.735   9.685  62.892  1.00  0.00    -0.227 C  
HETATM    9  C   UNL     1     -12.007  12.507  65.067  1.00  0.00    -0.478 A  
HETATM   10  C   UNL     1      -9.697  10.609  62.782  1.00  0.00    -0.279 C  
HETATM   11  C   UNL     1     -11.392  12.046  63.900  1.00  0.00    -0.503 A  
HETATM   12  C   UNL     1     -10.364  11.109  63.982  1.00  0.00    -0.437 A  
ENDROOT
BRANCH   7  13
HETATM   13  O   UNL     1     -12.125  12.430  67.530  1.00  0.00    -0.491 OA 
BRANCH  13  14
HETATM   14  C   UNL     1     -11.600  11.751  68.670  1.00  0.00    -0.309 C  
BRANCH  14  15
HETATM   15  C   UNL     1     -12.148  12.377  69.948  1.00  0.00    -0.317 C  
BRANCH  15  16
HETATM   16  C   UNL     1     -12.296  11.345  71.069  1.00  0.00    -0.448 C  
BRANCH  16  17
HETATM   17  C   UNL     1     -11.817   9.924  70.720  1.00  0.00    -0.330 C  
BRANCH  17  18
HETATM   18  N   UNL     1     -11.616   9.047  71.880  1.00  0.00    -0.365 NA 
HETATM   19  C   UNL     1     -12.419   7.800  71.820  1.00  0.00    -0.320 C  
HETATM   20  C   UNL     1     -11.971   6.768  70.755  1.00  0.00    -0.378 C  
HETATM   21  N   UNL     1     -10.540   6.476  70.896  1.00  0.00    -0.223 NA 
HETATM   22  C   UNL     1     -10.186   8.656  72.013  1.00  0.00    -0.337 C  
HETATM   23  C   UNL     1      -9.666   7.659  70.943  1.00  0.00    -0.172 C  
BRANCH  21  24
HETATM   24  C   UNL     1     -10.018   5.242  70.496  1.00  0.00    -0.229 A  
HETATM   25  C   UNL     1      -9.836   4.806  69.138  1.00  0.00    -0.254 A  
HETATM   26  C   UNL     1      -9.921   5.515  67.880  1.00  0.00    -0.185 A  
HETATM   27  C   UNL     1      -9.737   4.720  66.774  1.00  0.00    -0.189 A  
HETATM   28  S   UNL     1      -9.395   3.115  67.205  1.00  0.00    -0.115 SA 
HETATM   29  C   UNL     1      -9.482   3.472  68.892  1.00  0.00    -0.140 A  
HETATM   30  C   UNL     1      -9.246   2.552  69.929  1.00  0.00    -0.195 A  
HETATM   31  C   UNL     1      -9.356   2.987  71.240  1.00  0.00    -0.208 A  
HETATM   32  C   UNL     1      -9.735   4.295  71.510  1.00  0.00    -0.244 A  
ENDBRANCH  21  24
ENDBRANCH  17  18
ENDBRANCH  16  17
ENDBRANCH  15  16
ENDBRANCH  14  15
ENDBRANCH  13  14
ENDBRANCH   7  13
TORSDOF 7
ENDMDL
MODEL       78
REMARK 921   NORMALIZED FREE ENERGY PREDICTED BY IDOCK:   -5.95 KCAL/MOL
REMARK 922        TOTAL FREE ENERGY PREDICTED BY IDOCK:   -9.70 KCAL/MOL
REMARK 923 INTER-LIGAND FREE ENERGY PREDICTED BY IDOCK:   -8.80 KCAL/MOL
REMARK 924 INTRA-LIGAND FREE ENERGY PREDICTED BY IDOCK:   -0.90 KCAL/MOL
REMARK 927      BINDING AFFINITY PREDICTED BY RF-SCORE:    0.00 PKD
ROOT
HETATM    1  O   UNL     1     -12.739  14.935  63.847  1.00  0.00    -0.789 OA 
HETATM    2  C   UNL     1     -12.266  13.927  64.360  1.00  0.00    -0.413 C  
HETATM    3  N   UNL     1     -12.265  13.723  65.713  1.00  0.00    -0.431 N  
HETATM    4  C   UNL     1     -11.702  12.594  66.323  1.00  0.00    -0.402 A  
HETATM    5  H   UNL     1     -12.696  14.430  66.308  1.00  0.00     0.000 HD 
HETATM    6  C   UNL     1     -11.724  12.467  67.712  1.00  0.00    -0.419 A  
HETATM    7  C   UNL     1     -11.138  11.352  68.316  1.00  0.00    -0.244 A  
HETATM    8  C   UNL     1     -11.664  12.861  63.522  1.00  0.00    -0.576 C  
HETATM    9  C   UNL     1     -10.537  10.372  67.515  1.00  0.00    -0.312 A  
HETATM   10  C   UNL     1     -11.121  11.766  64.068  1.00  0.00    -0.461 C  
HETATM   11  C   UNL     1     -10.525  10.496  66.123  1.00  0.00    -0.237 A  
HETATM   12  C   UNL     1     -11.112  11.607  65.521  1.00  0.00    -0.297 A  
ENDROOT
BRANCH   7  13
HETATM   13  O   UNL     1     -11.216  11.327  69.685  1.00  0.00    -0.257 OA 
BRANCH  13  14
HETATM   14  C   UNL     1     -12.483  11.696  70.229  1.00  0.00    -0.182 C  
BRANCH  14  15
HETATM   15  C   UNL     1     -12.726  10.948  71.536  1.00  0.00    -0.533 C  
BRANCH  15  16
HETATM   16  C   UNL     1     -13.467   9.627  71.307  1.00  0.00    -0.359 C  
BRANCH  16  17
HETATM   17  C   UNL     1     -12.744   8.372  71.827  1.00  0.00    -0.342 C  
BRANCH  17  18
HETATM   18  N   UNL     1     -11.299   8.348  71.564  1.00  0.00    -0.262 NA 
HETATM   19  C   UNL     1     -10.489   8.020  72.763  1.00  0.00    -0.345 C  
HETATM   20  C   UNL     1     -10.590   6.555  73.257  1.00  0.00    -0.276 C  
HETATM   21  N   UNL     1     -10.316   5.624  72.156  1.00  0.00    -0.202 NA 
HETATM   22  C   UNL     1     -10.965   7.353  70.508  1.00  0.00    -0.253 C  
HETATM   23  C   UNL     1     -11.094   5.865  70.930  1.00  0.00    -0.242 C  
BRANCH  21  24
HETATM   24  C   UNL     1      -9.791   4.352  72.406  1.00  0.00    -0.167 A  
HETATM   25  C   UNL     1      -8.473   3.903  72.051  1.00  0.00    -0.106 A  
HETATM   26  C   UNL     1      -7.311   4.615  71.566  1.00  0.00    -0.068 A  
HETATM   27  C   UNL     1      -6.237   3.808  71.278  1.00  0.00    -0.015 A  
HETATM   28  S   UNL     1      -6.561   2.181  71.636  1.00  0.00    -0.019 SA 
HETATM   29  C   UNL     1      -8.153   2.545  72.194  1.00  0.00    -0.054 A  
HETATM   30  C   UNL     1      -9.061   1.611  72.723  1.00  0.00    -0.081 A  
HETATM   31  C   UNL     1     -10.310   2.053  73.129  1.00  0.00    -0.209 A  
HETATM   32  C   UNL     1     -10.661   3.387  72.970  1.00  0.00    -0.244 A  
ENDBRANCH  21  24
ENDBRANCH  17  18
ENDBRANCH  16  17
ENDBRANCH  15  16
ENDBRANCH  14  15
ENDBRANCH  13  14
ENDBRANCH   7  13
TORSDOF 7
ENDMDL
MODEL       79
REMARK 921   NORMALIZED FREE ENERGY PREDICTED BY IDOCK:   -5.93 KCAL/MOL
REMARK 922        TOTAL FREE ENERGY PREDICTED BY IDOCK:   -9.66 KCAL/MOL
REMARK 923 INTER-LIGAND FREE ENERGY PREDICTED BY IDOCK:   -8.86 KCAL/MOL
REMARK 924 INTRA-LIGAND FREE ENERGY PREDICTED BY IDOCK:   -0.80 KCAL/MOL
REMARK 927      BINDING AFFINITY PREDICTED BY RF-SCORE:    0.00 PKD
ROOT
HETATM    1  O   UNL     1      -9.759  18.938  65.782  1.00  0.00    -0.437 OA 
HETATM    2  C   UNL     1     -10.077  17.986  66.486  1.00  0.00    -0.379 C  
HETATM    3  N   UNL     1     -10.505  16.797  65.965  1.00  0.00    -0.321 N  
HETATM    4  C   UNL     1     -10.903  15.707  66.751  1.00  0.00    -0.277 A  
HETATM    5  H   UNL     1     -10.536  16.698  64.950  1.00  0.00     0.000 HD 
HETATM    6  C   UNL     1     -11.345  14.532  66.144  1.00  0.00    -0.348 A  
HETATM    7  C   UNL     1     -11.765  13.459  66.933  1.00  0.00    -0.389 A  
HETATM    8  C   UNL     1     -10.008  18.082  67.966  1.00  0.00    -0.346 C  
HETATM    9  C   UNL     1     -11.733  13.577  68.329  1.00  0.00    -0.394 A  
HETATM   10  C   UNL     1     -10.376  17.062  68.750  1.00  0.00    -0.336 C  
HETATM   11  C   UNL     1     -11.281  14.751  68.935  1.00  0.00    -0.282 A  
HETATM   12  C   UNL     1     -10.859  15.821  68.148  1.00  0.00    -0.307 A  
ENDROOT
BRANCH   7  13
HETATM   13  O   UNL     1     -12.179  12.353  66.234  1.00  0.00    -0.620 OA 
BRANCH  13  14
HETATM   14  C   UNL     1     -11.266  11.882  65.244  1.00  0.00    -0.295 C  
BRANCH  14  15
HETATM   15  C   UNL     1     -10.093  11.172  65.912  1.00  0.00    -0.296 C  
BRANCH  15  16
HETATM   16  C   UNL     1      -9.647   9.941  65.118  1.00  0.00    -0.367 C  
BRANCH  16  17
HETATM   17  C   UNL     1      -8.583   9.067  65.808  1.00  0.00    -0.160 C  
BRANCH  17  18
HETATM   18  N   UNL     1      -9.029   7.705  66.131  1.00  0.00    -0.170 NA 
HETATM   19  C   UNL     1      -8.132   7.004  67.082  1.00  0.00    -0.118 C  
HETATM   20  C   UNL     1      -8.157   7.534  68.538  1.00  0.00    -0.125 C  
HETATM   21  N   UNL     1      -9.535   7.585  69.040  1.00  0.00    -0.146 NA 
HETATM   22  C   UNL     1     -10.395   7.717  66.723  1.00  0.00    -0.273 C  
HETATM   23  C   UNL     1     -10.491   8.283  68.165  1.00  0.00    -0.171 C  
BRANCH  21  24
HETATM   24  C   UNL     1      -9.805   7.466  70.407  1.00  0.00    -0.183 A  
HETATM   25  C   UNL     1      -9.946   6.232  71.132  1.00  0.00    -0.210 A  
HETATM   26  C   UNL     1      -9.668   4.862  70.763  1.00  0.00    -0.268 A  
HETATM   27  C   UNL     1      -9.998   3.942  71.728  1.00  0.00    -0.163 A  
HETATM   28  S   UNL     1     -10.593   4.690  73.130  1.00  0.00    -0.240 SA 
HETATM   29  C   UNL     1     -10.405   6.268  72.457  1.00  0.00    -0.192 A  
HETATM   30  C   UNL     1     -10.684   7.474  73.124  1.00  0.00    -0.452 A  
HETATM   31  C   UNL     1     -10.485   8.669  72.449  1.00  0.00    -0.307 A  
HETATM   32  C   UNL     1     -10.060   8.658  71.127  1.00  0.00    -0.290 A  
ENDBRANCH  21  24
ENDBRANCH  17  18
ENDBRANCH  16  17
ENDBRANCH  15  16
ENDBRANCH  14  15
ENDBRANCH  13  14
ENDBRANCH   7  13
TORSDOF 7
ENDMDL
MODEL       80
REMARK 921   NORMALIZED FREE ENERGY PREDICTED BY IDOCK:   -5.93 KCAL/MOL
REMARK 922        TOTAL FREE ENERGY PREDICTED BY IDOCK:   -9.66 KCAL/MOL
REMARK 923 INTER-LIGAND FREE ENERGY PREDICTED BY IDOCK:   -7.57 KCAL/MOL
REMARK 924 INTRA-LIGAND FREE ENERGY PREDICTED BY IDOCK:   -2.09 KCAL/MOL
REMARK 927      BINDING AFFINITY PREDICTED BY RF-SCORE:    0.00 PKD
ROOT
HETATM    1  O   UNL     1     -10.922  12.108  62.959  1.00  0.00    -0.273 OA 
HETATM    2  C   UNL     1     -11.094  12.767  63.978  1.00  0.00    -0.414 C  
HETATM    3  N   UNL     1     -10.215  13.732  64.386  1.00  0.00    -0.669 N  
HETATM    4  C   UNL     1     -10.375  14.476  65.563  1.00  0.00    -0.359 A  
HETATM    5  H   UNL     1      -9.399  13.920  63.802  1.00  0.00     0.000 HD 
HETATM    6  C   UNL     1      -9.423  15.431  65.920  1.00  0.00    -0.369 A  
HETATM    7  C   UNL     1      -9.575  16.151  67.107  1.00  0.00    -0.229 A  
HETATM    8  C   UNL     1     -12.288  12.547  64.831  1.00  0.00    -0.539 C  
HETATM    9  C   UNL     1     -10.687  15.904  67.924  1.00  0.00    -0.312 A  
HETATM   10  C   UNL     1     -12.478  13.240  65.960  1.00  0.00    -0.388 C  
HETATM   11  C   UNL     1     -11.644  14.954  67.560  1.00  0.00    -0.355 A  
HETATM   12  C   UNL     1     -11.494  14.238  66.373  1.00  0.00    -0.361 A  
ENDROOT
BRANCH   7  13
HETATM   13  O   UNL     1      -8.584  17.064  67.362  1.00  0.00    -0.194 OA 
BRANCH  13  14
HETATM   14  C   UNL     1      -7.542  17.119  66.388  1.00  0.00    -0.312 C  
BRANCH  14  15
HETATM   15  C   UNL     1      -6.219  17.471  67.059  1.00  0.00    -0.194 C  
BRANCH  15  16
HETATM   16  C   UNL     1      -5.789  16.399  68.065  1.00  0.00    -0.124 C  
BRANCH  16  17
HETATM   17  C   UNL     1      -5.686  14.971  67.498  1.00  0.00     0.092 C  
BRANCH  17  18
HETATM   18  N   UNL     1      -5.656  13.912  68.515  1.00  0.00    -0.087 NA 
HETATM   19  C   UNL     1      -6.940  13.759  69.242  1.00  0.00    -0.042 C  
HETATM   20  C   UNL     1      -8.107  13.160  68.418  1.00  0.00    -0.130 C  
HETATM   21  N   UNL     1      -7.695  11.900  67.789  1.00  0.00    -0.126 NA 
HETATM   22  C   UNL     1      -5.323  12.596  67.906  1.00  0.00    -0.098 C  
HETATM   23  C   UNL     1      -6.438  11.967  67.027  1.00  0.00    -0.136 C  
BRANCH  21  24
HETATM   24  C   UNL     1      -8.634  10.906  67.494  1.00  0.00    -0.127 A  
HETATM   25  C   UNL     1      -9.204   9.982  68.436  1.00  0.00    -0.131 A  
HETATM   26  C   UNL     1      -9.161   9.931  69.881  1.00  0.00    -0.245 A  
HETATM   27  C   UNL     1      -9.792   8.838  70.424  1.00  0.00    -0.182 A  
HETATM   28  S   UNL     1     -10.509   7.870  69.229  1.00  0.00    -0.193 SA 
HETATM   29  C   UNL     1      -9.986   8.919  67.962  1.00  0.00    -0.178 A  
HETATM   30  C   UNL     1     -10.277   8.751  66.597  1.00  0.00    -0.340 A  
HETATM   31  C   UNL     1      -9.783   9.677  65.692  1.00  0.00    -0.363 A  
HETATM   32  C   UNL     1      -8.982  10.722  66.134  1.00  0.00    -0.192 A  
ENDBRANCH  21  24
ENDBRANCH  17  18
ENDBRANCH  16  17
ENDBRANCH  15  16
ENDBRANCH  14  15
ENDBRANCH  13  14
ENDBRANCH   7  13
TORSDOF 7
ENDMDL
MODEL       81
REMARK 921   NORMALIZED FREE ENERGY PREDICTED BY IDOCK:   -5.89 KCAL/MOL
REMARK 922        TOTAL FREE ENERGY PREDICTED BY IDOCK:   -9.61 KCAL/MOL
REMARK 923 INTER-LIGAND FREE ENERGY PREDICTED BY IDOCK:   -8.86 KCAL/MOL
REMARK 924 INTRA-LIGAND FREE ENERGY PREDICTED BY IDOCK:   -0.75 KCAL/MOL
REMARK 927      BINDING AFFINITY PREDICTED BY RF-SCORE:    0.00 PKD
ROOT
HETATM    1  O   UNL     1      -5.500  20.156  71.470  1.00  0.00    -0.315 OA 
HETATM    2  C   UNL     1      -5.948  20.203  70.329  1.00  0.00    -0.349 C  
HETATM    3  N   UNL     1      -7.145  19.638  69.987  1.00  0.00    -0.038 N  
HETATM    4  C   UNL     1      -7.662  19.652  68.684  1.00  0.00    -0.328 A  
HETATM    5  H   UNL     1      -7.691  19.181  70.718  1.00  0.00     0.000 HD 
HETATM    6  C   UNL     1      -8.882  19.036  68.410  1.00  0.00    -0.379 A  
HETATM    7  C   UNL     1      -9.379  19.031  67.104  1.00  0.00    -0.307 A  
HETATM    8  C   UNL     1      -5.199  20.890  69.248  1.00  0.00    -0.394 C  
HETATM    9  C   UNL     1      -8.642  19.649  66.085  1.00  0.00    -0.357 A  
HETATM   10  C   UNL     1      -5.661  20.928  67.993  1.00  0.00    -0.362 C  
HETATM   11  C   UNL     1      -7.423  20.273  66.363  1.00  0.00    -0.284 A  
HETATM   12  C   UNL     1      -6.930  20.281  67.667  1.00  0.00    -0.317 A  
ENDROOT
BRANCH   7  13
HETATM   13  O   UNL     1     -10.587  18.400  66.946  1.00  0.00    -0.386 OA 
BRANCH  13  14
HETATM   14  C   UNL     1     -10.609  17.365  65.963  1.00  0.00    -0.210 C  
BRANCH  14  15
HETATM   15  C   UNL     1     -10.328  16.017  66.618  1.00  0.00    -0.299 C  
BRANCH  15  16
HETATM   16  C   UNL     1     -10.063  14.924  65.579  1.00  0.00    -0.400 C  
BRANCH  16  17
HETATM   17  C   UNL     1     -10.263  13.482  66.079  1.00  0.00    -0.305 C  
BRANCH  17  18
HETATM   18  N   UNL     1     -10.077  13.307  67.525  1.00  0.00    -0.221 NA 
HETATM   19  C   UNL     1     -11.295  12.820  68.219  1.00  0.00    -0.296 C  
HETATM   20  C   UNL     1     -11.689  11.351  67.926  1.00  0.00    -0.228 C  
HETATM   21  N   UNL     1     -10.547  10.459  68.160  1.00  0.00    -0.195 NA 
HETATM   22  C   UNL     1      -8.980  12.343  67.810  1.00  0.00    -0.182 C  
HETATM   23  C   UNL     1      -9.299  10.857  67.491  1.00  0.00    -0.154 C  
BRANCH  21  24
HETATM   24  C   UNL     1     -10.744   9.123  68.525  1.00  0.00    -0.116 A  
HETATM   25  C   UNL     1     -11.007   8.645  69.855  1.00  0.00    -0.169 A  
HETATM   26  C   UNL     1     -11.336   9.339  71.080  1.00  0.00    -0.412 A  
HETATM   27  C   UNL     1     -11.456   8.519  72.176  1.00  0.00    -0.376 A  
HETATM   28  S   UNL     1     -11.242   6.887  71.764  1.00  0.00    -0.263 SA 
HETATM   29  C   UNL     1     -10.993   7.264  70.098  1.00  0.00    -0.260 A  
HETATM   30  C   UNL     1     -10.780   6.322  69.076  1.00  0.00    -0.362 A  
HETATM   31  C   UNL     1     -10.592   6.778  67.780  1.00  0.00    -0.307 A  
HETATM   32  C   UNL     1     -10.572   8.142  67.519  1.00  0.00    -0.291 A  
ENDBRANCH  21  24
ENDBRANCH  17  18
ENDBRANCH  16  17
ENDBRANCH  15  16
ENDBRANCH  14  15
ENDBRANCH  13  14
ENDBRANCH   7  13
TORSDOF 7
ENDMDL
MODEL       82
REMARK 921   NORMALIZED FREE ENERGY PREDICTED BY IDOCK:   -5.88 KCAL/MOL
REMARK 922        TOTAL FREE ENERGY PREDICTED BY IDOCK:   -9.58 KCAL/MOL
REMARK 923 INTER-LIGAND FREE ENERGY PREDICTED BY IDOCK:   -8.77 KCAL/MOL
REMARK 924 INTRA-LIGAND FREE ENERGY PREDICTED BY IDOCK:   -0.81 KCAL/MOL
REMARK 927      BINDING AFFINITY PREDICTED BY RF-SCORE:    0.00 PKD
ROOT
HETATM    1  O   UNL     1      -9.993  19.366  65.498  1.00  0.00    -0.334 OA 
HETATM    2  C   UNL     1     -10.200  18.699  66.505  1.00  0.00    -0.412 C  
HETATM    3  N   UNL     1     -10.635  17.403  66.451  1.00  0.00    -0.252 N  
HETATM    4  C   UNL     1     -10.908  16.632  67.590  1.00  0.00    -0.258 A  
HETATM    5  H   UNL     1     -10.768  16.976  65.535  1.00  0.00     0.000 HD 
HETATM    6  C   UNL     1     -11.367  15.323  67.452  1.00  0.00    -0.285 A  
HETATM    7  C   UNL     1     -11.662  14.568  68.590  1.00  0.00    -0.329 A  
HETATM    8  C   UNL     1      -9.982  19.276  67.855  1.00  0.00    -0.462 C  
HETATM    9  C   UNL     1     -11.490  15.139  69.858  1.00  0.00    -0.315 A  
HETATM   10  C   UNL     1     -10.228  18.570  68.965  1.00  0.00    -0.183 C  
HETATM   11  C   UNL     1     -11.022  16.448  69.994  1.00  0.00    -0.322 A  
HETATM   12  C   UNL     1     -10.724  17.200  68.858  1.00  0.00    -0.257 A  
ENDROOT
BRANCH   7  13
HETATM   13  O   UNL     1     -12.105  13.294  68.342  1.00  0.00    -0.333 OA 
BRANCH  13  14
HETATM   14  C   UNL     1     -11.133  12.410  67.782  1.00  0.00    -0.247 C  
BRANCH  14  15
HETATM   15  C   UNL     1     -11.112  11.099  68.560  1.00  0.00    -0.298 C  
BRANCH  15  16
HETATM   16  C   UNL     1     -11.653  11.273  69.982  1.00  0.00    -0.404 C  
BRANCH  16  17
HETATM   17  C   UNL     1     -12.493  10.097  70.512  1.00  0.00    -0.223 C  
BRANCH  17  18
HETATM   18  N   UNL     1     -12.024   9.540  71.788  1.00  0.00    -0.382 NA 
HETATM   19  C   UNL     1     -12.758   8.318  72.201  1.00  0.00    -0.329 C  
HETATM   20  C   UNL     1     -12.475   7.051  71.355  1.00  0.00    -0.384 C  
HETATM   21  N   UNL     1     -11.031   6.805  71.272  1.00  0.00    -0.242 NA 
HETATM   22  C   UNL     1     -10.578   9.196  71.722  1.00  0.00    -0.313 C  
HETATM   23  C   UNL     1     -10.226   7.961  70.848  1.00  0.00    -0.198 C  
BRANCH  21  24
HETATM   24  C   UNL     1     -10.534   5.509  71.092  1.00  0.00    -0.236 A  
HETATM   25  C   UNL     1     -10.307   4.544  72.132  1.00  0.00    -0.233 A  
HETATM   26  C   UNL     1     -10.685   4.526  73.528  1.00  0.00    -0.333 A  
HETATM   27  C   UNL     1     -10.221   3.435  74.222  1.00  0.00    -0.169 A  
HETATM   28  S   UNL     1      -9.372   2.366  73.215  1.00  0.00    -0.084 SA 
HETATM   29  C   UNL     1      -9.627   3.357  71.825  1.00  0.00    -0.155 A  
HETATM   30  C   UNL     1      -9.201   3.050  70.520  1.00  0.00    -0.210 A  
HETATM   31  C   UNL     1      -9.478   3.949  69.502  1.00  0.00    -0.259 A  
HETATM   32  C   UNL     1     -10.123   5.145  69.786  1.00  0.00    -0.336 A  
ENDBRANCH  21  24
ENDBRANCH  17  18
ENDBRANCH  16  17
ENDBRANCH  15  16
ENDBRANCH  14  15
ENDBRANCH  13  14
ENDBRANCH   7  13
TORSDOF 7
ENDMDL
MODEL       83
REMARK 921   NORMALIZED FREE ENERGY PREDICTED BY IDOCK:   -5.86 KCAL/MOL
REMARK 922        TOTAL FREE ENERGY PREDICTED BY IDOCK:   -9.57 KCAL/MOL
REMARK 923 INTER-LIGAND FREE ENERGY PREDICTED BY IDOCK:   -8.95 KCAL/MOL
REMARK 924 INTRA-LIGAND FREE ENERGY PREDICTED BY IDOCK:   -0.62 KCAL/MOL
REMARK 927      BINDING AFFINITY PREDICTED BY RF-SCORE:    0.00 PKD
ROOT
HETATM    1  O   UNL     1     -13.940   8.978  73.043  1.00  0.00    -0.367 OA 
HETATM    2  C   UNL     1     -13.304   9.612  72.209  1.00  0.00    -0.408 C  
HETATM    3  N   UNL     1     -13.396  10.972  72.094  1.00  0.00    -0.585 N  
HETATM    4  C   UNL     1     -12.702  11.714  71.128  1.00  0.00    -0.325 A  
HETATM    5  H   UNL     1     -14.001  11.472  72.745  1.00  0.00     0.000 HD 
HETATM    6  C   UNL     1     -12.863  13.097  71.062  1.00  0.00    -0.295 A  
HETATM    7  C   UNL     1     -12.189  13.828  70.081  1.00  0.00    -0.356 A  
HETATM    8  C   UNL     1     -12.386   8.921  71.270  1.00  0.00    -0.342 C  
HETATM    9  C   UNL     1     -11.357  13.158  69.174  1.00  0.00    -0.335 A  
HETATM   10  C   UNL     1     -11.704   9.596  70.337  1.00  0.00    -0.266 C  
HETATM   11  C   UNL     1     -11.190  11.773  69.247  1.00  0.00    -0.318 A  
HETATM   12  C   UNL     1     -11.860  11.045  70.229  1.00  0.00    -0.456 A  
ENDROOT
BRANCH   7  13
HETATM   13  O   UNL     1     -12.417  15.181  70.106  1.00  0.00    -0.340 OA 
BRANCH  13  14
HETATM   14  C   UNL     1     -11.788  15.924  69.063  1.00  0.00    -0.318 C  
BRANCH  14  15
HETATM   15  C   UNL     1     -10.777  16.900  69.655  1.00  0.00    -0.151 C  
BRANCH  15  16
HETATM   16  C   UNL     1      -9.863  17.495  68.580  1.00  0.00    -0.330 C  
BRANCH  16  17
HETATM   17  C   UNL     1      -8.385  17.074  68.670  1.00  0.00    -0.264 C  
BRANCH  17  18
HETATM   18  N   UNL     1      -7.788  16.669  67.390  1.00  0.00    -0.158 NA 
HETATM   19  C   UNL     1      -7.249  15.287  67.404  1.00  0.00    -0.204 C  
HETATM   20  C   UNL     1      -8.308  14.158  67.454  1.00  0.00    -0.197 C  
HETATM   21  N   UNL     1      -9.296  14.335  66.385  1.00  0.00    -0.272 NA 
HETATM   22  C   UNL     1      -8.783  16.754  66.286  1.00  0.00    -0.307 C  
HETATM   23  C   UNL     1      -9.899  15.675  66.311  1.00  0.00    -0.295 C  
BRANCH  21  24
HETATM   24  C   UNL     1      -9.976  13.237  65.848  1.00  0.00    -0.272 A  
HETATM   25  C   UNL     1      -9.482  11.889  65.789  1.00  0.00    -0.210 A  
HETATM   26  C   UNL     1      -8.333  11.257  66.400  1.00  0.00    -0.159 A  
HETATM   27  C   UNL     1      -8.162   9.940  66.047  1.00  0.00    -0.119 A  
HETATM   28  S   UNL     1      -9.403   9.398  65.025  1.00  0.00    -0.112 SA 
HETATM   29  C   UNL     1     -10.195  10.932  65.051  1.00  0.00    -0.303 A  
HETATM   30  C   UNL     1     -11.407  11.231  64.406  1.00  0.00    -0.109 A  
HETATM   31  C   UNL     1     -11.921  12.514  64.516  1.00  0.00    -0.472 A  
HETATM   32  C   UNL     1     -11.219  13.486  65.216  1.00  0.00    -0.304 A  
ENDBRANCH  21  24
ENDBRANCH  17  18
ENDBRANCH  16  17
ENDBRANCH  15  16
ENDBRANCH  14  15
ENDBRANCH  13  14
ENDBRANCH   7  13
TORSDOF 7
ENDMDL
MODEL       84
REMARK 921   NORMALIZED FREE ENERGY PREDICTED BY IDOCK:   -5.86 KCAL/MOL
REMARK 922        TOTAL FREE ENERGY PREDICTED BY IDOCK:   -9.56 KCAL/MOL
REMARK 923 INTER-LIGAND FREE ENERGY PREDICTED BY IDOCK:   -8.89 KCAL/MOL
REMARK 924 INTRA-LIGAND FREE ENERGY PREDICTED BY IDOCK:   -0.67 KCAL/MOL
REMARK 927      BINDING AFFINITY PREDICTED BY RF-SCORE:    0.00 PKD
ROOT
HETATM    1  O   UNL     1      -9.882   4.991  65.725  1.00  0.00    -0.166 OA 
HETATM    2  C   UNL     1      -9.975   4.984  66.948  1.00  0.00    -0.212 C  
HETATM    3  N   UNL     1     -10.697   5.919  67.635  1.00  0.00    -0.270 N  
HETATM    4  C   UNL     1     -10.791   5.948  69.034  1.00  0.00    -0.313 A  
HETATM    5  H   UNL     1     -11.193   6.634  67.103  1.00  0.00     0.000 HD 
HETATM    6  C   UNL     1     -11.532   6.947  69.663  1.00  0.00    -0.204 A  
HETATM    7  C   UNL     1     -11.601   6.986  71.058  1.00  0.00    -0.320 A  
HETATM    8  C   UNL     1      -9.297   3.937  67.752  1.00  0.00    -0.230 C  
HETATM    9  C   UNL     1     -10.923   6.015  71.807  1.00  0.00    -0.323 A  
HETATM   10  C   UNL     1      -9.367   3.929  69.089  1.00  0.00    -0.240 C  
HETATM   11  C   UNL     1     -10.188   5.010  71.174  1.00  0.00    -0.281 A  
HETATM   12  C   UNL     1     -10.123   4.969  69.782  1.00  0.00    -0.337 A  
ENDROOT
BRANCH   7  13
HETATM   13  O   UNL     1     -12.357   8.008  71.573  1.00  0.00    -0.295 OA 
BRANCH  13  14
HETATM   14  C   UNL     1     -11.810   9.315  71.401  1.00  0.00    -0.358 C  
BRANCH  14  15
HETATM   15  C   UNL     1     -12.894  10.275  70.924  1.00  0.00    -0.463 C  
BRANCH  15  16
HETATM   16  C   UNL     1     -12.354  11.282  69.903  1.00  0.00    -0.301 C  
BRANCH  16  17
HETATM   17  C   UNL     1     -11.968  12.656  70.479  1.00  0.00    -0.192 C  
BRANCH  17  18
HETATM   18  N   UNL     1     -12.497  13.802  69.728  1.00  0.00    -0.241 NA 
HETATM   19  C   UNL     1     -12.316  15.098  70.429  1.00  0.00    -0.363 C  
HETATM   20  C   UNL     1     -10.858  15.615  70.510  1.00  0.00    -0.326 C  
HETATM   21  N   UNL     1     -10.249  15.638  69.176  1.00  0.00    -0.218 NA 
HETATM   22  C   UNL     1     -11.844  13.915  68.395  1.00  0.00    -0.374 C  
HETATM   23  C   UNL     1     -10.364  14.383  68.417  1.00  0.00    -0.244 C  
BRANCH  21  24
HETATM   24  C   UNL     1      -9.226  16.543  68.871  1.00  0.00    -0.258 A  
HETATM   25  C   UNL     1      -9.393  17.810  68.213  1.00  0.00    -0.288 A  
HETATM   26  C   UNL     1     -10.575  18.576  67.885  1.00  0.00    -0.385 A  
HETATM   27  C   UNL     1     -10.320  19.732  67.188  1.00  0.00    -0.458 A  
HETATM   28  S   UNL     1      -8.656  19.971  66.957  1.00  0.00    -0.341 SA 
HETATM   29  C   UNL     1      -8.256  18.521  67.804  1.00  0.00    -0.251 A  
HETATM   30  C   UNL     1      -6.951  18.064  68.058  1.00  0.00    -0.211 A  
HETATM   31  C   UNL     1      -6.786  16.875  68.751  1.00  0.00    -0.190 A  
HETATM   32  C   UNL     1      -7.896  16.137  69.141  1.00  0.00    -0.232 A  
ENDBRANCH  21  24
ENDBRANCH  17  18
ENDBRANCH  16  17
ENDBRANCH  15  16
ENDBRANCH  14  15
ENDBRANCH  13  14
ENDBRANCH   7  13
TORSDOF 7
ENDMDL
MODEL       85
REMARK 921   NORMALIZED FREE ENERGY PREDICTED BY IDOCK:   -5.85 KCAL/MOL
REMARK 922        TOTAL FREE ENERGY PREDICTED BY IDOCK:   -9.55 KCAL/MOL
REMARK 923 INTER-LIGAND FREE ENERGY PREDICTED BY IDOCK:   -8.29 KCAL/MOL
REMARK 924 INTRA-LIGAND FREE ENERGY PREDICTED BY IDOCK:   -1.27 KCAL/MOL
REMARK 927      BINDING AFFINITY PREDICTED BY RF-SCORE:    0.00 PKD
ROOT
HETATM    1  O   UNL     1      -9.111  10.872  66.316  1.00  0.00    -0.166 OA 
HETATM    2  C   UNL     1      -8.490  11.593  67.090  1.00  0.00    -0.162 C  
HETATM    3  N   UNL     1      -8.315  12.930  66.867  1.00  0.00    -0.382 N  
HETATM    4  C   UNL     1      -7.583  13.766  67.721  1.00  0.00    -0.169 A  
HETATM    5  H   UNL     1      -8.739  13.341  66.035  1.00  0.00     0.000 HD 
HETATM    6  C   UNL     1      -7.432  15.118  67.414  1.00  0.00    -0.239 A  
HETATM    7  C   UNL     1      -6.680  15.941  68.256  1.00  0.00    -0.118 A  
HETATM    8  C   UNL     1      -7.891  11.036  68.328  1.00  0.00    -0.121 C  
HETATM    9  C   UNL     1      -6.086  15.394  69.401  1.00  0.00    -0.120 A  
HETATM   10  C   UNL     1      -7.189  11.804  69.170  1.00  0.00    -0.043 C  
HETATM   11  C   UNL     1      -6.245  14.041  69.711  1.00  0.00    -0.137 A  
HETATM   12  C   UNL     1      -6.999  13.222  68.873  1.00  0.00    -0.096 A  
ENDROOT
BRANCH   7  13
HETATM   13  O   UNL     1      -6.598  17.252  67.862  1.00  0.00    -0.148 OA 
BRANCH  13  14
HETATM   14  C   UNL     1      -5.920  18.119  68.771  1.00  0.00    -0.198 C  
BRANCH  14  15
HETATM   15  C   UNL     1      -6.041  19.565  68.300  1.00  0.00    -0.250 C  
BRANCH  15  16
HETATM   16  C   UNL     1      -7.493  20.051  68.324  1.00  0.00    -0.279 C  
BRANCH  16  17
HETATM   17  C   UNL     1      -8.298  19.778  67.041  1.00  0.00    -0.309 C  
BRANCH  17  18
HETATM   18  N   UNL     1      -9.755  19.823  67.214  1.00  0.00    -0.347 NA 
HETATM   19  C   UNL     1     -10.493  19.043  66.190  1.00  0.00    -0.467 C  
HETATM   20  C   UNL     1     -10.364  17.503  66.304  1.00  0.00    -0.335 C  
HETATM   21  N   UNL     1     -10.702  17.060  67.661  1.00  0.00    -0.328 NA 
HETATM   22  C   UNL     1     -10.151  19.303  68.551  1.00  0.00    -0.430 C  
HETATM   23  C   UNL     1      -9.998  17.770  68.740  1.00  0.00    -0.367 C  
BRANCH  21  24
HETATM   24  C   UNL     1     -11.212  15.778  67.890  1.00  0.00    -0.313 A  
HETATM   25  C   UNL     1     -11.661  15.266  69.155  1.00  0.00    -0.355 A  
HETATM   26  C   UNL     1     -11.910  15.915  70.424  1.00  0.00    -0.358 A  
HETATM   27  C   UNL     1     -12.280  15.058  71.431  1.00  0.00    -0.328 A  
HETATM   28  S   UNL     1     -12.403  13.458  70.880  1.00  0.00    -0.275 SA 
HETATM   29  C   UNL     1     -11.967  13.902  69.270  1.00  0.00    -0.357 A  
HETATM   30  C   UNL     1     -11.900  13.022  68.175  1.00  0.00    -0.381 A  
HETATM   31  C   UNL     1     -11.531  13.526  66.938  1.00  0.00    -0.374 A  
HETATM   32  C   UNL     1     -11.194  14.867  66.806  1.00  0.00    -0.338 A  
ENDBRANCH  21  24
ENDBRANCH  17  18
ENDBRANCH  16  17
ENDBRANCH  15  16
ENDBRANCH  14  15
ENDBRANCH  13  14
ENDBRANCH   7  13
TORSDOF 7
ENDMDL
MODEL       86
REMARK 921   NORMALIZED FREE ENERGY PREDICTED BY IDOCK:   -5.85 KCAL/MOL
REMARK 922        TOTAL FREE ENERGY PREDICTED BY IDOCK:   -9.55 KCAL/MOL
REMARK 923 INTER-LIGAND FREE ENERGY PREDICTED BY IDOCK:   -8.94 KCAL/MOL
REMARK 924 INTRA-LIGAND FREE ENERGY PREDICTED BY IDOCK:   -0.61 KCAL/MOL
REMARK 927      BINDING AFFINITY PREDICTED BY RF-SCORE:    0.00 PKD
ROOT
HETATM    1  O   UNL     1     -10.884   2.377  74.216  1.00  0.00    -0.160 OA 
HETATM    2  C   UNL     1     -10.717   3.238  73.360  1.00  0.00    -0.202 C  
HETATM    3  N   UNL     1     -11.219   4.504  73.484  1.00  0.00    -0.316 N  
HETATM    4  C   UNL     1     -11.067   5.495  72.504  1.00  0.00    -0.270 A  
HETATM    5  H   UNL     1     -11.731   4.740  74.334  1.00  0.00     0.000 HD 
HETATM    6  C   UNL     1     -11.625   6.758  72.696  1.00  0.00    -0.176 A  
HETATM    7  C   UNL     1     -11.492   7.733  71.705  1.00  0.00    -0.261 A  
HETATM    8  C   UNL     1      -9.946   2.942  72.127  1.00  0.00    -0.235 C  
HETATM    9  C   UNL     1     -10.796   7.427  70.528  1.00  0.00    -0.259 A  
HETATM   10  C   UNL     1      -9.776   3.862  71.171  1.00  0.00    -0.248 C  
HETATM   11  C   UNL     1     -10.230   6.164  70.341  1.00  0.00    -0.256 A  
HETATM   12  C   UNL     1     -10.360   5.192  71.332  1.00  0.00    -0.273 A  
ENDROOT
BRANCH   7  13
HETATM   13  O   UNL     1     -12.077   8.939  71.996  1.00  0.00    -0.338 OA 
BRANCH  13  14
HETATM   14  C   UNL     1     -11.686  10.025  71.156  1.00  0.00    -0.387 C  
BRANCH  14  15
HETATM   15  C   UNL     1     -12.854  10.987  70.970  1.00  0.00    -0.442 C  
BRANCH  15  16
HETATM   16  C   UNL     1     -12.380  12.439  70.852  1.00  0.00    -0.358 C  
BRANCH  16  17
HETATM   17  C   UNL     1     -11.811  12.833  69.477  1.00  0.00    -0.316 C  
BRANCH  17  18
HETATM   18  N   UNL     1     -12.284  14.128  68.970  1.00  0.00    -0.303 NA 
HETATM   19  C   UNL     1     -12.059  15.248  69.916  1.00  0.00    -0.343 C  
HETATM   20  C   UNL     1     -10.582  15.677  70.103  1.00  0.00    -0.334 C  
HETATM   21  N   UNL     1      -9.957  15.941  68.802  1.00  0.00    -0.211 NA 
HETATM   22  C   UNL     1     -11.612  14.477  67.688  1.00  0.00    -0.378 C  
HETATM   23  C   UNL     1     -10.115  14.869  67.807  1.00  0.00    -0.234 C  
BRANCH  21  24
HETATM   24  C   UNL     1      -8.895  16.845  68.688  1.00  0.00    -0.262 A  
HETATM   25  C   UNL     1      -8.974  18.167  68.131  1.00  0.00    -0.298 A  
HETATM   26  C   UNL     1     -10.103  18.986  67.750  1.00  0.00    -0.453 A  
HETATM   27  C   UNL     1      -9.759  20.192  67.189  1.00  0.00    -0.439 A  
HETATM   28  S   UNL     1      -8.077  20.412  67.155  1.00  0.00    -0.298 SA 
HETATM   29  C   UNL     1      -7.789  18.885  67.907  1.00  0.00    -0.263 A  
HETATM   30  C   UNL     1      -6.525  18.377  68.256  1.00  0.00    -0.205 A  
HETATM   31  C   UNL     1      -6.452  17.129  68.854  1.00  0.00    -0.192 A  
HETATM   32  C   UNL     1      -7.608  16.387  69.059  1.00  0.00    -0.232 A  
ENDBRANCH  21  24
ENDBRANCH  17  18
ENDBRANCH  16  17
ENDBRANCH  15  16
ENDBRANCH  14  15
ENDBRANCH  13  14
ENDBRANCH   7  13
TORSDOF 7
ENDMDL
MODEL       87
REMARK 921   NORMALIZED FREE ENERGY PREDICTED BY IDOCK:   -5.85 KCAL/MOL
REMARK 922        TOTAL FREE ENERGY PREDICTED BY IDOCK:   -9.55 KCAL/MOL
REMARK 923 INTER-LIGAND FREE ENERGY PREDICTED BY IDOCK:   -8.05 KCAL/MOL
REMARK 924 INTRA-LIGAND FREE ENERGY PREDICTED BY IDOCK:   -1.50 KCAL/MOL
REMARK 927      BINDING AFFINITY PREDICTED BY RF-SCORE:    0.00 PKD
ROOT
HETATM    1  O   UNL     1     -12.075  12.397  63.716  1.00  0.00    -0.442 OA 
HETATM    2  C   UNL     1     -11.876  12.927  64.804  1.00  0.00    -0.363 C  
HETATM    3  N   UNL     1     -11.971  12.243  65.983  1.00  0.00    -0.355 N  
HETATM    4  C   UNL     1     -11.778  12.836  67.239  1.00  0.00    -0.378 A  
HETATM    5  H   UNL     1     -12.194  11.248  65.948  1.00  0.00     0.000 HD 
HETATM    6  C   UNL     1     -11.911  12.074  68.399  1.00  0.00    -0.360 A  
HETATM    7  C   UNL     1     -11.743  12.677  69.648  1.00  0.00    -0.303 A  
HETATM    8  C   UNL     1     -11.513  14.364  64.891  1.00  0.00    -0.386 C  
HETATM    9  C   UNL     1     -11.441  14.043  69.717  1.00  0.00    -0.293 A  
HETATM   10  C   UNL     1     -11.317  14.965  66.070  1.00  0.00    -0.306 C  
HETATM   11  C   UNL     1     -11.299  14.803  68.553  1.00  0.00    -0.309 A  
HETATM   12  C   UNL     1     -11.463  14.200  67.307  1.00  0.00    -0.371 A  
ENDROOT
BRANCH   7  13
HETATM   13  O   UNL     1     -11.895  11.837  70.722  1.00  0.00    -0.242 OA 
BRANCH  13  14
HETATM   14  C   UNL     1     -12.252  10.494  70.398  1.00  0.00    -0.328 C  
BRANCH  14  15
HETATM   15  C   UNL     1     -13.164   9.922  71.479  1.00  0.00    -0.501 C  
BRANCH  15  16
HETATM   16  C   UNL     1     -12.537   8.705  72.166  1.00  0.00    -0.451 C  
BRANCH  16  17
HETATM   17  C   UNL     1     -11.023   8.536  71.947  1.00  0.00    -0.324 C  
BRANCH  17  18
HETATM   18  N   UNL     1     -10.601   7.164  71.637  1.00  0.00    -0.207 NA 
HETATM   19  C   UNL     1     -11.337   6.567  70.495  1.00  0.00    -0.367 C  
HETATM   20  C   UNL     1     -11.005   7.159  69.103  1.00  0.00    -0.113 C  
HETATM   21  N   UNL     1      -9.556   7.141  68.873  1.00  0.00    -0.142 NA 
HETATM   22  C   UNL     1      -9.149   7.111  71.314  1.00  0.00    -0.151 C  
HETATM   23  C   UNL     1      -8.747   7.734  69.950  1.00  0.00    -0.142 C  
BRANCH  21  24
HETATM   24  C   UNL     1      -9.037   7.066  67.576  1.00  0.00    -0.122 A  
HETATM   25  C   UNL     1      -9.021   8.134  66.614  1.00  0.00    -0.181 A  
HETATM   26  C   UNL     1      -9.307   9.546  66.738  1.00  0.00    -0.196 A  
HETATM   27  C   UNL     1      -9.238  10.240  65.554  1.00  0.00    -0.190 A  
HETATM   28  S   UNL     1      -8.769   9.239  64.267  1.00  0.00    -0.136 SA 
HETATM   29  C   UNL     1      -8.643   7.856  65.293  1.00  0.00    -0.060 A  
HETATM   30  C   UNL     1      -8.227   6.577  64.882  1.00  0.00    -0.097 A  
HETATM   31  C   UNL     1      -8.178   5.560  65.823  1.00  0.00    -0.124 A  
HETATM   32  C   UNL     1      -8.576   5.803  67.131  1.00  0.00    -0.109 A  
ENDBRANCH  21  24
ENDBRANCH  17  18
ENDBRANCH  16  17
ENDBRANCH  15  16
ENDBRANCH  14  15
ENDBRANCH  13  14
ENDBRANCH   7  13
TORSDOF 7
ENDMDL
MODEL       88
REMARK 921   NORMALIZED FREE ENERGY PREDICTED BY IDOCK:   -5.85 KCAL/MOL
REMARK 922        TOTAL FREE ENERGY PREDICTED BY IDOCK:   -9.55 KCAL/MOL
REMARK 923 INTER-LIGAND FREE ENERGY PREDICTED BY IDOCK:   -8.41 KCAL/MOL
REMARK 924 INTRA-LIGAND FREE ENERGY PREDICTED BY IDOCK:   -1.13 KCAL/MOL
REMARK 927      BINDING AFFINITY PREDICTED BY RF-SCORE:    0.00 PKD
ROOT
HETATM    1  O   UNL     1     -11.621  16.594  63.879  1.00  0.00    -1.204 OA 
HETATM    2  C   UNL     1     -11.476  15.570  64.537  1.00  0.00    -0.308 C  
HETATM    3  N   UNL     1     -10.411  15.378  65.374  1.00  0.00    -0.372 N  
HETATM    4  C   UNL     1     -10.210  14.203  66.111  1.00  0.00    -0.304 A  
HETATM    5  H   UNL     1      -9.728  16.130  65.466  1.00  0.00     0.000 HD 
HETATM    6  C   UNL     1      -9.087  14.076  66.929  1.00  0.00    -0.262 A  
HETATM    7  C   UNL     1      -8.879  12.893  67.641  1.00  0.00    -0.187 A  
HETATM    8  C   UNL     1     -12.470  14.471  64.456  1.00  0.00    -0.346 C  
HETATM    9  C   UNL     1      -9.804  11.847  67.524  1.00  0.00    -0.194 A  
HETATM   10  C   UNL     1     -12.314  13.336  65.148  1.00  0.00    -0.516 C  
HETATM   11  C   UNL     1     -10.932  11.980  66.711  1.00  0.00    -0.329 A  
HETATM   12  C   UNL     1     -11.142  13.162  66.004  1.00  0.00    -0.299 A  
ENDROOT
BRANCH   7  13
HETATM   13  O   UNL     1      -7.746  12.875  68.415  1.00  0.00    -0.126 OA 
BRANCH  13  14
HETATM   14  C   UNL     1      -6.589  13.456  67.814  1.00  0.00    -0.164 C  
BRANCH  14  15
HETATM   15  C   UNL     1      -5.426  12.472  67.863  1.00  0.00    -0.094 C  
BRANCH  15  16
HETATM   16  C   UNL     1      -5.763  11.234  68.700  1.00  0.00    -0.042 C  
BRANCH  16  17
HETATM   17  C   UNL     1      -6.269  10.020  67.900  1.00  0.00    -0.057 C  
BRANCH  17  18
HETATM   18  N   UNL     1      -6.228   8.748  68.633  1.00  0.00    -0.045 NA 
HETATM   19  C   UNL     1      -6.533   8.891  70.078  1.00  0.00    -0.042 C  
HETATM   20  C   UNL     1      -8.006   9.229  70.419  1.00  0.00    -0.156 C  
HETATM   21  N   UNL     1      -8.912   8.272  69.773  1.00  0.00    -0.145 NA 
HETATM   22  C   UNL     1      -7.196   7.771  68.062  1.00  0.00    -0.087 C  
HETATM   23  C   UNL     1      -8.693   8.083  68.331  1.00  0.00    -0.130 C  
BRANCH  21  24
HETATM   24  C   UNL     1     -10.163   7.983  70.329  1.00  0.00    -0.200 A  
HETATM   25  C   UNL     1     -11.177   8.944  70.664  1.00  0.00    -0.308 A  
HETATM   26  C   UNL     1     -11.305  10.353  70.362  1.00  0.00    -0.417 A  
HETATM   27  C   UNL     1     -12.410  10.949  70.921  1.00  0.00    -0.400 A  
HETATM   28  S   UNL     1     -13.363   9.833  71.772  1.00  0.00    -0.404 SA 
HETATM   29  C   UNL     1     -12.302   8.526  71.390  1.00  0.00    -0.297 A  
HETATM   30  C   UNL     1     -12.500   7.184  71.761  1.00  0.00    -0.385 A  
HETATM   31  C   UNL     1     -11.556   6.243  71.383  1.00  0.00    -0.338 A  
HETATM   32  C   UNL     1     -10.420   6.637  70.689  1.00  0.00    -0.253 A  
ENDBRANCH  21  24
ENDBRANCH  17  18
ENDBRANCH  16  17
ENDBRANCH  15  16
ENDBRANCH  14  15
ENDBRANCH  13  14
ENDBRANCH   7  13
TORSDOF 7
ENDMDL
MODEL       89
REMARK 921   NORMALIZED FREE ENERGY PREDICTED BY IDOCK:   -5.83 KCAL/MOL
REMARK 922        TOTAL FREE ENERGY PREDICTED BY IDOCK:   -9.52 KCAL/MOL
REMARK 923 INTER-LIGAND FREE ENERGY PREDICTED BY IDOCK:   -8.21 KCAL/MOL
REMARK 924 INTRA-LIGAND FREE ENERGY PREDICTED BY IDOCK:   -1.31 KCAL/MOL
REMARK 927      BINDING AFFINITY PREDICTED BY RF-SCORE:    0.00 PKD
ROOT
HETATM    1  O   UNL     1     -13.652   8.755  73.046  1.00  0.00    -0.246 OA 
HETATM    2  C   UNL     1     -13.058   9.411  72.197  1.00  0.00    -0.442 C  
HETATM    3  N   UNL     1     -13.191  10.768  72.091  1.00  0.00    -0.591 N  
HETATM    4  C   UNL     1     -12.547  11.533  71.110  1.00  0.00    -0.359 A  
HETATM    5  H   UNL     1     -13.792  11.248  72.761  1.00  0.00     0.000 HD 
HETATM    6  C   UNL     1     -12.749  12.912  71.055  1.00  0.00    -0.338 A  
HETATM    7  C   UNL     1     -12.123  13.666  70.058  1.00  0.00    -0.348 A  
HETATM    8  C   UNL     1     -12.147   8.750  71.230  1.00  0.00    -0.344 C  
HETATM    9  C   UNL     1     -11.298  13.023  69.126  1.00  0.00    -0.328 A  
HETATM   10  C   UNL     1     -11.511   9.448  70.281  1.00  0.00    -0.223 C  
HETATM   11  C   UNL     1     -11.090  11.643  69.188  1.00  0.00    -0.302 A  
HETATM   12  C   UNL     1     -11.710  10.892  70.185  1.00  0.00    -0.433 A  
ENDROOT
BRANCH   7  13
HETATM   13  O   UNL     1     -12.389  15.011  70.097  1.00  0.00    -0.323 OA 
BRANCH  13  14
HETATM   14  C   UNL     1     -11.972  15.747  68.947  1.00  0.00    -0.252 C  
BRANCH  14  15
HETATM   15  C   UNL     1     -10.838  16.696  69.320  1.00  0.00    -0.310 C  
BRANCH  15  16
HETATM   16  C   UNL     1     -10.176  17.305  68.080  1.00  0.00    -0.343 C  
BRANCH  16  17
HETATM   17  C   UNL     1      -8.637  17.267  68.073  1.00  0.00    -0.234 C  
BRANCH  17  18
HETATM   18  N   UNL     1      -8.049  16.625  66.891  1.00  0.00    -0.191 NA 
HETATM   19  C   UNL     1      -6.799  15.882  67.186  1.00  0.00    -0.164 C  
HETATM   20  C   UNL     1      -6.974  14.581  68.008  1.00  0.00    -0.141 C  
HETATM   21  N   UNL     1      -7.977  13.712  67.383  1.00  0.00    -0.177 NA 
HETATM   22  C   UNL     1      -9.006  15.668  66.270  1.00  0.00    -0.342 C  
HETATM   23  C   UNL     1      -9.259  14.364  67.074  1.00  0.00    -0.234 C  
BRANCH  21  24
HETATM   24  C   UNL     1      -7.927  12.324  67.549  1.00  0.00    -0.166 A  
HETATM   25  C   UNL     1      -8.596  11.354  66.726  1.00  0.00    -0.166 A  
HETATM   26  C   UNL     1      -9.288  11.477  65.462  1.00  0.00    -0.203 A  
HETATM   27  C   UNL     1      -9.857  10.309  65.017  1.00  0.00    -0.329 A  
HETATM   28  S   UNL     1      -9.531   9.013  66.063  1.00  0.00    -0.253 SA 
HETATM   29  C   UNL     1      -8.608  10.010  67.128  1.00  0.00    -0.128 A  
HETATM   30  C   UNL     1      -7.944   9.565  68.284  1.00  0.00    -0.094 A  
HETATM   31  C   UNL     1      -7.242  10.487  69.045  1.00  0.00    -0.090 A  
HETATM   32  C   UNL     1      -7.239  11.828  68.684  1.00  0.00    -0.112 A  
ENDBRANCH  21  24
ENDBRANCH  17  18
ENDBRANCH  16  17
ENDBRANCH  15  16
ENDBRANCH  14  15
ENDBRANCH  13  14
ENDBRANCH   7  13
TORSDOF 7
ENDMDL
MODEL       90
REMARK 921   NORMALIZED FREE ENERGY PREDICTED BY IDOCK:   -5.83 KCAL/MOL
REMARK 922        TOTAL FREE ENERGY PREDICTED BY IDOCK:   -9.52 KCAL/MOL
REMARK 923 INTER-LIGAND FREE ENERGY PREDICTED BY IDOCK:   -7.72 KCAL/MOL
REMARK 924 INTRA-LIGAND FREE ENERGY PREDICTED BY IDOCK:   -1.80 KCAL/MOL
REMARK 927      BINDING AFFINITY PREDICTED BY RF-SCORE:    0.00 PKD
ROOT
HETATM    1  O   UNL     1      -6.750  10.059  66.409  1.00  0.00    -0.081 OA 
HETATM    2  C   UNL     1      -7.574   9.212  66.735  1.00  0.00    -0.087 C  
HETATM    3  N   UNL     1      -7.591   8.643  67.978  1.00  0.00    -0.097 N  
HETATM    4  C   UNL     1      -8.504   7.651  68.361  1.00  0.00    -0.125 A  
HETATM    5  H   UNL     1      -6.903   8.957  68.663  1.00  0.00     0.000 HD 
HETATM    6  C   UNL     1      -8.446   7.105  69.643  1.00  0.00    -0.134 A  
HETATM    7  C   UNL     1      -9.342   6.099  70.011  1.00  0.00    -0.154 A  
HETATM    8  C   UNL     1      -8.612   8.758  65.776  1.00  0.00    -0.185 C  
HETATM    9  C   UNL     1     -10.291   5.650  69.082  1.00  0.00    -0.328 A  
HETATM   10  C   UNL     1      -9.504   7.815  66.107  1.00  0.00    -0.135 C  
HETATM   11  C   UNL     1     -10.354   6.204  67.801  1.00  0.00    -0.247 A  
HETATM   12  C   UNL     1      -9.462   7.212  67.437  1.00  0.00    -0.156 A  
ENDROOT
BRANCH   7  13
HETATM   13  O   UNL     1      -9.197   5.634  71.293  1.00  0.00    -0.144 OA 
BRANCH  13  14
HETATM   14  C   UNL     1     -10.286   4.853  71.784  1.00  0.00    -0.179 C  
BRANCH  14  15
HETATM   15  C   UNL     1     -11.058   5.639  72.839  1.00  0.00    -0.337 C  
BRANCH  15  16
HETATM   16  C   UNL     1     -12.408   6.129  72.308  1.00  0.00    -0.106 C  
BRANCH  16  17
HETATM   17  C   UNL     1     -12.367   7.463  71.541  1.00  0.00    -0.353 C  
BRANCH  17  18
HETATM   18  N   UNL     1     -11.889   8.606  72.331  1.00  0.00    -0.362 NA 
HETATM   19  C   UNL     1     -10.632   9.197  71.808  1.00  0.00    -0.313 C  
HETATM   20  C   UNL     1     -10.763   9.967  70.470  1.00  0.00    -0.317 C  
HETATM   21  N   UNL     1     -11.829  10.970  70.559  1.00  0.00    -0.353 NA 
HETATM   22  C   UNL     1     -12.911   9.687  72.378  1.00  0.00    -0.236 C  
HETATM   23  C   UNL     1     -13.121  10.464  71.051  1.00  0.00    -0.362 C  
BRANCH  21  24
HETATM   24  C   UNL     1     -11.790  12.129  69.777  1.00  0.00    -0.327 A  
HETATM   25  C   UNL     1     -11.481  12.186  68.374  1.00  0.00    -0.356 A  
HETATM   26  C   UNL     1     -11.341  11.149  67.376  1.00  0.00    -0.329 A  
HETATM   27  C   UNL     1     -10.974  11.609  66.135  1.00  0.00    -0.288 A  
HETATM   28  S   UNL     1     -10.845  13.301  66.106  1.00  0.00    -0.282 SA 
HETATM   29  C   UNL     1     -11.293  13.437  67.768  1.00  0.00    -0.294 A  
HETATM   30  C   UNL     1     -11.446  14.644  68.471  1.00  0.00    -0.327 A  
HETATM   31  C   UNL     1     -11.808  14.594  69.808  1.00  0.00    -0.366 A  
HETATM   32  C   UNL     1     -11.972  13.368  70.438  1.00  0.00    -0.358 A  
ENDBRANCH  21  24
ENDBRANCH  17  18
ENDBRANCH  16  17
ENDBRANCH  15  16
ENDBRANCH  14  15
ENDBRANCH  13  14
ENDBRANCH   7  13
TORSDOF 7
ENDMDL
MODEL       91
REMARK 921   NORMALIZED FREE ENERGY PREDICTED BY IDOCK:   -5.83 KCAL/MOL
REMARK 922        TOTAL FREE ENERGY PREDICTED BY IDOCK:   -9.51 KCAL/MOL
REMARK 923 INTER-LIGAND FREE ENERGY PREDICTED BY IDOCK:   -8.89 KCAL/MOL
REMARK 924 INTRA-LIGAND FREE ENERGY PREDICTED BY IDOCK:   -0.62 KCAL/MOL
REMARK 927      BINDING AFFINITY PREDICTED BY RF-SCORE:    0.00 PKD
ROOT
HETATM    1  O   UNL     1     -10.532  20.154  65.581  1.00  0.00    -0.416 OA 
HETATM    2  C   UNL     1     -10.396  19.289  66.439  1.00  0.00    -0.471 C  
HETATM    3  N   UNL     1     -10.563  17.958  66.172  1.00  0.00    -0.307 N  
HETATM    4  C   UNL     1     -10.444  16.955  67.143  1.00  0.00    -0.296 A  
HETATM    5  H   UNL     1     -10.786  17.681  65.216  1.00  0.00     0.000 HD 
HETATM    6  C   UNL     1     -10.647  15.619  66.797  1.00  0.00    -0.307 A  
HETATM    7  C   UNL     1     -10.553  14.626  67.775  1.00  0.00    -0.251 A  
HETATM    8  C   UNL     1     -10.036  19.653  67.832  1.00  0.00    -0.527 C  
HETATM    9  C   UNL     1     -10.252  14.988  69.095  1.00  0.00    -0.241 A  
HETATM   10  C   UNL     1      -9.910  18.723  68.786  1.00  0.00    -0.434 C  
HETATM   11  C   UNL     1     -10.040  16.325  69.438  1.00  0.00    -0.253 A  
HETATM   12  C   UNL     1     -10.130  17.315  68.461  1.00  0.00    -0.341 A  
ENDROOT
BRANCH   7  13
HETATM   13  O   UNL     1     -10.770  13.349  67.326  1.00  0.00    -0.257 OA 
BRANCH  13  14
HETATM   14  C   UNL     1     -11.928  12.706  67.857  1.00  0.00    -0.249 C  
BRANCH  14  15
HETATM   15  C   UNL     1     -11.532  11.403  68.544  1.00  0.00    -0.361 C  
BRANCH  15  16
HETATM   16  C   UNL     1     -11.941  11.391  70.020  1.00  0.00    -0.442 C  
BRANCH  16  17
HETATM   17  C   UNL     1     -11.657  10.076  70.768  1.00  0.00    -0.360 C  
BRANCH  17  18
HETATM   18  N   UNL     1     -10.399   9.419  70.389  1.00  0.00    -0.242 NA 
HETATM   19  C   UNL     1      -9.557   9.047  71.553  1.00  0.00    -0.270 C  
HETATM   20  C   UNL     1     -10.094   7.883  72.421  1.00  0.00    -0.248 C  
HETATM   21  N   UNL     1     -10.394   6.716  71.584  1.00  0.00    -0.204 NA 
HETATM   22  C   UNL     1     -10.659   8.180  69.606  1.00  0.00    -0.223 C  
HETATM   23  C   UNL     1     -11.244   6.991  70.415  1.00  0.00    -0.299 C  
BRANCH  21  24
HETATM   24  C   UNL     1     -10.336   5.421  72.111  1.00  0.00    -0.213 A  
HETATM   25  C   UNL     1      -9.826   4.260  71.434  1.00  0.00    -0.260 A  
HETATM   26  C   UNL     1      -9.086   4.113  70.200  1.00  0.00    -0.181 A  
HETATM   27  C   UNL     1      -8.829   2.809  69.852  1.00  0.00    -0.085 A  
HETATM   28  S   UNL     1      -9.409   1.722  71.018  1.00  0.00    -0.121 SA 
HETATM   29  C   UNL     1     -10.008   2.997  72.015  1.00  0.00    -0.154 A  
HETATM   30  C   UNL     1     -10.627   2.827  73.266  1.00  0.00    -0.262 A  
HETATM   31  C   UNL     1     -11.061   3.950  73.952  1.00  0.00    -0.239 A  
HETATM   32  C   UNL     1     -10.919   5.210  73.384  1.00  0.00    -0.381 A  
ENDBRANCH  21  24
ENDBRANCH  17  18
ENDBRANCH  16  17
ENDBRANCH  15  16
ENDBRANCH  14  15
ENDBRANCH  13  14
ENDBRANCH   7  13
TORSDOF 7
ENDMDL
MODEL       92
REMARK 921   NORMALIZED FREE ENERGY PREDICTED BY IDOCK:   -5.80 KCAL/MOL
REMARK 922        TOTAL FREE ENERGY PREDICTED BY IDOCK:   -9.48 KCAL/MOL
REMARK 923 INTER-LIGAND FREE ENERGY PREDICTED BY IDOCK:   -7.67 KCAL/MOL
REMARK 924 INTRA-LIGAND FREE ENERGY PREDICTED BY IDOCK:   -1.81 KCAL/MOL
REMARK 927      BINDING AFFINITY PREDICTED BY RF-SCORE:    0.00 PKD
ROOT
HETATM    1  O   UNL     1      -8.894   8.299  73.190  1.00  0.00    -0.234 OA 
HETATM    2  C   UNL     1      -9.341   7.886  72.125  1.00  0.00    -0.169 C  
HETATM    3  N   UNL     1      -8.544   7.632  71.043  1.00  0.00    -0.130 N  
HETATM    4  C   UNL     1      -9.036   7.189  69.808  1.00  0.00    -0.141 A  
HETATM    5  H   UNL     1      -7.538   7.774  71.140  1.00  0.00     0.000 HD 
HETATM    6  C   UNL     1      -8.161   6.971  68.745  1.00  0.00    -0.121 A  
HETATM    7  C   UNL     1      -8.661   6.555  67.509  1.00  0.00    -0.119 A  
HETATM    8  C   UNL     1     -10.794   7.634  71.960  1.00  0.00    -0.282 C  
HETATM    9  C   UNL     1     -10.040   6.360  67.355  1.00  0.00    -0.198 A  
HETATM   10  C   UNL     1     -11.301   7.207  70.798  1.00  0.00    -0.322 C  
HETATM   11  C   UNL     1     -10.914   6.570  68.424  1.00  0.00    -0.358 A  
HETATM   12  C   UNL     1     -10.415   6.982  69.658  1.00  0.00    -0.238 A  
ENDROOT
BRANCH   7  13
HETATM   13  O   UNL     1      -7.714   6.369  66.534  1.00  0.00    -0.096 OA 
BRANCH  13  14
HETATM   14  C   UNL     1      -6.927   7.519  66.223  1.00  0.00    -0.066 C  
BRANCH  14  15
HETATM   15  C   UNL     1      -7.262   8.016  64.821  1.00  0.00    -0.078 C  
BRANCH  15  16
HETATM   16  C   UNL     1      -8.277   9.163  64.852  1.00  0.00    -0.154 C  
BRANCH  16  17
HETATM   17  C   UNL     1      -8.218  10.057  66.104  1.00  0.00    -0.121 C  
BRANCH  17  18
HETATM   18  N   UNL     1      -8.930  11.335  65.974  1.00  0.00    -0.201 NA 
HETATM   19  C   UNL     1     -10.404  11.181  65.898  1.00  0.00    -0.259 C  
HETATM   20  C   UNL     1     -11.098  10.740  67.210  1.00  0.00    -0.270 C  
HETATM   21  N   UNL     1     -10.709  11.622  68.316  1.00  0.00    -0.202 NA 
HETATM   22  C   UNL     1      -8.629  12.233  67.122  1.00  0.00    -0.187 C  
HETATM   23  C   UNL     1      -9.260  11.815  68.478  1.00  0.00    -0.151 C  
BRANCH  21  24
HETATM   24  C   UNL     1     -11.563  11.824  69.406  1.00  0.00    -0.322 A  
HETATM   25  C   UNL     1     -11.936  13.099  69.956  1.00  0.00    -0.391 A  
HETATM   26  C   UNL     1     -11.743  14.449  69.475  1.00  0.00    -0.362 A  
HETATM   27  C   UNL     1     -12.198  15.421  70.332  1.00  0.00    -0.391 A  
HETATM   28  S   UNL     1     -12.925  14.752  71.711  1.00  0.00    -0.359 SA 
HETATM   29  C   UNL     1     -12.645  13.138  71.166  1.00  0.00    -0.314 A  
HETATM   30  C   UNL     1     -13.051  11.972  71.837  1.00  0.00    -0.475 A  
HETATM   31  C   UNL     1     -12.751  10.741  71.275  1.00  0.00    -0.546 A  
HETATM   32  C   UNL     1     -12.024  10.675  70.094  1.00  0.00    -0.417 A  
ENDBRANCH  21  24
ENDBRANCH  17  18
ENDBRANCH  16  17
ENDBRANCH  15  16
ENDBRANCH  14  15
ENDBRANCH  13  14
ENDBRANCH   7  13
TORSDOF 7
ENDMDL
MODEL       93
REMARK 921   NORMALIZED FREE ENERGY PREDICTED BY IDOCK:   -5.79 KCAL/MOL
REMARK 922        TOTAL FREE ENERGY PREDICTED BY IDOCK:   -9.47 KCAL/MOL
REMARK 923 INTER-LIGAND FREE ENERGY PREDICTED BY IDOCK:   -8.93 KCAL/MOL
REMARK 924 INTRA-LIGAND FREE ENERGY PREDICTED BY IDOCK:   -0.54 KCAL/MOL
REMARK 927      BINDING AFFINITY PREDICTED BY RF-SCORE:    0.00 PKD
ROOT
HETATM    1  O   UNL     1     -11.141   3.471  63.641  1.00  0.00    -0.271 OA 
HETATM    2  C   UNL     1     -10.609   3.806  64.693  1.00  0.00    -0.107 C  
HETATM    3  N   UNL     1     -11.012   4.903  65.403  1.00  0.00    -0.749 N  
HETATM    4  C   UNL     1     -10.398   5.322  66.592  1.00  0.00    -0.283 A  
HETATM    5  H   UNL     1     -11.800   5.445  65.049  1.00  0.00     0.000 HD 
HETATM    6  C   UNL     1     -10.855   6.464  67.249  1.00  0.00    -0.463 A  
HETATM    7  C   UNL     1     -10.223   6.891  68.419  1.00  0.00    -0.176 A  
HETATM    8  C   UNL     1      -9.484   3.020  65.257  1.00  0.00    -0.084 C  
HETATM    9  C   UNL     1      -9.135   6.162  68.918  1.00  0.00    -0.123 A  
HETATM   10  C   UNL     1      -8.875   3.386  66.391  1.00  0.00    -0.137 C  
HETATM   11  C   UNL     1      -8.684   5.014  68.263  1.00  0.00    -0.106 A  
HETATM   12  C   UNL     1      -9.318   4.585  67.098  1.00  0.00    -0.163 A  
ENDROOT
BRANCH   7  13
HETATM   13  O   UNL     1     -10.753   8.023  68.983  1.00  0.00    -0.190 OA 
BRANCH  13  14
HETATM   14  C   UNL     1     -10.444   9.242  68.308  1.00  0.00    -0.215 C  
BRANCH  14  15
HETATM   15  C   UNL     1     -10.321  10.380  69.316  1.00  0.00    -0.250 C  
BRANCH  15  16
HETATM   16  C   UNL     1     -11.398  11.448  69.101  1.00  0.00    -0.353 C  
BRANCH  16  17
HETATM   17  C   UNL     1     -10.869  12.870  68.844  1.00  0.00    -0.200 C  
BRANCH  17  18
HETATM   18  N   UNL     1     -11.882  13.820  68.366  1.00  0.00    -0.361 NA 
HETATM   19  C   UNL     1     -12.044  15.000  69.251  1.00  0.00    -0.247 C  
HETATM   20  C   UNL     1     -10.865  16.004  69.248  1.00  0.00    -0.300 C  
HETATM   21  N   UNL     1     -10.539  16.406  67.875  1.00  0.00    -0.310 NA 
HETATM   22  C   UNL     1     -11.547  14.320  67.005  1.00  0.00    -0.386 C  
HETATM   23  C   UNL     1     -10.340  15.294  66.932  1.00  0.00    -0.278 C  
BRANCH  21  24
HETATM   24  C   UNL     1      -9.961  17.652  67.611  1.00  0.00    -0.323 A  
HETATM   25  C   UNL     1      -8.660  18.084  68.044  1.00  0.00    -0.267 A  
HETATM   26  C   UNL     1      -7.557  17.366  68.642  1.00  0.00    -0.265 A  
HETATM   27  C   UNL     1      -6.484  18.158  68.974  1.00  0.00    -0.243 A  
HETATM   28  S   UNL     1      -6.736  19.775  68.526  1.00  0.00    -0.306 SA 
HETATM   29  C   UNL     1      -8.293  19.426  67.868  1.00  0.00    -0.308 A  
HETATM   30  C   UNL     1      -9.134  20.359  67.235  1.00  0.00    -0.500 A  
HETATM   31  C   UNL     1     -10.362  19.930  66.757  1.00  0.00    -0.599 A  
HETATM   32  C   UNL     1     -10.761  18.613  66.946  1.00  0.00    -0.367 A  
ENDBRANCH  21  24
ENDBRANCH  17  18
ENDBRANCH  16  17
ENDBRANCH  15  16
ENDBRANCH  14  15
ENDBRANCH  13  14
ENDBRANCH   7  13
TORSDOF 7
ENDMDL
MODEL       94
REMARK 921   NORMALIZED FREE ENERGY PREDICTED BY IDOCK:   -5.79 KCAL/MOL
REMARK 922        TOTAL FREE ENERGY PREDICTED BY IDOCK:   -9.46 KCAL/MOL
REMARK 923 INTER-LIGAND FREE ENERGY PREDICTED BY IDOCK:   -9.00 KCAL/MOL
REMARK 924 INTRA-LIGAND FREE ENERGY PREDICTED BY IDOCK:   -0.47 KCAL/MOL
REMARK 927      BINDING AFFINITY PREDICTED BY RF-SCORE:    0.00 PKD
ROOT
HETATM    1  O   UNL     1      -8.974   9.302  63.958  1.00  0.00    -0.187 OA 
HETATM    2  C   UNL     1      -9.641  10.291  64.243  1.00  0.00    -0.313 C  
HETATM    3  N   UNL     1     -10.019  10.578  65.525  1.00  0.00    -0.262 N  
HETATM    4  C   UNL     1     -10.807  11.685  65.869  1.00  0.00    -0.287 A  
HETATM    5  H   UNL     1      -9.712   9.954  66.271  1.00  0.00     0.000 HD 
HETATM    6  C   UNL     1     -11.168  11.900  67.198  1.00  0.00    -0.377 A  
HETATM    7  C   UNL     1     -11.974  12.991  67.531  1.00  0.00    -0.306 A  
HETATM    8  C   UNL     1     -10.074  11.241  63.188  1.00  0.00    -0.385 C  
HETATM    9  C   UNL     1     -12.411  13.858  66.520  1.00  0.00    -0.447 A  
HETATM   10  C   UNL     1     -10.824  12.311  63.478  1.00  0.00    -0.508 C  
HETATM   11  C   UNL     1     -12.041  13.646  65.189  1.00  0.00    -0.426 A  
HETATM   12  C   UNL     1     -11.233  12.560  64.858  1.00  0.00    -0.344 A  
ENDROOT
BRANCH   7  13
HETATM   13  O   UNL     1     -12.268  13.109  68.866  1.00  0.00    -0.249 OA 
BRANCH  13  14
HETATM   14  C   UNL     1     -11.642  12.146  69.713  1.00  0.00    -0.262 C  
BRANCH  14  15
HETATM   15  C   UNL     1     -12.509  11.894  70.943  1.00  0.00    -0.397 C  
BRANCH  15  16
HETATM   16  C   UNL     1     -13.016  10.450  70.996  1.00  0.00    -0.490 C  
BRANCH  16  17
HETATM   17  C   UNL     1     -12.180   9.493  71.865  1.00  0.00    -0.358 C  
BRANCH  17  18
HETATM   18  N   UNL     1     -10.823   9.241  71.362  1.00  0.00    -0.341 NA 
HETATM   19  C   UNL     1      -9.976   8.481  72.315  1.00  0.00    -0.315 C  
HETATM   20  C   UNL     1     -10.358   6.993  72.508  1.00  0.00    -0.205 C  
HETATM   21  N   UNL     1     -10.444   6.314  71.211  1.00  0.00    -0.211 NA 
HETATM   22  C   UNL     1     -10.861   8.478  70.085  1.00  0.00    -0.233 C  
HETATM   23  C   UNL     1     -11.284   6.990  70.209  1.00  0.00    -0.298 C  
BRANCH  21  24
HETATM   24  C   UNL     1     -10.206   4.939  71.104  1.00  0.00    -0.191 A  
HETATM   25  C   UNL     1     -10.336   3.979  72.164  1.00  0.00    -0.155 A  
HETATM   26  C   UNL     1     -10.908   4.079  73.489  1.00  0.00    -0.336 A  
HETATM   27  C   UNL     1     -10.785   2.936  74.242  1.00  0.00    -0.145 A  
HETATM   28  S   UNL     1     -10.039   1.687  73.369  1.00  0.00    -0.090 SA 
HETATM   29  C   UNL     1      -9.879   2.669  71.958  1.00  0.00    -0.163 A  
HETATM   30  C   UNL     1      -9.343   2.244  70.730  1.00  0.00    -0.207 A  
HETATM   31  C   UNL     1      -9.277   3.151  69.684  1.00  0.00    -0.221 A  
HETATM   32  C   UNL     1      -9.695   4.461  69.872  1.00  0.00    -0.291 A  
ENDBRANCH  21  24
ENDBRANCH  17  18
ENDBRANCH  16  17
ENDBRANCH  15  16
ENDBRANCH  14  15
ENDBRANCH  13  14
ENDBRANCH   7  13
TORSDOF 7
ENDMDL
MODEL       95
REMARK 921   NORMALIZED FREE ENERGY PREDICTED BY IDOCK:   -5.79 KCAL/MOL
REMARK 922        TOTAL FREE ENERGY PREDICTED BY IDOCK:   -9.46 KCAL/MOL
REMARK 923 INTER-LIGAND FREE ENERGY PREDICTED BY IDOCK:   -8.68 KCAL/MOL
REMARK 924 INTRA-LIGAND FREE ENERGY PREDICTED BY IDOCK:   -0.79 KCAL/MOL
REMARK 927      BINDING AFFINITY PREDICTED BY RF-SCORE:    0.00 PKD
ROOT
HETATM    1  O   UNL     1      -5.812  20.204  71.673  1.00  0.00    -0.425 OA 
HETATM    2  C   UNL     1      -6.119  20.262  70.488  1.00  0.00    -0.308 C  
HETATM    3  N   UNL     1      -7.319  19.806  70.016  1.00  0.00     0.112 N  
HETATM    4  C   UNL     1      -7.678  19.835  68.662  1.00  0.00    -0.270 A  
HETATM    5  H   UNL     1      -7.987  19.425  70.686  1.00  0.00     0.000 HD 
HETATM    6  C   UNL     1      -8.913  19.332  68.256  1.00  0.00    -0.381 A  
HETATM    7  C   UNL     1      -9.255  19.340  66.902  1.00  0.00    -0.311 A  
HETATM    8  C   UNL     1      -5.186  20.845  69.492  1.00  0.00    -0.406 C  
HETATM    9  C   UNL     1      -8.347  19.855  65.966  1.00  0.00    -0.298 A  
HETATM   10  C   UNL     1      -5.494  20.893  68.190  1.00  0.00    -0.352 C  
HETATM   11  C   UNL     1      -7.113  20.366  66.376  1.00  0.00    -0.296 A  
HETATM   12  C   UNL     1      -6.775  20.362  67.728  1.00  0.00    -0.330 A  
ENDROOT
BRANCH   7  13
HETATM   13  O   UNL     1     -10.493  18.824  66.613  1.00  0.00    -0.392 OA 
BRANCH  13  14
HETATM   14  C   UNL     1     -10.492  17.683  65.756  1.00  0.00    -0.205 C  
BRANCH  14  15
HETATM   15  C   UNL     1     -10.286  16.414  66.577  1.00  0.00    -0.310 C  
BRANCH  15  16
HETATM   16  C   UNL     1     -10.032  15.195  65.685  1.00  0.00    -0.387 C  
BRANCH  16  17
HETATM   17  C   UNL     1     -10.387  13.836  66.317  1.00  0.00    -0.294 C  
BRANCH  17  18
HETATM   18  N   UNL     1     -10.641  13.884  67.762  1.00  0.00    -0.244 NA 
HETATM   19  C   UNL     1     -11.870  13.157  68.167  1.00  0.00    -0.348 C  
HETATM   20  C   UNL     1     -11.795  11.613  68.065  1.00  0.00    -0.225 C  
HETATM   21  N   UNL     1     -10.616  11.109  68.778  1.00  0.00    -0.193 NA 
HETATM   22  C   UNL     1      -9.502  13.305  68.525  1.00  0.00    -0.113 C  
HETATM   23  C   UNL     1      -9.347  11.763  68.422  1.00  0.00    -0.185 C  
BRANCH  21  24
HETATM   24  C   UNL     1     -10.605   9.821  69.324  1.00  0.00    -0.221 A  
HETATM   25  C   UNL     1     -10.569   8.593  68.579  1.00  0.00    -0.162 A  
HETATM   26  C   UNL     1     -10.337   8.324  67.177  1.00  0.00    -0.387 A  
HETATM   27  C   UNL     1     -10.445   6.998  66.834  1.00  0.00    -0.286 A  
HETATM   28  S   UNL     1     -10.767   6.024  68.186  1.00  0.00    -0.267 SA 
HETATM   29  C   UNL     1     -10.755   7.379  69.256  1.00  0.00    -0.185 A  
HETATM   30  C   UNL     1     -10.924   7.313  70.650  1.00  0.00    -0.278 A  
HETATM   31  C   UNL     1     -10.893   8.491  71.380  1.00  0.00    -0.327 A  
HETATM   32  C   UNL     1     -10.740   9.708  70.729  1.00  0.00    -0.401 A  
ENDBRANCH  21  24
ENDBRANCH  17  18
ENDBRANCH  16  17
ENDBRANCH  15  16
ENDBRANCH  14  15
ENDBRANCH  13  14
ENDBRANCH   7  13
TORSDOF 7
ENDMDL
MODEL       96
REMARK 921   NORMALIZED FREE ENERGY PREDICTED BY IDOCK:   -5.78 KCAL/MOL
REMARK 922        TOTAL FREE ENERGY PREDICTED BY IDOCK:   -9.44 KCAL/MOL
REMARK 923 INTER-LIGAND FREE ENERGY PREDICTED BY IDOCK:   -8.40 KCAL/MOL
REMARK 924 INTRA-LIGAND FREE ENERGY PREDICTED BY IDOCK:   -1.04 KCAL/MOL
REMARK 927      BINDING AFFINITY PREDICTED BY RF-SCORE:    0.00 PKD
ROOT
HETATM    1  O   UNL     1     -10.213  11.103  64.130  1.00  0.00    -0.289 OA 
HETATM    2  C   UNL     1      -9.579  10.279  64.780  1.00  0.00    -0.307 C  
HETATM    3  N   UNL     1     -10.186   9.294  65.509  1.00  0.00    -0.199 N  
HETATM    4  C   UNL     1      -9.482   8.361  66.284  1.00  0.00    -0.224 A  
HETATM    5  H   UNL     1     -11.204   9.235  65.488  1.00  0.00     0.000 HD 
HETATM    6  C   UNL     1     -10.175   7.397  67.015  1.00  0.00    -0.357 A  
HETATM    7  C   UNL     1      -9.470   6.487  67.806  1.00  0.00    -0.119 A  
HETATM    8  C   UNL     1      -8.095  10.312  64.804  1.00  0.00    -0.151 C  
HETATM    9  C   UNL     1      -8.071   6.555  67.851  1.00  0.00    -0.116 A  
HETATM   10  C   UNL     1      -7.389   9.436  65.528  1.00  0.00    -0.088 C  
HETATM   11  C   UNL     1      -7.378   7.515  67.110  1.00  0.00    -0.094 A  
HETATM   12  C   UNL     1      -8.082   8.421  66.319  1.00  0.00    -0.105 A  
ENDROOT
BRANCH   7  13
HETATM   13  O   UNL     1     -10.248   5.582  68.482  1.00  0.00    -0.169 OA 
BRANCH  13  14
HETATM   14  C   UNL     1      -9.599   4.906  69.558  1.00  0.00    -0.170 C  
BRANCH  14  15
HETATM   15  C   UNL     1      -9.911   5.605  70.877  1.00  0.00    -0.251 C  
BRANCH  15  16
HETATM   16  C   UNL     1     -11.406   5.555  71.207  1.00  0.00     0.056 C  
BRANCH  16  17
HETATM   17  C   UNL     1     -12.169   6.875  70.993  1.00  0.00    -0.377 C  
BRANCH  17  18
HETATM   18  N   UNL     1     -12.075   7.822  72.112  1.00  0.00    -0.308 NA 
HETATM   19  C   UNL     1     -10.838   8.642  72.084  1.00  0.00    -0.354 C  
HETATM   20  C   UNL     1     -10.769   9.707  70.962  1.00  0.00    -0.323 C  
HETATM   21  N   UNL     1     -11.970  10.550  70.981  1.00  0.00    -0.362 NA 
HETATM   22  C   UNL     1     -13.235   8.754  72.122  1.00  0.00    -0.414 C  
HETATM   23  C   UNL     1     -13.245   9.817  70.989  1.00  0.00    -0.274 C  
BRANCH  21  24
HETATM   24  C   UNL     1     -11.929  11.867  70.511  1.00  0.00    -0.267 A  
HETATM   25  C   UNL     1     -12.574  12.998  71.120  1.00  0.00    -0.388 A  
HETATM   26  C   UNL     1     -13.223  13.160  72.402  1.00  0.00    -0.519 A  
HETATM   27  C   UNL     1     -13.781  14.400  72.596  1.00  0.00    -0.445 A  
HETATM   28  S   UNL     1     -13.494  15.431  71.279  1.00  0.00    -0.475 SA 
HETATM   29  C   UNL     1     -12.603  14.219  70.432  1.00  0.00    -0.343 A  
HETATM   30  C   UNL     1     -11.979  14.395  69.184  1.00  0.00    -0.357 A  
HETATM   31  C   UNL     1     -11.299  13.324  68.625  1.00  0.00    -0.324 A  
HETATM   32  C   UNL     1     -11.281  12.096  69.273  1.00  0.00    -0.288 A  
ENDBRANCH  21  24
ENDBRANCH  17  18
ENDBRANCH  16  17
ENDBRANCH  15  16
ENDBRANCH  14  15
ENDBRANCH  13  14
ENDBRANCH   7  13
TORSDOF 7
ENDMDL
MODEL       97
REMARK 921   NORMALIZED FREE ENERGY PREDICTED BY IDOCK:   -5.77 KCAL/MOL
REMARK 922        TOTAL FREE ENERGY PREDICTED BY IDOCK:   -9.44 KCAL/MOL
REMARK 923 INTER-LIGAND FREE ENERGY PREDICTED BY IDOCK:   -8.37 KCAL/MOL
REMARK 924 INTRA-LIGAND FREE ENERGY PREDICTED BY IDOCK:   -1.07 KCAL/MOL
REMARK 927      BINDING AFFINITY PREDICTED BY RF-SCORE:    0.00 PKD
ROOT
HETATM    1  O   UNL     1     -11.326   3.076  63.386  1.00  0.00    -0.240 OA 
HETATM    2  C   UNL     1     -10.523   3.762  64.009  1.00  0.00    -0.261 C  
HETATM    3  N   UNL     1     -10.773   4.218  65.274  1.00  0.00    -0.620 N  
HETATM    4  C   UNL     1      -9.884   5.028  65.993  1.00  0.00    -0.188 A  
HETATM    5  H   UNL     1     -11.653   3.954  65.718  1.00  0.00     0.000 HD 
HETATM    6  C   UNL     1     -10.219   5.470  67.272  1.00  0.00    -0.255 A  
HETATM    7  C   UNL     1      -9.340   6.298  67.973  1.00  0.00    -0.114 A  
HETATM    8  C   UNL     1      -9.218   4.133  63.409  1.00  0.00    -0.137 C  
HETATM    9  C   UNL     1      -8.128   6.675  67.379  1.00  0.00    -0.121 A  
HETATM   10  C   UNL     1      -8.341   4.903  64.066  1.00  0.00    -0.131 C  
HETATM   11  C   UNL     1      -7.790   6.225  66.100  1.00  0.00    -0.105 A  
HETATM   12  C   UNL     1      -8.666   5.395  65.403  1.00  0.00    -0.154 A  
ENDROOT
BRANCH   7  13
HETATM   13  O   UNL     1      -9.768   6.672  69.222  1.00  0.00    -0.146 OA 
BRANCH  13  14
HETATM   14  C   UNL     1     -11.139   6.395  69.504  1.00  0.00    -0.396 C  
BRANCH  14  15
HETATM   15  C   UNL     1     -11.403   6.538  70.999  1.00  0.00    -0.378 C  
BRANCH  15  16
HETATM   16  C   UNL     1     -10.992   7.919  71.520  1.00  0.00    -0.269 C  
BRANCH  16  17
HETATM   17  C   UNL     1     -11.681   9.111  70.831  1.00  0.00    -0.284 C  
BRANCH  17  18
HETATM   18  N   UNL     1     -10.817  10.282  70.633  1.00  0.00    -0.240 NA 
HETATM   19  C   UNL     1      -9.733  10.053  69.646  1.00  0.00    -0.229 C  
HETATM   20  C   UNL     1     -10.188   9.935  68.170  1.00  0.00    -0.179 C  
HETATM   21  N   UNL     1     -11.018  11.086  67.797  1.00  0.00    -0.247 NA 
HETATM   22  C   UNL     1     -11.607  11.456  70.172  1.00  0.00    -0.280 C  
HETATM   23  C   UNL     1     -12.133  11.373  68.713  1.00  0.00    -0.189 C  
BRANCH  21  24
HETATM   24  C   UNL     1     -11.078  11.525  66.470  1.00  0.00    -0.282 A  
HETATM   25  C   UNL     1     -10.357  10.959  65.363  1.00  0.00    -0.326 A  
HETATM   26  C   UNL     1      -9.585   9.742  65.239  1.00  0.00    -0.368 A  
HETATM   27  C   UNL     1      -8.988   9.579  64.012  1.00  0.00    -0.188 A  
HETATM   28  S   UNL     1      -9.380  10.842  62.950  1.00  0.00    -0.367 SA 
HETATM   29  C   UNL     1     -10.370  11.624  64.128  1.00  0.00    -0.337 A  
HETATM   30  C   UNL     1     -11.108  12.802  63.916  1.00  0.00    -0.477 A  
HETATM   31  C   UNL     1     -11.858  13.314  64.963  1.00  0.00    -0.384 A  
HETATM   32  C   UNL     1     -11.837  12.691  66.204  1.00  0.00    -0.477 A  
ENDBRANCH  21  24
ENDBRANCH  17  18
ENDBRANCH  16  17
ENDBRANCH  15  16
ENDBRANCH  14  15
ENDBRANCH  13  14
ENDBRANCH   7  13
TORSDOF 7
ENDMDL
MODEL       98
REMARK 921   NORMALIZED FREE ENERGY PREDICTED BY IDOCK:   -5.76 KCAL/MOL
REMARK 922        TOTAL FREE ENERGY PREDICTED BY IDOCK:   -9.43 KCAL/MOL
REMARK 923 INTER-LIGAND FREE ENERGY PREDICTED BY IDOCK:   -8.68 KCAL/MOL
REMARK 924 INTRA-LIGAND FREE ENERGY PREDICTED BY IDOCK:   -0.75 KCAL/MOL
REMARK 927      BINDING AFFINITY PREDICTED BY RF-SCORE:    0.00 PKD
ROOT
HETATM    1  O   UNL     1      -9.472   2.742  68.944  1.00  0.00    -0.171 OA 
HETATM    2  C   UNL     1      -9.665   3.873  68.509  1.00  0.00    -0.044 C  
HETATM    3  N   UNL     1      -9.725   4.971  69.322  1.00  0.00    -0.162 N  
HETATM    4  C   UNL     1      -9.974   6.268  68.851  1.00  0.00    -0.153 A  
HETATM    5  H   UNL     1      -9.582   4.840  70.323  1.00  0.00     0.000 HD 
HETATM    6  C   UNL     1     -10.040   7.335  69.745  1.00  0.00    -0.196 A  
HETATM    7  C   UNL     1     -10.314   8.621  69.273  1.00  0.00    -0.221 A  
HETATM    8  C   UNL     1      -9.841   4.106  67.054  1.00  0.00    -0.190 C  
HETATM    9  C   UNL     1     -10.519   8.820  67.901  1.00  0.00    -0.275 A  
HETATM   10  C   UNL     1     -10.077   5.330  66.566  1.00  0.00    -0.260 C  
HETATM   11  C   UNL     1     -10.444   7.751  67.005  1.00  0.00    -0.419 A  
HETATM   12  C   UNL     1     -10.166   6.469  67.477  1.00  0.00    -0.221 A  
ENDROOT
BRANCH   7  13
HETATM   13  O   UNL     1     -10.355   9.596  70.237  1.00  0.00    -0.242 OA 
BRANCH  13  14
HETATM   14  C   UNL     1     -11.655   9.896  70.745  1.00  0.00    -0.349 C  
BRANCH  14  15
HETATM   15  C   UNL     1     -12.312  10.974  69.890  1.00  0.00    -0.356 C  
BRANCH  15  16
HETATM   16  C   UNL     1     -11.560  12.305  69.976  1.00  0.00    -0.236 C  
BRANCH  16  17
HETATM   17  C   UNL     1     -11.175  12.929  68.622  1.00  0.00    -0.281 C  
BRANCH  17  18
HETATM   18  N   UNL     1     -12.110  13.950  68.133  1.00  0.00    -0.342 NA 
HETATM   19  C   UNL     1     -12.223  15.124  69.034  1.00  0.00    -0.122 C  
HETATM   20  C   UNL     1     -10.982  16.050  69.083  1.00  0.00    -0.297 C  
HETATM   21  N   UNL     1     -10.590  16.452  67.727  1.00  0.00    -0.314 NA 
HETATM   22  C   UNL     1     -11.703  14.449  66.791  1.00  0.00    -0.397 C  
HETATM   23  C   UNL     1     -10.435  15.345  66.770  1.00  0.00    -0.299 C  
BRANCH  21  24
HETATM   24  C   UNL     1      -9.926  17.662  67.502  1.00  0.00    -0.322 A  
HETATM   25  C   UNL     1      -8.604  17.993  67.959  1.00  0.00    -0.267 A  
HETATM   26  C   UNL     1      -7.559  17.186  68.548  1.00  0.00    -0.245 A  
HETATM   27  C   UNL     1      -6.439  17.894  68.911  1.00  0.00    -0.228 A  
HETATM   28  S   UNL     1      -6.575  19.535  68.504  1.00  0.00    -0.282 SA 
HETATM   29  C   UNL     1      -8.145  19.311  67.822  1.00  0.00    -0.286 A  
HETATM   30  C   UNL     1      -8.913  20.315  67.206  1.00  0.00    -0.472 A  
HETATM   31  C   UNL     1     -10.163  19.983  66.705  1.00  0.00    -0.592 A  
HETATM   32  C   UNL     1     -10.651  18.692  66.855  1.00  0.00    -0.437 A  
ENDBRANCH  21  24
ENDBRANCH  17  18
ENDBRANCH  16  17
ENDBRANCH  15  16
ENDBRANCH  14  15
ENDBRANCH  13  14
ENDBRANCH   7  13
TORSDOF 7
ENDMDL
MODEL       99
REMARK 921   NORMALIZED FREE ENERGY PREDICTED BY IDOCK:   -5.76 KCAL/MOL
REMARK 922        TOTAL FREE ENERGY PREDICTED BY IDOCK:   -9.42 KCAL/MOL
REMARK 923 INTER-LIGAND FREE ENERGY PREDICTED BY IDOCK:   -8.79 KCAL/MOL
REMARK 924 INTRA-LIGAND FREE ENERGY PREDICTED BY IDOCK:   -0.64 KCAL/MOL
REMARK 927      BINDING AFFINITY PREDICTED BY RF-SCORE:    0.00 PKD
ROOT
HETATM    1  O   UNL     1     -11.397   2.950  73.935  1.00  0.00    -0.177 OA 
HETATM    2  C   UNL     1     -10.936   4.055  73.672  1.00  0.00    -0.260 C  
HETATM    3  N   UNL     1     -11.688   5.051  73.113  1.00  0.00    -0.473 N  
HETATM    4  C   UNL     1     -11.174   6.311  72.777  1.00  0.00    -0.237 A  
HETATM    5  H   UNL     1     -12.675   4.868  72.931  1.00  0.00     0.000 HD 
HETATM    6  C   UNL     1     -12.001   7.269  72.191  1.00  0.00    -0.307 A  
HETATM    7  C   UNL     1     -11.477   8.514  71.834  1.00  0.00    -0.335 A  
HETATM    8  C   UNL     1      -9.514   4.370  73.958  1.00  0.00    -0.124 C  
HETATM    9  C   UNL     1     -10.123   8.783  72.072  1.00  0.00    -0.397 A  
HETATM   10  C   UNL     1      -8.988   5.563  73.654  1.00  0.00    -0.124 C  
HETATM   11  C   UNL     1      -9.298   7.826  72.667  1.00  0.00    -0.246 A  
HETATM   12  C   UNL     1      -9.822   6.585  73.027  1.00  0.00    -0.178 A  
ENDROOT
BRANCH   7  13
HETATM   13  O   UNL     1     -12.377   9.380  71.267  1.00  0.00    -0.313 OA 
BRANCH  13  14
HETATM   14  C   UNL     1     -11.820  10.597  70.771  1.00  0.00    -0.357 C  
BRANCH  14  15
HETATM   15  C   UNL     1     -11.483  10.450  69.291  1.00  0.00    -0.281 C  
BRANCH  15  16
HETATM   16  C   UNL     1     -11.784  11.733  68.509  1.00  0.00    -0.390 C  
BRANCH  16  17
HETATM   17  C   UNL     1     -11.639  13.039  69.312  1.00  0.00    -0.310 C  
BRANCH  17  18
HETATM   18  N   UNL     1     -11.995  14.254  68.568  1.00  0.00    -0.338 NA 
HETATM   19  C   UNL     1     -11.952  15.484  69.397  1.00  0.00    -0.336 C  
HETATM   20  C   UNL     1     -10.539  15.958  69.817  1.00  0.00    -0.322 C  
HETATM   21  N   UNL     1      -9.668  16.075  68.642  1.00  0.00    -0.209 NA 
HETATM   22  C   UNL     1     -11.082  14.459  67.411  1.00  0.00    -0.308 C  
HETATM   23  C   UNL     1      -9.634  14.889  67.772  1.00  0.00    -0.208 C  
BRANCH  21  24
HETATM   24  C   UNL     1      -8.599  16.977  68.629  1.00  0.00    -0.265 A  
HETATM   25  C   UNL     1      -8.637  18.318  68.115  1.00  0.00    -0.290 A  
HETATM   26  C   UNL     1      -9.737  19.156  67.690  1.00  0.00    -0.391 A  
HETATM   27  C   UNL     1      -9.354  20.379  67.195  1.00  0.00    -0.403 A  
HETATM   28  S   UNL     1      -7.672  20.591  67.279  1.00  0.00    -0.300 SA 
HETATM   29  C   UNL     1      -7.439  19.037  67.995  1.00  0.00    -0.260 A  
HETATM   30  C   UNL     1      -6.202  18.511  68.407  1.00  0.00    -0.209 A  
HETATM   31  C   UNL     1      -6.171  17.243  68.965  1.00  0.00    -0.209 A  
HETATM   32  C   UNL     1      -7.340  16.499  69.067  1.00  0.00    -0.228 A  
ENDBRANCH  21  24
ENDBRANCH  17  18
ENDBRANCH  16  17
ENDBRANCH  15  16
ENDBRANCH  14  15
ENDBRANCH  13  14
ENDBRANCH   7  13
TORSDOF 7
ENDMDL
MODEL      100
REMARK 921   NORMALIZED FREE ENERGY PREDICTED BY IDOCK:   -5.76 KCAL/MOL
REMARK 922        TOTAL FREE ENERGY PREDICTED BY IDOCK:   -9.42 KCAL/MOL
REMARK 923 INTER-LIGAND FREE ENERGY PREDICTED BY IDOCK:   -8.61 KCAL/MOL
REMARK 924 INTRA-LIGAND FREE ENERGY PREDICTED BY IDOCK:   -0.81 KCAL/MOL
REMARK 927      BINDING AFFINITY PREDICTED BY RF-SCORE:    0.00 PKD
ROOT
HETATM    1  O   UNL     1     -13.087  14.313  64.893  1.00  0.00    -0.645 OA 
HETATM    2  C   UNL     1     -12.337  13.344  64.839  1.00  0.00    -0.412 C  
HETATM    3  N   UNL     1     -12.009  12.607  65.943  1.00  0.00    -0.443 N  
HETATM    4  C   UNL     1     -11.130  11.515  65.910  1.00  0.00    -0.214 A  
HETATM    5  H   UNL     1     -12.425  12.865  66.838  1.00  0.00     0.000 HD 
HETATM    6  C   UNL     1     -10.830  10.824  67.083  1.00  0.00    -0.335 A  
HETATM    7  C   UNL     1      -9.934   9.754  67.048  1.00  0.00    -0.203 A  
HETATM    8  C   UNL     1     -11.743  12.917  63.548  1.00  0.00    -0.576 C  
HETATM    9  C   UNL     1      -9.348   9.387  65.829  1.00  0.00    -0.301 A  
HETATM   10  C   UNL     1     -10.902  11.878  63.475  1.00  0.00    -0.502 C  
HETATM   11  C   UNL     1      -9.657  10.075  64.653  1.00  0.00    -0.363 A  
HETATM   12  C   UNL     1     -10.554  11.140  64.688  1.00  0.00    -0.386 A  
ENDROOT
BRANCH   7  13
HETATM   13  O   UNL     1      -9.711   9.145  68.257  1.00  0.00    -0.149 OA 
BRANCH  13  14
HETATM   14  C   UNL     1     -10.569   9.565  69.317  1.00  0.00    -0.220 C  
BRANCH  14  15
HETATM   15  C   UNL     1      -9.829   9.486  70.648  1.00  0.00    -0.328 C  
BRANCH  15  16
HETATM   16  C   UNL     1     -10.741   8.997  71.778  1.00  0.00    -0.437 C  
BRANCH  16  17
HETATM   17  C   UNL     1     -10.102   7.983  72.744  1.00  0.00    -0.308 C  
BRANCH  17  18
HETATM   18  N   UNL     1     -10.845   6.724  72.884  1.00  0.00    -0.258 NA 
HETATM   19  C   UNL     1     -11.691   6.406  71.706  1.00  0.00    -0.324 C  
HETATM   20  C   UNL     1     -10.924   6.002  70.423  1.00  0.00    -0.328 C  
HETATM   21  N   UNL     1      -9.980   4.917  70.711  1.00  0.00    -0.209 NA 
HETATM   22  C   UNL     1      -9.918   5.578  73.095  1.00  0.00    -0.173 C  
HETATM   23  C   UNL     1      -9.086   5.157  71.854  1.00  0.00    -0.137 C  
BRANCH  21  24
HETATM   24  C   UNL     1      -9.605   4.009  69.714  1.00  0.00    -0.210 A  
HETATM   25  C   UNL     1      -9.265   4.344  68.358  1.00  0.00    -0.186 A  
HETATM   26  C   UNL     1      -9.014   5.614  67.714  1.00  0.00    -0.107 A  
HETATM   27  C   UNL     1      -8.773   5.521  66.364  1.00  0.00    -0.123 A  
HETATM   28  S   UNL     1      -8.777   3.909  65.835  1.00  0.00    -0.118 SA 
HETATM   29  C   UNL     1      -9.095   3.312  67.424  1.00  0.00    -0.173 A  
HETATM   30  C   UNL     1      -9.195   1.955  67.775  1.00  0.00    -0.206 A  
HETATM   31  C   UNL     1      -9.458   1.627  69.096  1.00  0.00    -0.154 A  
HETATM   32  C   UNL     1      -9.660   2.631  70.034  1.00  0.00    -0.084 A  
ENDBRANCH  21  24
ENDBRANCH  17  18
ENDBRANCH  16  17
ENDBRANCH  15  16
ENDBRANCH  14  15
ENDBRANCH  13  14
ENDBRANCH   7  13
TORSDOF 7
ENDMDL
MODEL      101
REMARK 921   NORMALIZED FREE ENERGY PREDICTED BY IDOCK:   -5.75 KCAL/MOL
REMARK 922        TOTAL FREE ENERGY PREDICTED BY IDOCK:   -9.41 KCAL/MOL
REMARK 923 INTER-LIGAND FREE ENERGY PREDICTED BY IDOCK:   -8.29 KCAL/MOL
REMARK 924 INTRA-LIGAND FREE ENERGY PREDICTED BY IDOCK:   -1.11 KCAL/MOL
REMARK 927      BINDING AFFINITY PREDICTED BY RF-SCORE:    0.00 PKD
ROOT
HETATM    1  O   UNL     1      -7.948   6.804  64.854  1.00  0.00    -0.117 OA 
HETATM    2  C   UNL     1      -8.486   7.905  64.914  1.00  0.00    -0.028 C  
HETATM    3  N   UNL     1      -9.263   8.286  65.972  1.00  0.00    -0.298 N  
HETATM    4  C   UNL     1      -9.912   9.526  66.047  1.00  0.00    -0.278 A  
HETATM    5  H   UNL     1      -9.378   7.634  66.748  1.00  0.00     0.000 HD 
HETATM    6  C   UNL     1     -10.705   9.834  67.152  1.00  0.00    -0.273 A  
HETATM    7  C   UNL     1     -11.370  11.062  67.208  1.00  0.00    -0.188 A  
HETATM    8  C   UNL     1      -8.312   8.893  63.820  1.00  0.00    -0.164 C  
HETATM    9  C   UNL     1     -11.229  11.969  66.150  1.00  0.00    -0.394 A  
HETATM   10  C   UNL     1      -8.912  10.089  63.857  1.00  0.00    -0.271 C  
HETATM   11  C   UNL     1     -10.428  11.662  65.048  1.00  0.00    -0.336 A  
HETATM   12  C   UNL     1      -9.761  10.440  64.994  1.00  0.00    -0.362 A  
ENDROOT
BRANCH   7  13
HETATM   13  O   UNL     1     -12.120  11.262  68.339  1.00  0.00    -0.598 OA 
BRANCH  13  14
HETATM   14  C   UNL     1     -11.535  12.127  69.312  1.00  0.00    -0.302 C  
BRANCH  14  15
HETATM   15  C   UNL     1     -12.239  11.953  70.653  1.00  0.00    -0.424 C  
BRANCH  15  16
HETATM   16  C   UNL     1     -12.704  10.510  70.869  1.00  0.00    -0.495 C  
BRANCH  16  17
HETATM   17  C   UNL     1     -11.824   9.672  71.815  1.00  0.00    -0.320 C  
BRANCH  17  18
HETATM   18  N   UNL     1     -10.620   9.110  71.190  1.00  0.00    -0.281 NA 
HETATM   19  C   UNL     1      -9.644   8.576  72.170  1.00  0.00    -0.312 C  
HETATM   20  C   UNL     1     -10.071   7.277  72.899  1.00  0.00    -0.227 C  
HETATM   21  N   UNL     1     -10.468   6.252  71.927  1.00  0.00    -0.205 NA 
HETATM   22  C   UNL     1     -10.970   8.006  70.254  1.00  0.00    -0.242 C  
HETATM   23  C   UNL     1     -11.453   6.692  70.926  1.00  0.00    -0.347 C  
BRANCH  21  24
HETATM   24  C   UNL     1     -10.345   4.892  72.229  1.00  0.00    -0.206 A  
HETATM   25  C   UNL     1      -9.725   3.898  71.395  1.00  0.00    -0.246 A  
HETATM   26  C   UNL     1      -8.920   4.012  70.199  1.00  0.00    -0.159 A  
HETATM   27  C   UNL     1      -8.557   2.806  69.650  1.00  0.00    -0.067 A  
HETATM   28  S   UNL     1      -9.114   1.500  70.579  1.00  0.00    -0.088 SA 
HETATM   29  C   UNL     1      -9.846   2.545  71.742  1.00  0.00    -0.156 A  
HETATM   30  C   UNL     1     -10.509   2.124  72.908  1.00  0.00    -0.241 A  
HETATM   31  C   UNL     1     -11.051   3.083  73.749  1.00  0.00    -0.295 A  
HETATM   32  C   UNL     1     -10.970   4.428  73.412  1.00  0.00    -0.375 A  
ENDBRANCH  21  24
ENDBRANCH  17  18
ENDBRANCH  16  17
ENDBRANCH  15  16
ENDBRANCH  14  15
ENDBRANCH  13  14
ENDBRANCH   7  13
TORSDOF 7
ENDMDL
MODEL      102
REMARK 921   NORMALIZED FREE ENERGY PREDICTED BY IDOCK:   -5.72 KCAL/MOL
REMARK 922        TOTAL FREE ENERGY PREDICTED BY IDOCK:   -9.36 KCAL/MOL
REMARK 923 INTER-LIGAND FREE ENERGY PREDICTED BY IDOCK:   -7.92 KCAL/MOL
REMARK 924 INTRA-LIGAND FREE ENERGY PREDICTED BY IDOCK:   -1.44 KCAL/MOL
REMARK 927      BINDING AFFINITY PREDICTED BY RF-SCORE:    0.00 PKD
ROOT
HETATM    1  O   UNL     1     -12.874  10.483  71.794  1.00  0.00    -0.429 OA 
HETATM    2  C   UNL     1     -12.406   9.382  71.525  1.00  0.00    -0.370 C  
HETATM    3  N   UNL     1     -11.307   9.227  70.727  1.00  0.00    -0.271 N  
HETATM    4  C   UNL     1     -10.774   7.977  70.381  1.00  0.00    -0.233 A  
HETATM    5  H   UNL     1     -10.851  10.064  70.364  1.00  0.00     0.000 HD 
HETATM    6  C   UNL     1      -9.660   7.900  69.545  1.00  0.00    -0.160 A  
HETATM    7  C   UNL     1      -9.149   6.652  69.184  1.00  0.00    -0.137 A  
HETATM    8  C   UNL     1     -13.021   8.145  72.066  1.00  0.00    -0.329 C  
HETATM    9  C   UNL     1      -9.765   5.490  69.669  1.00  0.00    -0.230 A  
HETATM   10  C   UNL     1     -12.539   6.934  71.762  1.00  0.00    -0.386 C  
HETATM   11  C   UNL     1     -10.875   5.569  70.513  1.00  0.00    -0.266 A  
HETATM   12  C   UNL     1     -11.382   6.816  70.877  1.00  0.00    -0.363 A  
ENDROOT
BRANCH   7  13
HETATM   13  O   UNL     1      -8.053   6.691  68.360  1.00  0.00    -0.113 OA 
BRANCH  13  14
HETATM   14  C   UNL     1      -8.081   5.774  67.267  1.00  0.00    -0.102 C  
BRANCH  14  15
HETATM   15  C   UNL     1      -8.920   6.345  66.129  1.00  0.00    -0.162 C  
BRANCH  15  16
HETATM   16  C   UNL     1      -8.385   7.699  65.652  1.00  0.00    -0.143 C  
BRANCH  16  17
HETATM   17  C   UNL     1      -9.378   8.871  65.760  1.00  0.00    -0.219 C  
BRANCH  17  18
HETATM   18  N   UNL     1      -9.063  10.018  64.899  1.00  0.00    -0.202 NA 
HETATM   19  C   UNL     1     -10.252  10.831  64.544  1.00  0.00    -0.359 C  
HETATM   20  C   UNL     1     -10.865  11.659  65.701  1.00  0.00    -0.276 C  
HETATM   21  N   UNL     1      -9.832  12.476  66.347  1.00  0.00    -0.248 NA 
HETATM   22  C   UNL     1      -8.078  10.922  65.553  1.00  0.00    -0.025 C  
HETATM   23  C   UNL     1      -8.622  11.744  66.752  1.00  0.00    -0.185 C  
BRANCH  21  24
HETATM   24  C   UNL     1     -10.164  13.677  66.984  1.00  0.00    -0.250 A  
HETATM   25  C   UNL     1     -10.892  13.801  68.217  1.00  0.00    -0.266 A  
HETATM   26  C   UNL     1     -11.287  12.822  69.205  1.00  0.00    -0.307 A  
HETATM   27  C   UNL     1     -12.040  13.334  70.234  1.00  0.00    -0.335 A  
HETATM   28  S   UNL     1     -12.247  15.011  70.086  1.00  0.00    -0.346 SA 
HETATM   29  C   UNL     1     -11.315  15.072  68.634  1.00  0.00    -0.296 A  
HETATM   30  C   UNL     1     -11.008  16.240  67.915  1.00  0.00    -0.310 A  
HETATM   31  C   UNL     1     -10.248  16.131  66.761  1.00  0.00    -0.281 A  
HETATM   32  C   UNL     1      -9.843  14.881  66.311  1.00  0.00    -0.315 A  
ENDBRANCH  21  24
ENDBRANCH  17  18
ENDBRANCH  16  17
ENDBRANCH  15  16
ENDBRANCH  14  15
ENDBRANCH  13  14
ENDBRANCH   7  13
TORSDOF 7
ENDMDL
MODEL      103
REMARK 921   NORMALIZED FREE ENERGY PREDICTED BY IDOCK:   -5.68 KCAL/MOL
REMARK 922        TOTAL FREE ENERGY PREDICTED BY IDOCK:   -9.31 KCAL/MOL
REMARK 923 INTER-LIGAND FREE ENERGY PREDICTED BY IDOCK:   -8.40 KCAL/MOL
REMARK 924 INTRA-LIGAND FREE ENERGY PREDICTED BY IDOCK:   -0.92 KCAL/MOL
REMARK 927      BINDING AFFINITY PREDICTED BY RF-SCORE:    0.00 PKD
ROOT
HETATM    1  O   UNL     1      -8.124   1.518  65.537  1.00  0.00    -0.071 OA 
HETATM    2  C   UNL     1      -8.684   2.475  66.060  1.00  0.00    -0.128 C  
HETATM    3  N   UNL     1      -8.739   2.643  67.416  1.00  0.00    -0.106 N  
HETATM    4  C   UNL     1      -9.400   3.713  68.035  1.00  0.00    -0.183 A  
HETATM    5  H   UNL     1      -8.276   1.953  68.007  1.00  0.00     0.000 HD 
HETATM    6  C   UNL     1      -9.429   3.804  69.426  1.00  0.00    -0.257 A  
HETATM    7  C   UNL     1     -10.110   4.859  70.038  1.00  0.00    -0.266 A  
HETATM    8  C   UNL     1      -9.336   3.517  65.229  1.00  0.00    -0.157 C  
HETATM    9  C   UNL     1     -10.757   5.814  69.243  1.00  0.00    -0.386 A  
HETATM   10  C   UNL     1      -9.974   4.555  65.784  1.00  0.00    -0.253 C  
HETATM   11  C   UNL     1     -10.720   5.725  67.849  1.00  0.00    -0.295 A  
HETATM   12  C   UNL     1     -10.036   4.675  67.239  1.00  0.00    -0.203 A  
ENDROOT
BRANCH   7  13
HETATM   13  O   UNL     1     -10.075   4.853  71.410  1.00  0.00    -0.188 OA 
BRANCH  13  14
HETATM   14  C   UNL     1     -11.122   5.583  72.049  1.00  0.00    -0.184 C  
BRANCH  14  15
HETATM   15  C   UNL     1     -10.529   6.642  72.973  1.00  0.00    -0.268 C  
BRANCH  15  16
HETATM   16  C   UNL     1      -9.930   7.812  72.188  1.00  0.00    -0.249 C  
BRANCH  16  17
HETATM   17  C   UNL     1     -10.844   9.043  72.046  1.00  0.00    -0.271 C  
BRANCH  17  18
HETATM   18  N   UNL     1     -11.722   9.016  70.868  1.00  0.00    -0.284 NA 
HETATM   19  C   UNL     1     -12.869   9.952  70.970  1.00  0.00    -0.331 C  
HETATM   20  C   UNL     1     -12.513  11.457  70.875  1.00  0.00    -0.379 C  
HETATM   21  N   UNL     1     -11.714  11.719  69.672  1.00  0.00    -0.321 NA 
HETATM   22  C   UNL     1     -10.968   9.359  69.632  1.00  0.00    -0.197 C  
HETATM   23  C   UNL     1     -10.541  10.846  69.503  1.00  0.00    -0.175 C  
BRANCH  21  24
HETATM   24  C   UNL     1     -11.743  12.971  69.050  1.00  0.00    -0.329 A  
HETATM   25  C   UNL     1     -11.671  13.209  67.635  1.00  0.00    -0.414 A  
HETATM   26  C   UNL     1     -11.758  12.313  66.503  1.00  0.00    -0.420 A  
HETATM   27  C   UNL     1     -11.580  12.926  65.286  1.00  0.00    -0.340 A  
HETATM   28  S   UNL     1     -11.365  14.601  65.453  1.00  0.00    -0.353 SA 
HETATM   29  C   UNL     1     -11.519  14.524  67.171  1.00  0.00    -0.368 A  
HETATM   30  C   UNL     1     -11.485  15.629  68.039  1.00  0.00    -0.294 A  
HETATM   31  C   UNL     1     -11.620  15.409  69.401  1.00  0.00    -0.354 A  
HETATM   32  C   UNL     1     -11.742  14.114  69.888  1.00  0.00    -0.372 A  
ENDBRANCH  21  24
ENDBRANCH  17  18
ENDBRANCH  16  17
ENDBRANCH  15  16
ENDBRANCH  14  15
ENDBRANCH  13  14
ENDBRANCH   7  13
TORSDOF 7
ENDMDL
MODEL      104
REMARK 921   NORMALIZED FREE ENERGY PREDICTED BY IDOCK:   -5.68 KCAL/MOL
REMARK 922        TOTAL FREE ENERGY PREDICTED BY IDOCK:   -9.31 KCAL/MOL
REMARK 923 INTER-LIGAND FREE ENERGY PREDICTED BY IDOCK:   -8.30 KCAL/MOL
REMARK 924 INTRA-LIGAND FREE ENERGY PREDICTED BY IDOCK:   -1.01 KCAL/MOL
REMARK 927      BINDING AFFINITY PREDICTED BY RF-SCORE:    0.00 PKD
ROOT
HETATM    1  O   UNL     1     -12.156  15.074  70.143  1.00  0.00    -0.292 OA 
HETATM    2  C   UNL     1     -12.367  13.963  70.618  1.00  0.00    -0.381 C  
HETATM    3  N   UNL     1     -11.815  12.825  70.097  1.00  0.00    -0.513 N  
HETATM    4  C   UNL     1     -12.067  11.543  70.603  1.00  0.00    -0.353 A  
HETATM    5  H   UNL     1     -11.188  12.915  69.297  1.00  0.00     0.000 HD 
HETATM    6  C   UNL     1     -11.482  10.428  70.004  1.00  0.00    -0.382 A  
HETATM    7  C   UNL     1     -11.757   9.151  70.498  1.00  0.00    -0.152 A  
HETATM    8  C   UNL     1     -13.245  13.800  71.803  1.00  0.00    -0.467 C  
HETATM    9  C   UNL     1     -12.620   9.007  71.592  1.00  0.00    -0.414 A  
HETATM   10  C   UNL     1     -13.506  12.592  72.317  1.00  0.00    -0.541 C  
HETATM   11  C   UNL     1     -13.199  10.126  72.196  1.00  0.00    -0.463 A  
HETATM   12  C   UNL     1     -12.921  11.401  71.706  1.00  0.00    -0.519 A  
ENDROOT
BRANCH   7  13
HETATM   13  O   UNL     1     -11.128   8.126  69.836  1.00  0.00    -0.212 OA 
BRANCH  13  14
HETATM   14  C   UNL     1      -9.820   7.809  70.310  1.00  0.00    -0.184 C  
BRANCH  14  15
HETATM   15  C   UNL     1      -8.870   7.626  69.131  1.00  0.00    -0.139 C  
BRANCH  15  16
HETATM   16  C   UNL     1      -7.639   8.530  69.247  1.00  0.00    -0.095 C  
BRANCH  16  17
HETATM   17  C   UNL     1      -7.895  10.024  68.978  1.00  0.00    -0.101 C  
BRANCH  17  18
HETATM   18  N   UNL     1      -7.043  10.610  67.935  1.00  0.00    -0.085 NA 
HETATM   19  C   UNL     1      -7.742  10.793  66.640  1.00  0.00    -0.141 C  
HETATM   20  C   UNL     1      -8.821  11.905  66.614  1.00  0.00    -0.191 C  
HETATM   21  N   UNL     1      -8.263  13.170  67.103  1.00  0.00    -0.157 NA 
HETATM   22  C   UNL     1      -6.520  11.939  68.357  1.00  0.00    -0.054 C  
HETATM   23  C   UNL     1      -7.567  13.084  68.397  1.00  0.00    -0.133 C  
BRANCH  21  24
HETATM   24  C   UNL     1      -8.782  14.396  66.674  1.00  0.00    -0.099 A  
HETATM   25  C   UNL     1      -8.140  15.675  66.811  1.00  0.00    -0.280 A  
HETATM   26  C   UNL     1      -6.795  16.040  67.197  1.00  0.00    -0.223 A  
HETATM   27  C   UNL     1      -6.579  17.395  67.268  1.00  0.00    -0.154 A  
HETATM   28  S   UNL     1      -7.958  18.275  66.814  1.00  0.00    -0.253 SA 
HETATM   29  C   UNL     1      -8.863  16.837  66.507  1.00  0.00    -0.277 A  
HETATM   30  C   UNL     1     -10.183  16.797  66.023  1.00  0.00    -0.361 A  
HETATM   31  C   UNL     1     -10.782  15.563  65.828  1.00  0.00    -0.362 A  
HETATM   32  C   UNL     1     -10.097  14.398  66.149  1.00  0.00    -0.323 A  
ENDBRANCH  21  24
ENDBRANCH  17  18
ENDBRANCH  16  17
ENDBRANCH  15  16
ENDBRANCH  14  15
ENDBRANCH  13  14
ENDBRANCH   7  13
TORSDOF 7
ENDMDL
MODEL      105
REMARK 921   NORMALIZED FREE ENERGY PREDICTED BY IDOCK:   -5.66 KCAL/MOL
REMARK 922        TOTAL FREE ENERGY PREDICTED BY IDOCK:   -9.28 KCAL/MOL
REMARK 923 INTER-LIGAND FREE ENERGY PREDICTED BY IDOCK:   -8.21 KCAL/MOL
REMARK 924 INTRA-LIGAND FREE ENERGY PREDICTED BY IDOCK:   -1.07 KCAL/MOL
REMARK 927      BINDING AFFINITY PREDICTED BY RF-SCORE:    0.00 PKD
ROOT
HETATM    1  O   UNL     1     -11.183  14.098  69.179  1.00  0.00    -0.252 OA 
HETATM    2  C   UNL     1     -11.688  13.245  69.900  1.00  0.00    -0.259 C  
HETATM    3  N   UNL     1     -11.385  11.916  69.789  1.00  0.00    -0.478 N  
HETATM    4  C   UNL     1     -11.974  10.921  70.582  1.00  0.00    -0.368 A  
HETATM    5  H   UNL     1     -10.695  11.635  69.093  1.00  0.00     0.000 HD 
HETATM    6  C   UNL     1     -11.626   9.584  70.395  1.00  0.00    -0.268 A  
HETATM    7  C   UNL     1     -12.235   8.594  71.171  1.00  0.00    -0.238 A  
HETATM    8  C   UNL     1     -12.668  13.623  70.948  1.00  0.00    -0.382 C  
HETATM    9  C   UNL     1     -13.189   8.961  72.129  1.00  0.00    -0.478 A  
HETATM   10  C   UNL     1     -13.249  12.702  71.727  1.00  0.00    -0.457 C  
HETATM   11  C   UNL     1     -13.530  10.302  72.320  1.00  0.00    -0.240 A  
HETATM   12  C   UNL     1     -12.919  11.290  71.550  1.00  0.00    -0.520 A  
ENDROOT
BRANCH   7  13
HETATM   13  O   UNL     1     -11.820   7.314  70.906  1.00  0.00    -0.308 OA 
BRANCH  13  14
HETATM   14  C   UNL     1     -11.458   6.543  72.052  1.00  0.00    -0.300 C  
BRANCH  14  15
HETATM   15  C   UNL     1     -10.201   5.730  71.757  1.00  0.00    -0.245 C  
BRANCH  15  16
HETATM   16  C   UNL     1      -9.380   6.346  70.620  1.00  0.00    -0.169 C  
BRANCH  16  17
HETATM   17  C   UNL     1      -9.563   5.680  69.244  1.00  0.00    -0.138 C  
BRANCH  17  18
HETATM   18  N   UNL     1      -8.377   5.733  68.379  1.00  0.00    -0.107 NA 
HETATM   19  C   UNL     1      -8.679   5.458  66.952  1.00  0.00    -0.112 C  
HETATM   20  C   UNL     1      -9.471   6.564  66.212  1.00  0.00    -0.083 C  
HETATM   21  N   UNL     1      -8.812   7.864  66.378  1.00  0.00    -0.150 NA 
HETATM   22  C   UNL     1      -7.722   7.068  68.452  1.00  0.00    -0.120 C  
HETATM   23  C   UNL     1      -8.495   8.228  67.768  1.00  0.00    -0.131 C  
BRANCH  21  24
HETATM   24  C   UNL     1      -8.951   8.867  65.412  1.00  0.00    -0.182 A  
HETATM   25  C   UNL     1      -9.815  10.011  65.507  1.00  0.00    -0.373 A  
HETATM   26  C   UNL     1     -10.576  10.554  66.611  1.00  0.00    -0.263 A  
HETATM   27  C   UNL     1     -11.341  11.647  66.282  1.00  0.00    -0.227 A  
HETATM   28  S   UNL     1     -11.128  12.097  64.660  1.00  0.00    -0.332 SA 
HETATM   29  C   UNL     1      -9.991  10.828  64.381  1.00  0.00    -0.338 A  
HETATM   30  C   UNL     1      -9.312  10.598  63.171  1.00  0.00    -0.335 A  
HETATM   31  C   UNL     1      -8.428   9.534  63.097  1.00  0.00    -0.199 A  
HETATM   32  C   UNL     1      -8.258   8.693  64.189  1.00  0.00    -0.156 A  
ENDBRANCH  21  24
ENDBRANCH  17  18
ENDBRANCH  16  17
ENDBRANCH  15  16
ENDBRANCH  14  15
ENDBRANCH  13  14
ENDBRANCH   7  13
TORSDOF 7
ENDMDL
MODEL      106
REMARK 921   NORMALIZED FREE ENERGY PREDICTED BY IDOCK:   -5.66 KCAL/MOL
REMARK 922        TOTAL FREE ENERGY PREDICTED BY IDOCK:   -9.28 KCAL/MOL
REMARK 923 INTER-LIGAND FREE ENERGY PREDICTED BY IDOCK:   -7.75 KCAL/MOL
REMARK 924 INTRA-LIGAND FREE ENERGY PREDICTED BY IDOCK:   -1.54 KCAL/MOL
REMARK 927      BINDING AFFINITY PREDICTED BY RF-SCORE:    0.00 PKD
ROOT
HETATM    1  O   UNL     1      -8.647   8.368  65.006  1.00  0.00    -0.169 OA 
HETATM    2  C   UNL     1      -9.270   9.369  65.343  1.00  0.00    -0.244 C  
HETATM    3  N   UNL     1      -9.762   9.536  66.608  1.00  0.00    -0.195 N  
HETATM    4  C   UNL     1     -10.504  10.657  67.006  1.00  0.00    -0.243 A  
HETATM    5  H   UNL     1      -9.581   8.807  67.297  1.00  0.00     0.000 HD 
HETATM    6  C   UNL     1     -10.989  10.746  68.310  1.00  0.00    -0.307 A  
HETATM    7  C   UNL     1     -11.749  11.853  68.694  1.00  0.00    -0.323 A  
HETATM    8  C   UNL     1      -9.521  10.466  64.376  1.00  0.00    -0.343 C  
HETATM    9  C   UNL     1     -12.014  12.863  67.760  1.00  0.00    -0.336 A  
HETATM   10  C   UNL     1     -10.222  11.554  64.720  1.00  0.00    -0.331 C  
HETATM   11  C   UNL     1     -11.519  12.777  66.456  1.00  0.00    -0.409 A  
HETATM   12  C   UNL     1     -10.757  11.674  66.075  1.00  0.00    -0.328 A  
ENDROOT
BRANCH   7  13
HETATM   13  O   UNL     1     -12.175  11.840  69.998  1.00  0.00    -0.287 OA 
BRANCH  13  14
HETATM   14  C   UNL     1     -11.900  10.637  70.716  1.00  0.00    -0.357 C  
BRANCH  14  15
HETATM   15  C   UNL     1     -12.944  10.433  71.808  1.00  0.00    -0.580 C  
BRANCH  15  16
HETATM   16  C   UNL     1     -13.084   8.957  72.193  1.00  0.00    -0.475 C  
BRANCH  16  17
HETATM   17  C   UNL     1     -11.757   8.206  72.403  1.00  0.00    -0.399 C  
BRANCH  17  18
HETATM   18  N   UNL     1     -11.763   6.814  71.934  1.00  0.00    -0.295 NA 
HETATM   19  C   UNL     1     -12.143   6.678  70.506  1.00  0.00    -0.240 C  
HETATM   20  C   UNL     1     -11.098   7.190  69.485  1.00  0.00    -0.141 C  
HETATM   21  N   UNL     1      -9.786   6.588  69.749  1.00  0.00    -0.164 NA 
HETATM   22  C   UNL     1     -10.424   6.186  72.106  1.00  0.00    -0.202 C  
HETATM   23  C   UNL     1      -9.321   6.696  71.140  1.00  0.00    -0.163 C  
BRANCH  21  24
HETATM   24  C   UNL     1      -8.857   6.411  68.717  1.00  0.00    -0.124 A  
HETATM   25  C   UNL     1      -9.083   5.684  67.498  1.00  0.00    -0.106 A  
HETATM   26  C   UNL     1     -10.288   5.143  66.909  1.00  0.00    -0.288 A  
HETATM   27  C   UNL     1     -10.080   4.449  65.742  1.00  0.00    -0.245 A  
HETATM   28  S   UNL     1      -8.448   4.473  65.280  1.00  0.00    -0.129 SA 
HETATM   29  C   UNL     1      -8.000   5.430  66.645  1.00  0.00    -0.105 A  
HETATM   30  C   UNL     1      -6.704   5.906  66.912  1.00  0.00    -0.058 A  
HETATM   31  C   UNL     1      -6.496   6.664  68.054  1.00  0.00    -0.056 A  
HETATM   32  C   UNL     1      -7.547   6.904  68.930  1.00  0.00    -0.105 A  
ENDBRANCH  21  24
ENDBRANCH  17  18
ENDBRANCH  16  17
ENDBRANCH  15  16
ENDBRANCH  14  15
ENDBRANCH  13  14
ENDBRANCH   7  13
TORSDOF 7
ENDMDL
MODEL      107
REMARK 921   NORMALIZED FREE ENERGY PREDICTED BY IDOCK:   -5.66 KCAL/MOL
REMARK 922        TOTAL FREE ENERGY PREDICTED BY IDOCK:   -9.28 KCAL/MOL
REMARK 923 INTER-LIGAND FREE ENERGY PREDICTED BY IDOCK:   -8.51 KCAL/MOL
REMARK 924 INTRA-LIGAND FREE ENERGY PREDICTED BY IDOCK:   -0.77 KCAL/MOL
REMARK 927      BINDING AFFINITY PREDICTED BY RF-SCORE:    0.00 PKD
ROOT
HETATM    1  O   UNL     1      -7.906   1.562  65.002  1.00  0.00    -0.065 OA 
HETATM    2  C   UNL     1      -8.550   2.535  65.379  1.00  0.00    -0.111 C  
HETATM    3  N   UNL     1      -8.516   2.981  66.671  1.00  0.00    -0.098 N  
HETATM    4  C   UNL     1      -9.267   4.072  67.131  1.00  0.00    -0.165 A  
HETATM    5  H   UNL     1      -7.914   2.495  67.335  1.00  0.00     0.000 HD 
HETATM    6  C   UNL     1      -9.194   4.455  68.470  1.00  0.00    -0.186 A  
HETATM    7  C   UNL     1      -9.964   5.527  68.928  1.00  0.00    -0.174 A  
HETATM    8  C   UNL     1      -9.408   3.289  64.432  1.00  0.00    -0.140 C  
HETATM    9  C   UNL     1     -10.801   6.205  68.032  1.00  0.00    -0.398 A  
HETATM   10  C   UNL     1     -10.136   4.338  64.833  1.00  0.00    -0.184 C  
HETATM   11  C   UNL     1     -10.867   5.825  66.689  1.00  0.00    -0.290 A  
HETATM   12  C   UNL     1     -10.095   4.758  66.232  1.00  0.00    -0.291 A  
ENDROOT
BRANCH   7  13
HETATM   13  O   UNL     1      -9.815   5.819  70.260  1.00  0.00    -0.174 OA 
BRANCH  13  14
HETATM   14  C   UNL     1     -10.009   4.720  71.150  1.00  0.00    -0.202 C  
BRANCH  14  15
HETATM   15  C   UNL     1     -10.514   5.224  72.497  1.00  0.00    -0.266 C  
BRANCH  15  16
HETATM   16  C   UNL     1     -10.239   6.719  72.686  1.00  0.00    -0.208 C  
BRANCH  16  17
HETATM   17  C   UNL     1     -11.491   7.602  72.836  1.00  0.00    -0.290 C  
BRANCH  17  18
HETATM   18  N   UNL     1     -12.189   7.890  71.576  1.00  0.00    -0.302 NA 
HETATM   19  C   UNL     1     -13.530   8.494  71.772  1.00  0.00    -0.371 C  
HETATM   20  C   UNL     1     -13.535   9.951  72.297  1.00  0.00    -0.300 C  
HETATM   21  N   UNL     1     -12.683  10.801  71.458  1.00  0.00    -0.421 NA 
HETATM   22  C   UNL     1     -11.395   8.818  70.725  1.00  0.00    -0.272 C  
HETATM   23  C   UNL     1     -11.324  10.285  71.228  1.00  0.00    -0.045 C  
BRANCH  21  24
HETATM   24  C   UNL     1     -12.935  12.171  71.335  1.00  0.00    -0.257 A  
HETATM   25  C   UNL     1     -12.353  13.049  70.357  1.00  0.00    -0.351 A  
HETATM   26  C   UNL     1     -11.569  12.784  69.171  1.00  0.00    -0.373 A  
HETATM   27  C   UNL     1     -11.138  13.914  68.519  1.00  0.00    -0.265 A  
HETATM   28  S   UNL     1     -11.708  15.326  69.266  1.00  0.00    -0.345 SA 
HETATM   29  C   UNL     1     -12.553  14.432  70.477  1.00  0.00    -0.353 A  
HETATM   30  C   UNL     1     -13.348  14.992  71.492  1.00  0.00    -0.500 A  
HETATM   31  C   UNL     1     -13.965  14.143  72.398  1.00  0.00    -0.613 A  
HETATM   32  C   UNL     1     -13.758  12.772  72.319  1.00  0.00    -0.495 A  
ENDBRANCH  21  24
ENDBRANCH  17  18
ENDBRANCH  16  17
ENDBRANCH  15  16
ENDBRANCH  14  15
ENDBRANCH  13  14
ENDBRANCH   7  13
TORSDOF 7
ENDMDL
MODEL      108
REMARK 921   NORMALIZED FREE ENERGY PREDICTED BY IDOCK:   -5.64 KCAL/MOL
REMARK 922        TOTAL FREE ENERGY PREDICTED BY IDOCK:   -9.26 KCAL/MOL
REMARK 923 INTER-LIGAND FREE ENERGY PREDICTED BY IDOCK:   -8.45 KCAL/MOL
REMARK 924 INTRA-LIGAND FREE ENERGY PREDICTED BY IDOCK:   -0.80 KCAL/MOL
REMARK 927      BINDING AFFINITY PREDICTED BY RF-SCORE:    0.00 PKD
ROOT
HETATM    1  O   UNL     1      -9.629   6.476  69.016  1.00  0.00    -0.134 OA 
HETATM    2  C   UNL     1      -9.094   7.288  68.271  1.00  0.00    -0.134 C  
HETATM    3  N   UNL     1      -9.763   7.898  67.247  1.00  0.00    -0.163 N  
HETATM    4  C   UNL     1      -9.163   8.806  66.363  1.00  0.00    -0.189 A  
HETATM    5  H   UNL     1     -10.752   7.681  67.118  1.00  0.00     0.000 HD 
HETATM    6  C   UNL     1      -9.909   9.372  65.330  1.00  0.00    -0.159 A  
HETATM    7  C   UNL     1      -9.299  10.256  64.437  1.00  0.00    -0.277 A  
HETATM    8  C   UNL     1      -7.667   7.656  68.451  1.00  0.00    -0.119 C  
HETATM    9  C   UNL     1      -7.941  10.564  64.594  1.00  0.00    -0.037 A  
HETATM   10  C   UNL     1      -7.060   8.522  67.630  1.00  0.00    -0.080 C  
HETATM   11  C   UNL     1      -7.198  10.003  65.635  1.00  0.00    -0.120 A  
HETATM   12  C   UNL     1      -7.808   9.124  66.528  1.00  0.00    -0.100 A  
ENDROOT
BRANCH   7  13
HETATM   13  O   UNL     1     -10.124  10.755  63.461  1.00  0.00    -0.333 OA 
BRANCH  13  14
HETATM   14  C   UNL     1     -10.380  12.157  63.539  1.00  0.00    -0.441 C  
BRANCH  14  15
HETATM   15  C   UNL     1     -11.884  12.409  63.587  1.00  0.00    -0.610 C  
BRANCH  15  16
HETATM   16  C   UNL     1     -12.446  12.229  65.000  1.00  0.00    -0.257 C  
BRANCH  16  17
HETATM   17  C   UNL     1     -12.353  13.470  65.906  1.00  0.00    -0.456 C  
BRANCH  17  18
HETATM   18  N   UNL     1     -11.204  13.473  66.821  1.00  0.00    -0.303 NA 
HETATM   19  C   UNL     1      -9.950  13.951  66.188  1.00  0.00    -0.310 C  
HETATM   20  C   UNL     1      -9.902  15.464  65.860  1.00  0.00    -0.356 C  
HETATM   21  N   UNL     1     -10.235  16.256  67.049  1.00  0.00    -0.275 NA 
HETATM   22  C   UNL     1     -11.467  14.334  68.006  1.00  0.00    -0.314 C  
HETATM   23  C   UNL     1     -11.479  15.862  67.730  1.00  0.00    -0.128 C  
BRANCH  21  24
HETATM   24  C   UNL     1      -9.736  17.553  67.210  1.00  0.00    -0.276 A  
HETATM   25  C   UNL     1      -8.560  17.914  67.953  1.00  0.00    -0.252 A  
HETATM   26  C   UNL     1      -7.501  17.114  68.529  1.00  0.00    -0.238 A  
HETATM   27  C   UNL     1      -6.566  17.839  69.227  1.00  0.00    -0.239 A  
HETATM   28  S   UNL     1      -6.888  19.504  69.165  1.00  0.00    -0.350 SA 
HETATM   29  C   UNL     1      -8.290  19.270  68.185  1.00  0.00    -0.323 A  
HETATM   30  C   UNL     1      -9.103  20.297  67.675  1.00  0.00    -0.423 A  
HETATM   31  C   UNL     1     -10.202  19.954  66.903  1.00  0.00    -0.600 A  
HETATM   32  C   UNL     1     -10.507  18.617  66.682  1.00  0.00    -0.459 A  
ENDBRANCH  21  24
ENDBRANCH  17  18
ENDBRANCH  16  17
ENDBRANCH  15  16
ENDBRANCH  14  15
ENDBRANCH  13  14
ENDBRANCH   7  13
TORSDOF 7
ENDMDL
MODEL      109
REMARK 921   NORMALIZED FREE ENERGY PREDICTED BY IDOCK:   -5.64 KCAL/MOL
REMARK 922        TOTAL FREE ENERGY PREDICTED BY IDOCK:   -9.26 KCAL/MOL
REMARK 923 INTER-LIGAND FREE ENERGY PREDICTED BY IDOCK:   -7.50 KCAL/MOL
REMARK 924 INTRA-LIGAND FREE ENERGY PREDICTED BY IDOCK:   -1.75 KCAL/MOL
REMARK 927      BINDING AFFINITY PREDICTED BY RF-SCORE:    0.00 PKD
ROOT
HETATM    1  O   UNL     1     -14.392   8.915  72.476  1.00  0.00    -0.579 OA 
HETATM    2  C   UNL     1     -13.280   9.102  71.994  1.00  0.00    -0.441 C  
HETATM    3  N   UNL     1     -13.063   9.970  70.960  1.00  0.00    -0.473 N  
HETATM    4  C   UNL     1     -11.806  10.175  70.374  1.00  0.00    -0.288 A  
HETATM    5  H   UNL     1     -13.858  10.495  70.595  1.00  0.00     0.000 HD 
HETATM    6  C   UNL     1     -11.670  11.064  69.309  1.00  0.00    -0.397 A  
HETATM    7  C   UNL     1     -10.419  11.245  68.713  1.00  0.00    -0.208 A  
HETATM    8  C   UNL     1     -12.095   8.383  72.525  1.00  0.00    -0.403 C  
HETATM    9  C   UNL     1      -9.316  10.530  69.197  1.00  0.00    -0.200 A  
HETATM   10  C   UNL     1     -10.878   8.556  71.994  1.00  0.00    -0.405 C  
HETATM   11  C   UNL     1      -9.454   9.646  70.270  1.00  0.00    -0.300 A  
HETATM   12  C   UNL     1     -10.700   9.469  70.867  1.00  0.00    -0.403 A  
ENDROOT
BRANCH   7  13
HETATM   13  O   UNL     1     -10.397  12.142  67.675  1.00  0.00    -0.199 OA 
BRANCH  13  14
HETATM   14  C   UNL     1     -10.980  11.679  66.458  1.00  0.00    -0.299 C  
BRANCH  14  15
HETATM   15  C   UNL     1      -9.886  11.254  65.484  1.00  0.00    -0.274 C  
BRANCH  15  16
HETATM   16  C   UNL     1      -9.908   9.744  65.227  1.00  0.00    -0.335 C  
BRANCH  16  17
HETATM   17  C   UNL     1      -8.946   8.916  66.099  1.00  0.00    -0.178 C  
BRANCH  17  18
HETATM   18  N   UNL     1      -9.113   7.462  65.979  1.00  0.00    -0.130 NA 
HETATM   19  C   UNL     1      -7.956   6.693  66.500  1.00  0.00    -0.106 C  
HETATM   20  C   UNL     1      -7.781   6.711  68.039  1.00  0.00    -0.108 C  
HETATM   21  N   UNL     1      -9.029   6.313  68.700  1.00  0.00    -0.128 NA 
HETATM   22  C   UNL     1     -10.326   7.001  66.708  1.00  0.00    -0.221 C  
HETATM   23  C   UNL     1     -10.228   7.042  68.257  1.00  0.00    -0.182 C  
BRANCH  21  24
HETATM   24  C   UNL     1      -9.011   5.708  69.961  1.00  0.00    -0.137 A  
HETATM   25  C   UNL     1      -8.119   6.039  71.039  1.00  0.00    -0.121 A  
HETATM   26  C   UNL     1      -7.196   7.137  71.223  1.00  0.00    -0.074 A  
HETATM   27  C   UNL     1      -6.465   7.069  72.383  1.00  0.00    -0.053 A  
HETATM   28  S   UNL     1      -6.900   5.724  73.321  1.00  0.00    -0.085 SA 
HETATM   29  C   UNL     1      -8.091   5.220  72.177  1.00  0.00    -0.114 A  
HETATM   30  C   UNL     1      -8.942   4.111  72.326  1.00  0.00    -0.139 A  
HETATM   31  C   UNL     1      -9.849   3.828  71.317  1.00  0.00    -0.219 A  
HETATM   32  C   UNL     1      -9.876   4.606  70.168  1.00  0.00    -0.306 A  
ENDBRANCH  21  24
ENDBRANCH  17  18
ENDBRANCH  16  17
ENDBRANCH  15  16
ENDBRANCH  14  15
ENDBRANCH  13  14
ENDBRANCH   7  13
TORSDOF 7
ENDMDL
MODEL      110
REMARK 921   NORMALIZED FREE ENERGY PREDICTED BY IDOCK:   -5.62 KCAL/MOL
REMARK 922        TOTAL FREE ENERGY PREDICTED BY IDOCK:   -9.23 KCAL/MOL
REMARK 923 INTER-LIGAND FREE ENERGY PREDICTED BY IDOCK:   -6.67 KCAL/MOL
REMARK 924 INTRA-LIGAND FREE ENERGY PREDICTED BY IDOCK:   -2.55 KCAL/MOL
REMARK 927      BINDING AFFINITY PREDICTED BY RF-SCORE:    0.00 PKD
ROOT
HETATM    1  O   UNL     1      -8.057   5.189  74.241  1.00  0.00    -0.096 OA 
HETATM    2  C   UNL     1      -9.073   5.574  73.674  1.00  0.00    -0.124 C  
HETATM    3  N   UNL     1      -9.225   6.858  73.229  1.00  0.00    -0.133 N  
HETATM    4  C   UNL     1     -10.390   7.328  72.607  1.00  0.00    -0.225 A  
HETATM    5  H   UNL     1      -8.450   7.509  73.358  1.00  0.00     0.000 HD 
HETATM    6  C   UNL     1     -10.476   8.658  72.198  1.00  0.00    -0.411 A  
HETATM    7  C   UNL     1     -11.648   9.126  71.601  1.00  0.00    -0.379 A  
HETATM    8  C   UNL     1     -10.206   4.645  73.436  1.00  0.00    -0.217 C  
HETATM    9  C   UNL     1     -12.726   8.249  71.420  1.00  0.00    -0.279 A  
HETATM   10  C   UNL     1     -11.333   5.055  72.841  1.00  0.00    -0.329 C  
HETATM   11  C   UNL     1     -12.635   6.914  71.822  1.00  0.00    -0.386 A  
HETATM   12  C   UNL     1     -11.463   6.446  72.413  1.00  0.00    -0.320 A  
ENDROOT
BRANCH   7  13
HETATM   13  O   UNL     1     -11.625  10.449  71.237  1.00  0.00    -0.311 OA 
BRANCH  13  14
HETATM   14  C   UNL     1     -12.112  10.727  69.925  1.00  0.00    -0.337 C  
BRANCH  14  15
HETATM   15  C   UNL     1     -11.759  12.157  69.531  1.00  0.00    -0.402 C  
BRANCH  15  16
HETATM   16  C   UNL     1     -10.791  12.198  68.345  1.00  0.00    -0.255 C  
BRANCH  16  17
HETATM   17  C   UNL     1     -10.983  11.080  67.304  1.00  0.00    -0.297 C  
BRANCH  17  18
HETATM   18  N   UNL     1      -9.736  10.448  66.852  1.00  0.00    -0.176 NA 
HETATM   19  C   UNL     1      -8.724  10.309  67.928  1.00  0.00    -0.122 C  
HETATM   20  C   UNL     1      -9.051   9.263  69.022  1.00  0.00    -0.147 C  
HETATM   21  N   UNL     1      -9.363   7.965  68.412  1.00  0.00    -0.141 NA 
HETATM   22  C   UNL     1      -9.996   9.090  66.300  1.00  0.00    -0.281 C  
HETATM   23  C   UNL     1     -10.376   8.007  67.345  1.00  0.00    -0.284 C  
BRANCH  21  24
HETATM   24  C   UNL     1      -9.135   6.773  69.107  1.00  0.00    -0.138 A  
HETATM   25  C   UNL     1      -7.944   6.442  69.839  1.00  0.00    -0.116 A  
HETATM   26  C   UNL     1      -6.804   7.239  70.235  1.00  0.00    -0.052 A  
HETATM   27  C   UNL     1      -5.822   6.532  70.884  1.00  0.00    -0.027 A  
HETATM   28  S   UNL     1      -6.256   4.905  71.097  1.00  0.00    -0.019 SA 
HETATM   29  C   UNL     1      -7.782   5.136  70.323  1.00  0.00    -0.071 A  
HETATM   30  C   UNL     1      -8.768   4.147  70.164  1.00  0.00    -0.117 A  
HETATM   31  C   UNL     1      -9.947   4.481  69.516  1.00  0.00    -0.235 A  
HETATM   32  C   UNL     1     -10.119   5.759  69.001  1.00  0.00    -0.249 A  
ENDBRANCH  21  24
ENDBRANCH  17  18
ENDBRANCH  16  17
ENDBRANCH  15  16
ENDBRANCH  14  15
ENDBRANCH  13  14
ENDBRANCH   7  13
TORSDOF 7
ENDMDL
MODEL      111
REMARK 921   NORMALIZED FREE ENERGY PREDICTED BY IDOCK:   -5.61 KCAL/MOL
REMARK 922        TOTAL FREE ENERGY PREDICTED BY IDOCK:   -9.21 KCAL/MOL
REMARK 923 INTER-LIGAND FREE ENERGY PREDICTED BY IDOCK:   -7.88 KCAL/MOL
REMARK 924 INTRA-LIGAND FREE ENERGY PREDICTED BY IDOCK:   -1.33 KCAL/MOL
REMARK 927      BINDING AFFINITY PREDICTED BY RF-SCORE:    0.00 PKD
ROOT
HETATM    1  O   UNL     1     -12.398  13.563  66.343  1.00  0.00    -0.407 OA 
HETATM    2  C   UNL     1     -11.759  12.867  65.562  1.00  0.00    -0.383 C  
HETATM    3  N   UNL     1     -11.098  11.737  65.956  1.00  0.00    -0.319 N  
HETATM    4  C   UNL     1     -10.337  10.944  65.087  1.00  0.00    -0.278 A  
HETATM    5  H   UNL     1     -11.162  11.457  66.935  1.00  0.00     0.000 HD 
HETATM    6  C   UNL     1      -9.675   9.815  65.569  1.00  0.00    -0.382 A  
HETATM    7  C   UNL     1      -8.897   9.043  64.703  1.00  0.00    -0.096 A  
HETATM    8  C   UNL     1     -11.675  13.224  64.124  1.00  0.00    -0.470 C  
HETATM    9  C   UNL     1      -8.793   9.415  63.356  1.00  0.00    -0.199 A  
HETATM   10  C   UNL     1     -10.962  12.489  63.262  1.00  0.00    -0.248 C  
HETATM   11  C   UNL     1      -9.464  10.541  62.872  1.00  0.00    -0.360 A  
HETATM   12  C   UNL     1     -10.244  11.308  63.736  1.00  0.00    -0.431 A  
ENDROOT
BRANCH   7  13
HETATM   13  O   UNL     1      -8.292   7.957  65.281  1.00  0.00    -0.141 OA 
BRANCH  13  14
HETATM   14  C   UNL     1      -6.873   7.900  65.134  1.00  0.00    -0.051 C  
BRANCH  14  15
HETATM   15  C   UNL     1      -6.261   7.114  66.288  1.00  0.00    -0.040 C  
BRANCH  15  16
HETATM   16  C   UNL     1      -7.310   6.278  67.027  1.00  0.00    -0.083 C  
BRANCH  16  17
HETATM   17  C   UNL     1      -7.356   6.484  68.552  1.00  0.00    -0.087 C  
BRANCH  17  18
HETATM   18  N   UNL     1      -8.419   5.735  69.236  1.00  0.00    -0.107 NA 
HETATM   19  C   UNL     1      -8.568   6.100  70.666  1.00  0.00    -0.135 C  
HETATM   20  C   UNL     1      -9.158   7.506  70.938  1.00  0.00    -0.153 C  
HETATM   21  N   UNL     1     -10.418   7.682  70.207  1.00  0.00    -0.219 NA 
HETATM   22  C   UNL     1      -9.735   5.951  68.575  1.00  0.00    -0.126 C  
HETATM   23  C   UNL     1     -10.355   7.360  68.773  1.00  0.00    -0.199 C  
BRANCH  21  24
HETATM   24  C   UNL     1     -11.407   8.550  70.682  1.00  0.00    -0.241 A  
HETATM   25  C   UNL     1     -11.521   9.947  70.365  1.00  0.00    -0.372 A  
HETATM   26  C   UNL     1     -10.849  10.770  69.384  1.00  0.00    -0.289 A  
HETATM   27  C   UNL     1     -11.195  12.098  69.432  1.00  0.00    -0.182 A  
HETATM   28  S   UNL     1     -12.380  12.395  70.610  1.00  0.00    -0.172 SA 
HETATM   29  C   UNL     1     -12.449  10.732  71.065  1.00  0.00    -0.420 A  
HETATM   30  C   UNL     1     -13.313  10.190  72.034  1.00  0.00    -0.492 A  
HETATM   31  C   UNL     1     -13.251   8.830  72.294  1.00  0.00    -0.456 A  
HETATM   32  C   UNL     1     -12.320   8.038  71.636  1.00  0.00    -0.344 A  
ENDBRANCH  21  24
ENDBRANCH  17  18
ENDBRANCH  16  17
ENDBRANCH  15  16
ENDBRANCH  14  15
ENDBRANCH  13  14
ENDBRANCH   7  13
TORSDOF 7
ENDMDL
MODEL      112
REMARK 921   NORMALIZED FREE ENERGY PREDICTED BY IDOCK:   -5.60 KCAL/MOL
REMARK 922        TOTAL FREE ENERGY PREDICTED BY IDOCK:   -9.19 KCAL/MOL
REMARK 923 INTER-LIGAND FREE ENERGY PREDICTED BY IDOCK:   -8.71 KCAL/MOL
REMARK 924 INTRA-LIGAND FREE ENERGY PREDICTED BY IDOCK:   -0.48 KCAL/MOL
REMARK 927      BINDING AFFINITY PREDICTED BY RF-SCORE:    0.00 PKD
ROOT
HETATM    1  O   UNL     1      -5.165  18.428  64.720  1.00  0.00    -0.153 OA 
HETATM    2  C   UNL     1      -6.115  18.853  65.369  1.00  0.00    -0.254 C  
HETATM    3  N   UNL     1      -7.099  18.036  65.851  1.00  0.00    -0.287 N  
HETATM    4  C   UNL     1      -8.209  18.504  66.569  1.00  0.00    -0.281 A  
HETATM    5  H   UNL     1      -7.022  17.033  65.680  1.00  0.00     0.000 HD 
HETATM    6  C   UNL     1      -9.182  17.608  67.011  1.00  0.00    -0.254 A  
HETATM    7  C   UNL     1     -10.299  18.084  67.703  1.00  0.00    -0.388 A  
HETATM    8  C   UNL     1      -6.239  20.301  65.669  1.00  0.00    -0.250 C  
HETATM    9  C   UNL     1     -10.425  19.458  67.945  1.00  0.00    -0.536 A  
HETATM   10  C   UNL     1      -7.283  20.785  66.354  1.00  0.00    -0.154 C  
HETATM   11  C   UNL     1      -9.444  20.352  67.508  1.00  0.00    -0.532 A  
HETATM   12  C   UNL     1      -8.328  19.877  66.821  1.00  0.00    -0.364 A  
ENDROOT
BRANCH   7  13
HETATM   13  O   UNL     1     -11.192  17.119  68.093  1.00  0.00    -0.236 OA 
BRANCH  13  14
HETATM   14  C   UNL     1     -10.633  16.035  68.834  1.00  0.00    -0.257 C  
BRANCH  14  15
HETATM   15  C   UNL     1     -11.667  14.926  68.996  1.00  0.00    -0.347 C  
BRANCH  15  16
HETATM   16  C   UNL     1     -11.569  13.888  67.874  1.00  0.00    -0.377 C  
BRANCH  16  17
HETATM   17  C   UNL     1     -10.880  12.567  68.261  1.00  0.00    -0.234 C  
BRANCH  17  18
HETATM   18  N   UNL     1     -11.739  11.380  68.162  1.00  0.00    -0.538 NA 
HETATM   19  C   UNL     1     -11.015  10.166  67.710  1.00  0.00    -0.277 C  
HETATM   20  C   UNL     1     -10.021   9.563  68.733  1.00  0.00    -0.174 C  
HETATM   21  N   UNL     1     -10.685   9.341  70.023  1.00  0.00    -0.224 NA 
HETATM   22  C   UNL     1     -12.371  11.067  69.473  1.00  0.00    -0.197 C  
HETATM   23  C   UNL     1     -11.412  10.503  70.556  1.00  0.00    -0.345 C  
BRANCH  21  24
HETATM   24  C   UNL     1     -10.244   8.338  70.893  1.00  0.00    -0.191 A  
HETATM   25  C   UNL     1     -10.052   6.955  70.553  1.00  0.00    -0.201 A  
HETATM   26  C   UNL     1     -10.045   6.268  69.281  1.00  0.00    -0.213 A  
HETATM   27  C   UNL     1      -9.885   4.907  69.377  1.00  0.00    -0.211 A  
HETATM   28  S   UNL     1      -9.678   4.413  70.987  1.00  0.00    -0.194 SA 
HETATM   29  C   UNL     1      -9.790   6.032  71.576  1.00  0.00    -0.168 A  
HETATM   30  C   UNL     1      -9.656   6.417  72.921  1.00  0.00    -0.158 A  
HETATM   31  C   UNL     1      -9.775   7.760  73.243  1.00  0.00    -0.357 A  
HETATM   32  C   UNL     1     -10.064   8.690  72.253  1.00  0.00    -0.363 A  
ENDBRANCH  21  24
ENDBRANCH  17  18
ENDBRANCH  16  17
ENDBRANCH  15  16
ENDBRANCH  14  15
ENDBRANCH  13  14
ENDBRANCH   7  13
TORSDOF 7
ENDMDL
MODEL      113
REMARK 921   NORMALIZED FREE ENERGY PREDICTED BY IDOCK:   -5.59 KCAL/MOL
REMARK 922        TOTAL FREE ENERGY PREDICTED BY IDOCK:   -9.18 KCAL/MOL
REMARK 923 INTER-LIGAND FREE ENERGY PREDICTED BY IDOCK:   -8.20 KCAL/MOL
REMARK 924 INTRA-LIGAND FREE ENERGY PREDICTED BY IDOCK:   -0.98 KCAL/MOL
REMARK 927      BINDING AFFINITY PREDICTED BY RF-SCORE:    0.00 PKD
ROOT
HETATM    1  O   UNL     1      -6.426   9.424  69.276  1.00  0.00    -0.044 OA 
HETATM    2  C   UNL     1      -7.260   8.887  69.996  1.00  0.00    -0.054 C  
HETATM    3  N   UNL     1      -8.506   9.413  70.196  1.00  0.00    -0.186 N  
HETATM    4  C   UNL     1      -9.464   8.832  71.038  1.00  0.00    -0.228 A  
HETATM    5  H   UNL     1      -8.751  10.274  69.707  1.00  0.00     0.000 HD 
HETATM    6  C   UNL     1     -10.708   9.441  71.206  1.00  0.00    -0.421 A  
HETATM    7  C   UNL     1     -11.648   8.871  72.067  1.00  0.00    -0.364 A  
HETATM    8  C   UNL     1      -6.951   7.614  70.694  1.00  0.00    -0.047 C  
HETATM    9  C   UNL     1     -11.328   7.691  72.751  1.00  0.00    -0.419 A  
HETATM   10  C   UNL     1      -7.841   7.028  71.504  1.00  0.00    -0.098 C  
HETATM   11  C   UNL     1     -10.085   7.078  72.576  1.00  0.00    -0.198 A  
HETATM   12  C   UNL     1      -9.148   7.645  71.713  1.00  0.00    -0.161 A  
ENDROOT
BRANCH   7  13
HETATM   13  O   UNL     1     -12.837   9.549  72.156  1.00  0.00    -0.388 OA 
BRANCH  13  14
HETATM   14  C   UNL     1     -13.021  10.585  71.192  1.00  0.00    -0.411 C  
BRANCH  14  15
HETATM   15  C   UNL     1     -13.482  11.864  71.883  1.00  0.00    -0.289 C  
BRANCH  15  16
HETATM   16  C   UNL     1     -12.586  13.056  71.531  1.00  0.00    -0.279 C  
BRANCH  16  17
HETATM   17  C   UNL     1     -12.009  13.043  70.104  1.00  0.00    -0.303 C  
BRANCH  17  18
HETATM   18  N   UNL     1     -12.400  14.193  69.278  1.00  0.00    -0.258 NA 
HETATM   19  C   UNL     1     -12.235  15.496  69.968  1.00  0.00    -0.355 C  
HETATM   20  C   UNL     1     -10.771  15.949  70.197  1.00  0.00    -0.332 C  
HETATM   21  N   UNL     1     -10.021  15.913  68.937  1.00  0.00    -0.214 NA 
HETATM   22  C   UNL     1     -11.603  14.243  68.022  1.00  0.00    -0.332 C  
HETATM   23  C   UNL     1     -10.114  14.646  68.194  1.00  0.00    -0.224 C  
BRANCH  21  24
HETATM   24  C   UNL     1      -8.931  16.763  68.727  1.00  0.00    -0.254 A  
HETATM   25  C   UNL     1      -9.000  18.115  68.244  1.00  0.00    -0.306 A  
HETATM   26  C   UNL     1     -10.118  19.012  68.050  1.00  0.00    -0.458 A  
HETATM   27  C   UNL     1      -9.776  20.225  67.503  1.00  0.00    -0.435 A  
HETATM   28  S   UNL     1      -8.102  20.356  67.263  1.00  0.00    -0.303 SA 
HETATM   29  C   UNL     1      -7.813  18.779  67.902  1.00  0.00    -0.262 A  
HETATM   30  C   UNL     1      -6.547  18.187  68.062  1.00  0.00    -0.194 A  
HETATM   31  C   UNL     1      -6.473  16.907  68.589  1.00  0.00    -0.169 A  
HETATM   32  C   UNL     1      -7.636  16.218  68.908  1.00  0.00    -0.212 A  
ENDBRANCH  21  24
ENDBRANCH  17  18
ENDBRANCH  16  17
ENDBRANCH  15  16
ENDBRANCH  14  15
ENDBRANCH  13  14
ENDBRANCH   7  13
TORSDOF 7
ENDMDL
MODEL      114
REMARK 921   NORMALIZED FREE ENERGY PREDICTED BY IDOCK:   -5.57 KCAL/MOL
REMARK 922        TOTAL FREE ENERGY PREDICTED BY IDOCK:   -9.16 KCAL/MOL
REMARK 923 INTER-LIGAND FREE ENERGY PREDICTED BY IDOCK:   -9.39 KCAL/MOL
REMARK 924 INTRA-LIGAND FREE ENERGY PREDICTED BY IDOCK:    0.23 KCAL/MOL
REMARK 927      BINDING AFFINITY PREDICTED BY RF-SCORE:    0.00 PKD
ROOT
HETATM    1  O   UNL     1     -11.018   3.221  73.354  1.00  0.00    -0.196 OA 
HETATM    2  C   UNL     1     -10.744   4.323  72.890  1.00  0.00    -0.167 C  
HETATM    3  N   UNL     1     -11.605   5.383  72.957  1.00  0.00    -0.511 N  
HETATM    4  C   UNL     1     -11.326   6.641  72.406  1.00  0.00    -0.272 A  
HETATM    5  H   UNL     1     -12.498   5.251  73.432  1.00  0.00     0.000 HD 
HETATM    6  C   UNL     1     -12.265   7.668  72.499  1.00  0.00    -0.142 A  
HETATM    7  C   UNL     1     -11.992   8.912  71.926  1.00  0.00    -0.371 A  
HETATM    8  C   UNL     1      -9.439   4.562  72.224  1.00  0.00    -0.179 C  
HETATM    9  C   UNL     1     -10.772   9.112  71.264  1.00  0.00    -0.401 A  
HETATM   10  C   UNL     1      -9.135   5.750  71.690  1.00  0.00    -0.152 C  
HETATM   11  C   UNL     1      -9.829   8.085  71.180  1.00  0.00    -0.198 A  
HETATM   12  C   UNL     1     -10.101   6.845  71.756  1.00  0.00    -0.198 A  
ENDROOT
BRANCH   7  13
HETATM   13  O   UNL     1     -12.982   9.849  72.076  1.00  0.00    -0.413 OA 
BRANCH  13  14
HETATM   14  C   UNL     1     -13.151  10.738  70.972  1.00  0.00    -0.248 C  
BRANCH  14  15
HETATM   15  C   UNL     1     -12.593  12.114  71.321  1.00  0.00    -0.341 C  
BRANCH  15  16
HETATM   16  C   UNL     1     -13.627  12.979  72.048  1.00  0.00    -0.530 C  
BRANCH  16  17
HETATM   17  C   UNL     1     -13.042  14.096  72.932  1.00  0.00    -0.444 C  
BRANCH  17  18
HETATM   18  N   UNL     1     -13.231  15.453  72.404  1.00  0.00    -0.387 NA 
HETATM   19  C   UNL     1     -11.958  16.188  72.202  1.00  0.00    -0.537 C  
HETATM   20  C   UNL     1     -11.073  15.681  71.036  1.00  0.00    -0.318 C  
HETATM   21  N   UNL     1     -11.852  15.611  69.795  1.00  0.00    -0.354 NA 
HETATM   22  C   UNL     1     -13.947  15.425  71.100  1.00  0.00    -0.316 C  
HETATM   23  C   UNL     1     -13.125  14.880  69.901  1.00  0.00     0.281 C  
BRANCH  21  24
HETATM   24  C   UNL     1     -11.231  15.748  68.549  1.00  0.00    -0.354 A  
HETATM   25  C   UNL     1     -10.617  16.944  68.043  1.00  0.00    -0.367 A  
HETATM   26  C   UNL     1     -10.284  18.199  68.680  1.00  0.00    -0.382 A  
HETATM   27  C   UNL     1      -9.751  19.137  67.829  1.00  0.00    -0.321 A  
HETATM   28  S   UNL     1      -9.572  18.528  66.256  1.00  0.00    -0.217 SA 
HETATM   29  C   UNL     1     -10.204  16.985  66.703  1.00  0.00    -0.310 A  
HETATM   30  C   UNL     1     -10.322  15.877  65.846  1.00  0.00    -0.383 A  
HETATM   31  C   UNL     1     -10.853  14.700  66.350  1.00  0.00    -0.315 A  
HETATM   32  C   UNL     1     -11.297  14.644  67.665  1.00  0.00    -0.350 A  
ENDBRANCH  21  24
ENDBRANCH  17  18
ENDBRANCH  16  17
ENDBRANCH  15  16
ENDBRANCH  14  15
ENDBRANCH  13  14
ENDBRANCH   7  13
TORSDOF 7
ENDMDL
MODEL      115
REMARK 921   NORMALIZED FREE ENERGY PREDICTED BY IDOCK:   -5.57 KCAL/MOL
REMARK 922        TOTAL FREE ENERGY PREDICTED BY IDOCK:   -9.15 KCAL/MOL
REMARK 923 INTER-LIGAND FREE ENERGY PREDICTED BY IDOCK:   -7.70 KCAL/MOL
REMARK 924 INTRA-LIGAND FREE ENERGY PREDICTED BY IDOCK:   -1.46 KCAL/MOL
REMARK 927      BINDING AFFINITY PREDICTED BY RF-SCORE:    0.00 PKD
ROOT
HETATM    1  O   UNL     1     -13.400  14.129  65.232  1.00  0.00    -0.715 OA 
HETATM    2  C   UNL     1     -12.575  13.235  65.082  1.00  0.00    -0.453 C  
HETATM    3  N   UNL     1     -11.973  12.606  66.137  1.00  0.00    -0.420 N  
HETATM    4  C   UNL     1     -11.005  11.603  65.988  1.00  0.00    -0.286 A  
HETATM    5  H   UNL     1     -12.243  12.881  67.081  1.00  0.00     0.000 HD 
HETATM    6  C   UNL     1     -10.423  11.023  67.114  1.00  0.00    -0.274 A  
HETATM    7  C   UNL     1      -9.440  10.042  66.960  1.00  0.00    -0.164 A  
HETATM    8  C   UNL     1     -12.186  12.784  63.723  1.00  0.00    -0.572 C  
HETATM    9  C   UNL     1      -9.052   9.654  65.670  1.00  0.00    -0.236 A  
HETATM   10  C   UNL     1     -11.268  11.827  63.541  1.00  0.00    -0.494 C  
HETATM   11  C   UNL     1      -9.643  10.231  64.543  1.00  0.00    -0.378 A  
HETATM   12  C   UNL     1     -10.627  11.206  64.698  1.00  0.00    -0.386 A  
ENDROOT
BRANCH   7  13
HETATM   13  O   UNL     1      -8.936   9.537  68.131  1.00  0.00    -0.124 OA 
BRANCH  13  14
HETATM   14  C   UNL     1      -9.391  10.185  69.319  1.00  0.00    -0.215 C  
BRANCH  14  15
HETATM   15  C   UNL     1      -8.945   9.397  70.546  1.00  0.00    -0.303 C  
BRANCH  15  16
HETATM   16  C   UNL     1      -9.942   8.290  70.904  1.00  0.00    -0.223 C  
BRANCH  16  17
HETATM   17  C   UNL     1      -9.469   6.857  70.595  1.00  0.00    -0.165 C  
BRANCH  17  18
HETATM   18  N   UNL     1     -10.522   5.963  70.095  1.00  0.00    -0.238 NA 
HETATM   19  C   UNL     1     -11.242   6.504  68.916  1.00  0.00    -0.264 C  
HETATM   20  C   UNL     1     -10.428   6.549  67.599  1.00  0.00    -0.230 C  
HETATM   21  N   UNL     1      -9.845   5.233  67.313  1.00  0.00    -0.149 NA 
HETATM   22  C   UNL     1      -9.961   4.639  69.713  1.00  0.00    -0.225 C  
HETATM   23  C   UNL     1      -9.094   4.630  68.425  1.00  0.00    -0.120 C  
BRANCH  21  24
HETATM   24  C   UNL     1      -9.575   4.839  65.998  1.00  0.00    -0.180 A  
HETATM   25  C   UNL     1      -8.494   5.319  65.182  1.00  0.00    -0.149 A  
HETATM   26  C   UNL     1      -7.329   6.115  65.499  1.00  0.00    -0.080 A  
HETATM   27  C   UNL     1      -6.545   6.422  64.413  1.00  0.00    -0.034 A  
HETATM   28  S   UNL     1      -7.141   5.716  62.990  1.00  0.00    -0.047 SA 
HETATM   29  C   UNL     1      -8.462   4.978  63.822  1.00  0.00    -0.128 A  
HETATM   30  C   UNL     1      -9.425   4.140  63.234  1.00  0.00    -0.141 A  
HETATM   31  C   UNL     1     -10.432   3.622  64.033  1.00  0.00    -0.271 A  
HETATM   32  C   UNL     1     -10.502   3.968  65.376  1.00  0.00    -0.034 A  
ENDBRANCH  21  24
ENDBRANCH  17  18
ENDBRANCH  16  17
ENDBRANCH  15  16
ENDBRANCH  14  15
ENDBRANCH  13  14
ENDBRANCH   7  13
TORSDOF 7
ENDMDL
MODEL      116
REMARK 921   NORMALIZED FREE ENERGY PREDICTED BY IDOCK:   -5.56 KCAL/MOL
REMARK 922        TOTAL FREE ENERGY PREDICTED BY IDOCK:   -9.14 KCAL/MOL
REMARK 923 INTER-LIGAND FREE ENERGY PREDICTED BY IDOCK:   -7.96 KCAL/MOL
REMARK 924 INTRA-LIGAND FREE ENERGY PREDICTED BY IDOCK:   -1.18 KCAL/MOL
REMARK 927      BINDING AFFINITY PREDICTED BY RF-SCORE:    0.00 PKD
ROOT
HETATM    1  O   UNL     1     -12.607  14.036  63.216  1.00  0.00    -0.801 OA 
HETATM    2  C   UNL     1     -12.232  13.476  64.240  1.00  0.00    -0.396 C  
HETATM    3  N   UNL     1     -11.405  12.387  64.221  1.00  0.00    -0.336 N  
HETATM    4  C   UNL     1     -10.989  11.712  65.377  1.00  0.00    -0.270 A  
HETATM    5  H   UNL     1     -11.073  12.048  63.318  1.00  0.00     0.000 HD 
HETATM    6  C   UNL     1     -10.159  10.597  65.274  1.00  0.00    -0.363 A  
HETATM    7  C   UNL     1      -9.768   9.913  66.428  1.00  0.00    -0.212 A  
HETATM    8  C   UNL     1     -12.664  13.965  65.573  1.00  0.00    -0.536 C  
HETATM    9  C   UNL     1     -10.217  10.361  67.678  1.00  0.00    -0.240 A  
HETATM   10  C   UNL     1     -12.285  13.349  66.699  1.00  0.00    -0.391 C  
HETATM   11  C   UNL     1     -11.041  11.485  67.780  1.00  0.00    -0.319 A  
HETATM   12  C   UNL     1     -11.427  12.169  66.628  1.00  0.00    -0.426 A  
ENDROOT
BRANCH   7  13
HETATM   13  O   UNL     1      -8.952   8.832  66.213  1.00  0.00    -0.151 OA 
BRANCH  13  14
HETATM   14  C   UNL     1      -7.771   8.792  67.014  1.00  0.00    -0.095 C  
BRANCH  14  15
HETATM   15  C   UNL     1      -6.746   9.786  66.481  1.00  0.00    -0.079 C  
BRANCH  15  16
HETATM   16  C   UNL     1      -6.269  10.752  67.570  1.00  0.00    -0.053 C  
BRANCH  16  17
HETATM   17  C   UNL     1      -6.450  12.246  67.246  1.00  0.00    -0.152 C  
BRANCH  17  18
HETATM   18  N   UNL     1      -6.678  13.101  68.419  1.00  0.00    -0.085 NA 
HETATM   19  C   UNL     1      -5.868  14.344  68.406  1.00  0.00    -0.105 C  
HETATM   20  C   UNL     1      -6.284  15.400  67.351  1.00  0.00    -0.001 C  
HETATM   21  N   UNL     1      -7.717  15.696  67.460  1.00  0.00    -0.152 NA 
HETATM   22  C   UNL     1      -8.109  13.495  68.522  1.00  0.00    -0.108 C  
HETATM   23  C   UNL     1      -8.597  14.517  67.460  1.00  0.00    -0.189 C  
BRANCH  21  24
HETATM   24  C   UNL     1      -8.223  16.941  67.072  1.00  0.00    -0.199 A  
HETATM   25  C   UNL     1      -7.531  18.197  67.168  1.00  0.00    -0.224 A  
HETATM   26  C   UNL     1      -6.151  18.515  67.462  1.00  0.00    -0.175 A  
HETATM   27  C   UNL     1      -5.886  19.862  67.522  1.00  0.00    -0.180 A  
HETATM   28  S   UNL     1      -7.262  20.789  67.168  1.00  0.00    -0.316 SA 
HETATM   29  C   UNL     1      -8.234  19.384  66.920  1.00  0.00    -0.281 A  
HETATM   30  C   UNL     1      -9.585  19.391  66.529  1.00  0.00    -0.440 A  
HETATM   31  C   UNL     1     -10.237  18.178  66.372  1.00  0.00    -0.405 A  
HETATM   32  C   UNL     1      -9.571  16.990  66.640  1.00  0.00    -0.279 A  
ENDBRANCH  21  24
ENDBRANCH  17  18
ENDBRANCH  16  17
ENDBRANCH  15  16
ENDBRANCH  14  15
ENDBRANCH  13  14
ENDBRANCH   7  13
TORSDOF 7
ENDMDL
MODEL      117
REMARK 921   NORMALIZED FREE ENERGY PREDICTED BY IDOCK:   -5.54 KCAL/MOL
REMARK 922        TOTAL FREE ENERGY PREDICTED BY IDOCK:   -9.11 KCAL/MOL
REMARK 923 INTER-LIGAND FREE ENERGY PREDICTED BY IDOCK:   -8.43 KCAL/MOL
REMARK 924 INTRA-LIGAND FREE ENERGY PREDICTED BY IDOCK:   -0.68 KCAL/MOL
REMARK 927      BINDING AFFINITY PREDICTED BY RF-SCORE:    0.00 PKD
ROOT
HETATM    1  O   UNL     1     -10.498   5.877  69.678  1.00  0.00    -0.221 OA 
HETATM    2  C   UNL     1     -10.037   6.459  68.702  1.00  0.00    -0.158 C  
HETATM    3  N   UNL     1     -10.605   7.591  68.185  1.00  0.00    -0.341 N  
HETATM    4  C   UNL     1     -10.113   8.254  67.053  1.00  0.00    -0.283 A  
HETATM    5  H   UNL     1     -11.430   7.971  68.648  1.00  0.00     0.000 HD 
HETATM    6  C   UNL     1     -10.760   9.393  66.574  1.00  0.00    -0.012 A  
HETATM    7  C   UNL     1     -10.279  10.034  65.430  1.00  0.00    -0.156 A  
HETATM    8  C   UNL     1      -8.816   5.954  68.027  1.00  0.00    -0.109 C  
HETATM    9  C   UNL     1      -9.149   9.523  64.778  1.00  0.00    -0.271 A  
HETATM   10  C   UNL     1      -8.313   6.563  66.945  1.00  0.00    -0.113 C  
HETATM   11  C   UNL     1      -8.497   8.388  65.264  1.00  0.00    -0.189 A  
HETATM   12  C   UNL     1      -8.974   7.750  66.408  1.00  0.00    -0.196 A  
ENDROOT
BRANCH   7  13
HETATM   13  O   UNL     1     -10.989  11.144  65.048  1.00  0.00    -0.218 OA 
BRANCH  13  14
HETATM   14  C   UNL     1     -10.743  11.594  63.716  1.00  0.00    -0.419 C  
BRANCH  14  15
HETATM   15  C   UNL     1     -11.710  12.718  63.359  1.00  0.00    -0.556 C  
BRANCH  15  16
HETATM   16  C   UNL     1     -11.436  13.985  64.174  1.00  0.00    -0.230 C  
BRANCH  16  17
HETATM   17  C   UNL     1      -9.977  14.170  64.628  1.00  0.00     0.178 C  
BRANCH  17  18
HETATM   18  N   UNL     1      -9.812  15.005  65.825  1.00  0.00    -0.336 NA 
HETATM   19  C   UNL     1     -11.098  15.484  66.389  1.00  0.00    -0.174 C  
HETATM   20  C   UNL     1     -11.976  14.402  67.065  1.00  0.00    -0.395 C  
HETATM   21  N   UNL     1     -11.197  13.662  68.064  1.00  0.00    -0.255 NA 
HETATM   22  C   UNL     1      -9.097  14.263  66.900  1.00  0.00    -0.252 C  
HETATM   23  C   UNL     1      -9.911  13.132  67.583  1.00  0.00    -0.219 C  
BRANCH  21  24
HETATM   24  C   UNL     1     -11.822  13.072  69.168  1.00  0.00    -0.310 A  
HETATM   25  C   UNL     1     -12.463  13.774  70.246  1.00  0.00    -0.357 A  
HETATM   26  C   UNL     1     -12.823  15.165  70.409  1.00  0.00    -0.346 A  
HETATM   27  C   UNL     1     -13.377  15.463  71.630  1.00  0.00    -0.490 A  
HETATM   28  S   UNL     1     -13.544  14.078  72.597  1.00  0.00    -0.428 SA 
HETATM   29  C   UNL     1     -12.878  13.056  71.376  1.00  0.00    -0.292 A  
HETATM   30  C   UNL     1     -12.736  11.661  71.475  1.00  0.00    -0.423 A  
HETATM   31  C   UNL     1     -12.178  10.972  70.409  1.00  0.00    -0.461 A  
HETATM   32  C   UNL     1     -11.733  11.664  69.291  1.00  0.00    -0.396 A  
ENDBRANCH  21  24
ENDBRANCH  17  18
ENDBRANCH  16  17
ENDBRANCH  15  16
ENDBRANCH  14  15
ENDBRANCH  13  14
ENDBRANCH   7  13
TORSDOF 7
ENDMDL
MODEL      118
REMARK 921   NORMALIZED FREE ENERGY PREDICTED BY IDOCK:   -5.53 KCAL/MOL
REMARK 922        TOTAL FREE ENERGY PREDICTED BY IDOCK:   -9.10 KCAL/MOL
REMARK 923 INTER-LIGAND FREE ENERGY PREDICTED BY IDOCK:   -8.40 KCAL/MOL
REMARK 924 INTRA-LIGAND FREE ENERGY PREDICTED BY IDOCK:   -0.70 KCAL/MOL
REMARK 927      BINDING AFFINITY PREDICTED BY RF-SCORE:    0.00 PKD
ROOT
HETATM    1  O   UNL     1      -9.455   3.196  68.955  1.00  0.00    -0.163 OA 
HETATM    2  C   UNL     1      -9.717   3.935  69.898  1.00  0.00    -0.164 C  
HETATM    3  N   UNL     1     -10.262   5.177  69.728  1.00  0.00    -0.275 N  
HETATM    4  C   UNL     1     -10.539   6.051  70.789  1.00  0.00    -0.255 A  
HETATM    5  H   UNL     1     -10.477   5.485  68.780  1.00  0.00     0.000 HD 
HETATM    6  C   UNL     1     -11.078   7.311  70.533  1.00  0.00    -0.290 A  
HETATM    7  C   UNL     1     -11.328   8.187  71.592  1.00  0.00    -0.264 A  
HETATM    8  C   UNL     1      -9.451   3.505  71.293  1.00  0.00    -0.229 C  
HETATM    9  C   UNL     1     -11.035   7.784  72.902  1.00  0.00    -0.467 A  
HETATM   10  C   UNL     1      -9.706   4.309  72.332  1.00  0.00    -0.207 C  
HETATM   11  C   UNL     1     -10.503   6.517  73.157  1.00  0.00    -0.272 A  
HETATM   12  C   UNL     1     -10.257   5.642  72.100  1.00  0.00    -0.247 A  
ENDROOT
BRANCH   7  13
HETATM   13  O   UNL     1     -11.859   9.398  71.229  1.00  0.00    -0.308 OA 
BRANCH  13  14
HETATM   14  C   UNL     1     -11.042  10.186  70.364  1.00  0.00    -0.324 C  
BRANCH  14  15
HETATM   15  C   UNL     1     -11.822  10.559  69.108  1.00  0.00    -0.218 C  
BRANCH  15  16
HETATM   16  C   UNL     1     -10.935  10.537  67.859  1.00  0.00    -0.352 C  
BRANCH  16  17
HETATM   17  C   UNL     1     -10.274  11.880  67.500  1.00  0.00    -0.196 C  
BRANCH  17  18
HETATM   18  N   UNL     1     -11.202  13.017  67.434  1.00  0.00    -0.276 NA 
HETATM   19  C   UNL     1     -10.982  14.017  68.507  1.00  0.00    -0.256 C  
HETATM   20  C   UNL     1      -9.686  14.856  68.383  1.00  0.00    -0.209 C  
HETATM   21  N   UNL     1      -9.600  15.471  67.053  1.00  0.00    -0.220 NA 
HETATM   22  C   UNL     1     -11.089  13.723  66.129  1.00  0.00    -0.296 C  
HETATM   23  C   UNL     1      -9.786  14.544  65.926  1.00  0.00    -0.321 C  
BRANCH  21  24
HETATM   24  C   UNL     1      -8.901  16.667  66.860  1.00  0.00    -0.211 A  
HETATM   25  C   UNL     1      -9.434  17.990  67.037  1.00  0.00    -0.273 A  
HETATM   26  C   UNL     1     -10.671  18.459  67.621  1.00  0.00    -0.390 A  
HETATM   27  C   UNL     1     -10.847  19.820  67.547  1.00  0.00    -0.274 A  
HETATM   28  S   UNL     1      -9.512  20.587  66.834  1.00  0.00    -0.276 SA 
HETATM   29  C   UNL     1      -8.674  19.093  66.622  1.00  0.00    -0.320 A  
HETATM   30  C   UNL     1      -7.382  18.956  66.085  1.00  0.00    -0.292 A  
HETATM   31  C   UNL     1      -6.838  17.686  65.975  1.00  0.00    -0.308 A  
HETATM   32  C   UNL     1      -7.583  16.576  66.351  1.00  0.00    -0.249 A  
ENDBRANCH  21  24
ENDBRANCH  17  18
ENDBRANCH  16  17
ENDBRANCH  15  16
ENDBRANCH  14  15
ENDBRANCH  13  14
ENDBRANCH   7  13
TORSDOF 7
ENDMDL
MODEL      119
REMARK 921   NORMALIZED FREE ENERGY PREDICTED BY IDOCK:   -5.52 KCAL/MOL
REMARK 922        TOTAL FREE ENERGY PREDICTED BY IDOCK:   -9.08 KCAL/MOL
REMARK 923 INTER-LIGAND FREE ENERGY PREDICTED BY IDOCK:   -8.21 KCAL/MOL
REMARK 924 INTRA-LIGAND FREE ENERGY PREDICTED BY IDOCK:   -0.87 KCAL/MOL
REMARK 927      BINDING AFFINITY PREDICTED BY RF-SCORE:    0.00 PKD
ROOT
HETATM    1  O   UNL     1      -6.109   3.561  71.099  1.00  0.00    -0.014 OA 
HETATM    2  C   UNL     1      -7.066   4.141  70.599  1.00  0.00    -0.037 C  
HETATM    3  N   UNL     1      -8.153   4.532  71.330  1.00  0.00    -0.093 N  
HETATM    4  C   UNL     1      -9.271   5.168  70.774  1.00  0.00    -0.145 A  
HETATM    5  H   UNL     1      -8.150   4.350  72.334  1.00  0.00     0.000 HD 
HETATM    6  C   UNL     1     -10.351   5.518  71.584  1.00  0.00    -0.277 A  
HETATM    7  C   UNL     1     -11.473   6.128  71.019  1.00  0.00    -0.248 A  
HETATM    8  C   UNL     1      -7.088   4.454  69.148  1.00  0.00    -0.051 C  
HETATM    9  C   UNL     1     -11.498   6.381  69.641  1.00  0.00    -0.446 A  
HETATM   10  C   UNL     1      -8.136   5.064  68.581  1.00  0.00    -0.085 C  
HETATM   11  C   UNL     1     -10.412   6.037  68.833  1.00  0.00    -0.309 A  
HETATM   12  C   UNL     1      -9.291   5.433  69.397  1.00  0.00    -0.164 A  
ENDROOT
BRANCH   7  13
HETATM   13  O   UNL     1     -12.475   6.431  71.905  1.00  0.00    -0.337 OA 
BRANCH  13  14
HETATM   14  C   UNL     1     -13.128   7.681  71.682  1.00  0.00    -0.353 C  
BRANCH  14  15
HETATM   15  C   UNL     1     -12.377   8.797  72.402  1.00  0.00    -0.414 C  
BRANCH  15  16
HETATM   16  C   UNL     1     -12.951  10.177  72.067  1.00  0.00    -0.508 C  
BRANCH  16  17
HETATM   17  C   UNL     1     -12.801  10.610  70.598  1.00  0.00    -0.320 C  
BRANCH  17  18
HETATM   18  N   UNL     1     -11.443  11.026  70.221  1.00  0.00    -0.298 NA 
HETATM   19  C   UNL     1     -10.806  10.122  69.231  1.00  0.00    -0.235 C  
HETATM   20  C   UNL     1     -11.396  10.176  67.800  1.00  0.00     0.018 C  
HETATM   21  N   UNL     1     -11.434  11.560  67.314  1.00  0.00    -0.495 NA 
HETATM   22  C   UNL     1     -11.445  12.397  69.643  1.00  0.00    -0.194 C  
HETATM   23  C   UNL     1     -12.070  12.523  68.227  1.00  0.00    -0.069 C  
BRANCH  21  24
HETATM   24  C   UNL     1     -11.366  11.841  65.945  1.00  0.00    -0.263 A  
HETATM   25  C   UNL     1     -10.456  11.241  65.008  1.00  0.00    -0.359 A  
HETATM   26  C   UNL     1      -9.560  10.112  65.125  1.00  0.00    -0.354 A  
HETATM   27  C   UNL     1      -8.796   9.883  64.006  1.00  0.00    -0.228 A  
HETATM   28  S   UNL     1      -9.170  10.970  62.758  1.00  0.00    -0.343 SA 
HETATM   29  C   UNL     1     -10.376  11.760  63.708  1.00  0.00    -0.410 A  
HETATM   30  C   UNL     1     -11.192  12.817  63.268  1.00  0.00    -0.160 A  
HETATM   31  C   UNL     1     -12.117  13.354  64.150  1.00  0.00    -0.491 A  
HETATM   32  C   UNL     1     -12.195  12.878  65.452  1.00  0.00    -0.528 A  
ENDBRANCH  21  24
ENDBRANCH  17  18
ENDBRANCH  16  17
ENDBRANCH  15  16
ENDBRANCH  14  15
ENDBRANCH  13  14
ENDBRANCH   7  13
TORSDOF 7
ENDMDL
MODEL      120
REMARK 921   NORMALIZED FREE ENERGY PREDICTED BY IDOCK:   -5.51 KCAL/MOL
REMARK 922        TOTAL FREE ENERGY PREDICTED BY IDOCK:   -9.07 KCAL/MOL
REMARK 923 INTER-LIGAND FREE ENERGY PREDICTED BY IDOCK:   -7.75 KCAL/MOL
REMARK 924 INTRA-LIGAND FREE ENERGY PREDICTED BY IDOCK:   -1.33 KCAL/MOL
REMARK 927      BINDING AFFINITY PREDICTED BY RF-SCORE:    0.00 PKD
ROOT
HETATM    1  O   UNL     1      -8.409   9.115  71.618  1.00  0.00    -0.339 OA 
HETATM    2  C   UNL     1      -7.844   9.378  70.563  1.00  0.00    -0.164 C  
HETATM    3  N   UNL     1      -8.440   9.195  69.345  1.00  0.00    -0.125 N  
HETATM    4  C   UNL     1      -7.801   9.459  68.126  1.00  0.00    -0.087 A  
HETATM    5  H   UNL     1      -9.399   8.849  69.324  1.00  0.00     0.000 HD 
HETATM    6  C   UNL     1      -8.470   9.229  66.924  1.00  0.00    -0.128 A  
HETATM    7  C   UNL     1      -7.819   9.470  65.711  1.00  0.00    -0.104 A  
HETATM    8  C   UNL     1      -6.462   9.918  70.557  1.00  0.00    -0.116 C  
HETATM    9  C   UNL     1      -6.500   9.941  65.720  1.00  0.00    -0.092 A  
HETATM   10  C   UNL     1      -5.821  10.186  69.413  1.00  0.00    -0.037 C  
HETATM   11  C   UNL     1      -5.835  10.180  66.925  1.00  0.00    -0.051 A  
HETATM   12  C   UNL     1      -6.486   9.944  68.135  1.00  0.00    -0.055 A  
ENDROOT
BRANCH   7  13
HETATM   13  O   UNL     1      -8.568   9.211  64.591  1.00  0.00    -0.173 OA 
BRANCH  13  14
HETATM   14  C   UNL     1      -8.490  10.201  63.565  1.00  0.00    -0.186 C  
BRANCH  14  15
HETATM   15  C   UNL     1      -9.887  10.531  63.052  1.00  0.00    -0.267 C  
BRANCH  15  16
HETATM   16  C   UNL     1     -10.279  11.979  63.360  1.00  0.00    -0.457 C  
BRANCH  16  17
HETATM   17  C   UNL     1     -10.256  12.362  64.851  1.00  0.00    -0.278 C  
BRANCH  17  18
HETATM   18  N   UNL     1     -11.503  12.079  65.572  1.00  0.00    -0.338 NA 
HETATM   19  C   UNL     1     -11.284  11.476  66.910  1.00  0.00    -0.298 C  
HETATM   20  C   UNL     1     -10.688  12.424  67.980  1.00  0.00    -0.223 C  
HETATM   21  N   UNL     1     -11.481  13.655  68.072  1.00  0.00    -0.291 NA 
HETATM   22  C   UNL     1     -12.304  13.319  65.762  1.00  0.00    -0.447 C  
HETATM   23  C   UNL     1     -11.730  14.332  66.789  1.00  0.00    -0.405 C  
BRANCH  21  24
HETATM   24  C   UNL     1     -11.537  14.385  69.264  1.00  0.00    -0.304 A  
HETATM   25  C   UNL     1     -12.210  13.977  70.467  1.00  0.00    -0.435 A  
HETATM   26  C   UNL     1     -12.797  12.716  70.862  1.00  0.00    -0.178 A  
HETATM   27  C   UNL     1     -13.411  12.743  72.091  1.00  0.00    -0.492 A  
HETATM   28  S   UNL     1     -13.251  14.257  72.840  1.00  0.00    -0.371 SA 
HETATM   29  C   UNL     1     -12.343  14.896  71.519  1.00  0.00    -0.339 A  
HETATM   30  C   UNL     1     -11.796  16.190  71.460  1.00  0.00    -0.528 A  
HETATM   31  C   UNL     1     -11.090  16.564  70.328  1.00  0.00    -0.171 A  
HETATM   32  C   UNL     1     -10.970  15.682  69.261  1.00  0.00    -0.267 A  
ENDBRANCH  21  24
ENDBRANCH  17  18
ENDBRANCH  16  17
ENDBRANCH  15  16
ENDBRANCH  14  15
ENDBRANCH  13  14
ENDBRANCH   7  13
TORSDOF 7
ENDMDL
MODEL      121
REMARK 921   NORMALIZED FREE ENERGY PREDICTED BY IDOCK:   -5.51 KCAL/MOL
REMARK 922        TOTAL FREE ENERGY PREDICTED BY IDOCK:   -9.07 KCAL/MOL
REMARK 923 INTER-LIGAND FREE ENERGY PREDICTED BY IDOCK:   -8.69 KCAL/MOL
REMARK 924 INTRA-LIGAND FREE ENERGY PREDICTED BY IDOCK:   -0.37 KCAL/MOL
REMARK 927      BINDING AFFINITY PREDICTED BY RF-SCORE:    0.00 PKD
ROOT
HETATM    1  O   UNL     1     -11.377   3.127  62.931  1.00  0.00    -0.096 OA 
HETATM    2  C   UNL     1     -10.512   3.173  63.799  1.00  0.00    -0.218 C  
HETATM    3  N   UNL     1     -10.607   3.994  64.888  1.00  0.00    -0.526 N  
HETATM    4  C   UNL     1      -9.617   4.085  65.876  1.00  0.00    -0.193 A  
HETATM    5  H   UNL     1     -11.443   4.569  64.988  1.00  0.00     0.000 HD 
HETATM    6  C   UNL     1      -9.779   4.961  66.949  1.00  0.00    -0.193 A  
HETATM    7  C   UNL     1      -8.777   5.067  67.916  1.00  0.00    -0.103 A  
HETATM    8  C   UNL     1      -9.299   2.323  63.705  1.00  0.00    -0.109 C  
HETATM    9  C   UNL     1      -7.618   4.287  67.794  1.00  0.00    -0.069 A  
HETATM   10  C   UNL     1      -8.333   2.380  64.630  1.00  0.00    -0.088 C  
HETATM   11  C   UNL     1      -7.461   3.405  66.723  1.00  0.00    -0.076 A  
HETATM   12  C   UNL     1      -8.464   3.296  65.761  1.00  0.00    -0.107 A  
ENDROOT
BRANCH   7  13
HETATM   13  O   UNL     1      -9.039   5.955  68.927  1.00  0.00    -0.120 OA 
BRANCH  13  14
HETATM   14  C   UNL     1      -9.057   5.396  70.240  1.00  0.00    -0.136 C  
BRANCH  14  15
HETATM   15  C   UNL     1     -10.432   5.590  70.870  1.00  0.00    -0.319 C  
BRANCH  15  16
HETATM   16  C   UNL     1     -11.305   6.543  70.048  1.00  0.00    -0.472 C  
BRANCH  16  17
HETATM   17  C   UNL     1     -12.381   7.301  70.846  1.00  0.00    -0.248 C  
BRANCH  17  18
HETATM   18  N   UNL     1     -11.863   8.080  71.978  1.00  0.00    -0.307 NA 
HETATM   19  C   UNL     1     -10.818   9.059  71.589  1.00  0.00    -0.366 C  
HETATM   20  C   UNL     1     -11.314  10.274  70.767  1.00  0.00    -0.337 C  
HETATM   21  N   UNL     1     -12.433  10.931  71.451  1.00  0.00    -0.369 NA 
HETATM   22  C   UNL     1     -12.956   8.832  72.653  1.00  0.00    -0.243 C  
HETATM   23  C   UNL     1     -13.528  10.035  71.856  1.00  0.00    -0.350 C  
BRANCH  21  24
HETATM   24  C   UNL     1     -12.685  12.295  71.267  1.00  0.00    -0.251 A  
HETATM   25  C   UNL     1     -12.185  13.104  70.189  1.00  0.00    -0.360 A  
HETATM   26  C   UNL     1     -11.511  12.757  68.957  1.00  0.00    -0.360 A  
HETATM   27  C   UNL     1     -11.131  13.839  68.201  1.00  0.00    -0.259 A  
HETATM   28  S   UNL     1     -11.621  15.302  68.907  1.00  0.00    -0.355 SA 
HETATM   29  C   UNL     1     -12.362  14.494  70.241  1.00  0.00    -0.349 A  
HETATM   30  C   UNL     1     -13.059  15.125  71.286  1.00  0.00    -0.512 A  
HETATM   31  C   UNL     1     -13.599  14.342  72.293  1.00  0.00    -0.573 A  
HETATM   32  C   UNL     1     -13.412  12.966  72.281  1.00  0.00    -0.631 A  
ENDBRANCH  21  24
ENDBRANCH  17  18
ENDBRANCH  16  17
ENDBRANCH  15  16
ENDBRANCH  14  15
ENDBRANCH  13  14
ENDBRANCH   7  13
TORSDOF 7
ENDMDL
MODEL      122
REMARK 921   NORMALIZED FREE ENERGY PREDICTED BY IDOCK:   -5.51 KCAL/MOL
REMARK 922        TOTAL FREE ENERGY PREDICTED BY IDOCK:   -9.06 KCAL/MOL
REMARK 923 INTER-LIGAND FREE ENERGY PREDICTED BY IDOCK:   -8.24 KCAL/MOL
REMARK 924 INTRA-LIGAND FREE ENERGY PREDICTED BY IDOCK:   -0.83 KCAL/MOL
REMARK 927      BINDING AFFINITY PREDICTED BY RF-SCORE:    0.00 PKD
ROOT
HETATM    1  O   UNL     1      -9.591  14.366  67.007  1.00  0.00    -0.231 OA 
HETATM    2  C   UNL     1     -10.370  14.561  67.933  1.00  0.00    -0.231 C  
HETATM    3  N   UNL     1     -10.838  13.550  68.725  1.00  0.00    -0.253 N  
HETATM    4  C   UNL     1     -11.753  13.746  69.768  1.00  0.00    -0.302 A  
HETATM    5  H   UNL     1     -10.503  12.603  68.547  1.00  0.00     0.000 HD 
HETATM    6  C   UNL     1     -12.198  12.659  70.520  1.00  0.00    -0.383 A  
HETATM    7  C   UNL     1     -13.130  12.857  71.542  1.00  0.00    -0.298 A  
HETATM    8  C   UNL     1     -10.849  15.931  68.244  1.00  0.00    -0.315 C  
HETATM    9  C   UNL     1     -13.605  14.150  71.799  1.00  0.00    -0.483 A  
HETATM   10  C   UNL     1     -11.720  16.158  69.234  1.00  0.00    -0.224 C  
HETATM   11  C   UNL     1     -13.151  15.239  71.050  1.00  0.00    -0.544 A  
HETATM   12  C   UNL     1     -12.219  15.041  70.033  1.00  0.00    -0.373 A  
ENDROOT
BRANCH   7  13
HETATM   13  O   UNL     1     -13.498  11.722  72.218  1.00  0.00    -0.423 OA 
BRANCH  13  14
HETATM   14  C   UNL     1     -12.906  10.512  71.745  1.00  0.00    -0.454 C  
BRANCH  14  15
HETATM   15  C   UNL     1     -13.770   9.320  72.141  1.00  0.00    -0.517 C  
BRANCH  15  16
HETATM   16  C   UNL     1     -12.920   8.104  72.525  1.00  0.00    -0.072 C  
BRANCH  16  17
HETATM   17  C   UNL     1     -12.722   7.063  71.408  1.00  0.00    -0.374 C  
BRANCH  17  18
HETATM   18  N   UNL     1     -11.362   6.517  71.317  1.00  0.00    -0.289 NA 
HETATM   19  C   UNL     1     -11.085   5.842  70.025  1.00  0.00    -0.341 C  
HETATM   20  C   UNL     1     -10.968   6.776  68.795  1.00  0.00    -0.209 C  
HETATM   21  N   UNL     1     -10.001   7.848  69.057  1.00  0.00    -0.182 NA 
HETATM   22  C   UNL     1     -10.344   7.588  71.494  1.00  0.00    -0.196 C  
HETATM   23  C   UNL     1     -10.214   8.586  70.312  1.00  0.00    -0.193 C  
BRANCH  21  24
HETATM   24  C   UNL     1      -9.297   8.450  68.008  1.00  0.00    -0.136 A  
HETATM   25  C   UNL     1      -8.514   9.651  68.102  1.00  0.00    -0.118 A  
HETATM   26  C   UNL     1      -8.069  10.424  69.241  1.00  0.00    -0.159 A  
HETATM   27  C   UNL     1      -7.377  11.564  68.911  1.00  0.00    -0.116 A  
HETATM   28  S   UNL     1      -7.183  11.716  67.232  1.00  0.00    -0.146 SA 
HETATM   29  C   UNL     1      -8.023  10.239  66.927  1.00  0.00    -0.112 A  
HETATM   30  C   UNL     1      -8.225   9.667  65.659  1.00  0.00    -0.121 A  
HETATM   31  C   UNL     1      -8.924   8.473  65.571  1.00  0.00    -0.182 A  
HETATM   32  C   UNL     1      -9.445   7.887  66.717  1.00  0.00    -0.257 A  
ENDBRANCH  21  24
ENDBRANCH  17  18
ENDBRANCH  16  17
ENDBRANCH  15  16
ENDBRANCH  14  15
ENDBRANCH  13  14
ENDBRANCH   7  13
TORSDOF 7
ENDMDL
MODEL      123
REMARK 921   NORMALIZED FREE ENERGY PREDICTED BY IDOCK:   -5.50 KCAL/MOL
REMARK 922        TOTAL FREE ENERGY PREDICTED BY IDOCK:   -9.05 KCAL/MOL
REMARK 923 INTER-LIGAND FREE ENERGY PREDICTED BY IDOCK:   -8.07 KCAL/MOL
REMARK 924 INTRA-LIGAND FREE ENERGY PREDICTED BY IDOCK:   -0.98 KCAL/MOL
REMARK 927      BINDING AFFINITY PREDICTED BY RF-SCORE:    0.00 PKD
ROOT
HETATM    1  O   UNL     1      -8.354   6.945  74.238  1.00  0.00    -0.128 OA 
HETATM    2  C   UNL     1      -9.032   7.520  73.394  1.00  0.00    -0.203 C  
HETATM    3  N   UNL     1      -8.478   8.202  72.346  1.00  0.00    -0.163 N  
HETATM    4  C   UNL     1      -9.233   8.892  71.387  1.00  0.00    -0.258 A  
HETATM    5  H   UNL     1      -7.462   8.209  72.258  1.00  0.00     0.000 HD 
HETATM    6  C   UNL     1      -8.593   9.581  70.358  1.00  0.00    -0.246 A  
HETATM    7  C   UNL     1      -9.349  10.288  69.421  1.00  0.00    -0.199 A  
HETATM    8  C   UNL     1     -10.514   7.499  73.470  1.00  0.00    -0.362 C  
HETATM    9  C   UNL     1     -10.747  10.294  69.528  1.00  0.00    -0.280 A  
HETATM   10  C   UNL     1     -11.269   8.143  72.571  1.00  0.00    -0.459 C  
HETATM   11  C   UNL     1     -11.386   9.596  70.555  1.00  0.00    -0.360 A  
HETATM   12  C   UNL     1     -10.631   8.887  71.488  1.00  0.00    -0.399 A  
ENDROOT
BRANCH   7  13
HETATM   13  O   UNL     1      -8.620  10.928  68.451  1.00  0.00    -0.131 OA 
BRANCH  13  14
HETATM   14  C   UNL     1      -8.772  10.406  67.131  1.00  0.00    -0.129 C  
BRANCH  14  15
HETATM   15  C   UNL     1      -8.927  11.549  66.134  1.00  0.00    -0.201 C  
BRANCH  15  16
HETATM   16  C   UNL     1     -10.375  12.043  66.056  1.00  0.00    -0.271 C  
BRANCH  16  17
HETATM   17  C   UNL     1     -10.761  13.108  67.098  1.00  0.00    -0.255 C  
BRANCH  17  18
HETATM   18  N   UNL     1     -11.295  14.352  66.528  1.00  0.00    -0.341 NA 
HETATM   19  C   UNL     1     -11.649  15.364  67.554  1.00  0.00    -0.169 C  
HETATM   20  C   UNL     1     -10.451  16.020  68.285  1.00  0.00    -0.269 C  
HETATM   21  N   UNL     1      -9.491  16.556  67.313  1.00  0.00    -0.232 NA 
HETATM   22  C   UNL     1     -10.317  14.977  65.597  1.00  0.00    -0.353 C  
HETATM   23  C   UNL     1      -9.069  15.610  66.268  1.00  0.00    -0.341 C  
BRANCH  21  24
HETATM   24  C   UNL     1      -8.670  17.641  67.640  1.00  0.00    -0.232 A  
HETATM   25  C   UNL     1      -7.594  17.624  68.592  1.00  0.00    -0.276 A  
HETATM   26  C   UNL     1      -6.939  16.536  69.285  1.00  0.00    -0.227 A  
HETATM   27  C   UNL     1      -5.974  16.938  70.177  1.00  0.00    -0.124 A  
HETATM   28  S   UNL     1      -5.776  18.623  70.170  1.00  0.00    -0.192 SA 
HETATM   29  C   UNL     1      -6.984  18.834  68.955  1.00  0.00    -0.295 A  
HETATM   30  C   UNL     1      -7.354  20.063  68.383  1.00  0.00    -0.285 A  
HETATM   31  C   UNL     1      -8.347  20.075  67.416  1.00  0.00    -0.382 A  
HETATM   32  C   UNL     1      -8.986  18.894  67.061  1.00  0.00    -0.306 A  
ENDBRANCH  21  24
ENDBRANCH  17  18
ENDBRANCH  16  17
ENDBRANCH  15  16
ENDBRANCH  14  15
ENDBRANCH  13  14
ENDBRANCH   7  13
TORSDOF 7
ENDMDL
MODEL      124
REMARK 921   NORMALIZED FREE ENERGY PREDICTED BY IDOCK:   -5.45 KCAL/MOL
REMARK 922        TOTAL FREE ENERGY PREDICTED BY IDOCK:   -8.99 KCAL/MOL
REMARK 923 INTER-LIGAND FREE ENERGY PREDICTED BY IDOCK:   -7.42 KCAL/MOL
REMARK 924 INTRA-LIGAND FREE ENERGY PREDICTED BY IDOCK:   -1.57 KCAL/MOL
REMARK 927      BINDING AFFINITY PREDICTED BY RF-SCORE:    0.00 PKD
ROOT
HETATM    1  O   UNL     1      -7.736  10.507  62.802  1.00  0.00    -0.147 OA 
HETATM    2  C   UNL     1      -8.374  10.044  63.741  1.00  0.00    -0.170 C  
HETATM    3  N   UNL     1      -8.057   8.851  64.328  1.00  0.00    -0.150 N  
HETATM    4  C   UNL     1      -8.790   8.288  65.382  1.00  0.00    -0.073 A  
HETATM    5  H   UNL     1      -7.243   8.343  63.981  1.00  0.00     0.000 HD 
HETATM    6  C   UNL     1      -8.414   7.056  65.915  1.00  0.00    -0.151 A  
HETATM    7  C   UNL     1      -9.164   6.488  66.947  1.00  0.00    -0.140 A  
HETATM    8  C   UNL     1      -9.542  10.773  64.296  1.00  0.00    -0.333 C  
HETATM    9  C   UNL     1     -10.289   7.168  67.435  1.00  0.00    -0.324 A  
HETATM   10  C   UNL     1     -10.265  10.270  65.304  1.00  0.00    -0.308 C  
HETATM   11  C   UNL     1     -10.659   8.407  66.905  1.00  0.00    -0.285 A  
HETATM   12  C   UNL     1      -9.908   8.975  65.878  1.00  0.00    -0.257 A  
ENDROOT
BRANCH   7  13
HETATM   13  O   UNL     1      -8.706   5.277  67.398  1.00  0.00    -0.109 OA 
BRANCH  13  14
HETATM   14  C   UNL     1      -8.270   5.259  68.757  1.00  0.00    -0.089 C  
BRANCH  14  15
HETATM   15  C   UNL     1      -8.954   4.122  69.509  1.00  0.00    -0.161 C  
BRANCH  15  16
HETATM   16  C   UNL     1     -10.009   4.643  70.490  1.00  0.00    -0.295 C  
BRANCH  16  17
HETATM   17  C   UNL     1      -9.932   6.149  70.797  1.00  0.00    -0.189 C  
BRANCH  17  18
HETATM   18  N   UNL     1     -10.766   6.585  71.924  1.00  0.00    -0.215 NA 
HETATM   19  C   UNL     1     -10.224   7.770  72.633  1.00  0.00    -0.279 C  
HETATM   20  C   UNL     1     -10.294   9.106  71.852  1.00  0.00    -0.173 C  
HETATM   21  N   UNL     1     -11.660   9.348  71.374  1.00  0.00    -0.352 NA 
HETATM   22  C   UNL     1     -12.143   6.922  71.470  1.00  0.00    -0.358 C  
HETATM   23  C   UNL     1     -12.270   8.228  70.640  1.00  0.00     0.113 C  
BRANCH  21  24
HETATM   24  C   UNL     1     -12.128  10.650  71.168  1.00  0.00    -0.341 A  
HETATM   25  C   UNL     1     -11.639  11.571  70.179  1.00  0.00    -0.336 A  
HETATM   26  C   UNL     1     -10.750  11.392  69.052  1.00  0.00    -0.245 A  
HETATM   27  C   UNL     1     -10.472  12.549  68.366  1.00  0.00    -0.240 A  
HETATM   28  S   UNL     1     -11.313  13.876  69.007  1.00  0.00    -0.300 SA 
HETATM   29  C   UNL     1     -12.072  12.905  70.216  1.00  0.00    -0.302 A  
HETATM   30  C   UNL     1     -13.009  13.365  71.157  1.00  0.00    -0.314 A  
HETATM   31  C   UNL     1     -13.532  12.464  72.071  1.00  0.00    -0.460 A  
HETATM   32  C   UNL     1     -13.098  11.145  72.073  1.00  0.00    -0.433 A  
ENDBRANCH  21  24
ENDBRANCH  17  18
ENDBRANCH  16  17
ENDBRANCH  15  16
ENDBRANCH  14  15
ENDBRANCH  13  14
ENDBRANCH   7  13
TORSDOF 7
ENDMDL
MODEL      125
REMARK 921   NORMALIZED FREE ENERGY PREDICTED BY IDOCK:   -5.45 KCAL/MOL
REMARK 922        TOTAL FREE ENERGY PREDICTED BY IDOCK:   -8.99 KCAL/MOL
REMARK 923 INTER-LIGAND FREE ENERGY PREDICTED BY IDOCK:   -8.33 KCAL/MOL
REMARK 924 INTRA-LIGAND FREE ENERGY PREDICTED BY IDOCK:   -0.66 KCAL/MOL
REMARK 927      BINDING AFFINITY PREDICTED BY RF-SCORE:    0.00 PKD
ROOT
HETATM    1  O   UNL     1     -11.393   6.604  72.076  1.00  0.00    -0.255 OA 
HETATM    2  C   UNL     1     -11.093   6.806  70.904  1.00  0.00    -0.277 C  
HETATM    3  N   UNL     1     -10.919   8.064  70.397  1.00  0.00    -0.249 N  
HETATM    4  C   UNL     1     -10.606   8.320  69.055  1.00  0.00    -0.150 A  
HETATM    5  H   UNL     1     -11.023   8.858  71.029  1.00  0.00     0.000 HD 
HETATM    6  C   UNL     1     -10.464   9.633  68.609  1.00  0.00    -0.235 A  
HETATM    7  C   UNL     1     -10.177   9.882  67.265  1.00  0.00    -0.222 A  
HETATM    8  C   UNL     1     -10.897   5.673  69.966  1.00  0.00    -0.366 C  
HETATM    9  C   UNL     1     -10.036   8.805  66.381  1.00  0.00    -0.346 A  
HETATM   10  C   UNL     1     -10.594   5.877  68.678  1.00  0.00    -0.323 C  
HETATM   11  C   UNL     1     -10.170   7.489  66.831  1.00  0.00    -0.359 A  
HETATM   12  C   UNL     1     -10.452   7.241  68.173  1.00  0.00    -0.244 A  
ENDROOT
BRANCH   7  13
HETATM   13  O   UNL     1     -10.057  11.208  66.934  1.00  0.00    -0.203 OA 
BRANCH  13  14
HETATM   14  C   UNL     1      -9.795  11.470  65.556  1.00  0.00    -0.234 C  
BRANCH  14  15
HETATM   15  C   UNL     1     -11.088  11.382  64.753  1.00  0.00    -0.258 C  
BRANCH  15  16
HETATM   16  C   UNL     1     -11.866  12.701  64.782  1.00  0.00    -0.434 C  
BRANCH  16  17
HETATM   17  C   UNL     1     -11.006  13.973  64.667  1.00  0.00    -0.392 C  
BRANCH  17  18
HETATM   18  N   UNL     1     -11.383  15.049  65.593  1.00  0.00    -0.330 NA 
HETATM   19  C   UNL     1     -11.382  14.628  67.015  1.00  0.00    -0.355 C  
HETATM   20  C   UNL     1      -9.986  14.364  67.632  1.00  0.00    -0.224 C  
HETATM   21  N   UNL     1      -9.104  15.517  67.415  1.00  0.00    -0.195 NA 
HETATM   22  C   UNL     1     -10.461  16.211  65.465  1.00  0.00    -0.386 C  
HETATM   23  C   UNL     1      -9.030  15.989  66.023  1.00  0.00    -0.310 C  
BRANCH  21  24
HETATM   24  C   UNL     1      -8.058  15.796  68.300  1.00  0.00    -0.142 A  
HETATM   25  C   UNL     1      -7.614  17.106  68.691  1.00  0.00    -0.258 A  
HETATM   26  C   UNL     1      -8.189  18.417  68.488  1.00  0.00    -0.338 A  
HETATM   27  C   UNL     1      -7.420  19.449  68.969  1.00  0.00    -0.349 A  
HETATM   28  S   UNL     1      -6.017  18.881  69.735  1.00  0.00    -0.242 SA 
HETATM   29  C   UNL     1      -6.432  17.232  69.435  1.00  0.00    -0.235 A  
HETATM   30  C   UNL     1      -5.688  16.117  69.859  1.00  0.00    -0.172 A  
HETATM   31  C   UNL     1      -6.148  14.850  69.540  1.00  0.00    -0.113 A  
HETATM   32  C   UNL     1      -7.300  14.699  68.779  1.00  0.00    -0.131 A  
ENDBRANCH  21  24
ENDBRANCH  17  18
ENDBRANCH  16  17
ENDBRANCH  15  16
ENDBRANCH  14  15
ENDBRANCH  13  14
ENDBRANCH   7  13
TORSDOF 7
ENDMDL
MODEL      126
REMARK 921   NORMALIZED FREE ENERGY PREDICTED BY IDOCK:   -5.45 KCAL/MOL
REMARK 922        TOTAL FREE ENERGY PREDICTED BY IDOCK:   -8.98 KCAL/MOL
REMARK 923 INTER-LIGAND FREE ENERGY PREDICTED BY IDOCK:   -7.82 KCAL/MOL
REMARK 924 INTRA-LIGAND FREE ENERGY PREDICTED BY IDOCK:   -1.17 KCAL/MOL
REMARK 927      BINDING AFFINITY PREDICTED BY RF-SCORE:    0.00 PKD
ROOT
HETATM    1  O   UNL     1     -11.205   5.521  73.694  1.00  0.00    -0.194 OA 
HETATM    2  C   UNL     1     -11.057   6.307  72.765  1.00  0.00    -0.251 C  
HETATM    3  N   UNL     1     -11.110   5.916  71.456  1.00  0.00    -0.269 N  
HETATM    4  C   UNL     1     -10.912   6.792  70.379  1.00  0.00    -0.283 A  
HETATM    5  H   UNL     1     -11.303   4.935  71.252  1.00  0.00     0.000 HD 
HETATM    6  C   UNL     1     -10.963   6.312  69.071  1.00  0.00    -0.437 A  
HETATM    7  C   UNL     1     -10.740   7.185  68.003  1.00  0.00    -0.171 A  
HETATM    8  C   UNL     1     -10.811   7.747  73.024  1.00  0.00    -0.451 C  
HETATM    9  C   UNL     1     -10.468   8.535  68.263  1.00  0.00    -0.222 A  
HETATM   10  C   UNL     1     -10.621   8.615  72.022  1.00  0.00    -0.421 C  
HETATM   11  C   UNL     1     -10.426   9.015  69.574  1.00  0.00    -0.223 A  
HETATM   12  C   UNL     1     -10.653   8.145  70.639  1.00  0.00    -0.229 A  
ENDROOT
BRANCH   7  13
HETATM   13  O   UNL     1     -10.814   6.610  66.760  1.00  0.00    -0.320 OA 
BRANCH  13  14
HETATM   14  C   UNL     1     -10.125   5.367  66.622  1.00  0.00    -0.216 C  
BRANCH  14  15
HETATM   15  C   UNL     1      -8.626   5.615  66.491  1.00  0.00    -0.119 C  
BRANCH  15  16
HETATM   16  C   UNL     1      -8.311   6.634  65.392  1.00  0.00    -0.130 C  
BRANCH  16  17
HETATM   17  C   UNL     1      -7.598   7.912  65.868  1.00  0.00    -0.083 C  
BRANCH  17  18
HETATM   18  N   UNL     1      -7.386   8.918  64.819  1.00  0.00    -0.095 NA 
HETATM   19  C   UNL     1      -8.567   9.109  63.941  1.00  0.00    -0.170 C  
HETATM   20  C   UNL     1      -9.781   9.811  64.598  1.00  0.00    -0.096 C  
HETATM   21  N   UNL     1      -9.368  11.074  65.219  1.00  0.00    -0.211 NA 
HETATM   22  C   UNL     1      -7.045  10.241  65.410  1.00  0.00    -0.139 C  
HETATM   23  C   UNL     1      -8.212  10.973  66.125  1.00  0.00    -0.155 C  
BRANCH  21  24
HETATM   24  C   UNL     1     -10.271  12.133  65.362  1.00  0.00    -0.270 A  
HETATM   25  C   UNL     1     -10.686  12.722  66.605  1.00  0.00    -0.279 A  
HETATM   26  C   UNL     1     -10.189  12.572  67.955  1.00  0.00    -0.219 A  
HETATM   27  C   UNL     1     -10.904  13.270  68.898  1.00  0.00    -0.210 A  
HETATM   28  S   UNL     1     -12.153  14.177  68.193  1.00  0.00    -0.167 SA 
HETATM   29  C   UNL     1     -11.740  13.647  66.603  1.00  0.00    -0.388 A  
HETATM   30  C   UNL     1     -12.377  14.060  65.419  1.00  0.00    -0.495 A  
HETATM   31  C   UNL     1     -11.934  13.543  64.212  1.00  0.00    -0.479 A  
HETATM   32  C   UNL     1     -10.912  12.604  64.190  1.00  0.00    -0.427 A  
ENDBRANCH  21  24
ENDBRANCH  17  18
ENDBRANCH  16  17
ENDBRANCH  15  16
ENDBRANCH  14  15
ENDBRANCH  13  14
ENDBRANCH   7  13
TORSDOF 7
ENDMDL
MODEL      127
REMARK 921   NORMALIZED FREE ENERGY PREDICTED BY IDOCK:   -5.45 KCAL/MOL
REMARK 922        TOTAL FREE ENERGY PREDICTED BY IDOCK:   -8.98 KCAL/MOL
REMARK 923 INTER-LIGAND FREE ENERGY PREDICTED BY IDOCK:   -7.90 KCAL/MOL
REMARK 924 INTRA-LIGAND FREE ENERGY PREDICTED BY IDOCK:   -1.08 KCAL/MOL
REMARK 927      BINDING AFFINITY PREDICTED BY RF-SCORE:    0.00 PKD
ROOT
HETATM    1  O   UNL     1     -12.383  16.564  72.296  1.00  0.00    -0.312 OA 
HETATM    2  C   UNL     1     -12.474  15.379  71.996  1.00  0.00    -0.373 C  
HETATM    3  N   UNL     1     -11.904  14.861  70.865  1.00  0.00    -0.302 N  
HETATM    4  C   UNL     1     -12.021  13.517  70.487  1.00  0.00    -0.269 A  
HETATM    5  H   UNL     1     -11.365  15.487  70.266  1.00  0.00     0.000 HD 
HETATM    6  C   UNL     1     -11.426  13.069  69.308  1.00  0.00    -0.348 A  
HETATM    7  C   UNL     1     -11.568  11.734  68.923  1.00  0.00    -0.309 A  
HETATM    8  C   UNL     1     -13.218  14.433  72.863  1.00  0.00    -0.613 C  
HETATM    9  C   UNL     1     -12.309  10.860  69.730  1.00  0.00    -0.326 A  
HETATM   10  C   UNL     1     -13.349  13.141  72.537  1.00  0.00    -0.525 C  
HETATM   11  C   UNL     1     -12.897  11.309  70.915  1.00  0.00    -0.343 A  
HETATM   12  C   UNL     1     -12.751  12.640  71.301  1.00  0.00    -0.354 A  
ENDROOT
BRANCH   7  13
HETATM   13  O   UNL     1     -10.943  11.400  67.749  1.00  0.00    -0.214 OA 
BRANCH  13  14
HETATM   14  C   UNL     1      -9.669  10.774  67.895  1.00  0.00    -0.167 C  
BRANCH  14  15
HETATM   15  C   UNL     1      -8.813  11.041  66.661  1.00  0.00    -0.168 C  
BRANCH  15  16
HETATM   16  C   UNL     1      -8.355   9.740  65.994  1.00  0.00    -0.123 C  
BRANCH  16  17
HETATM   17  C   UNL     1      -9.380   8.592  66.023  1.00  0.00    -0.218 C  
BRANCH  17  18
HETATM   18  N   UNL     1      -8.831   7.294  66.434  1.00  0.00    -0.144 NA 
HETATM   19  C   UNL     1      -8.041   7.361  67.689  1.00  0.00    -0.114 C  
HETATM   20  C   UNL     1      -8.858   7.609  68.980  1.00  0.00    -0.135 C  
HETATM   21  N   UNL     1      -9.951   6.636  69.089  1.00  0.00    -0.154 NA 
HETATM   22  C   UNL     1      -9.915   6.295  66.638  1.00  0.00    -0.153 C  
HETATM   23  C   UNL     1     -10.801   6.519  67.893  1.00  0.00    -0.304 C  
BRANCH  21  24
HETATM   24  C   UNL     1     -10.456   6.261  70.338  1.00  0.00    -0.222 A  
HETATM   25  C   UNL     1      -9.913   5.239  71.191  1.00  0.00    -0.265 A  
HETATM   26  C   UNL     1      -8.671   4.499  71.137  1.00  0.00    -0.141 A  
HETATM   27  C   UNL     1      -8.542   3.547  72.119  1.00  0.00    -0.087 A  
HETATM   28  S   UNL     1      -9.870   3.549  73.174  1.00  0.00    -0.134 SA 
HETATM   29  C   UNL     1     -10.636   4.843  72.325  1.00  0.00    -0.185 A  
HETATM   30  C   UNL     1     -11.853   5.444  72.690  1.00  0.00    -0.145 A  
HETATM   31  C   UNL     1     -12.347   6.475  71.906  1.00  0.00    -0.339 A  
HETATM   32  C   UNL     1     -11.664   6.866  70.761  1.00  0.00    -0.417 A  
ENDBRANCH  21  24
ENDBRANCH  17  18
ENDBRANCH  16  17
ENDBRANCH  15  16
ENDBRANCH  14  15
ENDBRANCH  13  14
ENDBRANCH   7  13
TORSDOF 7
ENDMDL
MODEL      128
REMARK 921   NORMALIZED FREE ENERGY PREDICTED BY IDOCK:   -5.43 KCAL/MOL
REMARK 922        TOTAL FREE ENERGY PREDICTED BY IDOCK:   -8.95 KCAL/MOL
REMARK 923 INTER-LIGAND FREE ENERGY PREDICTED BY IDOCK:   -8.38 KCAL/MOL
REMARK 924 INTRA-LIGAND FREE ENERGY PREDICTED BY IDOCK:   -0.57 KCAL/MOL
REMARK 927      BINDING AFFINITY PREDICTED BY RF-SCORE:    0.00 PKD
ROOT
HETATM    1  O   UNL     1      -6.142  20.703  68.655  1.00  0.00    -0.318 OA 
HETATM    2  C   UNL     1      -7.070  20.060  68.178  1.00  0.00    -0.289 C  
HETATM    3  N   UNL     1      -7.382  18.797  68.599  1.00  0.00    -0.298 N  
HETATM    4  C   UNL     1      -8.418  18.032  68.047  1.00  0.00    -0.261 A  
HETATM    5  H   UNL     1      -6.832  18.390  69.356  1.00  0.00     0.000 HD 
HETATM    6  C   UNL     1      -8.663  16.743  68.518  1.00  0.00    -0.245 A  
HETATM    7  C   UNL     1      -9.680  15.976  67.946  1.00  0.00    -0.220 A  
HETATM    8  C   UNL     1      -7.915  20.635  67.102  1.00  0.00    -0.323 C  
HETATM    9  C   UNL     1     -10.444  16.516  66.902  1.00  0.00    -0.282 A  
HETATM   10  C   UNL     1      -8.916  19.936  66.552  1.00  0.00    -0.442 C  
HETATM   11  C   UNL     1     -10.204  17.811  66.437  1.00  0.00    -0.365 A  
HETATM   12  C   UNL     1      -9.191  18.577  67.011  1.00  0.00    -0.284 A  
ENDROOT
BRANCH   7  13
HETATM   13  O   UNL     1      -9.836  14.724  68.485  1.00  0.00    -0.206 OA 
BRANCH  13  14
HETATM   14  C   UNL     1      -8.645  13.941  68.557  1.00  0.00    -0.137 C  
BRANCH  14  15
HETATM   15  C   UNL     1      -8.293  13.399  67.176  1.00  0.00    -0.149 C  
BRANCH  15  16
HETATM   16  C   UNL     1      -7.671  12.002  67.254  1.00  0.00    -0.168 C  
BRANCH  16  17
HETATM   17  C   UNL     1      -8.230  10.979  66.248  1.00  0.00    -0.164 C  
BRANCH  17  18
HETATM   18  N   UNL     1      -8.508   9.654  66.818  1.00  0.00    -0.126 NA 
HETATM   19  C   UNL     1      -8.183   9.555  68.262  1.00  0.00    -0.113 C  
HETATM   20  C   UNL     1      -9.119  10.342  69.213  1.00  0.00    -0.194 C  
HETATM   21  N   UNL     1     -10.521   9.993  68.955  1.00  0.00    -0.202 NA 
HETATM   22  C   UNL     1      -9.943   9.293  66.653  1.00  0.00    -0.264 C  
HETATM   23  C   UNL     1     -10.936  10.083  67.547  1.00  0.00    -0.212 C  
BRANCH  21  24
HETATM   24  C   UNL     1     -11.480  10.084  69.969  1.00  0.00    -0.248 A  
HETATM   25  C   UNL     1     -12.065  11.299  70.466  1.00  0.00    -0.481 A  
HETATM   26  C   UNL     1     -12.017  12.660  69.979  1.00  0.00    -0.377 A  
HETATM   27  C   UNL     1     -12.668  13.567  70.781  1.00  0.00    -0.245 A  
HETATM   28  S   UNL     1     -13.409  12.813  72.108  1.00  0.00    -0.384 SA 
HETATM   29  C   UNL     1     -12.870  11.249  71.614  1.00  0.00    -0.405 A  
HETATM   30  C   UNL     1     -13.170  10.042  72.270  1.00  0.00    -0.401 A  
HETATM   31  C   UNL     1     -12.661   8.860  71.755  1.00  0.00    -0.421 A  
HETATM   32  C   UNL     1     -11.838   8.887  70.637  1.00  0.00    -0.159 A  
ENDBRANCH  21  24
ENDBRANCH  17  18
ENDBRANCH  16  17
ENDBRANCH  15  16
ENDBRANCH  14  15
ENDBRANCH  13  14
ENDBRANCH   7  13
TORSDOF 7
ENDMDL
MODEL      129
REMARK 921   NORMALIZED FREE ENERGY PREDICTED BY IDOCK:   -5.42 KCAL/MOL
REMARK 922        TOTAL FREE ENERGY PREDICTED BY IDOCK:   -8.94 KCAL/MOL
REMARK 923 INTER-LIGAND FREE ENERGY PREDICTED BY IDOCK:   -8.19 KCAL/MOL
REMARK 924 INTRA-LIGAND FREE ENERGY PREDICTED BY IDOCK:   -0.75 KCAL/MOL
REMARK 927      BINDING AFFINITY PREDICTED BY RF-SCORE:    0.00 PKD
ROOT
HETATM    1  O   UNL     1      -5.255  19.096  64.378  1.00  0.00    -0.174 OA 
HETATM    2  C   UNL     1      -6.116  19.211  65.244  1.00  0.00    -0.262 C  
HETATM    3  N   UNL     1      -7.113  18.292  65.415  1.00  0.00    -0.040 N  
HETATM    4  C   UNL     1      -8.125  18.419  66.377  1.00  0.00    -0.260 A  
HETATM    5  H   UNL     1      -7.122  17.471  64.809  1.00  0.00     0.000 HD 
HETATM    6  C   UNL     1      -9.120  17.447  66.477  1.00  0.00    -0.288 A  
HETATM    7  C   UNL     1     -10.139  17.592  67.420  1.00  0.00    -0.331 A  
HETATM    8  C   UNL     1      -6.112  20.374  66.166  1.00  0.00    -0.226 C  
HETATM    9  C   UNL     1     -10.147  18.716  68.258  1.00  0.00    -0.431 A  
HETATM   10  C   UNL     1      -7.058  20.528  67.100  1.00  0.00    -0.359 C  
HETATM   11  C   UNL     1      -9.144  19.684  68.162  1.00  0.00    -0.392 A  
HETATM   12  C   UNL     1      -8.124  19.536  67.223  1.00  0.00    -0.307 A  
ENDROOT
BRANCH   7  13
HETATM   13  O   UNL     1     -11.065  16.580  67.434  1.00  0.00    -0.185 OA 
BRANCH  13  14
HETATM   14  C   UNL     1     -10.522  15.260  67.434  1.00  0.00    -0.270 C  
BRANCH  14  15
HETATM   15  C   UNL     1     -11.246  14.399  66.404  1.00  0.00    -0.345 C  
BRANCH  15  16
HETATM   16  C   UNL     1     -10.268  13.733  65.431  1.00  0.00    -0.344 C  
BRANCH  16  17
HETATM   17  C   UNL     1     -10.452  12.215  65.254  1.00  0.00    -0.276 C  
BRANCH  17  18
HETATM   18  N   UNL     1      -9.346  11.402  65.778  1.00  0.00    -0.226 NA 
HETATM   19  C   UNL     1      -8.897  11.820  67.129  1.00  0.00    -0.173 C  
HETATM   20  C   UNL     1      -9.884  11.516  68.283  1.00  0.00    -0.203 C  
HETATM   21  N   UNL     1     -10.275  10.102  68.264  1.00  0.00    -0.159 NA 
HETATM   22  C   UNL     1      -9.728   9.965  65.854  1.00  0.00    -0.262 C  
HETATM   23  C   UNL     1     -10.753   9.607  66.964  1.00  0.00    -0.155 C  
BRANCH  21  24
HETATM   24  C   UNL     1     -10.657   9.448  69.440  1.00  0.00    -0.221 A  
HETATM   25  C   UNL     1     -10.509   8.043  69.706  1.00  0.00    -0.227 A  
HETATM   26  C   UNL     1      -9.793   7.000  69.004  1.00  0.00    -0.154 A  
HETATM   27  C   UNL     1      -9.947   5.749  69.550  1.00  0.00    -0.191 A  
HETATM   28  S   UNL     1     -10.900   5.788  70.953  1.00  0.00    -0.224 SA 
HETATM   29  C   UNL     1     -11.111   7.498  70.849  1.00  0.00    -0.263 A  
HETATM   30  C   UNL     1     -11.814   8.287  71.777  1.00  0.00    -0.357 A  
HETATM   31  C   UNL     1     -11.902   9.653  71.558  1.00  0.00    -0.483 A  
HETATM   32  C   UNL     1     -11.340  10.211  70.417  1.00  0.00    -0.401 A  
ENDBRANCH  21  24
ENDBRANCH  17  18
ENDBRANCH  16  17
ENDBRANCH  15  16
ENDBRANCH  14  15
ENDBRANCH  13  14
ENDBRANCH   7  13
TORSDOF 7
ENDMDL
MODEL      130
REMARK 921   NORMALIZED FREE ENERGY PREDICTED BY IDOCK:   -5.42 KCAL/MOL
REMARK 922        TOTAL FREE ENERGY PREDICTED BY IDOCK:   -8.94 KCAL/MOL
REMARK 923 INTER-LIGAND FREE ENERGY PREDICTED BY IDOCK:   -7.68 KCAL/MOL
REMARK 924 INTRA-LIGAND FREE ENERGY PREDICTED BY IDOCK:   -1.26 KCAL/MOL
REMARK 927      BINDING AFFINITY PREDICTED BY RF-SCORE:    0.00 PKD
ROOT
HETATM    1  O   UNL     1      -9.280   9.542  62.516  1.00  0.00    -0.273 OA 
HETATM    2  C   UNL     1      -8.933   9.787  63.666  1.00  0.00    -0.240 C  
HETATM    3  N   UNL     1      -9.821   9.840  64.705  1.00  0.00    -0.417 N  
HETATM    4  C   UNL     1      -9.452  10.149  66.022  1.00  0.00    -0.197 A  
HETATM    5  H   UNL     1     -10.803   9.644  64.512  1.00  0.00     0.000 HD 
HETATM    6  C   UNL     1     -10.420  10.202  67.024  1.00  0.00    -0.302 A  
HETATM    7  C   UNL     1     -10.049  10.536  68.329  1.00  0.00    -0.160 A  
HETATM    8  C   UNL     1      -7.508  10.041  63.990  1.00  0.00    -0.135 C  
HETATM    9  C   UNL     1      -8.705  10.813  68.613  1.00  0.00    -0.152 A  
HETATM   10  C   UNL     1      -7.116  10.335  65.236  1.00  0.00    -0.130 C  
HETATM   11  C   UNL     1      -7.736  10.751  67.609  1.00  0.00    -0.104 A  
HETATM   12  C   UNL     1      -8.105  10.413  66.308  1.00  0.00    -0.136 A  
ENDROOT
BRANCH   7  13
HETATM   13  O   UNL     1     -11.078  10.557  69.235  1.00  0.00    -0.215 OA 
BRANCH  13  14
HETATM   14  C   UNL     1     -12.106  11.511  68.967  1.00  0.00    -0.238 C  
BRANCH  14  15
HETATM   15  C   UNL     1     -11.744  12.856  69.588  1.00  0.00    -0.367 C  
BRANCH  15  16
HETATM   16  C   UNL     1     -11.898  14.004  68.586  1.00  0.00    -0.396 C  
BRANCH  16  17
HETATM   17  C   UNL     1     -10.705  14.208  67.634  1.00  0.00    -0.257 C  
BRANCH  17  18
HETATM   18  N   UNL     1      -9.397  14.267  68.299  1.00  0.00    -0.203 NA 
HETATM   19  C   UNL     1      -8.269  14.478  67.360  1.00  0.00    -0.202 C  
HETATM   20  C   UNL     1      -8.189  15.886  66.719  1.00  0.00    -0.272 C  
HETATM   21  N   UNL     1      -8.222  16.923  67.756  1.00  0.00    -0.187 NA 
HETATM   22  C   UNL     1      -9.358  15.363  69.305  1.00  0.00    -0.254 C  
HETATM   23  C   UNL     1      -9.325  16.801  68.722  1.00  0.00    -0.254 C  
BRANCH  21  24
HETATM   24  C   UNL     1      -7.617  18.167  67.546  1.00  0.00    -0.214 A  
HETATM   25  C   UNL     1      -6.726  18.832  68.457  1.00  0.00    -0.278 A  
HETATM   26  C   UNL     1      -6.064  18.379  69.660  1.00  0.00    -0.255 A  
HETATM   27  C   UNL     1      -5.327  19.348  70.295  1.00  0.00    -0.210 A  
HETATM   28  S   UNL     1      -5.350  20.814  69.441  1.00  0.00    -0.367 SA 
HETATM   29  C   UNL     1      -6.349  20.158  68.196  1.00  0.00    -0.273 A  
HETATM   30  C   UNL     1      -6.771  20.847  67.046  1.00  0.00    -0.396 A  
HETATM   31  C   UNL     1      -7.577  20.186  66.132  1.00  0.00    -0.294 A  
HETATM   32  C   UNL     1      -7.988  18.883  66.382  1.00  0.00    -0.300 A  
ENDBRANCH  21  24
ENDBRANCH  17  18
ENDBRANCH  16  17
ENDBRANCH  15  16
ENDBRANCH  14  15
ENDBRANCH  13  14
ENDBRANCH   7  13
TORSDOF 7
ENDMDL
MODEL      131
REMARK 921   NORMALIZED FREE ENERGY PREDICTED BY IDOCK:   -5.37 KCAL/MOL
REMARK 922        TOTAL FREE ENERGY PREDICTED BY IDOCK:   -8.87 KCAL/MOL
REMARK 923 INTER-LIGAND FREE ENERGY PREDICTED BY IDOCK:   -7.08 KCAL/MOL
REMARK 924 INTRA-LIGAND FREE ENERGY PREDICTED BY IDOCK:   -1.80 KCAL/MOL
REMARK 927      BINDING AFFINITY PREDICTED BY RF-SCORE:    0.00 PKD
ROOT
HETATM    1  O   UNL     1      -9.030   8.850  71.151  1.00  0.00    -0.203 OA 
HETATM    2  C   UNL     1      -8.244   9.227  70.288  1.00  0.00    -0.172 C  
HETATM    3  N   UNL     1      -7.966  10.549  70.075  1.00  0.00    -0.322 N  
HETATM    4  C   UNL     1      -7.095  11.004  69.076  1.00  0.00    -0.106 A  
HETATM    5  H   UNL     1      -8.417  11.240  70.675  1.00  0.00     0.000 HD 
HETATM    6  C   UNL     1      -6.878  12.371  68.908  1.00  0.00    -0.099 A  
HETATM    7  C   UNL     1      -6.029  12.819  67.893  1.00  0.00    -0.118 A  
HETATM    8  C   UNL     1      -7.542   8.247  69.422  1.00  0.00    -0.096 C  
HETATM    9  C   UNL     1      -5.405  11.885  67.056  1.00  0.00    -0.112 A  
HETATM   10  C   UNL     1      -6.701   8.643  68.460  1.00  0.00    -0.060 C  
HETATM   11  C   UNL     1      -5.617  10.515  67.231  1.00  0.00    -0.041 A  
HETATM   12  C   UNL     1      -6.461  10.068  68.246  1.00  0.00    -0.054 A  
ENDROOT
BRANCH   7  13
HETATM   13  O   UNL     1      -5.886  14.181  67.818  1.00  0.00    -0.220 OA 
BRANCH  13  14
HETATM   14  C   UNL     1      -6.449  14.914  68.906  1.00  0.00    -0.088 C  
BRANCH  14  15
HETATM   15  C   UNL     1      -6.048  16.382  68.808  1.00  0.00    -0.129 C  
BRANCH  15  16
HETATM   16  C   UNL     1      -7.225  17.266  68.385  1.00  0.00    -0.220 C  
BRANCH  16  17
HETATM   17  C   UNL     1      -8.613  16.757  68.812  1.00  0.00    -0.255 C  
BRANCH  17  18
HETATM   18  N   UNL     1      -9.716  17.200  67.950  1.00  0.00    -0.263 NA 
HETATM   19  C   UNL     1      -9.398  17.125  66.503  1.00  0.00    -0.265 C  
HETATM   20  C   UNL     1      -9.295  15.695  65.915  1.00  0.00    -0.321 C  
HETATM   21  N   UNL     1     -10.500  14.922  66.239  1.00  0.00    -0.292 NA 
HETATM   22  C   UNL     1     -10.939  16.385  68.185  1.00  0.00    -0.339 C  
HETATM   23  C   UNL     1     -10.878  14.925  67.661  1.00  0.00    -0.286 C  
BRANCH  21  24
HETATM   24  C   UNL     1     -10.926  13.879  65.409  1.00  0.00    -0.316 A  
HETATM   25  C   UNL     1     -10.321  12.580  65.313  1.00  0.00    -0.310 A  
HETATM   26  C   UNL     1      -9.314  11.925  66.120  1.00  0.00    -0.228 A  
HETATM   27  C   UNL     1      -8.949  10.682  65.662  1.00  0.00    -0.185 A  
HETATM   28  S   UNL     1      -9.841  10.231  64.291  1.00  0.00    -0.198 SA 
HETATM   29  C   UNL     1     -10.740  11.705  64.301  1.00  0.00    -0.341 A  
HETATM   30  C   UNL     1     -11.771  12.032  63.402  1.00  0.00    -0.519 A  
HETATM   31  C   UNL     1     -12.402  13.259  63.534  1.00  0.00    -0.442 A  
HETATM   32  C   UNL     1     -11.985  14.155  64.510  1.00  0.00    -0.476 A  
ENDBRANCH  21  24
ENDBRANCH  17  18
ENDBRANCH  16  17
ENDBRANCH  15  16
ENDBRANCH  14  15
ENDBRANCH  13  14
ENDBRANCH   7  13
TORSDOF 7
ENDMDL
MODEL      132
REMARK 921   NORMALIZED FREE ENERGY PREDICTED BY IDOCK:   -5.36 KCAL/MOL
REMARK 922        TOTAL FREE ENERGY PREDICTED BY IDOCK:   -8.85 KCAL/MOL
REMARK 923 INTER-LIGAND FREE ENERGY PREDICTED BY IDOCK:   -8.43 KCAL/MOL
REMARK 924 INTRA-LIGAND FREE ENERGY PREDICTED BY IDOCK:   -0.42 KCAL/MOL
REMARK 927      BINDING AFFINITY PREDICTED BY RF-SCORE:    0.00 PKD
ROOT
HETATM    1  O   UNL     1      -6.328  20.434  71.376  1.00  0.00    -0.589 OA 
HETATM    2  C   UNL     1      -6.375  19.941  70.255  1.00  0.00    -0.293 C  
HETATM    3  N   UNL     1      -7.556  19.673  69.619  1.00  0.00    -0.039 N  
HETATM    4  C   UNL     1      -7.634  19.081  68.351  1.00  0.00    -0.308 A  
HETATM    5  H   UNL     1      -8.426  19.915  70.094  1.00  0.00     0.000 HD 
HETATM    6  C   UNL     1      -8.877  18.821  67.777  1.00  0.00    -0.313 A  
HETATM    7  C   UNL     1      -8.949  18.208  66.524  1.00  0.00    -0.275 A  
HETATM    8  C   UNL     1      -5.129  19.610  69.520  1.00  0.00    -0.193 C  
HETATM    9  C   UNL     1      -7.765  17.863  65.859  1.00  0.00    -0.141 A  
HETATM   10  C   UNL     1      -5.163  19.048  68.306  1.00  0.00    -0.181 C  
HETATM   11  C   UNL     1      -6.519  18.132  66.432  1.00  0.00    -0.248 A  
HETATM   12  C   UNL     1      -6.449  18.748  67.680  1.00  0.00    -0.209 A  
ENDROOT
BRANCH   7  13
HETATM   13  O   UNL     1     -10.220  18.000  66.052  1.00  0.00    -0.478 OA 
BRANCH  13  14
HETATM   14  C   UNL     1     -10.531  16.647  65.720  1.00  0.00    -0.311 C  
BRANCH  14  15
HETATM   15  C   UNL     1     -10.521  15.785  66.978  1.00  0.00    -0.309 C  
BRANCH  15  16
HETATM   16  C   UNL     1      -9.404  14.737  66.940  1.00  0.00    -0.256 C  
BRANCH  16  17
HETATM   17  C   UNL     1      -9.868  13.280  67.113  1.00  0.00    -0.237 C  
BRANCH  17  18
HETATM   18  N   UNL     1     -11.314  13.119  67.313  1.00  0.00    -0.291 NA 
HETATM   19  C   UNL     1     -11.788  11.731  67.088  1.00  0.00    -0.077 C  
HETATM   20  C   UNL     1     -11.360  10.698  68.160  1.00  0.00    -0.284 C  
HETATM   21  N   UNL     1     -11.715  11.174  69.501  1.00  0.00    -0.303 NA 
HETATM   22  C   UNL     1     -11.709  13.514  68.692  1.00  0.00    -0.354 C  
HETATM   23  C   UNL     1     -11.265  12.539  69.816  1.00  0.00     0.061 C  
BRANCH  21  24
HETATM   24  C   UNL     1     -11.973  10.271  70.538  1.00  0.00    -0.323 A  
HETATM   25  C   UNL     1     -11.006   9.409  71.161  1.00  0.00    -0.430 A  
HETATM   26  C   UNL     1      -9.563   9.360  71.076  1.00  0.00    -0.272 A  
HETATM   27  C   UNL     1      -8.993   8.334  71.788  1.00  0.00    -0.181 A  
HETATM   28  S   UNL     1     -10.157   7.432  72.631  1.00  0.00    -0.229 SA 
HETATM   29  C   UNL     1     -11.448   8.422  72.054  1.00  0.00    -0.349 A  
HETATM   30  C   UNL     1     -12.802   8.276  72.404  1.00  0.00    -0.261 A  
HETATM   31  C   UNL     1     -13.729   9.148  71.855  1.00  0.00    -0.485 A  
HETATM   32  C   UNL     1     -13.320  10.115  70.946  1.00  0.00    -0.272 A  
ENDBRANCH  21  24
ENDBRANCH  17  18
ENDBRANCH  16  17
ENDBRANCH  15  16
ENDBRANCH  14  15
ENDBRANCH  13  14
ENDBRANCH   7  13
TORSDOF 7
ENDMDL
MODEL      133
REMARK 921   NORMALIZED FREE ENERGY PREDICTED BY IDOCK:   -5.35 KCAL/MOL
REMARK 922        TOTAL FREE ENERGY PREDICTED BY IDOCK:   -8.85 KCAL/MOL
REMARK 923 INTER-LIGAND FREE ENERGY PREDICTED BY IDOCK:   -9.06 KCAL/MOL
REMARK 924 INTRA-LIGAND FREE ENERGY PREDICTED BY IDOCK:    0.22 KCAL/MOL
REMARK 927      BINDING AFFINITY PREDICTED BY RF-SCORE:    0.00 PKD
ROOT
HETATM    1  O   UNL     1     -10.448   3.028  73.189  1.00  0.00    -0.148 OA 
HETATM    2  C   UNL     1     -10.326   4.130  72.665  1.00  0.00    -0.165 C  
HETATM    3  N   UNL     1     -11.172   5.170  72.937  1.00  0.00    -0.292 N  
HETATM    4  C   UNL     1     -11.070   6.428  72.328  1.00  0.00    -0.265 A  
HETATM    5  H   UNL     1     -11.916   5.022  73.620  1.00  0.00     0.000 HD 
HETATM    6  C   UNL     1     -11.984   7.433  72.644  1.00  0.00    -0.098 A  
HETATM    7  C   UNL     1     -11.893   8.677  72.014  1.00  0.00    -0.372 A  
HETATM    8  C   UNL     1      -9.233   4.392  71.696  1.00  0.00    -0.186 C  
HETATM    9  C   UNL     1     -10.881   8.897  71.070  1.00  0.00    -0.326 A  
HETATM   10  C   UNL     1      -9.102   5.581  71.097  1.00  0.00    -0.159 C  
HETATM   11  C   UNL     1      -9.961   7.892  70.761  1.00  0.00    -0.192 A  
HETATM   12  C   UNL     1     -10.050   6.653  71.393  1.00  0.00    -0.209 A  
ENDROOT
BRANCH   7  13
HETATM   13  O   UNL     1     -12.839   9.592  72.399  1.00  0.00    -0.363 OA 
BRANCH  13  14
HETATM   14  C   UNL     1     -13.303  10.460  71.366  1.00  0.00    -0.280 C  
BRANCH  14  15
HETATM   15  C   UNL     1     -12.638  11.826  71.496  1.00  0.00    -0.320 C  
BRANCH  15  16
HETATM   16  C   UNL     1     -13.504  12.805  72.296  1.00  0.00    -0.591 C  
BRANCH  16  17
HETATM   17  C   UNL     1     -12.747  13.995  72.914  1.00  0.00    -0.177 C  
BRANCH  17  18
HETATM   18  N   UNL     1     -13.168  15.311  72.414  1.00  0.00    -0.371 NA 
HETATM   19  C   UNL     1     -12.032  16.222  72.130  1.00  0.00    -0.494 C  
HETATM   20  C   UNL     1     -11.167  15.849  70.901  1.00  0.00    -0.351 C  
HETATM   21  N   UNL     1     -12.014  15.666  69.717  1.00  0.00    -0.361 NA 
HETATM   22  C   UNL     1     -13.962  15.178  71.163  1.00  0.00    -0.404 C  
HETATM   23  C   UNL     1     -13.157  14.758  69.903  1.00  0.00     0.322 C  
BRANCH  21  24
HETATM   24  C   UNL     1     -11.508  15.891  68.432  1.00  0.00    -0.348 A  
HETATM   25  C   UNL     1     -11.503  14.941  67.353  1.00  0.00    -0.354 A  
HETATM   26  C   UNL     1     -12.148  13.656  67.198  1.00  0.00    -0.404 A  
HETATM   27  C   UNL     1     -11.844  13.012  66.023  1.00  0.00    -0.417 A  
HETATM   28  S   UNL     1     -10.827  13.949  65.039  1.00  0.00    -0.405 SA 
HETATM   29  C   UNL     1     -10.791  15.242  66.183  1.00  0.00    -0.320 A  
HETATM   30  C   UNL     1     -10.121  16.465  66.004  1.00  0.00    -0.373 A  
HETATM   31  C   UNL     1     -10.181  17.410  67.016  1.00  0.00    -0.323 A  
HETATM   32  C   UNL     1     -10.854  17.124  68.196  1.00  0.00    -0.316 A  
ENDBRANCH  21  24
ENDBRANCH  17  18
ENDBRANCH  16  17
ENDBRANCH  15  16
ENDBRANCH  14  15
ENDBRANCH  13  14
ENDBRANCH   7  13
TORSDOF 7
ENDMDL
MODEL      134
REMARK 921   NORMALIZED FREE ENERGY PREDICTED BY IDOCK:   -5.34 KCAL/MOL
REMARK 922        TOTAL FREE ENERGY PREDICTED BY IDOCK:   -8.83 KCAL/MOL
REMARK 923 INTER-LIGAND FREE ENERGY PREDICTED BY IDOCK:   -7.96 KCAL/MOL
REMARK 924 INTRA-LIGAND FREE ENERGY PREDICTED BY IDOCK:   -0.87 KCAL/MOL
REMARK 927      BINDING AFFINITY PREDICTED BY RF-SCORE:    0.00 PKD
ROOT
HETATM    1  O   UNL     1     -12.779  13.692  62.911  1.00  0.00    -0.577 OA 
HETATM    2  C   UNL     1     -12.106  12.961  63.630  1.00  0.00    -0.535 C  
HETATM    3  N   UNL     1     -11.210  12.060  63.128  1.00  0.00    -0.700 N  
HETATM    4  C   UNL     1     -10.453  11.194  63.930  1.00  0.00    -0.381 A  
HETATM    5  H   UNL     1     -11.084  12.015  62.117  1.00  0.00     0.000 HD 
HETATM    6  C   UNL     1      -9.572  10.287  63.341  1.00  0.00    -0.316 A  
HETATM    7  C   UNL     1      -8.841   9.409  64.144  1.00  0.00    -0.182 A  
HETATM    8  C   UNL     1     -12.235  13.026  65.107  1.00  0.00    -0.507 C  
HETATM    9  C   UNL     1      -9.002   9.453  65.535  1.00  0.00    -0.248 A  
HETATM   10  C   UNL     1     -11.528  12.218  65.906  1.00  0.00    -0.428 C  
HETATM   11  C   UNL     1      -9.879  10.367  66.124  1.00  0.00    -0.278 A  
HETATM   12  C   UNL     1     -10.606  11.246  65.322  1.00  0.00    -0.323 A  
ENDROOT
BRANCH   7  13
HETATM   13  O   UNL     1      -8.004   8.562  63.463  1.00  0.00    -0.147 OA 
BRANCH  13  14
HETATM   14  C   UNL     1      -7.077   7.840  64.274  1.00  0.00    -0.074 C  
BRANCH  14  15
HETATM   15  C   UNL     1      -7.208   6.344  64.009  1.00  0.00    -0.062 C  
BRANCH  15  16
HETATM   16  C   UNL     1      -8.499   5.772  64.604  1.00  0.00    -0.061 C  
BRANCH  16  17
HETATM   17  C   UNL     1      -8.303   4.648  65.637  1.00  0.00    -0.116 C  
BRANCH  17  18
HETATM   18  N   UNL     1      -9.496   4.340  66.436  1.00  0.00    -0.168 NA 
HETATM   19  C   UNL     1      -9.179   3.765  67.767  1.00  0.00    -0.173 C  
HETATM   20  C   UNL     1      -8.550   4.748  68.785  1.00  0.00    -0.088 C  
HETATM   21  N   UNL     1      -9.374   5.956  68.906  1.00  0.00    -0.125 NA 
HETATM   22  C   UNL     1     -10.321   5.559  66.655  1.00  0.00    -0.269 C  
HETATM   23  C   UNL     1      -9.719   6.604  67.631  1.00  0.00    -0.124 C  
BRANCH  21  24
HETATM   24  C   UNL     1      -9.382   6.703  70.090  1.00  0.00    -0.158 A  
HETATM   25  C   UNL     1      -9.695   6.200  71.399  1.00  0.00    -0.187 A  
HETATM   26  C   UNL     1      -9.871   4.853  71.896  1.00  0.00    -0.241 A  
HETATM   27  C   UNL     1     -10.231   4.785  73.220  1.00  0.00    -0.169 A  
HETATM   28  S   UNL     1     -10.308   6.325  73.929  1.00  0.00    -0.297 SA 
HETATM   29  C   UNL     1      -9.849   7.105  72.459  1.00  0.00    -0.155 A  
HETATM   30  C   UNL     1      -9.656   8.489  72.300  1.00  0.00    -0.377 A  
HETATM   31  C   UNL     1      -9.289   8.970  71.053  1.00  0.00    -0.339 A  
HETATM   32  C   UNL     1      -9.160   8.097  69.981  1.00  0.00    -0.151 A  
ENDBRANCH  21  24
ENDBRANCH  17  18
ENDBRANCH  16  17
ENDBRANCH  15  16
ENDBRANCH  14  15
ENDBRANCH  13  14
ENDBRANCH   7  13
TORSDOF 7
ENDMDL
MODEL      135
REMARK 921   NORMALIZED FREE ENERGY PREDICTED BY IDOCK:   -5.33 KCAL/MOL
REMARK 922        TOTAL FREE ENERGY PREDICTED BY IDOCK:   -8.81 KCAL/MOL
REMARK 923 INTER-LIGAND FREE ENERGY PREDICTED BY IDOCK:   -7.83 KCAL/MOL
REMARK 924 INTRA-LIGAND FREE ENERGY PREDICTED BY IDOCK:   -0.98 KCAL/MOL
REMARK 927      BINDING AFFINITY PREDICTED BY RF-SCORE:    0.00 PKD
ROOT
HETATM    1  O   UNL     1      -9.065   9.960  62.703  1.00  0.00    -0.253 OA 
HETATM    2  C   UNL     1      -8.752   9.407  63.751  1.00  0.00    -0.201 C  
HETATM    3  N   UNL     1      -9.611   9.296  64.809  1.00  0.00    -0.387 N  
HETATM    4  C   UNL     1      -9.264   8.695  66.027  1.00  0.00    -0.216 A  
HETATM    5  H   UNL     1     -10.554   9.671  64.706  1.00  0.00     0.000 HD 
HETATM    6  C   UNL     1     -10.192   8.638  67.066  1.00  0.00    -0.360 A  
HETATM    7  C   UNL     1      -9.832   8.061  68.286  1.00  0.00    -0.170 A  
HETATM    8  C   UNL     1      -7.400   8.817  63.922  1.00  0.00    -0.099 C  
HETATM    9  C   UNL     1      -8.539   7.545  68.448  1.00  0.00    -0.124 A  
HETATM   10  C   UNL     1      -7.034   8.232  65.068  1.00  0.00    -0.074 C  
HETATM   11  C   UNL     1      -7.614   7.595  67.402  1.00  0.00    -0.109 A  
HETATM   12  C   UNL     1      -7.975   8.167  66.184  1.00  0.00    -0.102 A  
ENDROOT
BRANCH   7  13
HETATM   13  O   UNL     1     -10.819   8.056  69.238  1.00  0.00    -0.177 OA 
BRANCH  13  14
HETATM   14  C   UNL     1     -10.560   8.862  70.387  1.00  0.00    -0.217 C  
BRANCH  14  15
HETATM   15  C   UNL     1     -10.191  10.278  69.958  1.00  0.00    -0.214 C  
BRANCH  15  16
HETATM   16  C   UNL     1     -11.433  11.132  69.685  1.00  0.00    -0.383 C  
BRANCH  16  17
HETATM   17  C   UNL     1     -11.447  11.853  68.325  1.00  0.00    -0.311 C  
BRANCH  17  18
HETATM   18  N   UNL     1     -12.118  13.159  68.335  1.00  0.00    -0.267 NA 
HETATM   19  C   UNL     1     -11.556  14.101  69.335  1.00  0.00    -0.304 C  
HETATM   20  C   UNL     1     -10.141  14.645  69.018  1.00  0.00    -0.209 C  
HETATM   21  N   UNL     1     -10.102  15.215  67.667  1.00  0.00    -0.230 NA 
HETATM   22  C   UNL     1     -12.031  13.814  67.001  1.00  0.00    -0.413 C  
HETATM   23  C   UNL     1     -10.624  14.338  66.606  1.00  0.00    -0.278 C  
BRANCH  21  24
HETATM   24  C   UNL     1      -9.200  16.235  67.344  1.00  0.00    -0.211 A  
HETATM   25  C   UNL     1      -9.533  17.618  67.142  1.00  0.00    -0.267 A  
HETATM   26  C   UNL     1     -10.746  18.364  67.396  1.00  0.00    -0.397 A  
HETATM   27  C   UNL     1     -10.689  19.680  67.005  1.00  0.00    -0.455 A  
HETATM   28  S   UNL     1      -9.164  20.083  66.380  1.00  0.00    -0.325 SA 
HETATM   29  C   UNL     1      -8.556  18.488  66.637  1.00  0.00    -0.286 A  
HETATM   30  C   UNL     1      -7.242  18.067  66.367  1.00  0.00    -0.289 A  
HETATM   31  C   UNL     1      -6.900  16.749  66.623  1.00  0.00    -0.255 A  
HETATM   32  C   UNL     1      -7.857  15.861  67.095  1.00  0.00    -0.249 A  
ENDBRANCH  21  24
ENDBRANCH  17  18
ENDBRANCH  16  17
ENDBRANCH  15  16
ENDBRANCH  14  15
ENDBRANCH  13  14
ENDBRANCH   7  13
TORSDOF 7
ENDMDL
MODEL      136
REMARK 921   NORMALIZED FREE ENERGY PREDICTED BY IDOCK:   -5.32 KCAL/MOL
REMARK 922        TOTAL FREE ENERGY PREDICTED BY IDOCK:   -8.80 KCAL/MOL
REMARK 923 INTER-LIGAND FREE ENERGY PREDICTED BY IDOCK:   -7.83 KCAL/MOL
REMARK 924 INTRA-LIGAND FREE ENERGY PREDICTED BY IDOCK:   -0.97 KCAL/MOL
REMARK 927      BINDING AFFINITY PREDICTED BY RF-SCORE:    0.00 PKD
ROOT
HETATM    1  O   UNL     1     -13.872  12.707  72.463  1.00  0.00    -0.435 OA 
HETATM    2  C   UNL     1     -13.262  13.439  71.691  1.00  0.00    -0.364 C  
HETATM    3  N   UNL     1     -12.600  12.961  70.595  1.00  0.00    -0.231 N  
HETATM    4  C   UNL     1     -11.871  13.774  69.717  1.00  0.00    -0.331 A  
HETATM    5  H   UNL     1     -12.638  11.959  70.406  1.00  0.00     0.000 HD 
HETATM    6  C   UNL     1     -11.206  13.208  68.630  1.00  0.00    -0.314 A  
HETATM    7  C   UNL     1     -10.460  14.021  67.773  1.00  0.00    -0.236 A  
HETATM    8  C   UNL     1     -13.216  14.905  71.914  1.00  0.00    -0.441 C  
HETATM    9  C   UNL     1     -10.391  15.399  68.019  1.00  0.00    -0.249 A  
HETATM   10  C   UNL     1     -12.534  15.715  71.096  1.00  0.00    -0.505 C  
HETATM   11  C   UNL     1     -11.066  15.965  69.103  1.00  0.00    -0.302 A  
HETATM   12  C   UNL     1     -11.813  15.155  69.955  1.00  0.00    -0.361 A  
ENDROOT
BRANCH   7  13
HETATM   13  O   UNL     1      -9.848  13.363  66.737  1.00  0.00    -0.250 OA 
BRANCH  13  14
HETATM   14  C   UNL     1     -10.243  12.003  66.562  1.00  0.00    -0.206 C  
BRANCH  14  15
HETATM   15  C   UNL     1      -9.976  11.563  65.126  1.00  0.00    -0.304 C  
BRANCH  15  16
HETATM   16  C   UNL     1      -8.758  10.639  65.031  1.00  0.00    -0.186 C  
BRANCH  16  17
HETATM   17  C   UNL     1      -9.012   9.176  65.437  1.00  0.00    -0.207 C  
BRANCH  17  18
HETATM   18  N   UNL     1      -8.009   8.615  66.352  1.00  0.00    -0.098 NA 
HETATM   19  C   UNL     1      -7.698   9.504  67.499  1.00  0.00    -0.095 C  
HETATM   20  C   UNL     1      -8.821   9.648  68.556  1.00  0.00    -0.124 C  
HETATM   21  N   UNL     1      -9.269   8.327  69.010  1.00  0.00    -0.147 NA 
HETATM   22  C   UNL     1      -8.461   7.309  66.904  1.00  0.00    -0.119 C  
HETATM   23  C   UNL     1      -9.620   7.386  67.934  1.00  0.00    -0.141 C  
BRANCH  21  24
HETATM   24  C   UNL     1      -9.811   8.153  70.288  1.00  0.00    -0.184 A  
HETATM   25  C   UNL     1      -9.716   6.961  71.086  1.00  0.00    -0.177 A  
HETATM   26  C   UNL     1      -8.927   5.759  70.931  1.00  0.00    -0.153 A  
HETATM   27  C   UNL     1      -9.166   4.804  71.889  1.00  0.00    -0.137 A  
HETATM   28  S   UNL     1     -10.295   5.336  73.039  1.00  0.00    -0.209 SA 
HETATM   29  C   UNL     1     -10.470   6.869  72.265  1.00  0.00    -0.207 A  
HETATM   30  C   UNL     1     -11.279   7.922  72.725  1.00  0.00    -0.466 A  
HETATM   31  C   UNL     1     -11.320   9.098  71.992  1.00  0.00    -0.333 A  
HETATM   32  C   UNL     1     -10.606   9.204  70.806  1.00  0.00    -0.324 A  
ENDBRANCH  21  24
ENDBRANCH  17  18
ENDBRANCH  16  17
ENDBRANCH  15  16
ENDBRANCH  14  15
ENDBRANCH  13  14
ENDBRANCH   7  13
TORSDOF 7
ENDMDL
MODEL      137
REMARK 921   NORMALIZED FREE ENERGY PREDICTED BY IDOCK:   -5.32 KCAL/MOL
REMARK 922        TOTAL FREE ENERGY PREDICTED BY IDOCK:   -8.80 KCAL/MOL
REMARK 923 INTER-LIGAND FREE ENERGY PREDICTED BY IDOCK:   -7.81 KCAL/MOL
REMARK 924 INTRA-LIGAND FREE ENERGY PREDICTED BY IDOCK:   -0.99 KCAL/MOL
REMARK 927      BINDING AFFINITY PREDICTED BY RF-SCORE:    0.00 PKD
ROOT
HETATM    1  O   UNL     1      -8.500   8.017  74.405  1.00  0.00    -0.240 OA 
HETATM    2  C   UNL     1      -9.123   7.548  73.458  1.00  0.00    -0.235 C  
HETATM    3  N   UNL     1      -8.596   7.470  72.199  1.00  0.00    -0.112 N  
HETATM    4  C   UNL     1      -9.300   6.966  71.096  1.00  0.00    -0.162 A  
HETATM    5  H   UNL     1      -7.640   7.796  72.054  1.00  0.00     0.000 HD 
HETATM    6  C   UNL     1      -8.700   6.938  69.838  1.00  0.00    -0.142 A  
HETATM    7  C   UNL     1      -9.416   6.459  68.738  1.00  0.00    -0.127 A  
HETATM    8  C   UNL     1     -10.501   7.030  73.640  1.00  0.00    -0.414 C  
HETATM    9  C   UNL     1     -10.732   6.011  68.917  1.00  0.00    -0.384 A  
HETATM   10  C   UNL     1     -11.204   6.538  72.613  1.00  0.00    -0.284 C  
HETATM   11  C   UNL     1     -11.328   6.032  70.180  1.00  0.00    -0.351 A  
HETATM   12  C   UNL     1     -10.612   6.506  71.277  1.00  0.00    -0.268 A  
ENDROOT
BRANCH   7  13
HETATM   13  O   UNL     1      -8.731   6.474  67.550  1.00  0.00    -0.115 OA 
BRANCH  13  14
HETATM   14  C   UNL     1      -9.482   6.918  66.421  1.00  0.00    -0.120 C  
BRANCH  14  15
HETATM   15  C   UNL     1      -8.651   7.892  65.592  1.00  0.00    -0.159 C  
BRANCH  15  16
HETATM   16  C   UNL     1      -7.723   8.737  66.469  1.00  0.00    -0.099 C  
BRANCH  16  17
HETATM   17  C   UNL     1      -8.423   9.815  67.315  1.00  0.00    -0.125 C  
BRANCH  17  18
HETATM   18  N   UNL     1      -9.108  10.853  66.534  1.00  0.00    -0.165 NA 
HETATM   19  C   UNL     1     -10.579  10.865  66.735  1.00  0.00    -0.259 C  
HETATM   20  C   UNL     1     -11.060  11.360  68.121  1.00  0.00    -0.248 C  
HETATM   21  N   UNL     1     -10.467  12.665  68.432  1.00  0.00    -0.234 NA 
HETATM   22  C   UNL     1      -8.596  12.207  66.879  1.00  0.00    -0.191 C  
HETATM   23  C   UNL     1      -9.006  12.738  68.279  1.00  0.00    -0.175 C  
BRANCH  21  24
HETATM   24  C   UNL     1     -11.123  13.567  69.278  1.00  0.00    -0.179 A  
HETATM   25  C   UNL     1     -11.976  13.217  70.380  1.00  0.00    -0.343 A  
HETATM   26  C   UNL     1     -12.230  11.954  71.038  1.00  0.00    -0.275 A  
HETATM   27  C   UNL     1     -13.175  12.019  72.033  1.00  0.00    -0.375 A  
HETATM   28  S   UNL     1     -13.744  13.602  72.256  1.00  0.00    -0.604 SA 
HETATM   29  C   UNL     1     -12.715  14.224  71.017  1.00  0.00    -0.359 A  
HETATM   30  C   UNL     1     -12.614  15.578  70.650  1.00  0.00    -0.493 A  
HETATM   31  C   UNL     1     -11.742  15.927  69.631  1.00  0.00    -0.322 A  
HETATM   32  C   UNL     1     -11.022  14.944  68.965  1.00  0.00    -0.251 A  
ENDBRANCH  21  24
ENDBRANCH  17  18
ENDBRANCH  16  17
ENDBRANCH  15  16
ENDBRANCH  14  15
ENDBRANCH  13  14
ENDBRANCH   7  13
TORSDOF 7
ENDMDL
MODEL      138
REMARK 921   NORMALIZED FREE ENERGY PREDICTED BY IDOCK:   -5.31 KCAL/MOL
REMARK 922        TOTAL FREE ENERGY PREDICTED BY IDOCK:   -8.79 KCAL/MOL
REMARK 923 INTER-LIGAND FREE ENERGY PREDICTED BY IDOCK:   -7.69 KCAL/MOL
REMARK 924 INTRA-LIGAND FREE ENERGY PREDICTED BY IDOCK:   -1.10 KCAL/MOL
REMARK 927      BINDING AFFINITY PREDICTED BY RF-SCORE:    0.00 PKD
ROOT
HETATM    1  O   UNL     1      -8.531   8.353  70.366  1.00  0.00    -0.121 OA 
HETATM    2  C   UNL     1      -8.533   8.580  69.161  1.00  0.00    -0.125 C  
HETATM    3  N   UNL     1      -9.438   9.419  68.572  1.00  0.00    -0.145 N  
HETATM    4  C   UNL     1      -9.477   9.668  67.193  1.00  0.00    -0.148 A  
HETATM    5  H   UNL     1     -10.120   9.888  69.168  1.00  0.00     0.000 HD 
HETATM    6  C   UNL     1     -10.444  10.524  66.666  1.00  0.00    -0.290 A  
HETATM    7  C   UNL     1     -10.495  10.748  65.288  1.00  0.00    -0.212 A  
HETATM    8  C   UNL     1      -7.531   7.944  68.269  1.00  0.00    -0.104 C  
HETATM    9  C   UNL     1      -9.569  10.108  64.453  1.00  0.00    -0.366 A  
HETATM   10  C   UNL     1      -7.535   8.160  66.948  1.00  0.00    -0.091 C  
HETATM   11  C   UNL     1      -8.596   9.259  64.984  1.00  0.00    -0.200 A  
HETATM   12  C   UNL     1      -8.543   9.039  66.359  1.00  0.00    -0.136 A  
ENDROOT
BRANCH   7  13
HETATM   13  O   UNL     1     -11.483  11.606  64.877  1.00  0.00    -0.244 OA 
BRANCH  13  14
HETATM   14  C   UNL     1     -11.272  12.209  63.600  1.00  0.00    -0.464 C  
BRANCH  14  15
HETATM   15  C   UNL     1     -12.089  13.492  63.489  1.00  0.00    -0.425 C  
BRANCH  15  16
HETATM   16  C   UNL     1     -12.658  13.923  64.845  1.00  0.00    -0.380 C  
BRANCH  16  17
HETATM   17  C   UNL     1     -11.769  14.888  65.651  1.00  0.00    -0.194 C  
BRANCH  17  18
HETATM   18  N   UNL     1     -11.032  14.260  66.755  1.00  0.00    -0.299 NA 
HETATM   19  C   UNL     1      -9.577  14.134  66.494  1.00  0.00    -0.296 C  
HETATM   20  C   UNL     1      -8.780  15.462  66.501  1.00  0.00    -0.300 C  
HETATM   21  N   UNL     1      -9.039  16.207  67.738  1.00  0.00    -0.197 NA 
HETATM   22  C   UNL     1     -11.199  15.032  68.016  1.00  0.00    -0.316 C  
HETATM   23  C   UNL     1     -10.461  16.397  68.064  1.00  0.00    -0.303 C  
BRANCH  21  24
HETATM   24  C   UNL     1      -8.084  17.087  68.258  1.00  0.00    -0.228 A  
HETATM   25  C   UNL     1      -7.907  18.460  67.871  1.00  0.00    -0.267 A  
HETATM   26  C   UNL     1      -8.717  19.344  67.062  1.00  0.00    -0.328 A  
HETATM   27  C   UNL     1      -8.168  20.589  66.869  1.00  0.00    -0.200 A  
HETATM   28  S   UNL     1      -6.699  20.763  67.700  1.00  0.00    -0.342 SA 
HETATM   29  C   UNL     1      -6.787  19.162  68.339  1.00  0.00    -0.265 A  
HETATM   30  C   UNL     1      -5.852  18.587  69.218  1.00  0.00    -0.236 A  
HETATM   31  C   UNL     1      -6.056  17.284  69.646  1.00  0.00    -0.244 A  
HETATM   32  C   UNL     1      -7.141  16.558  69.173  1.00  0.00    -0.227 A  
ENDBRANCH  21  24
ENDBRANCH  17  18
ENDBRANCH  16  17
ENDBRANCH  15  16
ENDBRANCH  14  15
ENDBRANCH  13  14
ENDBRANCH   7  13
TORSDOF 7
ENDMDL
MODEL      139
REMARK 921   NORMALIZED FREE ENERGY PREDICTED BY IDOCK:   -5.31 KCAL/MOL
REMARK 922        TOTAL FREE ENERGY PREDICTED BY IDOCK:   -8.79 KCAL/MOL
REMARK 923 INTER-LIGAND FREE ENERGY PREDICTED BY IDOCK:   -8.11 KCAL/MOL
REMARK 924 INTRA-LIGAND FREE ENERGY PREDICTED BY IDOCK:   -0.68 KCAL/MOL
REMARK 927      BINDING AFFINITY PREDICTED BY RF-SCORE:    0.00 PKD
ROOT
HETATM    1  O   UNL     1      -9.195   3.856  64.781  1.00  0.00    -0.132 OA 
HETATM    2  C   UNL     1      -8.865   5.037  64.763  1.00  0.00    -0.128 C  
HETATM    3  N   UNL     1      -9.216   5.914  65.752  1.00  0.00    -0.317 N  
HETATM    4  C   UNL     1      -8.877   7.274  65.735  1.00  0.00    -0.066 A  
HETATM    5  H   UNL     1      -9.754   5.559  66.543  1.00  0.00     0.000 HD 
HETATM    6  C   UNL     1      -9.290   8.109  66.773  1.00  0.00    -0.233 A  
HETATM    7  C   UNL     1      -8.971   9.468  66.738  1.00  0.00    -0.138 A  
HETATM    8  C   UNL     1      -8.052   5.579  63.646  1.00  0.00    -0.121 C  
HETATM    9  C   UNL     1      -8.237   9.975  65.656  1.00  0.00    -0.143 A  
HETATM   10  C   UNL     1      -7.705   6.871  63.597  1.00  0.00    -0.111 C  
HETATM   11  C   UNL     1      -7.817   9.135  64.622  1.00  0.00    -0.118 A  
HETATM   12  C   UNL     1      -8.132   7.778  64.660  1.00  0.00    -0.123 A  
ENDROOT
BRANCH   7  13
HETATM   13  O   UNL     1      -9.424  10.197  67.807  1.00  0.00    -0.143 OA 
BRANCH  13  14
HETATM   14  C   UNL     1     -10.758   9.905  68.222  1.00  0.00    -0.234 C  
BRANCH  14  15
HETATM   15  C   UNL     1     -11.015  10.496  69.604  1.00  0.00    -0.333 C  
BRANCH  15  16
HETATM   16  C   UNL     1     -11.962  11.698  69.542  1.00  0.00    -0.383 C  
BRANCH  16  17
HETATM   17  C   UNL     1     -11.306  13.030  69.136  1.00  0.00    -0.273 C  
BRANCH  17  18
HETATM   18  N   UNL     1     -12.252  14.075  68.725  1.00  0.00    -0.295 NA 
HETATM   19  C   UNL     1     -12.241  15.261  69.616  1.00  0.00    -0.271 C  
HETATM   20  C   UNL     1     -10.973  16.147  69.533  1.00  0.00    -0.341 C  
HETATM   21  N   UNL     1     -10.701  16.521  68.141  1.00  0.00    -0.331 NA 
HETATM   22  C   UNL     1     -11.960  14.546  67.343  1.00  0.00    -0.335 C  
HETATM   23  C   UNL     1     -10.673  15.400  67.189  1.00  0.00    -0.314 C  
BRANCH  21  24
HETATM   24  C   UNL     1     -10.024  17.707  67.837  1.00  0.00    -0.323 A  
HETATM   25  C   UNL     1      -8.666  18.015  68.193  1.00  0.00    -0.277 A  
HETATM   26  C   UNL     1      -7.603  17.197  68.734  1.00  0.00    -0.259 A  
HETATM   27  C   UNL     1      -6.445  17.885  69.000  1.00  0.00    -0.236 A  
HETATM   28  S   UNL     1      -6.568  19.518  68.556  1.00  0.00    -0.282 SA 
HETATM   29  C   UNL     1      -8.186  19.317  67.988  1.00  0.00    -0.311 A  
HETATM   30  C   UNL     1      -8.969  20.324  67.397  1.00  0.00    -0.457 A  
HETATM   31  C   UNL     1     -10.257  20.012  66.991  1.00  0.00    -0.587 A  
HETATM   32  C   UNL     1     -10.766  18.738  67.211  1.00  0.00    -0.490 A  
ENDBRANCH  21  24
ENDBRANCH  17  18
ENDBRANCH  16  17
ENDBRANCH  15  16
ENDBRANCH  14  15
ENDBRANCH  13  14
ENDBRANCH   7  13
TORSDOF 7
ENDMDL
MODEL      140
REMARK 921   NORMALIZED FREE ENERGY PREDICTED BY IDOCK:   -5.31 KCAL/MOL
REMARK 922        TOTAL FREE ENERGY PREDICTED BY IDOCK:   -8.78 KCAL/MOL
REMARK 923 INTER-LIGAND FREE ENERGY PREDICTED BY IDOCK:   -8.11 KCAL/MOL
REMARK 924 INTRA-LIGAND FREE ENERGY PREDICTED BY IDOCK:   -0.67 KCAL/MOL
REMARK 927      BINDING AFFINITY PREDICTED BY RF-SCORE:    0.00 PKD
ROOT
HETATM    1  O   UNL     1     -10.240   4.502  70.205  1.00  0.00    -0.219 OA 
HETATM    2  C   UNL     1     -10.279   5.472  69.456  1.00  0.00    -0.261 C  
HETATM    3  N   UNL     1     -10.405   6.753  69.919  1.00  0.00    -0.197 N  
HETATM    4  C   UNL     1     -10.482   7.873  69.081  1.00  0.00    -0.209 A  
HETATM    5  H   UNL     1     -10.444   6.900  70.928  1.00  0.00     0.000 HD 
HETATM    6  C   UNL     1     -10.629   9.147  69.629  1.00  0.00    -0.237 A  
HETATM    7  C   UNL     1     -10.732  10.257  68.787  1.00  0.00    -0.219 A  
HETATM    8  C   UNL     1     -10.187   5.298  67.985  1.00  0.00    -0.204 C  
HETATM    9  C   UNL     1     -10.684  10.074  67.399  1.00  0.00    -0.336 A  
HETATM   10  C   UNL     1     -10.254   6.344  67.153  1.00  0.00    -0.254 C  
HETATM   11  C   UNL     1     -10.529   8.798  66.852  1.00  0.00    -0.319 A  
HETATM   12  C   UNL     1     -10.422   7.692  67.692  1.00  0.00    -0.313 A  
ENDROOT
BRANCH   7  13
HETATM   13  O   UNL     1     -10.872  11.461  69.430  1.00  0.00    -0.226 OA 
BRANCH  13  14
HETATM   14  C   UNL     1     -12.187  12.015  69.405  1.00  0.00    -0.097 C  
BRANCH  14  15
HETATM   15  C   UNL     1     -12.143  13.437  68.857  1.00  0.00    -0.289 C  
BRANCH  15  16
HETATM   16  C   UNL     1     -10.757  14.068  69.024  1.00  0.00    -0.232 C  
BRANCH  16  17
HETATM   17  C   UNL     1     -10.007  14.361  67.712  1.00  0.00    -0.226 C  
BRANCH  17  18
HETATM   18  N   UNL     1     -10.521  15.515  66.962  1.00  0.00    -0.298 NA 
HETATM   19  C   UNL     1     -10.775  16.703  67.812  1.00  0.00    -0.327 C  
HETATM   20  C   UNL     1      -9.514  17.414  68.362  1.00  0.00    -0.293 C  
HETATM   21  N   UNL     1      -8.587  17.728  67.269  1.00  0.00    -0.230 NA 
HETATM   22  C   UNL     1      -9.569  15.922  65.891  1.00  0.00    -0.343 C  
HETATM   23  C   UNL     1      -8.262  16.598  66.385  1.00  0.00    -0.318 C  
BRANCH  21  24
HETATM   24  C   UNL     1      -7.706  18.811  67.364  1.00  0.00    -0.228 A  
HETATM   25  C   UNL     1      -6.863  19.112  68.489  1.00  0.00    -0.310 A  
HETATM   26  C   UNL     1      -6.528  18.350  69.672  1.00  0.00    -0.155 A  
HETATM   27  C   UNL     1      -5.722  19.019  70.561  1.00  0.00    -0.182 A  
HETATM   28  S   UNL     1      -5.289  20.554  69.983  1.00  0.00    -0.337 SA 
HETATM   29  C   UNL     1      -6.176  20.334  68.519  1.00  0.00    -0.301 A  
HETATM   30  C   UNL     1      -6.240  21.259  67.462  1.00  0.00    -0.429 A  
HETATM   31  C   UNL     1      -6.999  20.942  66.346  1.00  0.00    -0.191 A  
HETATM   32  C   UNL     1      -7.712  19.751  66.305  1.00  0.00    -0.331 A  
ENDBRANCH  21  24
ENDBRANCH  17  18
ENDBRANCH  16  17
ENDBRANCH  15  16
ENDBRANCH  14  15
ENDBRANCH  13  14
ENDBRANCH   7  13
TORSDOF 7
ENDMDL
MODEL      141
REMARK 921   NORMALIZED FREE ENERGY PREDICTED BY IDOCK:   -5.29 KCAL/MOL
REMARK 922        TOTAL FREE ENERGY PREDICTED BY IDOCK:   -8.76 KCAL/MOL
REMARK 923 INTER-LIGAND FREE ENERGY PREDICTED BY IDOCK:   -7.96 KCAL/MOL
REMARK 924 INTRA-LIGAND FREE ENERGY PREDICTED BY IDOCK:   -0.80 KCAL/MOL
REMARK 927      BINDING AFFINITY PREDICTED BY RF-SCORE:    0.00 PKD
ROOT
HETATM    1  O   UNL     1     -10.010  20.948  67.355  1.00  0.00    -0.397 OA 
HETATM    2  C   UNL     1      -9.642  19.833  67.710  1.00  0.00    -0.358 C  
HETATM    3  N   UNL     1     -10.386  18.708  67.486  1.00  0.00    -0.389 N  
HETATM    4  C   UNL     1      -9.999  17.429  67.909  1.00  0.00    -0.301 A  
HETATM    5  H   UNL     1     -11.269  18.804  66.984  1.00  0.00     0.000 HD 
HETATM    6  C   UNL     1     -10.822  16.332  67.659  1.00  0.00    -0.293 A  
HETATM    7  C   UNL     1     -10.444  15.064  68.107  1.00  0.00    -0.245 A  
HETATM    8  C   UNL     1      -8.346  19.651  68.410  1.00  0.00    -0.346 C  
HETATM    9  C   UNL     1      -9.237  14.912  68.802  1.00  0.00    -0.193 A  
HETATM   10  C   UNL     1      -7.941  18.445  68.826  1.00  0.00    -0.278 C  
HETATM   11  C   UNL     1      -8.409  16.011  69.044  1.00  0.00    -0.243 A  
HETATM   12  C   UNL     1      -8.785  17.275  68.594  1.00  0.00    -0.268 A  
ENDROOT
BRANCH   7  13
HETATM   13  O   UNL     1     -11.325  14.057  67.806  1.00  0.00    -0.276 OA 
BRANCH  13  14
HETATM   14  C   UNL     1     -11.574  13.860  66.415  1.00  0.00    -0.367 C  
BRANCH  14  15
HETATM   15  C   UNL     1     -11.270  12.416  66.030  1.00  0.00    -0.374 C  
BRANCH  15  16
HETATM   16  C   UNL     1      -9.835  12.021  66.392  1.00  0.00    -0.238 C  
BRANCH  16  17
HETATM   17  C   UNL     1      -9.704  10.769  67.278  1.00  0.00    -0.161 C  
BRANCH  17  18
HETATM   18  N   UNL     1     -10.947  10.003  67.438  1.00  0.00    -0.256 NA 
HETATM   19  C   UNL     1     -10.732   8.535  67.478  1.00  0.00    -0.141 C  
HETATM   20  C   UNL     1     -10.041   7.996  68.756  1.00  0.00    -0.195 C  
HETATM   21  N   UNL     1     -10.745   8.466  69.955  1.00  0.00    -0.233 NA 
HETATM   22  C   UNL     1     -11.654  10.389  68.690  1.00  0.00    -0.101 C  
HETATM   23  C   UNL     1     -10.983   9.918  70.007  1.00  0.00    -0.291 C  
BRANCH  21  24
HETATM   24  C   UNL     1     -10.717   7.724  71.140  1.00  0.00    -0.227 A  
HETATM   25  C   UNL     1      -9.626   7.673  72.074  1.00  0.00    -0.200 A  
HETATM   26  C   UNL     1      -8.420   8.463  72.190  1.00  0.00    -0.245 A  
HETATM   27  C   UNL     1      -7.580   8.061  73.200  1.00  0.00    -0.145 A  
HETATM   28  S   UNL     1      -8.234   6.768  74.083  1.00  0.00    -0.139 SA 
HETATM   29  C   UNL     1      -9.665   6.738  73.118  1.00  0.00    -0.168 A  
HETATM   30  C   UNL     1     -10.759   5.877  73.317  1.00  0.00    -0.290 A  
HETATM   31  C   UNL     1     -11.842   5.969  72.456  1.00  0.00    -0.236 A  
HETATM   32  C   UNL     1     -11.814   6.866  71.397  1.00  0.00    -0.373 A  
ENDBRANCH  21  24
ENDBRANCH  17  18
ENDBRANCH  16  17
ENDBRANCH  15  16
ENDBRANCH  14  15
ENDBRANCH  13  14
ENDBRANCH   7  13
TORSDOF 7
ENDMDL
MODEL      142
REMARK 921   NORMALIZED FREE ENERGY PREDICTED BY IDOCK:   -5.29 KCAL/MOL
REMARK 922        TOTAL FREE ENERGY PREDICTED BY IDOCK:   -8.76 KCAL/MOL
REMARK 923 INTER-LIGAND FREE ENERGY PREDICTED BY IDOCK:   -7.77 KCAL/MOL
REMARK 924 INTRA-LIGAND FREE ENERGY PREDICTED BY IDOCK:   -0.99 KCAL/MOL
REMARK 927      BINDING AFFINITY PREDICTED BY RF-SCORE:    0.00 PKD
ROOT
HETATM    1  O   UNL     1      -8.255  12.560  68.186  1.00  0.00    -0.154 OA 
HETATM    2  C   UNL     1      -7.692  11.799  68.966  1.00  0.00     0.027 C  
HETATM    3  N   UNL     1      -8.258  10.628  69.387  1.00  0.00    -0.329 N  
HETATM    4  C   UNL     1      -7.647   9.759  70.302  1.00  0.00    -0.172 A  
HETATM    5  H   UNL     1      -9.174  10.373  69.017  1.00  0.00     0.000 HD 
HETATM    6  C   UNL     1      -8.297   8.591  70.698  1.00  0.00    -0.141 A  
HETATM    7  C   UNL     1      -7.694   7.743  71.629  1.00  0.00    -0.088 A  
HETATM    8  C   UNL     1      -6.344  12.120  69.497  1.00  0.00    -0.122 C  
HETATM    9  C   UNL     1      -6.439   8.078  72.153  1.00  0.00    -0.057 A  
HETATM   10  C   UNL     1      -5.726  11.314  70.368  1.00  0.00    -0.146 C  
HETATM   11  C   UNL     1      -5.785   9.244  71.748  1.00  0.00    -0.071 A  
HETATM   12  C   UNL     1      -6.385  10.088  70.816  1.00  0.00    -0.074 A  
ENDROOT
BRANCH   7  13
HETATM   13  O   UNL     1      -8.419   6.622  71.947  1.00  0.00    -0.114 OA 
BRANCH  13  14
HETATM   14  C   UNL     1      -9.179   6.065  70.875  1.00  0.00    -0.154 C  
BRANCH  14  15
HETATM   15  C   UNL     1     -10.559   5.650  71.375  1.00  0.00    -0.317 C  
BRANCH  15  16
HETATM   16  C   UNL     1     -10.912   6.331  72.700  1.00  0.00    -0.285 C  
BRANCH  16  17
HETATM   17  C   UNL     1     -11.377   7.794  72.582  1.00  0.00    -0.393 C  
BRANCH  17  18
HETATM   18  N   UNL     1     -12.238   8.068  71.424  1.00  0.00    -0.306 NA 
HETATM   19  C   UNL     1     -13.539   8.679  71.791  1.00  0.00    -0.403 C  
HETATM   20  C   UNL     1     -13.472  10.142  72.295  1.00  0.00    -0.189 C  
HETATM   21  N   UNL     1     -12.739  10.979  71.338  1.00  0.00    -0.423 NA 
HETATM   22  C   UNL     1     -11.564   8.984  70.464  1.00  0.00    -0.175 C  
HETATM   23  C   UNL     1     -11.424  10.457  70.934  1.00  0.00    -0.297 C  
BRANCH  21  24
HETATM   24  C   UNL     1     -13.004  12.349  71.234  1.00  0.00    -0.203 A  
HETATM   25  C   UNL     1     -12.442  13.242  70.258  1.00  0.00    -0.255 A  
HETATM   26  C   UNL     1     -11.671  12.996  69.059  1.00  0.00    -0.376 A  
HETATM   27  C   UNL     1     -11.258  14.136  68.414  1.00  0.00    -0.265 A  
HETATM   28  S   UNL     1     -11.829  15.536  69.184  1.00  0.00    -0.321 SA 
HETATM   29  C   UNL     1     -12.651  14.622  70.396  1.00  0.00    -0.343 A  
HETATM   30  C   UNL     1     -13.437  15.164  71.428  1.00  0.00    -0.561 A  
HETATM   31  C   UNL     1     -14.035  14.301  72.332  1.00  0.00    -0.597 A  
HETATM   32  C   UNL     1     -13.819  12.932  72.235  1.00  0.00    -0.464 A  
ENDBRANCH  21  24
ENDBRANCH  17  18
ENDBRANCH  16  17
ENDBRANCH  15  16
ENDBRANCH  14  15
ENDBRANCH  13  14
ENDBRANCH   7  13
TORSDOF 7
ENDMDL
MODEL      143
REMARK 921   NORMALIZED FREE ENERGY PREDICTED BY IDOCK:   -5.28 KCAL/MOL
REMARK 922        TOTAL FREE ENERGY PREDICTED BY IDOCK:   -8.75 KCAL/MOL
REMARK 923 INTER-LIGAND FREE ENERGY PREDICTED BY IDOCK:   -8.51 KCAL/MOL
REMARK 924 INTRA-LIGAND FREE ENERGY PREDICTED BY IDOCK:   -0.24 KCAL/MOL
REMARK 927      BINDING AFFINITY PREDICTED BY RF-SCORE:    0.00 PKD
ROOT
HETATM    1  O   UNL     1      -7.164   9.413  72.008  1.00  0.00    -0.249 OA 
HETATM    2  C   UNL     1      -7.738   9.037  70.992  1.00  0.00    -0.125 C  
HETATM    3  N   UNL     1      -8.272   9.909  70.085  1.00  0.00    -0.275 N  
HETATM    4  C   UNL     1      -8.959   9.502  68.933  1.00  0.00    -0.141 A  
HETATM    5  H   UNL     1      -8.165  10.909  70.255  1.00  0.00     0.000 HD 
HETATM    6  C   UNL     1      -9.492  10.453  68.065  1.00  0.00    -0.152 A  
HETATM    7  C   UNL     1     -10.198  10.041  66.932  1.00  0.00    -0.238 A  
HETATM    8  C   UNL     1      -7.880   7.590  70.694  1.00  0.00    -0.095 C  
HETATM    9  C   UNL     1     -10.360   8.671  66.684  1.00  0.00    -0.303 A  
HETATM   10  C   UNL     1      -8.525   7.162  69.603  1.00  0.00    -0.134 C  
HETATM   11  C   UNL     1      -9.817   7.719  67.550  1.00  0.00    -0.221 A  
HETATM   12  C   UNL     1      -9.110   8.131  68.678  1.00  0.00    -0.143 A  
ENDROOT
BRANCH   7  13
HETATM   13  O   UNL     1     -10.679  11.057  66.147  1.00  0.00    -0.253 OA 
BRANCH  13  14
HETATM   14  C   UNL     1     -10.216  11.053  64.796  1.00  0.00    -0.319 C  
BRANCH  14  15
HETATM   15  C   UNL     1     -10.520  12.395  64.138  1.00  0.00    -0.415 C  
BRANCH  15  16
HETATM   16  C   UNL     1     -10.991  13.436  65.158  1.00  0.00    -0.315 C  
BRANCH  16  17
HETATM   17  C   UNL     1     -10.563  14.884  64.862  1.00  0.00    -0.391 C  
BRANCH  17  18
HETATM   18  N   UNL     1      -9.673  15.474  65.870  1.00  0.00    -0.337 NA 
HETATM   19  C   UNL     1     -10.313  16.557  66.658  1.00  0.00    -0.298 C  
HETATM   20  C   UNL     1     -11.408  16.100  67.653  1.00  0.00    -0.064 C  
HETATM   21  N   UNL     1     -10.896  15.037  68.525  1.00  0.00    -0.242 NA 
HETATM   22  C   UNL     1      -9.194  14.442  66.830  1.00  0.00    -0.268 C  
HETATM   23  C   UNL     1     -10.261  13.910  67.823  1.00  0.00    -0.237 C  
BRANCH  21  24
HETATM   24  C   UNL     1     -11.416  14.851  69.810  1.00  0.00    -0.295 A  
HETATM   25  C   UNL     1     -11.963  13.626  70.327  1.00  0.00    -0.397 A  
HETATM   26  C   UNL     1     -11.954  12.275  69.811  1.00  0.00    -0.365 A  
HETATM   27  C   UNL     1     -12.650  11.375  70.582  1.00  0.00    -0.271 A  
HETATM   28  S   UNL     1     -13.284  12.102  71.977  1.00  0.00    -0.223 SA 
HETATM   29  C   UNL     1     -12.620  13.642  71.566  1.00  0.00    -0.295 A  
HETATM   30  C   UNL     1     -12.719  14.804  72.350  1.00  0.00    -0.432 A  
HETATM   31  C   UNL     1     -12.135  15.972  71.885  1.00  0.00    -0.590 A  
HETATM   32  C   UNL     1     -11.505  15.989  70.647  1.00  0.00    -0.427 A  
ENDBRANCH  21  24
ENDBRANCH  17  18
ENDBRANCH  16  17
ENDBRANCH  15  16
ENDBRANCH  14  15
ENDBRANCH  13  14
ENDBRANCH   7  13
TORSDOF 7
ENDMDL
MODEL      144
REMARK 921   NORMALIZED FREE ENERGY PREDICTED BY IDOCK:   -5.28 KCAL/MOL
REMARK 922        TOTAL FREE ENERGY PREDICTED BY IDOCK:   -8.75 KCAL/MOL
REMARK 923 INTER-LIGAND FREE ENERGY PREDICTED BY IDOCK:   -7.76 KCAL/MOL
REMARK 924 INTRA-LIGAND FREE ENERGY PREDICTED BY IDOCK:   -0.99 KCAL/MOL
REMARK 927      BINDING AFFINITY PREDICTED BY RF-SCORE:    0.00 PKD
ROOT
HETATM    1  O   UNL     1     -13.203  14.277  65.081  1.00  0.00    -0.686 OA 
HETATM    2  C   UNL     1     -12.438  13.320  65.019  1.00  0.00    -0.443 C  
HETATM    3  N   UNL     1     -12.070  12.602  66.123  1.00  0.00    -0.398 N  
HETATM    4  C   UNL     1     -11.173  11.525  66.080  1.00  0.00    -0.178 A  
HETATM    5  H   UNL     1     -12.468  12.863  67.025  1.00  0.00     0.000 HD 
HETATM    6  C   UNL     1     -10.832  10.854  67.253  1.00  0.00    -0.342 A  
HETATM    7  C   UNL     1      -9.918   9.798  67.208  1.00  0.00    -0.191 A  
HETATM    8  C   UNL     1     -11.869  12.889  63.719  1.00  0.00    -0.571 C  
HETATM    9  C   UNL     1      -9.356   9.427  65.978  1.00  0.00    -0.279 A  
HETATM   10  C   UNL     1     -11.012  11.863  63.637  1.00  0.00    -0.511 C  
HETATM   11  C   UNL     1      -9.706  10.096  64.803  1.00  0.00    -0.389 A  
HETATM   12  C   UNL     1     -10.621  11.146  64.848  1.00  0.00    -0.356 A  
ENDROOT
BRANCH   7  13
HETATM   13  O   UNL     1      -9.654   9.207  68.417  1.00  0.00    -0.149 OA 
BRANCH  13  14
HETATM   14  C   UNL     1      -9.170  10.087  69.431  1.00  0.00    -0.216 C  
BRANCH  14  15
HETATM   15  C   UNL     1      -9.586   9.576  70.806  1.00  0.00    -0.261 C  
BRANCH  15  16
HETATM   16  C   UNL     1     -11.072   9.208  70.850  1.00  0.00    -0.356 C  
BRANCH  16  17
HETATM   17  C   UNL     1     -11.473   8.230  71.970  1.00  0.00    -0.334 C  
BRANCH  17  18
HETATM   18  N   UNL     1     -12.119   6.998  71.500  1.00  0.00    -0.332 NA 
HETATM   19  C   UNL     1     -11.551   6.484  70.229  1.00  0.00    -0.409 C  
HETATM   20  C   UNL     1     -10.123   5.892  70.326  1.00  0.00    -0.202 C  
HETATM   21  N   UNL     1     -10.060   4.881  71.387  1.00  0.00    -0.196 NA 
HETATM   22  C   UNL     1     -12.006   5.915  72.514  1.00  0.00    -0.119 C  
HETATM   23  C   UNL     1     -10.585   5.314  72.692  1.00  0.00    -0.228 C  
BRANCH  21  24
HETATM   24  C   UNL     1      -9.136   3.832  71.324  1.00  0.00    -0.116 A  
HETATM   25  C   UNL     1      -7.723   3.942  71.561  1.00  0.00    -0.061 A  
HETATM   26  C   UNL     1      -6.918   5.015  72.101  1.00  0.00    -0.066 A  
HETATM   27  C   UNL     1      -5.569   4.754  72.114  1.00  0.00    -0.008 A  
HETATM   28  S   UNL     1      -5.227   3.194  71.540  1.00  0.00    -0.004 SA 
HETATM   29  C   UNL     1      -6.896   2.846  71.275  1.00  0.00    -0.032 A  
HETATM   30  C   UNL     1      -7.406   1.621  70.810  1.00  0.00    -0.033 A  
HETATM   31  C   UNL     1      -8.776   1.491  70.643  1.00  0.00    -0.099 A  
HETATM   32  C   UNL     1      -9.612   2.571  70.891  1.00  0.00    -0.192 A  
ENDBRANCH  21  24
ENDBRANCH  17  18
ENDBRANCH  16  17
ENDBRANCH  15  16
ENDBRANCH  14  15
ENDBRANCH  13  14
ENDBRANCH   7  13
TORSDOF 7
ENDMDL
MODEL      145
REMARK 921   NORMALIZED FREE ENERGY PREDICTED BY IDOCK:   -5.26 KCAL/MOL
REMARK 922        TOTAL FREE ENERGY PREDICTED BY IDOCK:   -8.72 KCAL/MOL
REMARK 923 INTER-LIGAND FREE ENERGY PREDICTED BY IDOCK:   -8.06 KCAL/MOL
REMARK 924 INTRA-LIGAND FREE ENERGY PREDICTED BY IDOCK:   -0.66 KCAL/MOL
REMARK 927      BINDING AFFINITY PREDICTED BY RF-SCORE:    0.00 PKD
ROOT
HETATM    1  O   UNL     1      -9.495  14.372  66.525  1.00  0.00    -0.268 OA 
HETATM    2  C   UNL     1     -10.231  14.639  67.468  1.00  0.00    -0.225 C  
HETATM    3  N   UNL     1     -10.727  13.681  68.308  1.00  0.00    -0.247 N  
HETATM    4  C   UNL     1     -11.595  13.960  69.373  1.00  0.00    -0.297 A  
HETATM    5  H   UNL     1     -10.451  12.711  68.151  1.00  0.00     0.000 HD 
HETATM    6  C   UNL     1     -12.074  12.924  70.174  1.00  0.00    -0.373 A  
HETATM    7  C   UNL     1     -12.958  13.206  71.217  1.00  0.00    -0.254 A  
HETATM    8  C   UNL     1     -10.623  16.043  67.749  1.00  0.00    -0.309 C  
HETATM    9  C   UNL     1     -13.352  14.531  71.446  1.00  0.00    -0.427 A  
HETATM   10  C   UNL     1     -11.447  16.350  68.758  1.00  0.00    -0.222 C  
HETATM   11  C   UNL     1     -12.865  15.569  70.648  1.00  0.00    -0.466 A  
HETATM   12  C   UNL     1     -11.979  15.288  69.609  1.00  0.00    -0.364 A  
ENDROOT
BRANCH   7  13
HETATM   13  O   UNL     1     -13.365  12.115  71.942  1.00  0.00    -0.463 OA 
BRANCH  13  14
HETATM   14  C   UNL     1     -12.725  10.885  71.603  1.00  0.00    -0.393 C  
BRANCH  14  15
HETATM   15  C   UNL     1     -13.622   9.710  71.978  1.00  0.00    -0.467 C  
BRANCH  15  16
HETATM   16  C   UNL     1     -12.817   8.546  72.564  1.00  0.00    -0.310 C  
BRANCH  16  17
HETATM   17  C   UNL     1     -12.644   7.334  71.631  1.00  0.00    -0.368 C  
BRANCH  17  18
HETATM   18  N   UNL     1     -11.274   6.811  71.558  1.00  0.00    -0.250 NA 
HETATM   19  C   UNL     1     -11.042   5.931  70.386  1.00  0.00    -0.283 C  
HETATM   20  C   UNL     1     -11.018   6.644  69.011  1.00  0.00    -0.279 C  
HETATM   21  N   UNL     1     -10.073   7.766  69.032  1.00  0.00    -0.191 NA 
HETATM   22  C   UNL     1     -10.282   7.919  71.494  1.00  0.00    -0.190 C  
HETATM   23  C   UNL     1     -10.246   8.703  70.154  1.00  0.00    -0.192 C  
BRANCH  21  24
HETATM   24  C   UNL     1      -9.443   8.196  67.859  1.00  0.00    -0.146 A  
HETATM   25  C   UNL     1      -9.067   7.359  66.753  1.00  0.00    -0.178 A  
HETATM   26  C   UNL     1      -9.384   5.984  66.434  1.00  0.00    -0.171 A  
HETATM   27  C   UNL     1      -8.773   5.516  65.296  1.00  0.00    -0.136 A  
HETATM   28  S   UNL     1      -7.852   6.723  64.537  1.00  0.00    -0.104 SA 
HETATM   29  C   UNL     1      -8.273   7.897  65.730  1.00  0.00    -0.130 A  
HETATM   30  C   UNL     1      -7.870   9.244  65.720  1.00  0.00    -0.098 A  
HETATM   31  C   UNL     1      -8.286  10.070  66.753  1.00  0.00    -0.125 A  
HETATM   32  C   UNL     1      -9.049   9.554  67.792  1.00  0.00    -0.133 A  
ENDBRANCH  21  24
ENDBRANCH  17  18
ENDBRANCH  16  17
ENDBRANCH  15  16
ENDBRANCH  14  15
ENDBRANCH  13  14
ENDBRANCH   7  13
TORSDOF 7
ENDMDL
MODEL      146
REMARK 921   NORMALIZED FREE ENERGY PREDICTED BY IDOCK:   -5.26 KCAL/MOL
REMARK 922        TOTAL FREE ENERGY PREDICTED BY IDOCK:   -8.72 KCAL/MOL
REMARK 923 INTER-LIGAND FREE ENERGY PREDICTED BY IDOCK:   -8.57 KCAL/MOL
REMARK 924 INTRA-LIGAND FREE ENERGY PREDICTED BY IDOCK:   -0.14 KCAL/MOL
REMARK 927      BINDING AFFINITY PREDICTED BY RF-SCORE:    0.00 PKD
ROOT
HETATM    1  O   UNL     1      -6.185  20.395  71.587  1.00  0.00    -0.621 OA 
HETATM    2  C   UNL     1      -6.144  20.292  70.366  1.00  0.00    -0.324 C  
HETATM    3  N   UNL     1      -6.920  19.402  69.676  1.00  0.00    -0.232 N  
HETATM    4  C   UNL     1      -6.867  19.247  68.284  1.00  0.00    -0.263 A  
HETATM    5  H   UNL     1      -7.572  18.821  70.203  1.00  0.00     0.000 HD 
HETATM    6  C   UNL     1      -7.677  18.303  67.655  1.00  0.00    -0.230 A  
HETATM    7  C   UNL     1      -7.601  18.135  66.271  1.00  0.00    -0.264 A  
HETATM    8  C   UNL     1      -5.234  21.149  69.564  1.00  0.00    -0.323 C  
HETATM    9  C   UNL     1      -6.708  18.921  65.531  1.00  0.00    -0.292 A  
HETATM   10  C   UNL     1      -5.158  21.032  68.233  1.00  0.00    -0.315 C  
HETATM   11  C   UNL     1      -5.903  19.873  66.161  1.00  0.00    -0.183 A  
HETATM   12  C   UNL     1      -5.983  20.043  67.542  1.00  0.00    -0.204 A  
ENDROOT
BRANCH   7  13
HETATM   13  O   UNL     1      -8.442  17.181  65.756  1.00  0.00    -0.522 OA 
BRANCH  13  14
HETATM   14  C   UNL     1      -9.636  16.955  66.503  1.00  0.00    -0.278 C  
BRANCH  14  15
HETATM   15  C   UNL     1     -10.591  16.074  65.706  1.00  0.00    -0.366 C  
BRANCH  15  16
HETATM   16  C   UNL     1     -11.030  14.842  66.504  1.00  0.00    -0.327 C  
BRANCH  16  17
HETATM   17  C   UNL     1      -9.884  13.954  67.020  1.00  0.00    -0.257 C  
BRANCH  17  18
HETATM   18  N   UNL     1      -9.880  12.589  66.479  1.00  0.00    -0.240 NA 
HETATM   19  C   UNL     1      -8.752  11.762  66.976  1.00  0.00    -0.181 C  
HETATM   20  C   UNL     1      -8.835  11.347  68.466  1.00  0.00    -0.151 C  
HETATM   21  N   UNL     1     -10.128  10.713  68.749  1.00  0.00    -0.183 NA 
HETATM   22  C   UNL     1     -11.143  11.877  66.815  1.00  0.00    -0.308 C  
HETATM   23  C   UNL     1     -11.305  11.476  68.306  1.00  0.00    -0.286 C  
BRANCH  21  24
HETATM   24  C   UNL     1     -10.256   9.773  69.777  1.00  0.00    -0.242 A  
HETATM   25  C   UNL     1     -11.418   9.583  70.602  1.00  0.00    -0.362 A  
HETATM   26  C   UNL     1     -12.765  10.099  70.501  1.00  0.00    -0.269 A  
HETATM   27  C   UNL     1     -13.588   9.728  71.537  1.00  0.00    -0.274 A  
HETATM   28  S   UNL     1     -12.796   8.702  72.631  1.00  0.00    -0.061 SA 
HETATM   29  C   UNL     1     -11.332   8.736  71.716  1.00  0.00    -0.339 A  
HETATM   30  C   UNL     1     -10.162   8.022  72.030  1.00  0.00    -0.288 A  
HETATM   31  C   UNL     1      -9.061   8.152  71.199  1.00  0.00    -0.183 A  
HETATM   32  C   UNL     1      -9.111   9.008  70.106  1.00  0.00    -0.206 A  
ENDBRANCH  21  24
ENDBRANCH  17  18
ENDBRANCH  16  17
ENDBRANCH  15  16
ENDBRANCH  14  15
ENDBRANCH  13  14
ENDBRANCH   7  13
TORSDOF 7
ENDMDL
MODEL      147
REMARK 921   NORMALIZED FREE ENERGY PREDICTED BY IDOCK:   -5.24 KCAL/MOL
REMARK 922        TOTAL FREE ENERGY PREDICTED BY IDOCK:   -8.69 KCAL/MOL
REMARK 923 INTER-LIGAND FREE ENERGY PREDICTED BY IDOCK:   -7.59 KCAL/MOL
REMARK 924 INTRA-LIGAND FREE ENERGY PREDICTED BY IDOCK:   -1.09 KCAL/MOL
REMARK 927      BINDING AFFINITY PREDICTED BY RF-SCORE:    0.00 PKD
ROOT
HETATM    1  O   UNL     1     -12.028   4.925  72.893  1.00  0.00    -0.153 OA 
HETATM    2  C   UNL     1     -11.505   5.880  72.329  1.00  0.00    -0.297 C  
HETATM    3  N   UNL     1     -12.122   7.095  72.218  1.00  0.00    -0.468 N  
HETATM    4  C   UNL     1     -11.556   8.191  71.551  1.00  0.00    -0.275 A  
HETATM    5  H   UNL     1     -13.042   7.211  72.642  1.00  0.00     0.000 HD 
HETATM    6  C   UNL     1     -12.257   9.393  71.464  1.00  0.00    -0.448 A  
HETATM    7  C   UNL     1     -11.699  10.473  70.776  1.00  0.00    -0.356 A  
HETATM    8  C   UNL     1     -10.151   5.760  71.733  1.00  0.00    -0.233 C  
HETATM    9  C   UNL     1     -10.437  10.333  70.183  1.00  0.00    -0.259 A  
HETATM   10  C   UNL     1      -9.576   6.784  71.092  1.00  0.00    -0.177 C  
HETATM   11  C   UNL     1      -9.733   9.131  70.279  1.00  0.00    -0.248 A  
HETATM   12  C   UNL     1     -10.288   8.055  70.969  1.00  0.00    -0.228 A  
ENDROOT
BRANCH   7  13
HETATM   13  O   UNL     1     -12.472  11.607  70.752  1.00  0.00    -0.360 OA 
BRANCH  13  14
HETATM   14  C   UNL     1     -11.807  12.787  70.304  1.00  0.00    -0.212 C  
BRANCH  14  15
HETATM   15  C   UNL     1     -12.278  13.149  68.899  1.00  0.00    -0.097 C  
BRANCH  15  16
HETATM   16  C   UNL     1     -11.354  14.174  68.235  1.00  0.00    -0.319 C  
BRANCH  16  17
HETATM   17  C   UNL     1     -11.578  14.378  66.726  1.00  0.00    -0.385 C  
BRANCH  17  18
HETATM   18  N   UNL     1     -10.417  14.052  65.888  1.00  0.00    -0.300 NA 
HETATM   19  C   UNL     1      -9.270  13.511  66.657  1.00  0.00    -0.210 C  
HETATM   20  C   UNL     1      -9.464  12.084  67.230  1.00  0.00    -0.181 C  
HETATM   21  N   UNL     1      -9.880  11.160  66.169  1.00  0.00    -0.216 NA 
HETATM   22  C   UNL     1     -10.775  13.051  64.846  1.00  0.00    -0.332 C  
HETATM   23  C   UNL     1     -11.029  11.610  65.367  1.00  0.00    -0.270 C  
BRANCH  21  24
HETATM   24  C   UNL     1      -9.582   9.796  66.249  1.00  0.00    -0.213 A  
HETATM   25  C   UNL     1      -8.458   9.144  65.635  1.00  0.00    -0.151 A  
HETATM   26  C   UNL     1      -7.277   9.669  64.986  1.00  0.00    -0.116 A  
HETATM   27  C   UNL     1      -6.448   8.707  64.463  1.00  0.00    -0.066 A  
HETATM   28  S   UNL     1      -7.021   7.143  64.784  1.00  0.00    -0.053 SA 
HETATM   29  C   UNL     1      -8.393   7.743  65.643  1.00  0.00    -0.139 A  
HETATM   30  C   UNL     1      -9.365   6.949  66.276  1.00  0.00    -0.144 A  
HETATM   31  C   UNL     1     -10.416   7.577  66.927  1.00  0.00    -0.385 A  
HETATM   32  C   UNL     1     -10.518   8.962  66.908  1.00  0.00    -0.304 A  
ENDBRANCH  21  24
ENDBRANCH  17  18
ENDBRANCH  16  17
ENDBRANCH  15  16
ENDBRANCH  14  15
ENDBRANCH  13  14
ENDBRANCH   7  13
TORSDOF 7
ENDMDL
MODEL      148
REMARK 921   NORMALIZED FREE ENERGY PREDICTED BY IDOCK:   -5.21 KCAL/MOL
REMARK 922        TOTAL FREE ENERGY PREDICTED BY IDOCK:   -8.65 KCAL/MOL
REMARK 923 INTER-LIGAND FREE ENERGY PREDICTED BY IDOCK:   -7.26 KCAL/MOL
REMARK 924 INTRA-LIGAND FREE ENERGY PREDICTED BY IDOCK:   -1.38 KCAL/MOL
REMARK 927      BINDING AFFINITY PREDICTED BY RF-SCORE:    0.00 PKD
ROOT
HETATM    1  O   UNL     1     -12.626  14.444  63.463  1.00  0.00    -0.784 OA 
HETATM    2  C   UNL     1     -12.241  13.665  64.328  1.00  0.00    -0.396 C  
HETATM    3  N   UNL     1     -11.366  12.648  64.065  1.00  0.00    -0.375 N  
HETATM    4  C   UNL     1     -10.937  11.728  65.031  1.00  0.00    -0.300 A  
HETATM    5  H   UNL     1     -11.007  12.553  63.114  1.00  0.00     0.000 HD 
HETATM    6  C   UNL     1     -10.057  10.705  64.680  1.00  0.00    -0.417 A  
HETATM    7  C   UNL     1      -9.653   9.776  65.642  1.00  0.00    -0.263 A  
HETATM    8  C   UNL     1     -12.713  13.796  65.729  1.00  0.00    -0.494 C  
HETATM    9  C   UNL     1     -10.139   9.887  66.952  1.00  0.00    -0.285 A  
HETATM   10  C   UNL     1     -12.323  12.940  66.681  1.00  0.00    -0.044 C  
HETATM   11  C   UNL     1     -11.013  10.918  67.304  1.00  0.00    -0.355 A  
HETATM   12  C   UNL     1     -11.413  11.847  66.345  1.00  0.00    -0.371 A  
ENDROOT
BRANCH   7  13
HETATM   13  O   UNL     1      -8.787   8.814  65.190  1.00  0.00    -0.186 OA 
BRANCH  13  14
HETATM   14  C   UNL     1      -7.671   8.551  66.041  1.00  0.00    -0.093 C  
BRANCH  14  15
HETATM   15  C   UNL     1      -6.491   9.429  65.638  1.00  0.00    -0.069 C  
BRANCH  15  16
HETATM   16  C   UNL     1      -5.650   9.841  66.850  1.00  0.00    -0.046 C  
BRANCH  16  17
HETATM   17  C   UNL     1      -5.403  11.354  66.992  1.00  0.00    -0.091 C  
BRANCH  17  18
HETATM   18  N   UNL     1      -5.559  11.871  68.358  1.00  0.00    -0.049 NA 
HETATM   19  C   UNL     1      -5.399  13.343  68.451  1.00  0.00    -0.093 C  
HETATM   20  C   UNL     1      -6.544  14.180  67.827  1.00  0.00    -0.175 C  
HETATM   21  N   UNL     1      -7.842  13.748  68.359  1.00  0.00    -0.137 NA 
HETATM   22  C   UNL     1      -6.898  11.527  68.909  1.00  0.00    -0.095 C  
HETATM   23  C   UNL     1      -8.093  12.300  68.288  1.00  0.00    -0.166 C  
BRANCH  21  24
HETATM   24  C   UNL     1      -8.919  14.637  68.429  1.00  0.00    -0.180 A  
HETATM   25  C   UNL     1      -9.017  15.895  67.741  1.00  0.00    -0.176 A  
HETATM   26  C   UNL     1      -8.214  16.484  66.692  1.00  0.00    -0.306 A  
HETATM   27  C   UNL     1      -8.600  17.753  66.334  1.00  0.00    -0.231 A  
HETATM   28  S   UNL     1      -9.972  18.258  67.195  1.00  0.00    -0.356 SA 
HETATM   29  C   UNL     1     -10.070  16.766  68.058  1.00  0.00    -0.284 A  
HETATM   30  C   UNL     1     -11.068  16.432  68.990  1.00  0.00    -0.315 A  
HETATM   31  C   UNL     1     -11.013  15.192  69.607  1.00  0.00    -0.291 A  
HETATM   32  C   UNL     1      -9.964  14.324  69.333  1.00  0.00     0.163 A  
ENDBRANCH  21  24
ENDBRANCH  17  18
ENDBRANCH  16  17
ENDBRANCH  15  16
ENDBRANCH  14  15
ENDBRANCH  13  14
ENDBRANCH   7  13
TORSDOF 7
ENDMDL
MODEL      149
REMARK 921   NORMALIZED FREE ENERGY PREDICTED BY IDOCK:   -5.20 KCAL/MOL
REMARK 922        TOTAL FREE ENERGY PREDICTED BY IDOCK:   -8.63 KCAL/MOL
REMARK 923 INTER-LIGAND FREE ENERGY PREDICTED BY IDOCK:   -6.56 KCAL/MOL
REMARK 924 INTRA-LIGAND FREE ENERGY PREDICTED BY IDOCK:   -2.07 KCAL/MOL
REMARK 927      BINDING AFFINITY PREDICTED BY RF-SCORE:    0.00 PKD
ROOT
HETATM    1  O   UNL     1     -10.667  11.011  64.646  1.00  0.00    -0.324 OA 
HETATM    2  C   UNL     1      -9.800  10.189  64.920  1.00  0.00    -0.319 C  
HETATM    3  N   UNL     1     -10.034   9.119  65.739  1.00  0.00    -0.434 N  
HETATM    4  C   UNL     1      -9.049   8.185  66.090  1.00  0.00    -0.183 A  
HETATM    5  H   UNL     1     -10.974   8.995  66.115  1.00  0.00     0.000 HD 
HETATM    6  C   UNL     1      -9.361   7.131  66.948  1.00  0.00    -0.189 A  
HETATM    7  C   UNL     1      -8.370   6.218  67.314  1.00  0.00    -0.109 A  
HETATM    8  C   UNL     1      -8.431  10.318  64.361  1.00  0.00    -0.182 C  
HETATM    9  C   UNL     1      -7.071   6.374  66.812  1.00  0.00    -0.073 A  
HETATM   10  C   UNL     1      -7.465   9.443  64.670  1.00  0.00    -0.108 C  
HETATM   11  C   UNL     1      -6.763   7.426  65.946  1.00  0.00    -0.053 A  
HETATM   12  C   UNL     1      -7.753   8.334  65.577  1.00  0.00    -0.101 A  
ENDROOT
BRANCH   7  13
HETATM   13  O   UNL     1      -8.784   5.220  68.159  1.00  0.00    -0.103 OA 
BRANCH  13  14
HETATM   14  C   UNL     1      -8.360   5.356  69.515  1.00  0.00    -0.100 C  
BRANCH  14  15
HETATM   15  C   UNL     1      -8.875   4.184  70.343  1.00  0.00    -0.137 C  
BRANCH  15  16
HETATM   16  C   UNL     1     -10.145   4.549  71.118  1.00  0.00    -0.218 C  
BRANCH  16  17
HETATM   17  C   UNL     1      -9.961   5.620  72.209  1.00  0.00    -0.172 C  
BRANCH  17  18
HETATM   18  N   UNL     1     -11.122   6.498  72.402  1.00  0.00    -0.248 NA 
HETATM   19  C   UNL     1     -10.760   7.854  72.885  1.00  0.00    -0.375 C  
HETATM   20  C   UNL     1     -10.040   8.759  71.854  1.00  0.00    -0.339 C  
HETATM   21  N   UNL     1     -10.808   8.824  70.606  1.00  0.00    -0.224 NA 
HETATM   22  C   UNL     1     -11.886   6.660  71.135  1.00  0.00    -0.360 C  
HETATM   23  C   UNL     1     -11.193   7.519  70.044  1.00  0.00    -0.157 C  
BRANCH  21  24
HETATM   24  C   UNL     1     -10.724   9.942  69.770  1.00  0.00    -0.267 A  
HETATM   25  C   UNL     1      -9.532  10.427  69.131  1.00  0.00    -0.220 A  
HETATM   26  C   UNL     1      -8.214   9.849  68.985  1.00  0.00    -0.124 A  
HETATM   27  C   UNL     1      -7.310  10.664  68.349  1.00  0.00    -0.091 A  
HETATM   28  S   UNL     1      -8.021  12.121  67.850  1.00  0.00    -0.163 SA 
HETATM   29  C   UNL     1      -9.564  11.668  68.478  1.00  0.00    -0.178 A  
HETATM   30  C   UNL     1     -10.738  12.436  68.380  1.00  0.00    -0.254 A  
HETATM   31  C   UNL     1     -11.905  11.940  68.938  1.00  0.00    -0.366 A  
HETATM   32  C   UNL     1     -11.893  10.728  69.615  1.00  0.00    -0.392 A  
ENDBRANCH  21  24
ENDBRANCH  17  18
ENDBRANCH  16  17
ENDBRANCH  15  16
ENDBRANCH  14  15
ENDBRANCH  13  14
ENDBRANCH   7  13
TORSDOF 7
ENDMDL
MODEL      150
REMARK 921   NORMALIZED FREE ENERGY PREDICTED BY IDOCK:   -5.20 KCAL/MOL
REMARK 922        TOTAL FREE ENERGY PREDICTED BY IDOCK:   -8.63 KCAL/MOL
REMARK 923 INTER-LIGAND FREE ENERGY PREDICTED BY IDOCK:   -8.27 KCAL/MOL
REMARK 924 INTRA-LIGAND FREE ENERGY PREDICTED BY IDOCK:   -0.36 KCAL/MOL
REMARK 927      BINDING AFFINITY PREDICTED BY RF-SCORE:    0.00 PKD
ROOT
HETATM    1  O   UNL     1     -10.955  17.254  68.047  1.00  0.00    -0.350 OA 
HETATM    2  C   UNL     1     -11.113  16.038  68.055  1.00  0.00    -0.334 C  
HETATM    3  N   UNL     1     -11.543  15.361  69.163  1.00  0.00    -0.318 N  
HETATM    4  C   UNL     1     -11.700  13.968  69.204  1.00  0.00    -0.333 A  
HETATM    5  H   UNL     1     -11.761  15.897  70.003  1.00  0.00     0.000 HD 
HETATM    6  C   UNL     1     -12.126  13.348  70.379  1.00  0.00    -0.405 A  
HETATM    7  C   UNL     1     -12.255  11.958  70.422  1.00  0.00    -0.314 A  
HETATM    8  C   UNL     1     -10.840  15.230  66.841  1.00  0.00    -0.317 C  
HETATM    9  C   UNL     1     -11.956  11.204  69.279  1.00  0.00    -0.421 A  
HETATM   10  C   UNL     1     -10.982  13.899  66.840  1.00  0.00    -0.300 C  
HETATM   11  C   UNL     1     -11.538  11.828  68.101  1.00  0.00    -0.391 A  
HETATM   12  C   UNL     1     -11.413  13.215  68.058  1.00  0.00    -0.346 A  
ENDROOT
BRANCH   7  13
HETATM   13  O   UNL     1     -12.681  11.453  71.624  1.00  0.00    -0.375 OA 
BRANCH  13  14
HETATM   14  C   UNL     1     -13.256  10.148  71.566  1.00  0.00    -0.399 C  
BRANCH  14  15
HETATM   15  C   UNL     1     -12.522   9.213  72.521  1.00  0.00    -0.260 C  
BRANCH  15  16
HETATM   16  C   UNL     1     -11.178   8.754  71.948  1.00  0.00    -0.438 C  
BRANCH  16  17
HETATM   17  C   UNL     1     -10.352   7.837  72.868  1.00  0.00    -0.334 C  
BRANCH  17  18
HETATM   18  N   UNL     1     -10.763   6.427  72.853  1.00  0.00    -0.237 NA 
HETATM   19  C   UNL     1     -11.660   6.089  71.720  1.00  0.00    -0.226 C  
HETATM   20  C   UNL     1     -10.995   6.081  70.321  1.00  0.00    -0.342 C  
HETATM   21  N   UNL     1      -9.800   5.231  70.328  1.00  0.00    -0.197 NA 
HETATM   22  C   UNL     1      -9.581   5.527  72.775  1.00  0.00    -0.148 C  
HETATM   23  C   UNL     1      -8.843   5.512  71.410  1.00  0.00    -0.136 C  
BRANCH  21  24
HETATM   24  C   UNL     1      -9.361   4.602  69.158  1.00  0.00    -0.142 A  
HETATM   25  C   UNL     1      -9.087   5.253  67.906  1.00  0.00    -0.117 A  
HETATM   26  C   UNL     1      -8.977   6.650  67.551  1.00  0.00    -0.114 A  
HETATM   27  C   UNL     1      -8.761   6.875  66.213  1.00  0.00    -0.142 A  
HETATM   28  S   UNL     1      -8.618   5.422  65.348  1.00  0.00    -0.150 SA 
HETATM   29  C   UNL     1      -8.838   4.469  66.770  1.00  0.00    -0.112 A  
HETATM   30  C   UNL     1      -8.797   3.064  66.820  1.00  0.00    -0.159 A  
HETATM   31  C   UNL     1      -8.995   2.436  68.039  1.00  0.00    -0.194 A  
HETATM   32  C   UNL     1      -9.272   3.189  69.173  1.00  0.00    -0.222 A  
ENDBRANCH  21  24
ENDBRANCH  17  18
ENDBRANCH  16  17
ENDBRANCH  15  16
ENDBRANCH  14  15
ENDBRANCH  13  14
ENDBRANCH   7  13
TORSDOF 7
ENDMDL
MODEL      151
REMARK 921   NORMALIZED FREE ENERGY PREDICTED BY IDOCK:   -5.18 KCAL/MOL
REMARK 922        TOTAL FREE ENERGY PREDICTED BY IDOCK:   -8.60 KCAL/MOL
REMARK 923 INTER-LIGAND FREE ENERGY PREDICTED BY IDOCK:   -8.06 KCAL/MOL
REMARK 924 INTRA-LIGAND FREE ENERGY PREDICTED BY IDOCK:   -0.55 KCAL/MOL
REMARK 927      BINDING AFFINITY PREDICTED BY RF-SCORE:    0.00 PKD
ROOT
HETATM    1  O   UNL     1     -10.385  20.332  67.941  1.00  0.00    -0.356 OA 
HETATM    2  C   UNL     1      -9.428  19.632  67.627  1.00  0.00    -0.337 C  
HETATM    3  N   UNL     1      -8.967  18.619  68.422  1.00  0.00    -0.320 N  
HETATM    4  C   UNL     1      -7.857  17.827  68.098  1.00  0.00    -0.264 A  
HETATM    5  H   UNL     1      -9.457  18.430  69.297  1.00  0.00     0.000 HD 
HETATM    6  C   UNL     1      -7.436  16.824  68.971  1.00  0.00    -0.228 A  
HETATM    7  C   UNL     1      -6.314  16.055  68.655  1.00  0.00    -0.116 A  
HETATM    8  C   UNL     1      -8.715  19.854  66.345  1.00  0.00    -0.397 C  
HETATM    9  C   UNL     1      -5.625  16.303  67.460  1.00  0.00    -0.174 A  
HETATM   10  C   UNL     1      -7.653  19.116  65.999  1.00  0.00    -0.281 C  
HETATM   11  C   UNL     1      -6.053  17.302  66.583  1.00  0.00    -0.247 A  
HETATM   12  C   UNL     1      -7.176  18.066  66.897  1.00  0.00    -0.225 A  
ENDROOT
BRANCH   7  13
HETATM   13  O   UNL     1      -5.988  15.097  69.581  1.00  0.00    -0.105 OA 
BRANCH  13  14
HETATM   14  C   UNL     1      -5.663  13.816  69.043  1.00  0.00    -0.075 C  
BRANCH  14  15
HETATM   15  C   UNL     1      -6.921  12.961  68.936  1.00  0.00    -0.084 C  
BRANCH  15  16
HETATM   16  C   UNL     1      -7.636  13.165  67.597  1.00  0.00    -0.171 C  
BRANCH  16  17
HETATM   17  C   UNL     1      -9.103  13.620  67.699  1.00  0.00    -0.207 C  
BRANCH  17  18
HETATM   18  N   UNL     1     -10.074  12.678  67.128  1.00  0.00    -0.221 NA 
HETATM   19  C   UNL     1      -9.696  11.256  67.319  1.00  0.00    -0.174 C  
HETATM   20  C   UNL     1      -9.792  10.728  68.772  1.00  0.00    -0.194 C  
HETATM   21  N   UNL     1     -11.119  11.008  69.331  1.00  0.00    -0.244 NA 
HETATM   22  C   UNL     1     -11.422  12.870  67.730  1.00  0.00    -0.323 C  
HETATM   23  C   UNL     1     -11.567  12.404  69.204  1.00  0.00    -0.314 C  
BRANCH  21  24
HETATM   24  C   UNL     1     -11.662  10.193  70.331  1.00  0.00    -0.308 A  
HETATM   25  C   UNL     1     -11.373   8.799  70.528  1.00  0.00    -0.255 A  
HETATM   26  C   UNL     1     -10.366   7.934  69.953  1.00  0.00    -0.224 A  
HETATM   27  C   UNL     1     -10.454   6.624  70.358  1.00  0.00    -0.211 A  
HETATM   28  S   UNL     1     -11.702   6.397  71.485  1.00  0.00    -0.283 SA 
HETATM   29  C   UNL     1     -12.136   8.068  71.449  1.00  0.00    -0.305 A  
HETATM   30  C   UNL     1     -13.145   8.661  72.229  1.00  0.00    -0.415 A  
HETATM   31  C   UNL     1     -13.382  10.019  72.089  1.00  0.00    -0.469 A  
HETATM   32  C   UNL     1     -12.659  10.759  71.162  1.00  0.00    -0.532 A  
ENDBRANCH  21  24
ENDBRANCH  17  18
ENDBRANCH  16  17
ENDBRANCH  15  16
ENDBRANCH  14  15
ENDBRANCH  13  14
ENDBRANCH   7  13
TORSDOF 7
ENDMDL
MODEL      152
REMARK 921   NORMALIZED FREE ENERGY PREDICTED BY IDOCK:   -5.17 KCAL/MOL
REMARK 922        TOTAL FREE ENERGY PREDICTED BY IDOCK:   -8.59 KCAL/MOL
REMARK 923 INTER-LIGAND FREE ENERGY PREDICTED BY IDOCK:   -7.36 KCAL/MOL
REMARK 924 INTRA-LIGAND FREE ENERGY PREDICTED BY IDOCK:   -1.24 KCAL/MOL
REMARK 927      BINDING AFFINITY PREDICTED BY RF-SCORE:    0.00 PKD
ROOT
HETATM    1  O   UNL     1     -11.604  12.983  63.031  1.00  0.00    -0.223 OA 
HETATM    2  C   UNL     1     -11.617  13.487  64.149  1.00  0.00    -0.376 C  
HETATM    3  N   UNL     1     -10.941  14.639  64.442  1.00  0.00    -0.621 N  
HETATM    4  C   UNL     1     -10.916  15.217  65.720  1.00  0.00    -0.349 A  
HETATM    5  H   UNL     1     -10.428  15.103  63.693  1.00  0.00     0.000 HD 
HETATM    6  C   UNL     1     -10.187  16.384  65.944  1.00  0.00    -0.379 A  
HETATM    7  C   UNL     1     -10.145  16.940  67.225  1.00  0.00    -0.286 A  
HETATM    8  C   UNL     1     -12.383  12.860  65.255  1.00  0.00    -0.544 C  
HETATM    9  C   UNL     1     -10.839  16.315  68.270  1.00  0.00    -0.340 A  
HETATM   10  C   UNL     1     -12.386  13.384  66.486  1.00  0.00    -0.354 C  
HETATM   11  C   UNL     1     -11.576  15.150  68.040  1.00  0.00    -0.345 A  
HETATM   12  C   UNL     1     -11.621  14.598  66.761  1.00  0.00    -0.370 A  
ENDROOT
BRANCH   7  13
HETATM   13  O   UNL     1      -9.400  18.087  67.335  1.00  0.00    -0.251 OA 
BRANCH  13  14
HETATM   14  C   UNL     1      -8.510  18.341  66.248  1.00  0.00    -0.191 C  
BRANCH  14  15
HETATM   15  C   UNL     1      -7.103  18.596  66.777  1.00  0.00    -0.232 C  
BRANCH  15  16
HETATM   16  C   UNL     1      -6.735  17.628  67.905  1.00  0.00    -0.191 C  
BRANCH  16  17
HETATM   17  C   UNL     1      -6.357  16.206  67.452  1.00  0.00    -0.176 C  
BRANCH  17  18
HETATM   18  N   UNL     1      -6.114  15.261  68.550  1.00  0.00    -0.090 NA 
HETATM   19  C   UNL     1      -7.337  14.930  69.323  1.00  0.00    -0.175 C  
HETATM   20  C   UNL     1      -8.379  14.055  68.582  1.00  0.00    -0.104 C  
HETATM   21  N   UNL     1      -7.742  12.847  68.045  1.00  0.00    -0.129 NA 
HETATM   22  C   UNL     1      -5.544  13.985  68.039  1.00  0.00    -0.124 C  
HETATM   23  C   UNL     1      -6.530  13.085  67.246  1.00  0.00     0.026 C  
BRANCH  21  24
HETATM   24  C   UNL     1      -8.478  11.673  67.857  1.00  0.00    -0.148 A  
HETATM   25  C   UNL     1      -8.195  10.649  66.888  1.00  0.00    -0.123 A  
HETATM   26  C   UNL     1      -7.050  10.423  66.034  1.00  0.00    -0.133 A  
HETATM   27  C   UNL     1      -7.185   9.349  65.187  1.00  0.00    -0.101 A  
HETATM   28  S   UNL     1      -8.657   8.540  65.428  1.00  0.00    -0.158 SA 
HETATM   29  C   UNL     1      -9.129   9.623  66.687  1.00  0.00    -0.148 A  
HETATM   30  C   UNL     1     -10.315   9.528  67.436  1.00  0.00    -0.319 A  
HETATM   31  C   UNL     1     -10.560  10.477  68.417  1.00  0.00    -0.230 A  
HETATM   32  C   UNL     1      -9.665  11.519  68.615  1.00  0.00    -0.172 A  
ENDBRANCH  21  24
ENDBRANCH  17  18
ENDBRANCH  16  17
ENDBRANCH  15  16
ENDBRANCH  14  15
ENDBRANCH  13  14
ENDBRANCH   7  13
TORSDOF 7
ENDMDL
MODEL      153
REMARK 921   NORMALIZED FREE ENERGY PREDICTED BY IDOCK:   -5.16 KCAL/MOL
REMARK 922        TOTAL FREE ENERGY PREDICTED BY IDOCK:   -8.57 KCAL/MOL
REMARK 923 INTER-LIGAND FREE ENERGY PREDICTED BY IDOCK:   -6.30 KCAL/MOL
REMARK 924 INTRA-LIGAND FREE ENERGY PREDICTED BY IDOCK:   -2.27 KCAL/MOL
REMARK 927      BINDING AFFINITY PREDICTED BY RF-SCORE:    0.00 PKD
ROOT
HETATM    1  O   UNL     1     -10.114  10.129  64.635  1.00  0.00    -0.321 OA 
HETATM    2  C   UNL     1      -9.449   9.359  65.318  1.00  0.00    -0.227 C  
HETATM    3  N   UNL     1     -10.014   8.507  66.226  1.00  0.00    -0.432 N  
HETATM    4  C   UNL     1      -9.270   7.640  67.039  1.00  0.00    -0.138 A  
HETATM    5  H   UNL     1     -11.030   8.502  66.317  1.00  0.00     0.000 HD 
HETATM    6  C   UNL     1      -9.919   6.814  67.956  1.00  0.00    -0.162 A  
HETATM    7  C   UNL     1      -9.171   5.972  68.781  1.00  0.00    -0.123 A  
HETATM    8  C   UNL     1      -7.971   9.313  65.186  1.00  0.00    -0.116 C  
HETATM    9  C   UNL     1      -7.774   5.967  68.675  1.00  0.00    -0.095 A  
HETATM   10  C   UNL     1      -7.228   8.496  65.942  1.00  0.00    -0.076 C  
HETATM   11  C   UNL     1      -7.126   6.789  67.750  1.00  0.00    -0.085 A  
HETATM   12  C   UNL     1      -7.873   7.627  66.923  1.00  0.00    -0.111 A  
ENDROOT
BRANCH   7  13
HETATM   13  O   UNL     1      -9.909   5.202  69.645  1.00  0.00    -0.175 OA 
BRANCH  13  14
HETATM   14  C   UNL     1      -9.165   4.576  70.690  1.00  0.00    -0.135 C  
BRANCH  14  15
HETATM   15  C   UNL     1     -10.104   3.790  71.599  1.00  0.00    -0.149 C  
BRANCH  15  16
HETATM   16  C   UNL     1     -10.636   4.651  72.748  1.00  0.00    -0.273 C  
BRANCH  16  17
HETATM   17  C   UNL     1      -9.559   5.373  73.580  1.00  0.00    -0.138 C  
BRANCH  17  18
HETATM   18  N   UNL     1      -9.925   6.730  74.004  1.00  0.00    -0.304 NA 
HETATM   19  C   UNL     1      -8.788   7.682  73.974  1.00  0.00    -0.252 C  
HETATM   20  C   UNL     1      -8.287   8.081  72.564  1.00  0.00    -0.157 C  
HETATM   21  N   UNL     1      -9.404   8.558  71.741  1.00  0.00    -0.228 NA 
HETATM   22  C   UNL     1     -11.002   7.287  73.140  1.00  0.00    -0.340 C  
HETATM   23  C   UNL     1     -10.571   7.662  71.697  1.00  0.00    -0.202 C  
BRANCH  21  24
HETATM   24  C   UNL     1      -9.192   9.473  70.704  1.00  0.00    -0.180 A  
HETATM   25  C   UNL     1     -10.213  10.210  70.012  1.00  0.00    -0.271 A  
HETATM   26  C   UNL     1     -11.622  10.390  70.282  1.00  0.00    -0.410 A  
HETATM   27  C   UNL     1     -12.286  11.132  69.336  1.00  0.00    -0.259 A  
HETATM   28  S   UNL     1     -11.235  11.690  68.126  1.00  0.00    -0.290 SA 
HETATM   29  C   UNL     1      -9.866  10.945  68.868  1.00  0.00    -0.192 A  
HETATM   30  C   UNL     1      -8.543  11.030  68.401  1.00  0.00    -0.149 A  
HETATM   31  C   UNL     1      -7.546  10.374  69.105  1.00  0.00    -0.117 A  
HETATM   32  C   UNL     1      -7.868   9.615  70.222  1.00  0.00    -0.193 A  
ENDBRANCH  21  24
ENDBRANCH  17  18
ENDBRANCH  16  17
ENDBRANCH  15  16
ENDBRANCH  14  15
ENDBRANCH  13  14
ENDBRANCH   7  13
TORSDOF 7
ENDMDL
MODEL      154
REMARK 921   NORMALIZED FREE ENERGY PREDICTED BY IDOCK:   -5.15 KCAL/MOL
REMARK 922        TOTAL FREE ENERGY PREDICTED BY IDOCK:   -8.56 KCAL/MOL
REMARK 923 INTER-LIGAND FREE ENERGY PREDICTED BY IDOCK:   -8.27 KCAL/MOL
REMARK 924 INTRA-LIGAND FREE ENERGY PREDICTED BY IDOCK:   -0.28 KCAL/MOL
REMARK 927      BINDING AFFINITY PREDICTED BY RF-SCORE:    0.00 PKD
ROOT
HETATM    1  O   UNL     1     -13.977   8.959  72.982  1.00  0.00    -0.343 OA 
HETATM    2  C   UNL     1     -13.288   9.519  72.136  1.00  0.00    -0.461 C  
HETATM    3  N   UNL     1     -13.304  10.874  71.955  1.00  0.00    -0.525 N  
HETATM    4  C   UNL     1     -12.549  11.532  70.974  1.00  0.00    -0.357 A  
HETATM    5  H   UNL     1     -13.897  11.436  72.566  1.00  0.00     0.000 HD 
HETATM    6  C   UNL     1     -12.634  12.917  70.839  1.00  0.00    -0.355 A  
HETATM    7  C   UNL     1     -11.898  13.563  69.843  1.00  0.00    -0.316 A  
HETATM    8  C   UNL     1     -12.386   8.736  71.255  1.00  0.00    -0.313 C  
HETATM    9  C   UNL     1     -11.081  12.808  68.991  1.00  0.00    -0.285 A  
HETATM   10  C   UNL     1     -11.646   9.329  70.310  1.00  0.00    -0.151 C  
HETATM   11  C   UNL     1     -10.991  11.421  69.134  1.00  0.00    -0.289 A  
HETATM   12  C   UNL     1     -11.722  10.777  70.131  1.00  0.00    -0.425 A  
ENDROOT
BRANCH   7  13
HETATM   13  O   UNL     1     -12.054  14.925  69.799  1.00  0.00    -0.302 OA 
BRANCH  13  14
HETATM   14  C   UNL     1     -11.159  15.613  68.926  1.00  0.00    -0.290 C  
BRANCH  14  15
HETATM   15  C   UNL     1     -10.194  16.470  69.738  1.00  0.00    -0.090 C  
BRANCH  15  16
HETATM   16  C   UNL     1      -8.941  16.832  68.936  1.00  0.00    -0.227 C  
BRANCH  16  17
HETATM   17  C   UNL     1      -7.633  16.198  69.442  1.00  0.00    -0.161 C  
BRANCH  17  18
HETATM   18  N   UNL     1      -6.791  15.613  68.390  1.00  0.00    -0.112 NA 
HETATM   19  C   UNL     1      -6.630  14.143  68.515  1.00  0.00    -0.096 C  
HETATM   20  C   UNL     1      -7.893  13.304  68.200  1.00  0.00    -0.145 C  
HETATM   21  N   UNL     1      -8.438  13.672  66.888  1.00  0.00    -0.118 NA 
HETATM   22  C   UNL     1      -7.353  15.892  67.040  1.00  0.00    -0.208 C  
HETATM   23  C   UNL     1      -8.649  15.114  66.685  1.00  0.00    -0.243 C  
BRANCH  21  24
HETATM   24  C   UNL     1      -9.167  12.750  66.130  1.00  0.00    -0.030 A  
HETATM   25  C   UNL     1     -10.292  13.055  65.289  1.00  0.00    -0.318 A  
HETATM   26  C   UNL     1     -10.840  14.314  64.833  1.00  0.00    -0.429 A  
HETATM   27  C   UNL     1     -11.980  14.189  64.077  1.00  0.00    -0.327 A  
HETATM   28  S   UNL     1     -12.398  12.563  63.836  1.00  0.00    -0.488 SA 
HETATM   29  C   UNL     1     -11.039  12.003  64.741  1.00  0.00    -0.317 A  
HETATM   30  C   UNL     1     -10.698  10.654  64.942  1.00  0.00    -0.072 A  
HETATM   31  C   UNL     1      -9.574  10.357  65.698  1.00  0.00    -0.281 A  
HETATM   32  C   UNL     1      -8.835  11.381  66.276  1.00  0.00    -0.196 A  
ENDBRANCH  21  24
ENDBRANCH  17  18
ENDBRANCH  16  17
ENDBRANCH  15  16
ENDBRANCH  14  15
ENDBRANCH  13  14
ENDBRANCH   7  13
TORSDOF 7
ENDMDL
MODEL      155
REMARK 921   NORMALIZED FREE ENERGY PREDICTED BY IDOCK:   -5.12 KCAL/MOL
REMARK 922        TOTAL FREE ENERGY PREDICTED BY IDOCK:   -8.52 KCAL/MOL
REMARK 923 INTER-LIGAND FREE ENERGY PREDICTED BY IDOCK:   -8.86 KCAL/MOL
REMARK 924 INTRA-LIGAND FREE ENERGY PREDICTED BY IDOCK:    0.34 KCAL/MOL
REMARK 927      BINDING AFFINITY PREDICTED BY RF-SCORE:    0.00 PKD
ROOT
HETATM    1  O   UNL     1     -10.591   5.543  66.620  1.00  0.00    -0.274 OA 
HETATM    2  C   UNL     1     -10.649   5.669  67.838  1.00  0.00    -0.193 C  
HETATM    3  N   UNL     1     -11.376   6.658  68.440  1.00  0.00    -0.571 N  
HETATM    4  C   UNL     1     -11.432   6.840  69.829  1.00  0.00    -0.263 A  
HETATM    5  H   UNL     1     -11.906   7.297  67.848  1.00  0.00     0.000 HD 
HETATM    6  C   UNL     1     -12.182   7.885  70.367  1.00  0.00     0.312 A  
HETATM    7  C   UNL     1     -12.212   8.077  71.750  1.00  0.00    -0.316 A  
HETATM    8  C   UNL     1      -9.920   4.735  68.732  1.00  0.00    -0.182 C  
HETATM    9  C   UNL     1     -11.487   7.213  72.581  1.00  0.00    -0.274 A  
HETATM   10  C   UNL     1      -9.952   4.875  70.063  1.00  0.00    -0.323 C  
HETATM   11  C   UNL     1     -10.743   6.161  72.040  1.00  0.00    -0.276 A  
HETATM   12  C   UNL     1     -10.716   5.967  70.661  1.00  0.00    -0.341 A  
ENDROOT
BRANCH   7  13
HETATM   13  O   UNL     1     -12.981   9.132  72.172  1.00  0.00    -0.372 OA 
BRANCH  13  14
HETATM   14  C   UNL     1     -12.494  10.424  71.809  1.00  0.00    -0.302 C  
BRANCH  14  15
HETATM   15  C   UNL     1     -13.540  11.485  72.131  1.00  0.00    -0.105 C  
BRANCH  15  16
HETATM   16  C   UNL     1     -13.117  12.871  71.635  1.00  0.00    -0.430 C  
BRANCH  16  17
HETATM   17  C   UNL     1     -12.678  13.855  72.734  1.00  0.00    -0.132 C  
BRANCH  17  18
HETATM   18  N   UNL     1     -12.914  15.269  72.415  1.00  0.00    -0.348 NA 
HETATM   19  C   UNL     1     -11.667  16.028  72.151  1.00  0.00    -0.488 C  
HETATM   20  C   UNL     1     -10.941  15.681  70.828  1.00  0.00    -0.311 C  
HETATM   21  N   UNL     1     -11.871  15.770  69.696  1.00  0.00    -0.352 NA 
HETATM   22  C   UNL     1     -13.788  15.408  71.218  1.00  0.00    -0.434 C  
HETATM   23  C   UNL     1     -13.130  15.028  69.865  1.00  0.00     0.252 C  
BRANCH  21  24
HETATM   24  C   UNL     1     -11.408  16.070  68.410  1.00  0.00    -0.355 A  
HETATM   25  C   UNL     1     -11.369  15.160  67.298  1.00  0.00    -0.305 A  
HETATM   26  C   UNL     1     -11.940  13.845  67.109  1.00  0.00    -0.455 A  
HETATM   27  C   UNL     1     -11.624  13.262  65.906  1.00  0.00    -0.347 A  
HETATM   28  S   UNL     1     -10.687  14.293  64.937  1.00  0.00    -0.428 SA 
HETATM   29  C   UNL     1     -10.703  15.545  66.125  1.00  0.00    -0.313 A  
HETATM   30  C   UNL     1     -10.112  16.812  65.977  1.00  0.00    -0.350 A  
HETATM   31  C   UNL     1     -10.205  17.716  67.024  1.00  0.00    -0.332 A  
HETATM   32  C   UNL     1     -10.833  17.348  68.206  1.00  0.00    -0.256 A  
ENDBRANCH  21  24
ENDBRANCH  17  18
ENDBRANCH  16  17
ENDBRANCH  15  16
ENDBRANCH  14  15
ENDBRANCH  13  14
ENDBRANCH   7  13
TORSDOF 7
ENDMDL
MODEL      156
REMARK 921   NORMALIZED FREE ENERGY PREDICTED BY IDOCK:   -5.11 KCAL/MOL
REMARK 922        TOTAL FREE ENERGY PREDICTED BY IDOCK:   -8.50 KCAL/MOL
REMARK 923 INTER-LIGAND FREE ENERGY PREDICTED BY IDOCK:   -7.73 KCAL/MOL
REMARK 924 INTRA-LIGAND FREE ENERGY PREDICTED BY IDOCK:   -0.77 KCAL/MOL
REMARK 927      BINDING AFFINITY PREDICTED BY RF-SCORE:    0.00 PKD
ROOT
HETATM    1  O   UNL     1      -5.692  20.178  66.239  1.00  0.00    -0.167 OA 
HETATM    2  C   UNL     1      -6.634  19.609  66.779  1.00  0.00    -0.193 C  
HETATM    3  N   UNL     1      -7.427  18.712  66.118  1.00  0.00    -0.261 N  
HETATM    4  C   UNL     1      -8.527  18.073  66.706  1.00  0.00    -0.257 A  
HETATM    5  H   UNL     1      -7.207  18.498  65.145  1.00  0.00     0.000 HD 
HETATM    6  C   UNL     1      -9.300  17.185  65.960  1.00  0.00    -0.156 A  
HETATM    7  C   UNL     1     -10.410  16.571  66.544  1.00  0.00    -0.305 A  
HETATM    8  C   UNL     1      -6.960  19.868  68.203  1.00  0.00    -0.331 C  
HETATM    9  C   UNL     1     -10.732  16.856  67.878  1.00  0.00    -0.344 A  
HETATM   10  C   UNL     1      -8.000  19.275  68.801  1.00  0.00    -0.392 C  
HETATM   11  C   UNL     1      -9.951  17.740  68.627  1.00  0.00    -0.379 A  
HETATM   12  C   UNL     1      -8.840  18.349  68.045  1.00  0.00    -0.302 A  
ENDROOT
BRANCH   7  13
HETATM   13  O   UNL     1     -11.099  15.716  65.722  1.00  0.00    -0.280 OA 
BRANCH  13  14
HETATM   14  C   UNL     1     -10.345  14.611  65.224  1.00  0.00    -0.399 C  
BRANCH  14  15
HETATM   15  C   UNL     1     -10.217  13.540  66.301  1.00  0.00    -0.299 C  
BRANCH  15  16
HETATM   16  C   UNL     1     -11.262  12.433  66.131  1.00  0.00    -0.364 C  
BRANCH  16  17
HETATM   17  C   UNL     1     -11.048  11.188  67.009  1.00  0.00    -0.273 C  
BRANCH  17  18
HETATM   18  N   UNL     1      -9.751  10.524  66.819  1.00  0.00    -0.174 NA 
HETATM   19  C   UNL     1      -8.921  10.494  68.048  1.00  0.00    -0.135 C  
HETATM   20  C   UNL     1      -9.423   9.552  69.171  1.00  0.00    -0.163 C  
HETATM   21  N   UNL     1      -9.648   8.202  68.644  1.00  0.00    -0.148 NA 
HETATM   22  C   UNL     1      -9.933   9.118  66.363  1.00  0.00    -0.288 C  
HETATM   23  C   UNL     1     -10.481   8.136  67.433  1.00  0.00    -0.285 C  
BRANCH  21  24
HETATM   24  C   UNL     1      -9.541   7.081  69.475  1.00  0.00    -0.153 A  
HETATM   25  C   UNL     1     -10.462   6.716  70.516  1.00  0.00    -0.240 A  
HETATM   26  C   UNL     1     -11.775   7.217  70.859  1.00  0.00    -0.367 A  
HETATM   27  C   UNL     1     -12.320   6.640  71.981  1.00  0.00    -0.272 A  
HETATM   28  S   UNL     1     -11.309   5.439  72.624  1.00  0.00    -0.226 SA 
HETATM   29  C   UNL     1     -10.124   5.674  71.391  1.00  0.00    -0.200 A  
HETATM   30  C   UNL     1      -8.935   4.935  71.257  1.00  0.00    -0.163 A  
HETATM   31  C   UNL     1      -8.076   5.241  70.214  1.00  0.00    -0.091 A  
HETATM   32  C   UNL     1      -8.374   6.288  69.352  1.00  0.00    -0.121 A  
ENDBRANCH  21  24
ENDBRANCH  17  18
ENDBRANCH  16  17
ENDBRANCH  15  16
ENDBRANCH  14  15
ENDBRANCH  13  14
ENDBRANCH   7  13
TORSDOF 7
ENDMDL
MODEL      157
REMARK 921   NORMALIZED FREE ENERGY PREDICTED BY IDOCK:   -5.10 KCAL/MOL
REMARK 922        TOTAL FREE ENERGY PREDICTED BY IDOCK:   -8.50 KCAL/MOL
REMARK 923 INTER-LIGAND FREE ENERGY PREDICTED BY IDOCK:   -7.52 KCAL/MOL
REMARK 924 INTRA-LIGAND FREE ENERGY PREDICTED BY IDOCK:   -0.97 KCAL/MOL
REMARK 927      BINDING AFFINITY PREDICTED BY RF-SCORE:    0.00 PKD
ROOT
HETATM    1  O   UNL     1     -10.042  20.129  66.113  1.00  0.00    -0.456 OA 
HETATM    2  C   UNL     1     -10.166  18.997  66.566  1.00  0.00    -0.421 C  
HETATM    3  N   UNL     1     -10.440  17.915  65.776  1.00  0.00    -0.294 N  
HETATM    4  C   UNL     1     -10.617  16.618  66.277  1.00  0.00    -0.205 A  
HETATM    5  H   UNL     1     -10.521  18.060  64.770  1.00  0.00     0.000 HD 
HETATM    6  C   UNL     1     -10.914  15.569  65.408  1.00  0.00    -0.365 A  
HETATM    7  C   UNL     1     -11.115  14.283  65.915  1.00  0.00    -0.310 A  
HETATM    8  C   UNL     1     -10.019  18.743  68.021  1.00  0.00    -0.401 C  
HETATM    9  C   UNL     1     -11.013  14.065  67.296  1.00  0.00    -0.303 A  
HETATM   10  C   UNL     1     -10.177  17.518  68.536  1.00  0.00    -0.378 C  
HETATM   11  C   UNL     1     -10.707  15.116  68.164  1.00  0.00    -0.254 A  
HETATM   12  C   UNL     1     -10.503  16.398  67.656  1.00  0.00    -0.302 A  
ENDROOT
BRANCH   7  13
HETATM   13  O   UNL     1     -11.400  13.326  64.974  1.00  0.00    -0.296 OA 
BRANCH  13  14
HETATM   14  C   UNL     1     -10.352  13.058  64.043  1.00  0.00    -0.249 C  
BRANCH  14  15
HETATM   15  C   UNL     1      -9.808  11.651  64.261  1.00  0.00    -0.259 C  
BRANCH  15  16
HETATM   16  C   UNL     1     -10.747  10.806  65.129  1.00  0.00    -0.159 C  
BRANCH  16  17
HETATM   17  C   UNL     1     -10.053   9.760  66.020  1.00  0.00    -0.251 C  
BRANCH  17  18
HETATM   18  N   UNL     1      -8.817  10.229  66.660  1.00  0.00    -0.136 NA 
HETATM   19  C   UNL     1      -9.055  10.997  67.907  1.00  0.00    -0.147 C  
HETATM   20  C   UNL     1      -9.561  10.169  69.114  1.00  0.00    -0.212 C  
HETATM   21  N   UNL     1      -8.678   9.021  69.354  1.00  0.00    -0.138 NA 
HETATM   22  C   UNL     1      -7.924   9.087  66.997  1.00  0.00    -0.102 C  
HETATM   23  C   UNL     1      -8.404   8.190  68.171  1.00  0.00    -0.129 C  
BRANCH  21  24
HETATM   24  C   UNL     1      -8.547   8.473  70.634  1.00  0.00    -0.148 A  
HETATM   25  C   UNL     1      -9.581   7.796  71.368  1.00  0.00    -0.182 A  
HETATM   26  C   UNL     1     -10.888   7.320  70.973  1.00  0.00    -0.258 A  
HETATM   27  C   UNL     1     -11.618   6.767  71.998  1.00  0.00    -0.291 A  
HETATM   28  S   UNL     1     -10.741   6.741  73.450  1.00  0.00    -0.273 SA 
HETATM   29  C   UNL     1      -9.359   7.468  72.713  1.00  0.00    -0.167 A  
HETATM   30  C   UNL     1      -8.139   7.733  73.361  1.00  0.00    -0.208 A  
HETATM   31  C   UNL     1      -7.117   8.326  72.637  1.00  0.00    -0.123 A  
HETATM   32  C   UNL     1      -7.322   8.686  71.311  1.00  0.00    -0.105 A  
ENDBRANCH  21  24
ENDBRANCH  17  18
ENDBRANCH  16  17
ENDBRANCH  15  16
ENDBRANCH  14  15
ENDBRANCH  13  14
ENDBRANCH   7  13
TORSDOF 7
ENDMDL
MODEL      158
REMARK 921   NORMALIZED FREE ENERGY PREDICTED BY IDOCK:   -5.09 KCAL/MOL
REMARK 922        TOTAL FREE ENERGY PREDICTED BY IDOCK:   -8.48 KCAL/MOL
REMARK 923 INTER-LIGAND FREE ENERGY PREDICTED BY IDOCK:   -6.96 KCAL/MOL
REMARK 924 INTRA-LIGAND FREE ENERGY PREDICTED BY IDOCK:   -1.52 KCAL/MOL
REMARK 927      BINDING AFFINITY PREDICTED BY RF-SCORE:    0.00 PKD
ROOT
HETATM    1  O   UNL     1     -13.973   8.814  72.522  1.00  0.00    -0.428 OA 
HETATM    2  C   UNL     1     -12.907   9.081  71.977  1.00  0.00    -0.401 C  
HETATM    3  N   UNL     1     -12.816   9.953  70.928  1.00  0.00    -0.492 N  
HETATM    4  C   UNL     1     -11.614  10.248  70.271  1.00  0.00    -0.316 A  
HETATM    5  H   UNL     1     -13.669  10.411  70.606  1.00  0.00     0.000 HD 
HETATM    6  C   UNL     1     -11.606  11.135  69.195  1.00  0.00    -0.393 A  
HETATM    7  C   UNL     1     -10.409  11.406  68.528  1.00  0.00    -0.205 A  
HETATM    8  C   UNL     1     -11.642   8.460  72.444  1.00  0.00    -0.450 C  
HETATM    9  C   UNL     1      -9.228  10.781  68.952  1.00  0.00    -0.180 A  
HETATM   10  C   UNL     1     -10.474   8.721  71.844  1.00  0.00    -0.423 C  
HETATM   11  C   UNL     1      -9.237   9.901  70.037  1.00  0.00    -0.224 A  
HETATM   12  C   UNL     1     -10.431   9.634  70.704  1.00  0.00    -0.379 A  
ENDROOT
BRANCH   7  13
HETATM   13  O   UNL     1     -10.514  12.292  67.486  1.00  0.00    -0.210 OA 
BRANCH  13  14
HETATM   14  C   UNL     1     -11.360  11.874  66.415  1.00  0.00    -0.339 C  
BRANCH  14  15
HETATM   15  C   UNL     1     -10.629  12.024  65.085  1.00  0.00    -0.330 C  
BRANCH  15  16
HETATM   16  C   UNL     1      -9.741  10.813  64.784  1.00  0.00    -0.338 C  
BRANCH  16  17
HETATM   17  C   UNL     1      -8.364  10.822  65.473  1.00  0.00    -0.129 C  
BRANCH  17  18
HETATM   18  N   UNL     1      -7.416   9.828  64.953  1.00  0.00    -0.122 NA 
HETATM   19  C   UNL     1      -6.409   9.397  65.954  1.00  0.00    -0.068 C  
HETATM   20  C   UNL     1      -6.951   8.517  67.109  1.00  0.00    -0.075 C  
HETATM   21  N   UNL     1      -7.697   7.373  66.574  1.00  0.00    -0.092 NA 
HETATM   22  C   UNL     1      -8.126   8.611  64.474  1.00  0.00    -0.162 C  
HETATM   23  C   UNL     1      -8.733   7.713  65.586  1.00  0.00    -0.092 C  
BRANCH  21  24
HETATM   24  C   UNL     1      -7.791   6.178  67.294  1.00  0.00    -0.102 A  
HETATM   25  C   UNL     1      -8.812   5.851  68.252  1.00  0.00    -0.110 A  
HETATM   26  C   UNL     1     -10.063   6.496  68.582  1.00  0.00    -0.175 A  
HETATM   27  C   UNL     1     -10.746   5.902  69.616  1.00  0.00    -0.345 A  
HETATM   28  S   UNL     1      -9.945   4.518  70.183  1.00  0.00    -0.148 SA 
HETATM   29  C   UNL     1      -8.668   4.697  69.035  1.00  0.00    -0.085 A  
HETATM   30  C   UNL     1      -7.584   3.815  68.883  1.00  0.00    -0.053 A  
HETATM   31  C   UNL     1      -6.632   4.092  67.914  1.00  0.00    -0.042 A  
HETATM   32  C   UNL     1      -6.736   5.244  67.147  1.00  0.00    -0.059 A  
ENDBRANCH  21  24
ENDBRANCH  17  18
ENDBRANCH  16  17
ENDBRANCH  15  16
ENDBRANCH  14  15
ENDBRANCH  13  14
ENDBRANCH   7  13
TORSDOF 7
ENDMDL
MODEL      159
REMARK 921   NORMALIZED FREE ENERGY PREDICTED BY IDOCK:   -5.09 KCAL/MOL
REMARK 922        TOTAL FREE ENERGY PREDICTED BY IDOCK:   -8.47 KCAL/MOL
REMARK 923 INTER-LIGAND FREE ENERGY PREDICTED BY IDOCK:   -7.64 KCAL/MOL
REMARK 924 INTRA-LIGAND FREE ENERGY PREDICTED BY IDOCK:   -0.83 KCAL/MOL
REMARK 927      BINDING AFFINITY PREDICTED BY RF-SCORE:    0.00 PKD
ROOT
HETATM    1  O   UNL     1      -7.743   4.264  66.089  1.00  0.00    -0.088 OA 
HETATM    2  C   UNL     1      -7.791   5.423  66.486  1.00  0.00    -0.100 C  
HETATM    3  N   UNL     1      -8.698   6.327  66.006  1.00  0.00    -0.148 N  
HETATM    4  C   UNL     1      -8.750   7.665  66.423  1.00  0.00    -0.151 A  
HETATM    5  H   UNL     1      -9.371   6.012  65.307  1.00  0.00     0.000 HD 
HETATM    6  C   UNL     1      -9.693   8.531  65.871  1.00  0.00    -0.101 A  
HETATM    7  C   UNL     1      -9.723   9.869  66.272  1.00  0.00    -0.222 A  
HETATM    8  C   UNL     1      -6.851   5.906  67.528  1.00  0.00    -0.060 C  
HETATM    9  C   UNL     1      -8.803  10.322  67.227  1.00  0.00    -0.136 A  
HETATM   10  C   UNL     1      -6.873   7.175  67.954  1.00  0.00    -0.074 C  
HETATM   11  C   UNL     1      -7.865   9.450  67.784  1.00  0.00    -0.095 A  
HETATM   12  C   UNL     1      -7.838   8.115  67.388  1.00  0.00    -0.106 A  
ENDROOT
BRANCH   7  13
HETATM   13  O   UNL     1     -10.690  10.633  65.668  1.00  0.00    -0.160 OA 
BRANCH  13  14
HETATM   14  C   UNL     1     -10.418  11.000  64.316  1.00  0.00    -0.359 C  
BRANCH  14  15
HETATM   15  C   UNL     1     -11.568  11.834  63.761  1.00  0.00    -0.508 C  
BRANCH  15  16
HETATM   16  C   UNL     1     -11.474  13.298  64.201  1.00  0.00    -0.438 C  
BRANCH  16  17
HETATM   17  C   UNL     1     -10.076  13.758  64.652  1.00  0.00    -0.160 C  
BRANCH  17  18
HETATM   18  N   UNL     1     -10.062  15.022  65.399  1.00  0.00    -0.361 NA 
HETATM   19  C   UNL     1     -11.406  15.445  65.864  1.00  0.00    -0.104 C  
HETATM   20  C   UNL     1     -12.018  14.590  67.002  1.00  0.00    -0.345 C  
HETATM   21  N   UNL     1     -11.076  14.477  68.121  1.00  0.00    -0.257 NA 
HETATM   22  C   UNL     1      -9.180  14.927  66.594  1.00  0.00    -0.276 C  
HETATM   23  C   UNL     1      -9.719  14.042  67.751  1.00  0.00    -0.228 C  
BRANCH  21  24
HETATM   24  C   UNL     1     -11.535  14.283  69.428  1.00  0.00    -0.292 A  
HETATM   25  C   UNL     1     -11.956  13.031  69.994  1.00  0.00    -0.383 A  
HETATM   26  C   UNL     1     -11.844  11.671  69.513  1.00  0.00    -0.414 A  
HETATM   27  C   UNL     1     -12.433  10.736  70.329  1.00  0.00    -0.317 A  
HETATM   28  S   UNL     1     -13.083  11.445  71.727  1.00  0.00    -0.299 SA 
HETATM   29  C   UNL     1     -12.571  13.024  71.254  1.00  0.00    -0.279 A  
HETATM   30  C   UNL     1     -12.747  14.195  72.011  1.00  0.00    -0.392 A  
HETATM   31  C   UNL     1     -12.282  15.396  71.497  1.00  0.00    -0.433 A  
HETATM   32  C   UNL     1     -11.696  15.433  70.239  1.00  0.00    -0.355 A  
ENDBRANCH  21  24
ENDBRANCH  17  18
ENDBRANCH  16  17
ENDBRANCH  15  16
ENDBRANCH  14  15
ENDBRANCH  13  14
ENDBRANCH   7  13
TORSDOF 7
ENDMDL
MODEL      160
REMARK 921   NORMALIZED FREE ENERGY PREDICTED BY IDOCK:   -5.07 KCAL/MOL
REMARK 922        TOTAL FREE ENERGY PREDICTED BY IDOCK:   -8.45 KCAL/MOL
REMARK 923 INTER-LIGAND FREE ENERGY PREDICTED BY IDOCK:   -7.28 KCAL/MOL
REMARK 924 INTRA-LIGAND FREE ENERGY PREDICTED BY IDOCK:   -1.17 KCAL/MOL
REMARK 927      BINDING AFFINITY PREDICTED BY RF-SCORE:    0.00 PKD
ROOT
HETATM    1  O   UNL     1     -11.860  16.482  71.565  1.00  0.00    -0.350 OA 
HETATM    2  C   UNL     1     -12.107  15.283  71.510  1.00  0.00    -0.359 C  
HETATM    3  N   UNL     1     -11.770  14.512  70.432  1.00  0.00    -0.311 N  
HETATM    4  C   UNL     1     -12.071  13.146  70.334  1.00  0.00    -0.317 A  
HETATM    5  H   UNL     1     -11.273  14.954  69.658  1.00  0.00     0.000 HD 
HETATM    6  C   UNL     1     -11.710  12.432  69.192  1.00  0.00    -0.376 A  
HETATM    7  C   UNL     1     -12.035  11.077  69.090  1.00  0.00    -0.324 A  
HETATM    8  C   UNL     1     -12.795  14.599  72.633  1.00  0.00    -0.499 C  
HETATM    9  C   UNL     1     -12.721  10.453  70.140  1.00  0.00    -0.146 A  
HETATM   10  C   UNL     1     -13.096  13.296  72.578  1.00  0.00    -0.385 C  
HETATM   11  C   UNL     1     -13.074  11.169  71.287  1.00  0.00    -0.353 A  
HETATM   12  C   UNL     1     -12.746  12.519  71.391  1.00  0.00    -0.345 A  
ENDROOT
BRANCH   7  13
HETATM   13  O   UNL     1     -11.632  10.471  67.927  1.00  0.00    -0.461 OA 
BRANCH  13  14
HETATM   14  C   UNL     1     -10.311   9.932  67.948  1.00  0.00    -0.212 C  
BRANCH  14  15
HETATM   15  C   UNL     1      -9.417  10.706  66.985  1.00  0.00    -0.187 C  
BRANCH  15  16
HETATM   16  C   UNL     1      -8.788   9.789  65.931  1.00  0.00    -0.175 C  
BRANCH  16  17
HETATM   17  C   UNL     1      -9.316   8.343  65.921  1.00  0.00    -0.136 C  
BRANCH  17  18
HETATM   18  N   UNL     1      -8.292   7.319  66.160  1.00  0.00    -0.126 NA 
HETATM   19  C   UNL     1      -7.335   7.683  67.234  1.00  0.00    -0.091 C  
HETATM   20  C   UNL     1      -7.911   7.676  68.672  1.00  0.00    -0.122 C  
HETATM   21  N   UNL     1      -8.569   6.395  68.953  1.00  0.00    -0.123 NA 
HETATM   22  C   UNL     1      -8.913   6.018  66.532  1.00  0.00    -0.133 C  
HETATM   23  C   UNL     1      -9.551   5.965  67.946  1.00  0.00    -0.115 C  
BRANCH  21  24
HETATM   24  C   UNL     1      -8.656   5.906  70.261  1.00  0.00    -0.134 A  
HETATM   25  C   UNL     1      -9.509   6.422  71.296  1.00  0.00    -0.175 A  
HETATM   26  C   UNL     1     -10.599   7.372  71.261  1.00  0.00    -0.231 A  
HETATM   27  C   UNL     1     -11.138   7.655  72.493  1.00  0.00    -0.336 A  
HETATM   28  S   UNL     1     -10.400   6.749  73.723  1.00  0.00    -0.362 SA 
HETATM   29  C   UNL     1      -9.349   5.954  72.608  1.00  0.00    -0.143 A  
HETATM   30  C   UNL     1      -8.415   4.958  72.943  1.00  0.00    -0.108 A  
HETATM   31  C   UNL     1      -7.636   4.412  71.935  1.00  0.00    -0.075 A  
HETATM   32  C   UNL     1      -7.755   4.879  70.633  1.00  0.00    -0.066 A  
ENDBRANCH  21  24
ENDBRANCH  17  18
ENDBRANCH  16  17
ENDBRANCH  15  16
ENDBRANCH  14  15
ENDBRANCH  13  14
ENDBRANCH   7  13
TORSDOF 7
ENDMDL
MODEL      161
REMARK 921   NORMALIZED FREE ENERGY PREDICTED BY IDOCK:   -5.03 KCAL/MOL
REMARK 922        TOTAL FREE ENERGY PREDICTED BY IDOCK:   -8.39 KCAL/MOL
REMARK 923 INTER-LIGAND FREE ENERGY PREDICTED BY IDOCK:   -5.54 KCAL/MOL
REMARK 924 INTRA-LIGAND FREE ENERGY PREDICTED BY IDOCK:   -2.86 KCAL/MOL
REMARK 927      BINDING AFFINITY PREDICTED BY RF-SCORE:    0.00 PKD
ROOT
HETATM    1  O   UNL     1      -8.354   8.372  72.692  1.00  0.00    -0.226 OA 
HETATM    2  C   UNL     1      -7.894   8.502  71.563  1.00  0.00    -0.125 C  
HETATM    3  N   UNL     1      -7.910   9.696  70.897  1.00  0.00    -0.022 N  
HETATM    4  C   UNL     1      -7.418   9.860  69.594  1.00  0.00    -0.122 A  
HETATM    5  H   UNL     1      -8.301  10.509  71.372  1.00  0.00     0.000 HD 
HETATM    6  C   UNL     1      -7.488  11.107  68.974  1.00  0.00    -0.124 A  
HETATM    7  C   UNL     1      -7.019  11.258  67.667  1.00  0.00    -0.085 A  
HETATM    8  C   UNL     1      -7.284   7.348  70.857  1.00  0.00    -0.068 C  
HETATM    9  C   UNL     1      -6.483  10.151  66.996  1.00  0.00    -0.069 A  
HETATM   10  C   UNL     1      -6.800   7.467  69.614  1.00  0.00    -0.052 C  
HETATM   11  C   UNL     1      -6.406   8.905  67.622  1.00  0.00    -0.056 A  
HETATM   12  C   UNL     1      -6.870   8.755  68.928  1.00  0.00    -0.061 A  
ENDROOT
BRANCH   7  13
HETATM   13  O   UNL     1      -7.134  12.525  67.153  1.00  0.00    -0.136 OA 
BRANCH  13  14
HETATM   14  C   UNL     1      -7.880  13.441  67.954  1.00  0.00    -0.152 C  
BRANCH  14  15
HETATM   15  C   UNL     1      -8.413  14.577  67.087  1.00  0.00    -0.234 C  
BRANCH  15  16
HETATM   16  C   UNL     1      -9.914  14.795  67.296  1.00  0.00    -0.231 C  
BRANCH  16  17
HETATM   17  C   UNL     1     -10.513  14.096  68.529  1.00  0.00    -0.252 C  
BRANCH  17  18
HETATM   18  N   UNL     1     -11.715  13.298  68.254  1.00  0.00    -0.333 NA 
HETATM   19  C   UNL     1     -11.681  12.621  66.934  1.00  0.00    -0.383 C  
HETATM   20  C   UNL     1     -10.675  11.449  66.810  1.00  0.00    -0.271 C  
HETATM   21  N   UNL     1     -10.874  10.487  67.899  1.00  0.00    -0.260 NA 
HETATM   22  C   UNL     1     -11.911  12.250  69.293  1.00  0.00    -0.306 C  
HETATM   23  C   UNL     1     -10.901  11.072  69.249  1.00  0.00    -0.238 C  
BRANCH  21  24
HETATM   24  C   UNL     1     -10.543   9.138  67.734  1.00  0.00    -0.227 A  
HETATM   25  C   UNL     1     -10.688   8.109  68.727  1.00  0.00    -0.074 A  
HETATM   26  C   UNL     1     -11.356   8.096  70.009  1.00  0.00     0.000 A  
HETATM   27  C   UNL     1     -11.216   6.919  70.704  1.00  0.00    -0.301 A  
HETATM   28  S   UNL     1     -10.334   5.770  69.820  1.00  0.00    -0.291 SA 
HETATM   29  C   UNL     1     -10.137   6.843  68.482  1.00  0.00    -0.161 A  
HETATM   30  C   UNL     1      -9.490   6.524  67.275  1.00  0.00    -0.140 A  
HETATM   31  C   UNL     1      -9.407   7.495  66.289  1.00  0.00    -0.176 A  
HETATM   32  C   UNL     1      -9.918   8.765  66.519  1.00  0.00    -0.360 A  
ENDBRANCH  21  24
ENDBRANCH  17  18
ENDBRANCH  16  17
ENDBRANCH  15  16
ENDBRANCH  14  15
ENDBRANCH  13  14
ENDBRANCH   7  13
TORSDOF 7
ENDMDL
MODEL      162
REMARK 921   NORMALIZED FREE ENERGY PREDICTED BY IDOCK:   -5.03 KCAL/MOL
REMARK 922        TOTAL FREE ENERGY PREDICTED BY IDOCK:   -8.39 KCAL/MOL
REMARK 923 INTER-LIGAND FREE ENERGY PREDICTED BY IDOCK:   -7.15 KCAL/MOL
REMARK 924 INTRA-LIGAND FREE ENERGY PREDICTED BY IDOCK:   -1.24 KCAL/MOL
REMARK 927      BINDING AFFINITY PREDICTED BY RF-SCORE:    0.00 PKD
ROOT
HETATM    1  O   UNL     1      -6.503   9.005  73.530  1.00  0.00    -0.322 OA 
HETATM    2  C   UNL     1      -7.369   8.209  73.184  1.00  0.00    -0.124 C  
HETATM    3  N   UNL     1      -7.277   7.478  72.032  1.00  0.00    -0.066 N  
HETATM    4  C   UNL     1      -8.269   6.586  71.602  1.00  0.00    -0.112 A  
HETATM    5  H   UNL     1      -6.443   7.588  71.455  1.00  0.00     0.000 HD 
HETATM    6  C   UNL     1      -8.111   5.890  70.404  1.00  0.00    -0.107 A  
HETATM    7  C   UNL     1      -9.114   5.022  69.968  1.00  0.00    -0.123 A  
HETATM    8  C   UNL     1      -8.578   7.996  74.017  1.00  0.00    -0.296 C  
HETATM    9  C   UNL     1     -10.270   4.861  70.744  1.00  0.00    -0.276 A  
HETATM   10  C   UNL     1      -9.545   7.150  73.642  1.00  0.00    -0.287 C  
HETATM   11  C   UNL     1     -10.423   5.553  71.949  1.00  0.00    -0.282 A  
HETATM   12  C   UNL     1      -9.419   6.416  72.385  1.00  0.00    -0.143 A  
ENDROOT
BRANCH   7  13
HETATM   13  O   UNL     1      -8.856   4.389  68.779  1.00  0.00    -0.092 OA 
BRANCH  13  14
HETATM   14  C   UNL     1      -8.932   5.217  67.619  1.00  0.00    -0.109 C  
BRANCH  14  15
HETATM   15  C   UNL     1     -10.381   5.338  67.159  1.00  0.00    -0.268 C  
BRANCH  15  16
HETATM   16  C   UNL     1     -10.792   6.799  66.951  1.00  0.00    -0.402 C  
BRANCH  16  17
HETATM   17  C   UNL     1     -10.659   7.700  68.192  1.00  0.00    -0.130 C  
BRANCH  17  18
HETATM   18  N   UNL     1      -9.544   8.653  68.136  1.00  0.00    -0.144 NA 
HETATM   19  C   UNL     1      -9.687   9.663  67.058  1.00  0.00    -0.181 C  
HETATM   20  C   UNL     1     -10.797  10.721  67.278  1.00  0.00    -0.288 C  
HETATM   21  N   UNL     1     -10.642  11.359  68.590  1.00  0.00    -0.192 NA 
HETATM   22  C   UNL     1      -9.403   9.386  69.424  1.00  0.00    -0.169 C  
HETATM   23  C   UNL     1     -10.514  10.429  69.723  1.00  0.00    -0.240 C  
BRANCH  21  24
HETATM   24  C   UNL     1     -11.097  12.664  68.811  1.00  0.00    -0.263 A  
HETATM   25  C   UNL     1     -10.707  13.827  68.063  1.00  0.00    -0.260 A  
HETATM   26  C   UNL     1      -9.966  13.976  66.830  1.00  0.00    -0.263 A  
HETATM   27  C   UNL     1      -9.743  15.280  66.463  1.00  0.00    -0.268 A  
HETATM   28  S   UNL     1     -10.465  16.370  67.545  1.00  0.00    -0.302 SA 
HETATM   29  C   UNL     1     -11.098  15.094  68.521  1.00  0.00    -0.276 A  
HETATM   30  C   UNL     1     -11.902  15.267  69.661  1.00  0.00    -0.363 A  
HETATM   31  C   UNL     1     -12.334  14.143  70.347  1.00  0.00    -0.428 A  
HETATM   32  C   UNL     1     -11.937  12.879  69.931  1.00  0.00    -0.377 A  
ENDBRANCH  21  24
ENDBRANCH  17  18
ENDBRANCH  16  17
ENDBRANCH  15  16
ENDBRANCH  14  15
ENDBRANCH  13  14
ENDBRANCH   7  13
TORSDOF 7
ENDMDL
MODEL      163
REMARK 921   NORMALIZED FREE ENERGY PREDICTED BY IDOCK:   -5.01 KCAL/MOL
REMARK 922        TOTAL FREE ENERGY PREDICTED BY IDOCK:   -8.36 KCAL/MOL
REMARK 923 INTER-LIGAND FREE ENERGY PREDICTED BY IDOCK:   -7.03 KCAL/MOL
REMARK 924 INTRA-LIGAND FREE ENERGY PREDICTED BY IDOCK:   -1.33 KCAL/MOL
REMARK 927      BINDING AFFINITY PREDICTED BY RF-SCORE:    0.00 PKD
ROOT
HETATM    1  O   UNL     1      -6.680   9.722  71.691  1.00  0.00    -0.301 OA 
HETATM    2  C   UNL     1      -6.426  10.126  70.562  1.00  0.00    -0.116 C  
HETATM    3  N   UNL     1      -6.940   9.540  69.439  1.00  0.00    -0.049 N  
HETATM    4  C   UNL     1      -6.638   9.965  68.138  1.00  0.00    -0.056 A  
HETATM    5  H   UNL     1      -7.576   8.751  69.554  1.00  0.00     0.000 HD 
HETATM    6  C   UNL     1      -7.188   9.303  67.041  1.00  0.00    -0.087 A  
HETATM    7  C   UNL     1      -6.863   9.715  65.747  1.00  0.00    -0.093 A  
HETATM    8  C   UNL     1      -5.533  11.294  70.359  1.00  0.00    -0.121 C  
HETATM    9  C   UNL     1      -5.987  10.794  65.568  1.00  0.00    -0.081 A  
HETATM   10  C   UNL     1      -5.225  11.732  69.132  1.00  0.00    -0.047 C  
HETATM   11  C   UNL     1      -5.444  11.462  66.668  1.00  0.00    -0.135 A  
HETATM   12  C   UNL     1      -5.772  11.053  67.960  1.00  0.00    -0.042 A  
ENDROOT
BRANCH   7  13
HETATM   13  O   UNL     1      -7.460   8.996  64.742  1.00  0.00    -0.098 OA 
BRANCH  13  14
HETATM   14  C   UNL     1      -7.484   9.636  63.467  1.00  0.00    -0.120 C  
BRANCH  14  15
HETATM   15  C   UNL     1      -8.814   9.365  62.773  1.00  0.00    -0.224 C  
BRANCH  15  16
HETATM   16  C   UNL     1      -9.501  10.661  62.333  1.00  0.00    -0.240 C  
BRANCH  16  17
HETATM   17  C   UNL     1      -9.813  11.655  63.466  1.00  0.00    -0.370 C  
BRANCH  17  18
HETATM   18  N   UNL     1     -10.855  11.208  64.399  1.00  0.00    -0.320 NA 
HETATM   19  C   UNL     1     -10.364  11.030  65.788  1.00  0.00    -0.257 C  
HETATM   20  C   UNL     1     -10.015  12.335  66.545  1.00  0.00    -0.220 C  
HETATM   21  N   UNL     1     -11.142  13.273  66.493  1.00  0.00    -0.290 NA 
HETATM   22  C   UNL     1     -11.985  12.176  64.442  1.00  0.00    -0.361 C  
HETATM   23  C   UNL     1     -11.681  13.525  65.147  1.00  0.00    -0.322 C  
BRANCH  21  24
HETATM   24  C   UNL     1     -11.335  14.218  67.507  1.00  0.00    -0.326 A  
HETATM   25  C   UNL     1     -10.838  15.567  67.504  1.00  0.00    -0.306 A  
HETATM   26  C   UNL     1     -10.229  16.366  66.464  1.00  0.00    -0.310 A  
HETATM   27  C   UNL     1      -9.826  17.613  66.877  1.00  0.00    -0.306 A  
HETATM   28  S   UNL     1     -10.220  17.893  68.504  1.00  0.00    -0.375 SA 
HETATM   29  C   UNL     1     -10.948  16.337  68.671  1.00  0.00    -0.340 A  
HETATM   30  C   UNL     1     -11.574  15.854  69.834  1.00  0.00    -0.337 A  
HETATM   31  C   UNL     1     -12.114  14.578  69.818  1.00  0.00    -0.380 A  
HETATM   32  C   UNL     1     -11.992  13.785  68.684  1.00  0.00    -0.401 A  
ENDBRANCH  21  24
ENDBRANCH  17  18
ENDBRANCH  16  17
ENDBRANCH  15  16
ENDBRANCH  14  15
ENDBRANCH  13  14
ENDBRANCH   7  13
TORSDOF 7
ENDMDL
MODEL      164
REMARK 921   NORMALIZED FREE ENERGY PREDICTED BY IDOCK:   -5.01 KCAL/MOL
REMARK 922        TOTAL FREE ENERGY PREDICTED BY IDOCK:   -8.36 KCAL/MOL
REMARK 923 INTER-LIGAND FREE ENERGY PREDICTED BY IDOCK:   -7.91 KCAL/MOL
REMARK 924 INTRA-LIGAND FREE ENERGY PREDICTED BY IDOCK:   -0.45 KCAL/MOL
REMARK 927      BINDING AFFINITY PREDICTED BY RF-SCORE:    0.00 PKD
ROOT
HETATM    1  O   UNL     1     -13.183  14.466  65.151  1.00  0.00    -0.602 OA 
HETATM    2  C   UNL     1     -12.462  13.496  64.943  1.00  0.00    -0.384 C  
HETATM    3  N   UNL     1     -11.945  12.736  65.955  1.00  0.00    -0.430 N  
HETATM    4  C   UNL     1     -11.094  11.642  65.742  1.00  0.00    -0.256 A  
HETATM    5  H   UNL     1     -12.190  12.977  66.915  1.00  0.00     0.000 HD 
HETATM    6  C   UNL     1     -10.591  10.927  66.828  1.00  0.00    -0.313 A  
HETATM    7  C   UNL     1      -9.724   9.854  66.611  1.00  0.00    -0.198 A  
HETATM    8  C   UNL     1     -12.114  13.094  63.558  1.00  0.00    -0.585 C  
HETATM    9  C   UNL     1      -9.371   9.510  65.299  1.00  0.00    -0.317 A  
HETATM   10  C   UNL     1     -11.308  12.053  63.314  1.00  0.00    -0.396 C  
HETATM   11  C   UNL     1      -9.883  10.222  64.212  1.00  0.00    -0.357 A  
HETATM   12  C   UNL     1     -10.752  11.290  64.429  1.00  0.00    -0.407 A  
ENDROOT
BRANCH   7  13
HETATM   13  O   UNL     1      -9.290   9.220  67.747  1.00  0.00    -0.129 OA 
BRANCH  13  14
HETATM   14  C   UNL     1      -8.453  10.002  68.599  1.00  0.00    -0.118 C  
BRANCH  14  15
HETATM   15  C   UNL     1      -8.809   9.743  70.059  1.00  0.00    -0.245 C  
BRANCH  15  16
HETATM   16  C   UNL     1     -10.307   9.922  70.320  1.00  0.00    -0.339 C  
BRANCH  16  17
HETATM   17  C   UNL     1     -10.843   9.211  71.576  1.00  0.00    -0.366 C  
BRANCH  17  18
HETATM   18  N   UNL     1     -11.892   8.217  71.313  1.00  0.00    -0.285 NA 
HETATM   19  C   UNL     1     -11.629   7.389  70.110  1.00  0.00    -0.066 C  
HETATM   20  C   UNL     1     -10.469   6.371  70.242  1.00  0.00    -0.219 C  
HETATM   21  N   UNL     1     -10.652   5.538  71.435  1.00  0.00    -0.250 NA 
HETATM   22  C   UNL     1     -12.056   7.294  72.469  1.00  0.00    -0.040 C  
HETATM   23  C   UNL     1     -10.899   6.281  72.681  1.00  0.00    -0.242 C  
BRANCH  21  24
HETATM   24  C   UNL     1     -10.129   4.241  71.491  1.00  0.00    -0.135 A  
HETATM   25  C   UNL     1      -9.442   3.565  70.425  1.00  0.00    -0.254 A  
HETATM   26  C   UNL     1      -8.931   4.037  69.157  1.00  0.00    -0.167 A  
HETATM   27  C   UNL     1      -8.380   3.053  68.373  1.00  0.00    -0.069 A  
HETATM   28  S   UNL     1      -8.399   1.545  69.150  1.00  0.00    -0.049 SA 
HETATM   29  C   UNL     1      -9.144   2.202  70.563  1.00  0.00    -0.098 A  
HETATM   30  C   UNL     1      -9.447   1.479  71.730  1.00  0.00    -0.169 A  
HETATM   31  C   UNL     1     -10.050   2.145  72.786  1.00  0.00    -0.205 A  
HETATM   32  C   UNL     1     -10.383   3.487  72.663  1.00  0.00    -0.222 A  
ENDBRANCH  21  24
ENDBRANCH  17  18
ENDBRANCH  16  17
ENDBRANCH  15  16
ENDBRANCH  14  15
ENDBRANCH  13  14
ENDBRANCH   7  13
TORSDOF 7
ENDMDL
MODEL      165
REMARK 921   NORMALIZED FREE ENERGY PREDICTED BY IDOCK:   -5.00 KCAL/MOL
REMARK 922        TOTAL FREE ENERGY PREDICTED BY IDOCK:   -8.35 KCAL/MOL
REMARK 923 INTER-LIGAND FREE ENERGY PREDICTED BY IDOCK:   -7.62 KCAL/MOL
REMARK 924 INTRA-LIGAND FREE ENERGY PREDICTED BY IDOCK:   -0.74 KCAL/MOL
REMARK 927      BINDING AFFINITY PREDICTED BY RF-SCORE:    0.00 PKD
ROOT
HETATM    1  O   UNL     1     -11.510  19.709  66.517  1.00  0.00     0.142 OA 
HETATM    2  C   UNL     1     -10.412  19.440  66.991  1.00  0.00    -0.463 C  
HETATM    3  N   UNL     1     -10.114  18.206  67.501  1.00  0.00    -0.332 N  
HETATM    4  C   UNL     1      -8.877  17.886  68.076  1.00  0.00    -0.268 A  
HETATM    5  H   UNL     1     -10.831  17.481  67.461  1.00  0.00     0.000 HD 
HETATM    6  C   UNL     1      -8.656  16.610  68.592  1.00  0.00    -0.253 A  
HETATM    7  C   UNL     1      -7.429  16.305  69.187  1.00  0.00    -0.218 A  
HETATM    8  C   UNL     1      -9.334  20.459  67.031  1.00  0.00    -0.511 C  
HETATM    9  C   UNL     1      -6.434  17.289  69.255  1.00  0.00    -0.243 A  
HETATM   10  C   UNL     1      -8.138  20.190  67.569  1.00  0.00    -0.356 C  
HETATM   11  C   UNL     1      -6.654  18.565  68.729  1.00  0.00    -0.267 A  
HETATM   12  C   UNL     1      -7.877  18.867  68.132  1.00  0.00    -0.327 A  
ENDROOT
BRANCH   7  13
HETATM   13  O   UNL     1      -7.318  15.022  69.660  1.00  0.00    -0.192 OA 
BRANCH  13  14
HETATM   14  C   UNL     1      -6.646  14.110  68.793  1.00  0.00    -0.094 C  
BRANCH  14  15
HETATM   15  C   UNL     1      -7.655  13.163  68.151  1.00  0.00    -0.141 C  
BRANCH  15  16
HETATM   16  C   UNL     1      -6.966  12.083  67.311  1.00  0.00    -0.146 C  
BRANCH  16  17
HETATM   17  C   UNL     1      -7.910  11.047  66.673  1.00  0.00    -0.153 C  
BRANCH  17  18
HETATM   18  N   UNL     1      -7.638   9.657  67.059  1.00  0.00    -0.095 NA 
HETATM   19  C   UNL     1      -7.421   9.482  68.516  1.00  0.00    -0.080 C  
HETATM   20  C   UNL     1      -8.679   9.655  69.404  1.00  0.00    -0.171 C  
HETATM   21  N   UNL     1      -9.768   8.800  68.920  1.00  0.00    -0.169 NA 
HETATM   22  C   UNL     1      -8.760   8.763  66.660  1.00  0.00    -0.125 C  
HETATM   23  C   UNL     1     -10.065   8.925  67.484  1.00  0.00    -0.227 C  
BRANCH  21  24
HETATM   24  C   UNL     1     -10.753   8.330  69.795  1.00  0.00    -0.221 A  
HETATM   25  C   UNL     1     -11.691   9.142  70.520  1.00  0.00    -0.193 A  
HETATM   26  C   UNL     1     -12.028  10.545  70.420  1.00  0.00    -0.425 A  
HETATM   27  C   UNL     1     -12.951  10.969  71.346  1.00  0.00    -0.414 A  
HETATM   28  S   UNL     1     -13.490   9.692  72.323  1.00  0.00    -0.311 SA 
HETATM   29  C   UNL     1     -12.492   8.546  71.504  1.00  0.00    -0.317 A  
HETATM   30  C   UNL     1     -12.449   7.167  71.776  1.00  0.00    -0.385 A  
HETATM   31  C   UNL     1     -11.592   6.370  71.033  1.00  0.00    -0.386 A  
HETATM   32  C   UNL     1     -10.767   6.941  70.073  1.00  0.00    -0.276 A  
ENDBRANCH  21  24
ENDBRANCH  17  18
ENDBRANCH  16  17
ENDBRANCH  15  16
ENDBRANCH  14  15
ENDBRANCH  13  14
ENDBRANCH   7  13
TORSDOF 7
ENDMDL
MODEL      166
REMARK 921   NORMALIZED FREE ENERGY PREDICTED BY IDOCK:   -5.00 KCAL/MOL
REMARK 922        TOTAL FREE ENERGY PREDICTED BY IDOCK:   -8.35 KCAL/MOL
REMARK 923 INTER-LIGAND FREE ENERGY PREDICTED BY IDOCK:   -7.27 KCAL/MOL
REMARK 924 INTRA-LIGAND FREE ENERGY PREDICTED BY IDOCK:   -1.08 KCAL/MOL
REMARK 927      BINDING AFFINITY PREDICTED BY RF-SCORE:    0.00 PKD
ROOT
HETATM    1  O   UNL     1     -11.576   1.934  62.745  1.00  0.00    -0.270 OA 
HETATM    2  C   UNL     1     -10.747   2.520  63.433  1.00  0.00    -0.216 C  
HETATM    3  N   UNL     1     -11.093   3.489  64.334  1.00  0.00    -0.385 N  
HETATM    4  C   UNL     1     -10.160   4.193  65.108  1.00  0.00    -0.209 A  
HETATM    5  H   UNL     1     -12.082   3.712  64.448  1.00  0.00     0.000 HD 
HETATM    6  C   UNL     1     -10.591   5.181  65.992  1.00  0.00    -0.236 A  
HETATM    7  C   UNL     1      -9.654   5.897  66.742  1.00  0.00    -0.148 A  
HETATM    8  C   UNL     1      -9.303   2.195  63.321  1.00  0.00    -0.093 C  
HETATM    9  C   UNL     1      -8.291   5.609  66.596  1.00  0.00    -0.112 A  
HETATM   10  C   UNL     1      -8.383   2.843  64.046  1.00  0.00    -0.086 C  
HETATM   11  C   UNL     1      -7.862   4.611  65.717  1.00  0.00    -0.095 A  
HETATM   12  C   UNL     1      -8.797   3.895  64.972  1.00  0.00    -0.126 A  
ENDROOT
BRANCH   7  13
HETATM   13  O   UNL     1     -10.185   6.845  67.580  1.00  0.00    -0.160 OA 
BRANCH  13  14
HETATM   14  C   UNL     1     -11.073   6.345  68.579  1.00  0.00    -0.300 C  
BRANCH  14  15
HETATM   15  C   UNL     1     -10.290   5.972  69.833  1.00  0.00    -0.288 C  
BRANCH  15  16
HETATM   16  C   UNL     1     -10.548   6.955  70.979  1.00  0.00    -0.244 C  
BRANCH  16  17
HETATM   17  C   UNL     1     -11.383   8.193  70.605  1.00  0.00    -0.249 C  
BRANCH  17  18
HETATM   18  N   UNL     1     -10.762   9.476  70.957  1.00  0.00    -0.324 NA 
HETATM   19  C   UNL     1      -9.468   9.710  70.270  1.00  0.00    -0.248 C  
HETATM   20  C   UNL     1      -9.560   9.985  68.748  1.00  0.00    -0.168 C  
HETATM   21  N   UNL     1     -10.511  11.070  68.480  1.00  0.00    -0.180 NA 
HETATM   22  C   UNL     1     -11.662  10.614  70.624  1.00  0.00    -0.356 C  
HETATM   23  C   UNL     1     -11.832  10.908  69.109  1.00  0.00    -0.317 C  
BRANCH  21  24
HETATM   24  C   UNL     1     -10.376  11.879  67.348  1.00  0.00    -0.207 A  
HETATM   25  C   UNL     1      -9.778  13.186  67.315  1.00  0.00    -0.230 A  
HETATM   26  C   UNL     1      -9.007  13.916  68.296  1.00  0.00    -0.187 A  
HETATM   27  C   UNL     1      -8.657  15.186  67.904  1.00  0.00    -0.153 A  
HETATM   28  S   UNL     1      -9.184  15.523  66.327  1.00  0.00    -0.343 SA 
HETATM   29  C   UNL     1      -9.885  13.956  66.148  1.00  0.00    -0.302 A  
HETATM   30  C   UNL     1     -10.514  13.476  64.985  1.00  0.00    -0.390 A  
HETATM   31  C   UNL     1     -11.033  12.191  64.992  1.00  0.00    -0.355 A  
HETATM   32  C   UNL     1     -10.966  11.420  66.145  1.00  0.00    -0.294 A  
ENDBRANCH  21  24
ENDBRANCH  17  18
ENDBRANCH  16  17
ENDBRANCH  15  16
ENDBRANCH  14  15
ENDBRANCH  13  14
ENDBRANCH   7  13
TORSDOF 7
ENDMDL
MODEL      167
REMARK 921   NORMALIZED FREE ENERGY PREDICTED BY IDOCK:   -4.99 KCAL/MOL
REMARK 922        TOTAL FREE ENERGY PREDICTED BY IDOCK:   -8.33 KCAL/MOL
REMARK 923 INTER-LIGAND FREE ENERGY PREDICTED BY IDOCK:   -7.36 KCAL/MOL
REMARK 924 INTRA-LIGAND FREE ENERGY PREDICTED BY IDOCK:   -0.98 KCAL/MOL
REMARK 927      BINDING AFFINITY PREDICTED BY RF-SCORE:    0.00 PKD
ROOT
HETATM    1  O   UNL     1      -8.794   7.672  74.285  1.00  0.00    -0.238 OA 
HETATM    2  C   UNL     1      -9.433   7.408  73.273  1.00  0.00    -0.214 C  
HETATM    3  N   UNL     1      -8.846   6.917  72.140  1.00  0.00    -0.132 N  
HETATM    4  C   UNL     1      -9.552   6.638  70.962  1.00  0.00    -0.171 A  
HETATM    5  H   UNL     1      -7.840   6.745  72.153  1.00  0.00     0.000 HD 
HETATM    6  C   UNL     1      -8.877   6.157  69.840  1.00  0.00    -0.140 A  
HETATM    7  C   UNL     1      -9.583   5.905  68.661  1.00  0.00    -0.123 A  
HETATM    8  C   UNL     1     -10.903   7.611  73.230  1.00  0.00    -0.379 C  
HETATM    9  C   UNL     1     -10.964   6.140  68.622  1.00  0.00    -0.415 A  
HETATM   10  C   UNL     1     -11.612   7.352  72.125  1.00  0.00    -0.331 C  
HETATM   11  C   UNL     1     -11.639   6.614  69.749  1.00  0.00    -0.354 A  
HETATM   12  C   UNL     1     -10.936   6.861  70.927  1.00  0.00    -0.290 A  
ENDROOT
BRANCH   7  13
HETATM   13  O   UNL     1      -8.823   5.434  67.621  1.00  0.00    -0.107 OA 
BRANCH  13  14
HETATM   14  C   UNL     1      -9.299   5.771  66.318  1.00  0.00    -0.156 C  
BRANCH  14  15
HETATM   15  C   UNL     1      -8.202   6.480  65.530  1.00  0.00    -0.138 C  
BRANCH  15  16
HETATM   16  C   UNL     1      -7.314   7.337  66.437  1.00  0.00    -0.080 C  
BRANCH  16  17
HETATM   17  C   UNL     1      -7.938   8.666  66.900  1.00  0.00    -0.095 C  
BRANCH  17  18
HETATM   18  N   UNL     1      -8.753   9.343  65.883  1.00  0.00    -0.146 NA 
HETATM   19  C   UNL     1     -10.193   9.411  66.234  1.00  0.00    -0.214 C  
HETATM   20  C   UNL     1     -10.552  10.370  67.396  1.00  0.00    -0.269 C  
HETATM   21  N   UNL     1      -9.999  11.706  67.147  1.00  0.00    -0.198 NA 
HETATM   22  C   UNL     1      -8.277  10.735  65.657  1.00  0.00    -0.127 C  
HETATM   23  C   UNL     1      -8.566  11.733  66.810  1.00  0.00    -0.185 C  
BRANCH  21  24
HETATM   24  C   UNL     1     -10.608  12.846  67.681  1.00  0.00    -0.223 A  
HETATM   25  C   UNL     1     -10.387  14.199  67.249  1.00  0.00    -0.267 A  
HETATM   26  C   UNL     1      -9.701  14.741  66.097  1.00  0.00    -0.338 A  
HETATM   27  C   UNL     1      -9.653  16.114  66.066  1.00  0.00    -0.346 A  
HETATM   28  S   UNL     1     -10.479  16.800  67.380  1.00  0.00    -0.288 SA 
HETATM   29  C   UNL     1     -10.922  15.252  68.004  1.00  0.00    -0.299 A  
HETATM   30  C   UNL     1     -11.713  15.034  69.146  1.00  0.00    -0.345 A  
HETATM   31  C   UNL     1     -11.983  13.729  69.528  1.00  0.00    -0.399 A  
HETATM   32  C   UNL     1     -11.440  12.669  68.814  1.00  0.00    -0.349 A  
ENDBRANCH  21  24
ENDBRANCH  17  18
ENDBRANCH  16  17
ENDBRANCH  15  16
ENDBRANCH  14  15
ENDBRANCH  13  14
ENDBRANCH   7  13
TORSDOF 7
ENDMDL
MODEL      168
REMARK 921   NORMALIZED FREE ENERGY PREDICTED BY IDOCK:   -4.98 KCAL/MOL
REMARK 922        TOTAL FREE ENERGY PREDICTED BY IDOCK:   -8.32 KCAL/MOL
REMARK 923 INTER-LIGAND FREE ENERGY PREDICTED BY IDOCK:   -7.42 KCAL/MOL
REMARK 924 INTRA-LIGAND FREE ENERGY PREDICTED BY IDOCK:   -0.91 KCAL/MOL
REMARK 927      BINDING AFFINITY PREDICTED BY RF-SCORE:    0.00 PKD
ROOT
HETATM    1  O   UNL     1      -9.823   2.533  73.605  1.00  0.00    -0.096 OA 
HETATM    2  C   UNL     1     -10.163   3.647  73.221  1.00  0.00    -0.151 C  
HETATM    3  N   UNL     1     -10.220   3.981  71.896  1.00  0.00    -0.137 N  
HETATM    4  C   UNL     1     -10.575   5.256  71.435  1.00  0.00    -0.177 A  
HETATM    5  H   UNL     1      -9.991   3.264  71.207  1.00  0.00     0.000 HD 
HETATM    6  C   UNL     1     -10.592   5.524  70.067  1.00  0.00    -0.384 A  
HETATM    7  C   UNL     1     -10.922   6.804  69.614  1.00  0.00    -0.288 A  
HETATM    8  C   UNL     1     -10.538   4.703  74.194  1.00  0.00    -0.348 C  
HETATM    9  C   UNL     1     -11.234   7.803  70.546  1.00  0.00    -0.267 A  
HETATM   10  C   UNL     1     -10.886   5.931  73.792  1.00  0.00    -0.134 C  
HETATM   11  C   UNL     1     -11.226   7.530  71.916  1.00  0.00    -0.286 A  
HETATM   12  C   UNL     1     -10.900   6.252  72.366  1.00  0.00    -0.277 A  
ENDROOT
BRANCH   7  13
HETATM   13  O   UNL     1     -10.908   6.958  68.252  1.00  0.00    -0.217 OA 
BRANCH  13  14
HETATM   14  C   UNL     1     -10.168   5.970  67.535  1.00  0.00    -0.184 C  
BRANCH  14  15
HETATM   15  C   UNL     1      -9.097   6.640  66.680  1.00  0.00    -0.159 C  
BRANCH  15  16
HETATM   16  C   UNL     1      -9.521   8.043  66.234  1.00  0.00    -0.241 C  
BRANCH  16  17
HETATM   17  C   UNL     1      -8.716   9.199  66.855  1.00  0.00    -0.123 C  
BRANCH  17  18
HETATM   18  N   UNL     1      -8.551  10.366  65.979  1.00  0.00    -0.145 NA 
HETATM   19  C   UNL     1      -9.836  10.900  65.463  1.00  0.00    -0.246 C  
HETATM   20  C   UNL     1     -10.734  11.606  66.508  1.00  0.00    -0.272 C  
HETATM   21  N   UNL     1      -9.975  12.639  67.222  1.00  0.00    -0.210 NA 
HETATM   22  C   UNL     1      -7.857  11.474  66.691  1.00  0.00    -0.112 C  
HETATM   23  C   UNL     1      -8.692  12.190  67.786  1.00  0.00    -0.171 C  
BRANCH  21  24
HETATM   24  C   UNL     1     -10.618  13.757  67.763  1.00  0.00    -0.246 A  
HETATM   25  C   UNL     1     -10.430  15.119  67.346  1.00  0.00    -0.264 A  
HETATM   26  C   UNL     1      -9.749  15.691  66.205  1.00  0.00    -0.328 A  
HETATM   27  C   UNL     1      -9.737  17.065  66.189  1.00  0.00    -0.261 A  
HETATM   28  S   UNL     1     -10.592  17.715  67.503  1.00  0.00    -0.301 SA 
HETATM   29  C   UNL     1     -10.998  16.150  68.107  1.00  0.00    -0.341 A  
HETATM   30  C   UNL     1     -11.792  15.899  69.240  1.00  0.00    -0.328 A  
HETATM   31  C   UNL     1     -12.031  14.584  69.607  1.00  0.00    -0.375 A  
HETATM   32  C   UNL     1     -11.455  13.546  68.886  1.00  0.00    -0.348 A  
ENDBRANCH  21  24
ENDBRANCH  17  18
ENDBRANCH  16  17
ENDBRANCH  15  16
ENDBRANCH  14  15
ENDBRANCH  13  14
ENDBRANCH   7  13
TORSDOF 7
ENDMDL
MODEL      169
REMARK 921   NORMALIZED FREE ENERGY PREDICTED BY IDOCK:   -4.98 KCAL/MOL
REMARK 922        TOTAL FREE ENERGY PREDICTED BY IDOCK:   -8.32 KCAL/MOL
REMARK 923 INTER-LIGAND FREE ENERGY PREDICTED BY IDOCK:   -7.78 KCAL/MOL
REMARK 924 INTRA-LIGAND FREE ENERGY PREDICTED BY IDOCK:   -0.53 KCAL/MOL
REMARK 927      BINDING AFFINITY PREDICTED BY RF-SCORE:    0.00 PKD
ROOT
HETATM    1  O   UNL     1     -10.477  20.453  65.328  1.00  0.00    -0.145 OA 
HETATM    2  C   UNL     1     -10.379  19.520  66.117  1.00  0.00    -0.520 C  
HETATM    3  N   UNL     1     -10.646  18.227  65.761  1.00  0.00    -0.331 N  
HETATM    4  C   UNL     1     -10.570  17.149  66.654  1.00  0.00    -0.179 A  
HETATM    5  H   UNL     1     -10.913  18.036  64.796  1.00  0.00     0.000 HD 
HETATM    6  C   UNL     1     -10.876  15.860  66.220  1.00  0.00    -0.200 A  
HETATM    7  C   UNL     1     -10.824  14.793  67.121  1.00  0.00    -0.311 A  
HETATM    8  C   UNL     1      -9.957  19.755  67.520  1.00  0.00    -0.540 C  
HETATM    9  C   UNL     1     -10.463  15.035  68.453  1.00  0.00    -0.238 A  
HETATM   10  C   UNL     1      -9.869  18.751  68.401  1.00  0.00    -0.429 C  
HETATM   11  C   UNL     1     -10.148  16.326  68.884  1.00  0.00    -0.251 A  
HETATM   12  C   UNL     1     -10.196  17.389  67.984  1.00  0.00    -0.345 A  
ENDROOT
BRANCH   7  13
HETATM   13  O   UNL     1     -11.142  13.570  66.589  1.00  0.00    -0.292 OA 
BRANCH  13  14
HETATM   14  C   UNL     1     -12.396  13.508  65.910  1.00  0.00    -0.456 C  
BRANCH  14  15
HETATM   15  C   UNL     1     -12.266  12.658  64.652  1.00  0.00    -0.519 C  
BRANCH  15  16
HETATM   16  C   UNL     1     -10.801  12.387  64.296  1.00  0.00    -0.395 C  
BRANCH  16  17
HETATM   17  C   UNL     1     -10.392  10.903  64.286  1.00  0.00    -0.368 C  
BRANCH  17  18
HETATM   18  N   UNL     1      -9.019  10.647  64.741  1.00  0.00    -0.196 NA 
HETATM   19  C   UNL     1      -8.678  11.348  66.003  1.00  0.00    -0.131 C  
HETATM   20  C   UNL     1      -9.375  10.808  67.277  1.00  0.00    -0.151 C  
HETATM   21  N   UNL     1      -9.171   9.360  67.397  1.00  0.00    -0.126 NA 
HETATM   22  C   UNL     1      -8.792   9.192  64.957  1.00  0.00    -0.189 C  
HETATM   23  C   UNL     1      -9.506   8.582  66.194  1.00  0.00    -0.217 C  
BRANCH  21  24
HETATM   24  C   UNL     1      -9.175   8.738  68.650  1.00  0.00    -0.141 A  
HETATM   25  C   UNL     1      -9.914   7.555  68.999  1.00  0.00    -0.175 A  
HETATM   26  C   UNL     1     -10.642   6.602  68.191  1.00  0.00    -0.294 A  
HETATM   27  C   UNL     1     -11.276   5.621  68.914  1.00  0.00     0.318 A  
HETATM   28  S   UNL     1     -10.971   5.771  70.576  1.00  0.00    -0.193 SA 
HETATM   29  C   UNL     1      -9.970   7.157  70.342  1.00  0.00    -0.187 A  
HETATM   30  C   UNL     1      -9.286   7.846  71.360  1.00  0.00    -0.174 A  
HETATM   31  C   UNL     1      -8.519   8.948  71.017  1.00  0.00    -0.244 A  
HETATM   32  C   UNL     1      -8.471   9.380  69.698  1.00  0.00    -0.166 A  
ENDBRANCH  21  24
ENDBRANCH  17  18
ENDBRANCH  16  17
ENDBRANCH  15  16
ENDBRANCH  14  15
ENDBRANCH  13  14
ENDBRANCH   7  13
TORSDOF 7
ENDMDL
MODEL      170
REMARK 921   NORMALIZED FREE ENERGY PREDICTED BY IDOCK:   -4.95 KCAL/MOL
REMARK 922        TOTAL FREE ENERGY PREDICTED BY IDOCK:   -8.28 KCAL/MOL
REMARK 923 INTER-LIGAND FREE ENERGY PREDICTED BY IDOCK:   -7.64 KCAL/MOL
REMARK 924 INTRA-LIGAND FREE ENERGY PREDICTED BY IDOCK:   -0.64 KCAL/MOL
REMARK 927      BINDING AFFINITY PREDICTED BY RF-SCORE:    0.00 PKD
ROOT
HETATM    1  O   UNL     1      -6.995   8.864  63.764  1.00  0.00    -0.088 OA 
HETATM    2  C   UNL     1      -7.900   9.687  63.850  1.00  0.00    -0.136 C  
HETATM    3  N   UNL     1      -8.643   9.846  64.987  1.00  0.00    -0.150 N  
HETATM    4  C   UNL     1      -9.701  10.758  65.097  1.00  0.00    -0.265 A  
HETATM    5  H   UNL     1      -8.414   9.270  65.798  1.00  0.00     0.000 HD 
HETATM    6  C   UNL     1     -10.424  10.848  66.286  1.00  0.00    -0.304 A  
HETATM    7  C   UNL     1     -11.495  11.741  66.381  1.00  0.00    -0.239 A  
HETATM    8  C   UNL     1      -8.235  10.566  62.703  1.00  0.00    -0.192 C  
HETATM    9  C   UNL     1     -11.827  12.537  65.276  1.00  0.00    -0.461 A  
HETATM   10  C   UNL     1      -9.237  11.452  62.771  1.00  0.00    -0.309 C  
HETATM   11  C   UNL     1     -11.095  12.451  64.089  1.00  0.00    -0.425 A  
HETATM   12  C   UNL     1     -10.025  11.563  63.997  1.00  0.00    -0.341 A  
ENDROOT
BRANCH   7  13
HETATM   13  O   UNL     1     -12.136  11.750  67.594  1.00  0.00    -0.598 OA 
BRANCH  13  14
HETATM   14  C   UNL     1     -11.531  12.567  68.596  1.00  0.00    -0.306 C  
BRANCH  14  15
HETATM   15  C   UNL     1     -12.079  12.197  69.970  1.00  0.00    -0.352 C  
BRANCH  15  16
HETATM   16  C   UNL     1     -12.451  10.714  70.054  1.00  0.00    -0.294 C  
BRANCH  16  17
HETATM   17  C   UNL     1     -11.650   9.895  71.082  1.00  0.00    -0.389 C  
BRANCH  17  18
HETATM   18  N   UNL     1     -10.598   9.050  70.502  1.00  0.00    -0.213 NA 
HETATM   19  C   UNL     1      -9.418   8.890  71.388  1.00  0.00    -0.274 C  
HETATM   20  C   UNL     1      -9.645   8.023  72.652  1.00  0.00    -0.259 C  
HETATM   21  N   UNL     1     -10.218   6.724  72.285  1.00  0.00    -0.189 NA 
HETATM   22  C   UNL     1     -11.116   7.690  70.190  1.00  0.00    -0.218 C  
HETATM   23  C   UNL     1     -11.408   6.790  71.421  1.00  0.00    -0.279 C  
BRANCH  21  24
HETATM   24  C   UNL     1      -9.999   5.593  73.079  1.00  0.00    -0.173 A  
HETATM   25  C   UNL     1      -8.718   5.105  73.510  1.00  0.00    -0.114 A  
HETATM   26  C   UNL     1      -7.396   5.688  73.451  1.00  0.00    -0.091 A  
HETATM   27  C   UNL     1      -6.399   4.868  73.921  1.00  0.00    -0.060 A  
HETATM   28  S   UNL     1      -7.017   3.400  74.506  1.00  0.00    -0.047 SA 
HETATM   29  C   UNL     1      -8.642   3.855  74.141  1.00  0.00    -0.092 A  
HETATM   30  C   UNL     1      -9.783   3.080  74.415  1.00  0.00    -0.141 A  
HETATM   31  C   UNL     1     -11.026   3.578  74.060  1.00  0.00    -0.218 A  
HETATM   32  C   UNL     1     -11.125   4.800  73.408  1.00  0.00    -0.422 A  
ENDBRANCH  21  24
ENDBRANCH  17  18
ENDBRANCH  16  17
ENDBRANCH  15  16
ENDBRANCH  14  15
ENDBRANCH  13  14
ENDBRANCH   7  13
TORSDOF 7
ENDMDL
MODEL      171
REMARK 921   NORMALIZED FREE ENERGY PREDICTED BY IDOCK:   -4.92 KCAL/MOL
REMARK 922        TOTAL FREE ENERGY PREDICTED BY IDOCK:   -8.24 KCAL/MOL
REMARK 923 INTER-LIGAND FREE ENERGY PREDICTED BY IDOCK:   -7.33 KCAL/MOL
REMARK 924 INTRA-LIGAND FREE ENERGY PREDICTED BY IDOCK:   -0.92 KCAL/MOL
REMARK 927      BINDING AFFINITY PREDICTED BY RF-SCORE:    0.00 PKD
ROOT
HETATM    1  O   UNL     1      -9.336  19.337  66.114  1.00  0.00    -0.361 OA 
HETATM    2  C   UNL     1      -9.789  18.383  66.736  1.00  0.00    -0.342 C  
HETATM    3  N   UNL     1     -10.237  17.248  66.118  1.00  0.00    -0.342 N  
HETATM    4  C   UNL     1     -10.787  16.158  66.807  1.00  0.00    -0.162 A  
HETATM    5  H   UNL     1     -10.166  17.192  65.102  1.00  0.00     0.000 HD 
HETATM    6  C   UNL     1     -11.239  15.043  66.103  1.00  0.00    -0.307 A  
HETATM    7  C   UNL     1     -11.810  13.971  66.793  1.00  0.00    -0.424 A  
HETATM    8  C   UNL     1      -9.872  18.415  68.218  1.00  0.00    -0.383 C  
HETATM    9  C   UNL     1     -11.919  14.032  68.189  1.00  0.00    -0.382 A  
HETATM   10  C   UNL     1     -10.387  17.393  68.911  1.00  0.00    -0.340 C  
HETATM   11  C   UNL     1     -11.458  15.146  68.893  1.00  0.00    -0.337 A  
HETATM   12  C   UNL     1     -10.884  16.214  68.205  1.00  0.00    -0.329 A  
ENDROOT
BRANCH   7  13
HETATM   13  O   UNL     1     -12.219  12.926  66.005  1.00  0.00    -0.452 OA 
BRANCH  13  14
HETATM   14  C   UNL     1     -12.371  13.233  64.619  1.00  0.00    -0.391 C  
BRANCH  14  15
HETATM   15  C   UNL     1     -11.736  12.136  63.770  1.00  0.00    -0.576 C  
BRANCH  15  16
HETATM   16  C   UNL     1     -10.312  11.811  64.233  1.00  0.00    -0.359 C  
BRANCH  16  17
HETATM   17  C   UNL     1     -10.140  10.438  64.907  1.00  0.00    -0.312 C  
BRANCH  17  18
HETATM   18  N   UNL     1      -9.690  10.497  66.304  1.00  0.00    -0.197 NA 
HETATM   19  C   UNL     1     -10.231   9.398  67.142  1.00  0.00    -0.254 C  
HETATM   20  C   UNL     1      -9.659   7.989  66.845  1.00  0.00    -0.204 C  
HETATM   21  N   UNL     1      -8.192   8.015  66.879  1.00  0.00    -0.114 NA 
HETATM   22  C   UNL     1      -8.206  10.441  66.391  1.00  0.00    -0.141 C  
HETATM   23  C   UNL     1      -7.570   9.065  66.057  1.00  0.00    -0.094 C  
BRANCH  21  24
HETATM   24  C   UNL     1      -7.462   6.869  67.211  1.00  0.00    -0.096 A  
HETATM   25  C   UNL     1      -7.257   6.358  68.539  1.00  0.00    -0.085 A  
HETATM   26  C   UNL     1      -7.859   6.705  69.807  1.00  0.00    -0.115 A  
HETATM   27  C   UNL     1      -7.344   6.019  70.880  1.00  0.00    -0.082 A  
HETATM   28  S   UNL     1      -6.169   4.893  70.399  1.00  0.00    -0.023 SA 
HETATM   29  C   UNL     1      -6.346   5.310  68.733  1.00  0.00    -0.035 A  
HETATM   30  C   UNL     1      -5.659   4.703  67.667  1.00  0.00    -0.017 A  
HETATM   31  C   UNL     1      -5.905   5.149  66.378  1.00  0.00    -0.018 A  
HETATM   32  C   UNL     1      -6.780   6.205  66.162  1.00  0.00    -0.056 A  
ENDBRANCH  21  24
ENDBRANCH  17  18
ENDBRANCH  16  17
ENDBRANCH  15  16
ENDBRANCH  14  15
ENDBRANCH  13  14
ENDBRANCH   7  13
TORSDOF 7
ENDMDL
MODEL      172
REMARK 921   NORMALIZED FREE ENERGY PREDICTED BY IDOCK:   -4.92 KCAL/MOL
REMARK 922        TOTAL FREE ENERGY PREDICTED BY IDOCK:   -8.23 KCAL/MOL
REMARK 923 INTER-LIGAND FREE ENERGY PREDICTED BY IDOCK:   -7.59 KCAL/MOL
REMARK 924 INTRA-LIGAND FREE ENERGY PREDICTED BY IDOCK:   -0.65 KCAL/MOL
REMARK 927      BINDING AFFINITY PREDICTED BY RF-SCORE:    0.00 PKD
ROOT
HETATM    1  O   UNL     1      -9.828  21.049  67.180  1.00  0.00    -0.342 OA 
HETATM    2  C   UNL     1      -9.359  19.931  66.996  1.00  0.00    -0.370 C  
HETATM    3  N   UNL     1     -10.083  18.789  67.200  1.00  0.00    -0.335 N  
HETATM    4  C   UNL     1      -9.558  17.501  67.025  1.00  0.00    -0.268 A  
HETATM    5  H   UNL     1     -11.055  18.879  67.494  1.00  0.00     0.000 HD 
HETATM    6  C   UNL     1     -10.354  16.383  67.272  1.00  0.00    -0.287 A  
HETATM    7  C   UNL     1      -9.818  15.102  67.121  1.00  0.00    -0.228 A  
HETATM    8  C   UNL     1      -7.960  19.764  66.531  1.00  0.00    -0.339 C  
HETATM    9  C   UNL     1      -8.482  14.958  66.721  1.00  0.00    -0.215 A  
HETATM   10  C   UNL     1      -7.425  18.551  66.350  1.00  0.00    -0.279 C  
HETATM   11  C   UNL     1      -7.689  16.079  66.466  1.00  0.00    -0.167 A  
HETATM   12  C   UNL     1      -8.226  17.357  66.613  1.00  0.00    -0.290 A  
ENDROOT
BRANCH   7  13
HETATM   13  O   UNL     1     -10.687  14.075  67.388  1.00  0.00    -0.278 OA 
BRANCH  13  14
HETATM   14  C   UNL     1     -11.860  14.045  66.576  1.00  0.00    -0.417 C  
BRANCH  14  15
HETATM   15  C   UNL     1     -12.103  12.629  66.064  1.00  0.00    -0.429 C  
BRANCH  15  16
HETATM   16  C   UNL     1     -10.811  11.975  65.566  1.00  0.00    -0.336 C  
BRANCH  16  17
HETATM   17  C   UNL     1     -10.220  10.900  66.497  1.00  0.00    -0.232 C  
BRANCH  17  18
HETATM   18  N   UNL     1     -11.215  10.014  67.115  1.00  0.00    -0.088 NA 
HETATM   19  C   UNL     1     -10.756   8.608  67.234  1.00  0.00    -0.139 C  
HETATM   20  C   UNL     1      -9.642   8.356  68.280  1.00  0.00    -0.144 C  
HETATM   21  N   UNL     1     -10.031   8.904  69.584  1.00  0.00    -0.186 NA 
HETATM   22  C   UNL     1     -11.578  10.488  68.478  1.00  0.00    -0.148 C  
HETATM   23  C   UNL     1     -10.481  10.305  69.561  1.00  0.00    -0.244 C  
BRANCH  21  24
HETATM   24  C   UNL     1      -9.533   8.354  70.770  1.00  0.00    -0.169 A  
HETATM   25  C   UNL     1     -10.200   7.380  71.590  1.00  0.00    -0.205 A  
HETATM   26  C   UNL     1     -11.381   6.576  71.362  1.00  0.00    -0.344 A  
HETATM   27  C   UNL     1     -11.742   5.793  72.431  1.00  0.00    -0.223 A  
HETATM   28  S   UNL     1     -10.648   5.945  73.719  1.00  0.00    -0.206 SA 
HETATM   29  C   UNL     1      -9.665   7.065  72.847  1.00  0.00    -0.161 A  
HETATM   30  C   UNL     1      -8.467   7.630  73.318  1.00  0.00    -0.208 A  
HETATM   31  C   UNL     1      -7.786   8.520  72.502  1.00  0.00    -0.088 A  
HETATM   32  C   UNL     1      -8.311   8.871  71.265  1.00  0.00    -0.223 A  
ENDBRANCH  21  24
ENDBRANCH  17  18
ENDBRANCH  16  17
ENDBRANCH  15  16
ENDBRANCH  14  15
ENDBRANCH  13  14
ENDBRANCH   7  13
TORSDOF 7
ENDMDL
MODEL      173
REMARK 921   NORMALIZED FREE ENERGY PREDICTED BY IDOCK:   -4.90 KCAL/MOL
REMARK 922        TOTAL FREE ENERGY PREDICTED BY IDOCK:   -8.21 KCAL/MOL
REMARK 923 INTER-LIGAND FREE ENERGY PREDICTED BY IDOCK:   -7.55 KCAL/MOL
REMARK 924 INTRA-LIGAND FREE ENERGY PREDICTED BY IDOCK:   -0.67 KCAL/MOL
REMARK 927      BINDING AFFINITY PREDICTED BY RF-SCORE:    0.00 PKD
ROOT
HETATM    1  O   UNL     1     -10.728  17.143  69.159  1.00  0.00    -0.301 OA 
HETATM    2  C   UNL     1     -10.999  15.963  68.962  1.00  0.00    -0.277 C  
HETATM    3  N   UNL     1     -11.478  15.145  69.948  1.00  0.00    -0.268 N  
HETATM    4  C   UNL     1     -11.765  13.787  69.753  1.00  0.00    -0.302 A  
HETATM    5  H   UNL     1     -11.635  15.544  70.873  1.00  0.00     0.000 HD 
HETATM    6  C   UNL     1     -12.233  13.013  70.814  1.00  0.00    -0.359 A  
HETATM    7  C   UNL     1     -12.493  11.654  70.620  1.00  0.00    -0.295 A  
HETATM    8  C   UNL     1     -10.819  15.359  67.619  1.00  0.00    -0.304 C  
HETATM    9  C   UNL     1     -12.279  11.086  69.357  1.00  0.00    -0.329 A  
HETATM   10  C   UNL     1     -11.085  14.067  67.393  1.00  0.00    -0.317 C  
HETATM   11  C   UNL     1     -11.819  11.866  68.293  1.00  0.00    -0.343 A  
HETATM   12  C   UNL     1     -11.564  13.222  68.486  1.00  0.00    -0.368 A  
ENDROOT
BRANCH   7  13
HETATM   13  O   UNL     1     -12.950  10.988  71.728  1.00  0.00    -0.455 OA 
BRANCH  13  14
HETATM   14  C   UNL     1     -13.459   9.677  71.483  1.00  0.00    -0.352 C  
BRANCH  14  15
HETATM   15  C   UNL     1     -12.581   8.639  72.175  1.00  0.00    -0.451 C  
BRANCH  15  16
HETATM   16  C   UNL     1     -11.339   8.302  71.345  1.00  0.00    -0.309 C  
BRANCH  16  17
HETATM   17  C   UNL     1     -10.441   7.196  71.929  1.00  0.00    -0.197 C  
BRANCH  17  18
HETATM   18  N   UNL     1     -10.369   5.976  71.115  1.00  0.00    -0.207 NA 
HETATM   19  C   UNL     1     -11.186   6.045  69.878  1.00  0.00    -0.368 C  
HETATM   20  C   UNL     1     -10.657   7.004  68.782  1.00  0.00    -0.212 C  
HETATM   21  N   UNL     1      -9.252   6.709  68.479  1.00  0.00    -0.128 NA 
HETATM   22  C   UNL     1      -8.966   5.683  70.713  1.00  0.00    -0.143 C  
HETATM   23  C   UNL     1      -8.364   6.642  69.650  1.00  0.00    -0.132 C  
BRANCH  21  24
HETATM   24  C   UNL     1      -8.717   6.989  67.217  1.00  0.00    -0.120 A  
HETATM   25  C   UNL     1      -8.335   8.287  66.735  1.00  0.00    -0.107 A  
HETATM   26  C   UNL     1      -8.190   9.560  67.407  1.00  0.00    -0.114 A  
HETATM   27  C   UNL     1      -7.858  10.601  66.575  1.00  0.00    -0.140 A  
HETATM   28  S   UNL     1      -7.648  10.081  64.973  1.00  0.00    -0.141 SA 
HETATM   29  C   UNL     1      -7.993   8.440  65.383  1.00  0.00    -0.122 A  
HETATM   30  C   UNL     1      -7.962   7.356  64.488  1.00  0.00    -0.122 A  
HETATM   31  C   UNL     1      -8.266   6.091  64.965  1.00  0.00    -0.136 A  
HETATM   32  C   UNL     1      -8.636   5.918  66.293  1.00  0.00    -0.132 A  
ENDBRANCH  21  24
ENDBRANCH  17  18
ENDBRANCH  16  17
ENDBRANCH  15  16
ENDBRANCH  14  15
ENDBRANCH  13  14
ENDBRANCH   7  13
TORSDOF 7
ENDMDL
MODEL      174
REMARK 921   NORMALIZED FREE ENERGY PREDICTED BY IDOCK:   -4.90 KCAL/MOL
REMARK 922        TOTAL FREE ENERGY PREDICTED BY IDOCK:   -8.21 KCAL/MOL
REMARK 923 INTER-LIGAND FREE ENERGY PREDICTED BY IDOCK:   -7.36 KCAL/MOL
REMARK 924 INTRA-LIGAND FREE ENERGY PREDICTED BY IDOCK:   -0.86 KCAL/MOL
REMARK 927      BINDING AFFINITY PREDICTED BY RF-SCORE:    0.00 PKD
ROOT
HETATM    1  O   UNL     1      -7.314   5.401  69.986  1.00  0.00    -0.064 OA 
HETATM    2  C   UNL     1      -7.257   6.501  69.447  1.00  0.00    -0.086 C  
HETATM    3  N   UNL     1      -8.062   6.847  68.397  1.00  0.00    -0.119 N  
HETATM    4  C   UNL     1      -7.992   8.086  67.746  1.00  0.00    -0.127 A  
HETATM    5  H   UNL     1      -8.749   6.167  68.070  1.00  0.00     0.000 HD 
HETATM    6  C   UNL     1      -8.835   8.358  66.669  1.00  0.00    -0.164 A  
HETATM    7  C   UNL     1      -8.743   9.585  66.008  1.00  0.00    -0.147 A  
HETATM    8  C   UNL     1      -6.296   7.527  69.921  1.00  0.00    -0.027 C  
HETATM    9  C   UNL     1      -7.802  10.530  66.440  1.00  0.00    -0.138 A  
HETATM   10  C   UNL     1      -6.202   8.723  69.327  1.00  0.00    -0.042 C  
HETATM   11  C   UNL     1      -6.965  10.259  67.525  1.00  0.00    -0.085 A  
HETATM   12  C   UNL     1      -7.060   9.037  68.186  1.00  0.00    -0.078 A  
ENDROOT
BRANCH   7  13
HETATM   13  O   UNL     1      -9.618   9.748  64.965  1.00  0.00    -0.276 OA 
BRANCH  13  14
HETATM   14  C   UNL     1      -9.464  10.959  64.225  1.00  0.00    -0.250 C  
BRANCH  14  15
HETATM   15  C   UNL     1     -10.617  11.118  63.239  1.00  0.00    -0.268 C  
BRANCH  15  16
HETATM   16  C   UNL     1     -11.500  12.321  63.585  1.00  0.00    -0.572 C  
BRANCH  16  17
HETATM   17  C   UNL     1     -11.440  12.776  65.054  1.00  0.00    -0.321 C  
BRANCH  17  18
HETATM   18  N   UNL     1     -12.311  13.915  65.375  1.00  0.00    -0.443 NA 
HETATM   19  C   UNL     1     -12.301  14.276  66.814  1.00  0.00    -0.245 C  
HETATM   20  C   UNL     1     -10.991  14.921  67.332  1.00  0.00    -0.314 C  
HETATM   21  N   UNL     1     -10.616  16.064  66.491  1.00  0.00    -0.305 NA 
HETATM   22  C   UNL     1     -11.913  15.125  64.604  1.00  0.00    -0.298 C  
HETATM   23  C   UNL     1     -10.581  15.788  65.046  1.00  0.00    -0.371 C  
BRANCH  21  24
HETATM   24  C   UNL     1      -9.869  17.124  67.015  1.00  0.00    -0.276 A  
HETATM   25  C   UNL     1      -8.567  17.019  67.614  1.00  0.00    -0.213 A  
HETATM   26  C   UNL     1      -7.616  15.930  67.666  1.00  0.00    -0.171 A  
HETATM   27  C   UNL     1      -6.487  16.205  68.399  1.00  0.00    -0.119 A  
HETATM   28  S   UNL     1      -6.498  17.793  68.997  1.00  0.00    -0.240 SA 
HETATM   29  C   UNL     1      -8.024  18.135  68.266  1.00  0.00    -0.295 A  
HETATM   30  C   UNL     1      -8.685  19.375  68.312  1.00  0.00    -0.376 A  
HETATM   31  C   UNL     1      -9.912  19.498  67.678  1.00  0.00    -0.498 A  
HETATM   32  C   UNL     1     -10.484  18.399  67.051  1.00  0.00    -0.429 A  
ENDBRANCH  21  24
ENDBRANCH  17  18
ENDBRANCH  16  17
ENDBRANCH  15  16
ENDBRANCH  14  15
ENDBRANCH  13  14
ENDBRANCH   7  13
TORSDOF 7
ENDMDL
MODEL      175
REMARK 921   NORMALIZED FREE ENERGY PREDICTED BY IDOCK:   -4.89 KCAL/MOL
REMARK 922        TOTAL FREE ENERGY PREDICTED BY IDOCK:   -8.20 KCAL/MOL
REMARK 923 INTER-LIGAND FREE ENERGY PREDICTED BY IDOCK:   -6.63 KCAL/MOL
REMARK 924 INTRA-LIGAND FREE ENERGY PREDICTED BY IDOCK:   -1.57 KCAL/MOL
REMARK 927      BINDING AFFINITY PREDICTED BY RF-SCORE:    0.00 PKD
ROOT
HETATM    1  O   UNL     1     -10.618   4.748  73.708  1.00  0.00    -0.218 OA 
HETATM    2  C   UNL     1     -10.759   5.129  72.552  1.00  0.00    -0.229 C  
HETATM    3  N   UNL     1     -10.012   4.634  71.519  1.00  0.00    -0.189 N  
HETATM    4  C   UNL     1     -10.135   5.078  70.194  1.00  0.00    -0.268 A  
HETATM    5  H   UNL     1      -9.329   3.905  71.722  1.00  0.00     0.000 HD 
HETATM    6  C   UNL     1      -9.323   4.537  69.199  1.00  0.00    -0.214 A  
HETATM    7  C   UNL     1      -9.432   5.001  67.886  1.00  0.00    -0.134 A  
HETATM    8  C   UNL     1     -11.768   6.163  72.213  1.00  0.00    -0.352 C  
HETATM    9  C   UNL     1     -10.361   6.007  67.587  1.00  0.00    -0.258 A  
HETATM   10  C   UNL     1     -11.918   6.609  70.960  1.00  0.00    -0.415 C  
HETATM   11  C   UNL     1     -11.180   6.541  68.584  1.00  0.00    -0.302 A  
HETATM   12  C   UNL     1     -11.074   6.075  69.893  1.00  0.00    -0.469 A  
ENDROOT
BRANCH   7  13
HETATM   13  O   UNL     1      -8.588   4.400  66.987  1.00  0.00    -0.104 OA 
BRANCH  13  14
HETATM   14  C   UNL     1      -7.315   4.020  67.508  1.00  0.00    -0.068 C  
BRANCH  14  15
HETATM   15  C   UNL     1      -6.212   4.819  66.823  1.00  0.00    -0.032 C  
BRANCH  15  16
HETATM   16  C   UNL     1      -6.781   5.853  65.847  1.00  0.00    -0.055 C  
BRANCH  16  17
HETATM   17  C   UNL     1      -6.295   7.297  66.064  1.00  0.00    -0.041 C  
BRANCH  17  18
HETATM   18  N   UNL     1      -6.735   8.250  65.037  1.00  0.00    -0.062 NA 
HETATM   19  C   UNL     1      -8.192   8.189  64.765  1.00  0.00    -0.133 C  
HETATM   20  C   UNL     1      -9.105   8.732  65.893  1.00  0.00    -0.218 C  
HETATM   21  N   UNL     1      -8.689  10.085  66.280  1.00  0.00    -0.135 NA 
HETATM   22  C   UNL     1      -6.407   9.648  65.428  1.00  0.00    -0.076 C  
HETATM   23  C   UNL     1      -7.258  10.231  66.588  1.00  0.00    -0.109 C  
BRANCH  21  24
HETATM   24  C   UNL     1      -9.611  10.993  66.812  1.00  0.00    -0.190 A  
HETATM   25  C   UNL     1     -10.264  10.878  68.087  1.00  0.00    -0.197 A  
HETATM   26  C   UNL     1     -10.038   9.993  69.208  1.00  0.00    -0.226 A  
HETATM   27  C   UNL     1     -10.928  10.158  70.242  1.00  0.00    -0.317 A  
HETATM   28  S   UNL     1     -12.023  11.417  69.933  1.00  0.00    -0.365 SA 
HETATM   29  C   UNL     1     -11.305  11.764  68.402  1.00  0.00    -0.270 A  
HETATM   30  C   UNL     1     -11.701  12.798  67.535  1.00  0.00    -0.422 A  
HETATM   31  C   UNL     1     -11.029  12.952  66.333  1.00  0.00    -0.310 A  
HETATM   32  C   UNL     1     -10.015  12.070  65.985  1.00  0.00    -0.258 A  
ENDBRANCH  21  24
ENDBRANCH  17  18
ENDBRANCH  16  17
ENDBRANCH  15  16
ENDBRANCH  14  15
ENDBRANCH  13  14
ENDBRANCH   7  13
TORSDOF 7
ENDMDL
MODEL      176
REMARK 921   NORMALIZED FREE ENERGY PREDICTED BY IDOCK:   -4.88 KCAL/MOL
REMARK 922        TOTAL FREE ENERGY PREDICTED BY IDOCK:   -8.18 KCAL/MOL
REMARK 923 INTER-LIGAND FREE ENERGY PREDICTED BY IDOCK:   -7.11 KCAL/MOL
REMARK 924 INTRA-LIGAND FREE ENERGY PREDICTED BY IDOCK:   -1.07 KCAL/MOL
REMARK 927      BINDING AFFINITY PREDICTED BY RF-SCORE:    0.00 PKD
ROOT
HETATM    1  O   UNL     1      -7.275   8.769  73.921  1.00  0.00    -0.379 OA 
HETATM    2  C   UNL     1      -8.072   8.097  73.277  1.00  0.00    -0.188 C  
HETATM    3  N   UNL     1      -7.678   7.238  72.288  1.00  0.00    -0.091 N  
HETATM    4  C   UNL     1      -8.574   6.484  71.518  1.00  0.00    -0.129 A  
HETATM    5  H   UNL     1      -6.680   7.142  72.101  1.00  0.00     0.000 HD 
HETATM    6  C   UNL     1      -8.096   5.644  70.513  1.00  0.00    -0.105 A  
HETATM    7  C   UNL     1      -8.995   4.914  69.732  1.00  0.00    -0.099 A  
HETATM    8  C   UNL     1      -9.529   8.184  73.547  1.00  0.00    -0.143 C  
HETATM    9  C   UNL     1     -10.370   5.036  69.971  1.00  0.00    -0.303 A  
HETATM   10  C   UNL     1     -10.415   7.476  72.836  1.00  0.00    -0.372 C  
HETATM   11  C   UNL     1     -10.847   5.872  70.984  1.00  0.00    -0.339 A  
HETATM   12  C   UNL     1      -9.949   6.597  71.766  1.00  0.00    -0.188 A  
ENDROOT
BRANCH   7  13
HETATM   13  O   UNL     1      -8.418   4.119  68.775  1.00  0.00    -0.081 OA 
BRANCH  13  14
HETATM   14  C   UNL     1      -9.269   3.764  67.685  1.00  0.00    -0.174 C  
BRANCH  14  15
HETATM   15  C   UNL     1      -8.774   4.421  66.401  1.00  0.00    -0.112 C  
BRANCH  15  16
HETATM   16  C   UNL     1      -7.589   5.356  66.662  1.00  0.00    -0.088 C  
BRANCH  16  17
HETATM   17  C   UNL     1      -7.955   6.839  66.856  1.00  0.00    -0.109 C  
BRANCH  17  18
HETATM   18  N   UNL     1      -9.143   7.276  66.110  1.00  0.00    -0.153 NA 
HETATM   19  C   UNL     1     -10.405   7.130  66.876  1.00  0.00    -0.279 C  
HETATM   20  C   UNL     1     -10.585   8.112  68.060  1.00  0.00    -0.126 C  
HETATM   21  N   UNL     1     -10.389   9.495  67.612  1.00  0.00    -0.228 NA 
HETATM   22  C   UNL     1      -9.024   8.704  65.706  1.00  0.00    -0.197 C  
HETATM   23  C   UNL     1      -9.148   9.735  66.860  1.00  0.00    -0.142 C  
BRANCH  21  24
HETATM   24  C   UNL     1     -11.020  10.557  68.268  1.00  0.00    -0.263 A  
HETATM   25  C   UNL     1     -11.300  11.848  67.701  1.00  0.00    -0.372 A  
HETATM   26  C   UNL     1     -11.225  12.340  66.343  1.00  0.00    -0.370 A  
HETATM   27  C   UNL     1     -11.522  13.675  66.212  1.00  0.00    -0.333 A  
HETATM   28  S   UNL     1     -11.960  14.369  67.697  1.00  0.00    -0.285 SA 
HETATM   29  C   UNL     1     -11.764  12.874  68.537  1.00  0.00    -0.339 A  
HETATM   30  C   UNL     1     -12.016  12.673  69.906  1.00  0.00    -0.365 A  
HETATM   31  C   UNL     1     -11.810  11.412  70.442  1.00  0.00    -0.428 A  
HETATM   32  C   UNL     1     -11.322  10.387  69.642  1.00  0.00    -0.333 A  
ENDBRANCH  21  24
ENDBRANCH  17  18
ENDBRANCH  16  17
ENDBRANCH  15  16
ENDBRANCH  14  15
ENDBRANCH  13  14
ENDBRANCH   7  13
TORSDOF 7
ENDMDL
MODEL      177
REMARK 921   NORMALIZED FREE ENERGY PREDICTED BY IDOCK:   -4.87 KCAL/MOL
REMARK 922        TOTAL FREE ENERGY PREDICTED BY IDOCK:   -8.17 KCAL/MOL
REMARK 923 INTER-LIGAND FREE ENERGY PREDICTED BY IDOCK:   -6.98 KCAL/MOL
REMARK 924 INTRA-LIGAND FREE ENERGY PREDICTED BY IDOCK:   -1.19 KCAL/MOL
REMARK 927      BINDING AFFINITY PREDICTED BY RF-SCORE:    0.00 PKD
ROOT
HETATM    1  O   UNL     1     -12.719  11.803  71.421  1.00  0.00    -0.372 OA 
HETATM    2  C   UNL     1     -12.571  10.592  71.540  1.00  0.00    -0.424 C  
HETATM    3  N   UNL     1     -11.358   9.981  71.377  1.00  0.00    -0.284 N  
HETATM    4  C   UNL     1     -11.172   8.595  71.477  1.00  0.00    -0.290 A  
HETATM    5  H   UNL     1     -10.547  10.564  71.170  1.00  0.00     0.000 HD 
HETATM    6  C   UNL     1      -9.906   8.045  71.278  1.00  0.00    -0.200 A  
HETATM    7  C   UNL     1      -9.731   6.661  71.354  1.00  0.00    -0.172 A  
HETATM    8  C   UNL     1     -13.722   9.717  71.876  1.00  0.00    -0.336 C  
HETATM    9  C   UNL     1     -10.835   5.843  71.631  1.00  0.00    -0.321 A  
HETATM   10  C   UNL     1     -13.582   8.390  71.984  1.00  0.00    -0.389 C  
HETATM   11  C   UNL     1     -12.100   6.397  71.839  1.00  0.00    -0.362 A  
HETATM   12  C   UNL     1     -12.273   7.778  71.768  1.00  0.00    -0.338 A  
ENDROOT
BRANCH   7  13
HETATM   13  O   UNL     1      -8.448   6.227  71.143  1.00  0.00    -0.123 OA 
BRANCH  13  14
HETATM   14  C   UNL     1      -8.179   5.735  69.830  1.00  0.00    -0.115 C  
BRANCH  14  15
HETATM   15  C   UNL     1      -7.175   6.643  69.129  1.00  0.00    -0.091 C  
BRANCH  15  16
HETATM   16  C   UNL     1      -7.864   7.627  68.179  1.00  0.00    -0.121 C  
BRANCH  16  17
HETATM   17  C   UNL     1      -7.019   8.849  67.775  1.00  0.00    -0.075 C  
BRANCH  17  18
HETATM   18  N   UNL     1      -7.013   9.937  68.761  1.00  0.00    -0.061 NA 
HETATM   19  C   UNL     1      -6.367  11.177  68.263  1.00  0.00    -0.049 C  
HETATM   20  C   UNL     1      -7.154  11.948  67.174  1.00  0.00    -0.142 C  
HETATM   21  N   UNL     1      -8.529  12.203  67.619  1.00  0.00    -0.153 NA 
HETATM   22  C   UNL     1      -8.398  10.287  69.180  1.00  0.00    -0.154 C  
HETATM   23  C   UNL     1      -9.252  11.020  68.111  1.00  0.00    -0.165 C  
BRANCH  21  24
HETATM   24  C   UNL     1      -9.244  13.305  67.141  1.00  0.00    -0.235 A  
HETATM   25  C   UNL     1      -9.145  14.651  67.636  1.00  0.00    -0.193 A  
HETATM   26  C   UNL     1      -8.209  15.275  68.546  1.00  0.00    -0.146 A  
HETATM   27  C   UNL     1      -8.488  16.592  68.823  1.00  0.00    -0.248 A  
HETATM   28  S   UNL     1      -9.840  17.142  67.957  1.00  0.00    -0.296 SA 
HETATM   29  C   UNL     1     -10.062  15.612  67.188  1.00  0.00    -0.256 A  
HETATM   30  C   UNL     1     -11.049  15.321  66.230  1.00  0.00    -0.273 A  
HETATM   31  C   UNL     1     -11.106  14.041  65.701  1.00  0.00    -0.302 A  
HETATM   32  C   UNL     1     -10.228  13.064  66.151  1.00  0.00    -0.288 A  
ENDBRANCH  21  24
ENDBRANCH  17  18
ENDBRANCH  16  17
ENDBRANCH  15  16
ENDBRANCH  14  15
ENDBRANCH  13  14
ENDBRANCH   7  13
TORSDOF 7
ENDMDL
MODEL      178
REMARK 921   NORMALIZED FREE ENERGY PREDICTED BY IDOCK:   -4.86 KCAL/MOL
REMARK 922        TOTAL FREE ENERGY PREDICTED BY IDOCK:   -8.16 KCAL/MOL
REMARK 923 INTER-LIGAND FREE ENERGY PREDICTED BY IDOCK:   -7.82 KCAL/MOL
REMARK 924 INTRA-LIGAND FREE ENERGY PREDICTED BY IDOCK:   -0.34 KCAL/MOL
REMARK 927      BINDING AFFINITY PREDICTED BY RF-SCORE:    0.00 PKD
ROOT
HETATM    1  O   UNL     1     -10.410   3.641  65.070  1.00  0.00    -0.081 OA 
HETATM    2  C   UNL     1      -9.956   4.450  65.872  1.00  0.00    -0.240 C  
HETATM    3  N   UNL     1      -9.645   5.735  65.522  1.00  0.00    -0.360 N  
HETATM    4  C   UNL     1      -9.097   6.667  66.414  1.00  0.00    -0.152 A  
HETATM    5  H   UNL     1      -9.821   6.031  64.562  1.00  0.00     0.000 HD 
HETATM    6  C   UNL     1      -8.789   7.955  65.976  1.00  0.00    -0.191 A  
HETATM    7  C   UNL     1      -8.219   8.871  66.863  1.00  0.00    -0.112 A  
HETATM    8  C   UNL     1      -9.723   4.066  67.286  1.00  0.00    -0.199 C  
HETATM    9  C   UNL     1      -7.965   8.483  68.185  1.00  0.00    -0.111 A  
HETATM   10  C   UNL     1      -9.204   4.929  68.168  1.00  0.00    -0.151 C  
HETATM   11  C   UNL     1      -8.283   7.195  68.624  1.00  0.00    -0.125 A  
HETATM   12  C   UNL     1      -8.856   6.282  67.740  1.00  0.00    -0.111 A  
ENDROOT
BRANCH   7  13
HETATM   13  O   UNL     1      -7.957  10.108  66.330  1.00  0.00    -0.112 OA 
BRANCH  13  14
HETATM   14  C   UNL     1      -8.868  10.540  65.320  1.00  0.00    -0.188 C  
BRANCH  14  15
HETATM   15  C   UNL     1      -9.503  11.866  65.724  1.00  0.00    -0.210 C  
BRANCH  15  16
HETATM   16  C   UNL     1     -10.994  11.911  65.379  1.00  0.00    -0.352 C  
BRANCH  16  17
HETATM   17  C   UNL     1     -11.418  13.064  64.451  1.00  0.00    -0.365 C  
BRANCH  17  18
HETATM   18  N   UNL     1     -12.368  14.011  65.049  1.00  0.00    -0.464 NA 
HETATM   19  C   UNL     1     -12.069  14.327  66.468  1.00  0.00    -0.429 C  
HETATM   20  C   UNL     1     -10.806  15.191  66.707  1.00  0.00    -0.322 C  
HETATM   21  N   UNL     1     -10.855  16.407  65.887  1.00  0.00    -0.182 NA 
HETATM   22  C   UNL     1     -12.390  15.294  64.296  1.00  0.00    -0.121 C  
HETATM   23  C   UNL     1     -11.128  16.183  64.458  1.00  0.00    -0.221 C  
BRANCH  21  24
HETATM   24  C   UNL     1     -10.200  17.574  66.294  1.00  0.00    -0.355 A  
HETATM   25  C   UNL     1      -9.089  17.640  67.204  1.00  0.00    -0.247 A  
HETATM   26  C   UNL     1      -8.239  16.611  67.762  1.00  0.00    -0.184 A  
HETATM   27  C   UNL     1      -7.307  17.076  68.657  1.00  0.00    -0.229 A  
HETATM   28  S   UNL     1      -7.376  18.765  68.814  1.00  0.00    -0.302 SA 
HETATM   29  C   UNL     1      -8.660  18.892  67.667  1.00  0.00    -0.280 A  
HETATM   30  C   UNL     1      -9.245  20.095  67.234  1.00  0.00    -0.504 A  
HETATM   31  C   UNL     1     -10.273  20.038  66.306  1.00  0.00    -0.595 A  
HETATM   32  C   UNL     1     -10.736  18.809  65.855  1.00  0.00    -0.323 A  
ENDBRANCH  21  24
ENDBRANCH  17  18
ENDBRANCH  16  17
ENDBRANCH  15  16
ENDBRANCH  14  15
ENDBRANCH  13  14
ENDBRANCH   7  13
TORSDOF 7
ENDMDL
MODEL      179
REMARK 921   NORMALIZED FREE ENERGY PREDICTED BY IDOCK:   -4.84 KCAL/MOL
REMARK 922        TOTAL FREE ENERGY PREDICTED BY IDOCK:   -8.13 KCAL/MOL
REMARK 923 INTER-LIGAND FREE ENERGY PREDICTED BY IDOCK:   -6.43 KCAL/MOL
REMARK 924 INTRA-LIGAND FREE ENERGY PREDICTED BY IDOCK:   -1.70 KCAL/MOL
REMARK 927      BINDING AFFINITY PREDICTED BY RF-SCORE:    0.00 PKD
ROOT
HETATM    1  O   UNL     1      -9.612  10.186  62.909  1.00  0.00    -0.300 OA 
HETATM    2  C   UNL     1     -10.032  10.542  64.004  1.00  0.00    -0.297 C  
HETATM    3  N   UNL     1      -9.808   9.823  65.146  1.00  0.00    -0.405 N  
HETATM    4  C   UNL     1     -10.304  10.195  66.403  1.00  0.00    -0.188 A  
HETATM    5  H   UNL     1      -9.252   8.971  65.079  1.00  0.00     0.000 HD 
HETATM    6  C   UNL     1     -10.049   9.398  67.518  1.00  0.00    -0.268 A  
HETATM    7  C   UNL     1     -10.568   9.761  68.764  1.00  0.00    -0.219 A  
HETATM    8  C   UNL     1     -10.814  11.796  64.145  1.00  0.00    -0.418 C  
HETATM    9  C   UNL     1     -11.339  10.926  68.875  1.00  0.00    -0.354 A  
HETATM   10  C   UNL     1     -11.301  12.186  65.329  1.00  0.00    -0.386 C  
HETATM   11  C   UNL     1     -11.586  11.727  67.758  1.00  0.00    -0.374 A  
HETATM   12  C   UNL     1     -11.065  11.368  66.516  1.00  0.00    -0.312 A  
ENDROOT
BRANCH   7  13
HETATM   13  O   UNL     1     -10.256   8.908  69.792  1.00  0.00    -0.190 OA 
BRANCH  13  14
HETATM   14  C   UNL     1      -8.918   8.412  69.786  1.00  0.00    -0.146 C  
BRANCH  14  15
HETATM   15  C   UNL     1      -8.098   9.112  70.864  1.00  0.00    -0.201 C  
BRANCH  15  16
HETATM   16  C   UNL     1      -6.685   9.448  70.377  1.00  0.00    -0.083 C  
BRANCH  16  17
HETATM   17  C   UNL     1      -6.603  10.017  68.949  1.00  0.00    -0.049 C  
BRANCH  17  18
HETATM   18  N   UNL     1      -5.499  10.962  68.733  1.00  0.00    -0.041 NA 
HETATM   19  C   UNL     1      -5.631  11.742  67.477  1.00  0.00    -0.079 C  
HETATM   20  C   UNL     1      -6.760  12.804  67.466  1.00  0.00    -0.154 C  
HETATM   21  N   UNL     1      -6.645  13.685  68.634  1.00  0.00    -0.089 NA 
HETATM   22  C   UNL     1      -5.398  11.932  69.858  1.00  0.00    -0.087 C  
HETATM   23  C   UNL     1      -6.530  12.992  69.927  1.00  0.00     0.043 C  
BRANCH  21  24
HETATM   24  C   UNL     1      -7.123  14.999  68.590  1.00  0.00    -0.109 A  
HETATM   25  C   UNL     1      -8.503  15.394  68.650  1.00  0.00    -0.170 A  
HETATM   26  C   UNL     1      -9.704  14.652  68.964  1.00  0.00    -0.161 A  
HETATM   27  C   UNL     1     -10.862  15.383  68.854  1.00  0.00    -0.251 A  
HETATM   28  S   UNL     1     -10.547  16.997  68.433  1.00  0.00    -0.371 SA 
HETATM   29  C   UNL     1      -8.841  16.732  68.402  1.00  0.00    -0.237 A  
HETATM   30  C   UNL     1      -7.872  17.718  68.146  1.00  0.00    -0.264 A  
HETATM   31  C   UNL     1      -6.534  17.353  68.152  1.00  0.00    -0.168 A  
HETATM   32  C   UNL     1      -6.176  16.028  68.365  1.00  0.00    -0.106 A  
ENDBRANCH  21  24
ENDBRANCH  17  18
ENDBRANCH  16  17
ENDBRANCH  15  16
ENDBRANCH  14  15
ENDBRANCH  13  14
ENDBRANCH   7  13
TORSDOF 7
ENDMDL
MODEL      180
REMARK 921   NORMALIZED FREE ENERGY PREDICTED BY IDOCK:   -4.83 KCAL/MOL
REMARK 922        TOTAL FREE ENERGY PREDICTED BY IDOCK:   -8.11 KCAL/MOL
REMARK 923 INTER-LIGAND FREE ENERGY PREDICTED BY IDOCK:   -7.82 KCAL/MOL
REMARK 924 INTRA-LIGAND FREE ENERGY PREDICTED BY IDOCK:   -0.29 KCAL/MOL
REMARK 927      BINDING AFFINITY PREDICTED BY RF-SCORE:    0.00 PKD
ROOT
HETATM    1  O   UNL     1     -10.763  17.480  68.795  1.00  0.00    -0.285 OA 
HETATM    2  C   UNL     1     -10.948  16.275  68.667  1.00  0.00    -0.340 C  
HETATM    3  N   UNL     1     -11.508  15.509  69.651  1.00  0.00    -0.303 N  
HETATM    4  C   UNL     1     -11.700  14.125  69.538  1.00  0.00    -0.312 A  
HETATM    5  H   UNL     1     -11.800  15.968  70.514  1.00  0.00     0.000 HD 
HETATM    6  C   UNL     1     -12.261  13.409  70.595  1.00  0.00    -0.427 A  
HETATM    7  C   UNL     1     -12.426  12.026  70.487  1.00  0.00    -0.207 A  
HETATM    8  C   UNL     1     -10.569  15.579  67.411  1.00  0.00    -0.292 C  
HETATM    9  C   UNL     1     -12.026  11.376  69.312  1.00  0.00    -0.400 A  
HETATM   10  C   UNL     1     -10.741  14.260  67.265  1.00  0.00    -0.277 C  
HETATM   11  C   UNL     1     -11.473  12.096  68.250  1.00  0.00    -0.360 A  
HETATM   12  C   UNL     1     -11.312  13.476  68.357  1.00  0.00    -0.327 A  
ENDROOT
BRANCH   7  13
HETATM   13  O   UNL     1     -12.987  11.422  71.583  1.00  0.00    -0.448 OA 
BRANCH  13  14
HETATM   14  C   UNL     1     -13.411  10.074  71.384  1.00  0.00    -0.347 C  
BRANCH  14  15
HETATM   15  C   UNL     1     -12.736   9.160  72.402  1.00  0.00    -0.410 C  
BRANCH  15  16
HETATM   16  C   UNL     1     -11.317   8.778  71.971  1.00  0.00    -0.441 C  
BRANCH  16  17
HETATM   17  C   UNL     1     -10.692   7.603  72.744  1.00  0.00    -0.345 C  
BRANCH  17  18
HETATM   18  N   UNL     1     -10.755   6.312  72.045  1.00  0.00    -0.220 NA 
HETATM   19  C   UNL     1     -11.626   6.336  70.844  1.00  0.00    -0.272 C  
HETATM   20  C   UNL     1     -11.081   7.146  69.641  1.00  0.00    -0.179 C  
HETATM   21  N   UNL     1      -9.720   6.713  69.306  1.00  0.00    -0.146 NA 
HETATM   22  C   UNL     1      -9.401   5.872  71.612  1.00  0.00    -0.149 C  
HETATM   23  C   UNL     1      -8.782   6.679  70.439  1.00  0.00    -0.151 C  
BRANCH  21  24
HETATM   24  C   UNL     1      -9.230   6.834  68.002  1.00  0.00    -0.117 A  
HETATM   25  C   UNL     1      -9.076   5.760  67.059  1.00  0.00    -0.114 A  
HETATM   26  C   UNL     1      -9.535   4.388  67.079  1.00  0.00    -0.194 A  
HETATM   27  C   UNL     1      -9.126   3.643  65.999  1.00  0.00    -0.155 A  
HETATM   28  S   UNL     1      -8.233   4.574  64.897  1.00  0.00    -0.111 SA 
HETATM   29  C   UNL     1      -8.394   5.999  65.857  1.00  0.00    -0.138 A  
HETATM   30  C   UNL     1      -7.897   7.269  65.515  1.00  0.00    -0.115 A  
HETATM   31  C   UNL     1      -8.102   8.322  66.392  1.00  0.00    -0.105 A  
HETATM   32  C   UNL     1      -8.749   8.104  67.602  1.00  0.00    -0.130 A  
ENDBRANCH  21  24
ENDBRANCH  17  18
ENDBRANCH  16  17
ENDBRANCH  15  16
ENDBRANCH  14  15
ENDBRANCH  13  14
ENDBRANCH   7  13
TORSDOF 7
ENDMDL
MODEL      181
REMARK 921   NORMALIZED FREE ENERGY PREDICTED BY IDOCK:   -4.82 KCAL/MOL
REMARK 922        TOTAL FREE ENERGY PREDICTED BY IDOCK:   -8.09 KCAL/MOL
REMARK 923 INTER-LIGAND FREE ENERGY PREDICTED BY IDOCK:   -5.85 KCAL/MOL
REMARK 924 INTRA-LIGAND FREE ENERGY PREDICTED BY IDOCK:   -2.24 KCAL/MOL
REMARK 927      BINDING AFFINITY PREDICTED BY RF-SCORE:    0.00 PKD
ROOT
HETATM    1  O   UNL     1      -8.086   9.025  71.829  1.00  0.00    -0.348 OA 
HETATM    2  C   UNL     1      -7.580   9.330  70.755  1.00  0.00    -0.133 C  
HETATM    3  N   UNL     1      -7.749  10.563  70.187  1.00  0.00    -0.277 N  
HETATM    4  C   UNL     1      -7.206  10.923  68.946  1.00  0.00    -0.095 A  
HETATM    5  H   UNL     1      -8.300  11.256  70.693  1.00  0.00     0.000 HD 
HETATM    6  C   UNL     1      -7.440  12.194  68.423  1.00  0.00    -0.114 A  
HETATM    7  C   UNL     1      -6.917  12.538  67.174  1.00  0.00    -0.055 A  
HETATM    8  C   UNL     1      -6.742   8.359  70.009  1.00  0.00    -0.042 C  
HETATM    9  C   UNL     1      -6.162  11.597  66.462  1.00  0.00    -0.011 A  
HETATM   10  C   UNL     1      -6.203   8.667  68.823  1.00  0.00    -0.045 C  
HETATM   11  C   UNL     1      -5.921  10.327  66.991  1.00  0.00    -0.051 A  
HETATM   12  C   UNL     1      -6.439   9.985  68.239  1.00  0.00    -0.054 A  
ENDROOT
BRANCH   7  13
HETATM   13  O   UNL     1      -7.206  13.812  66.757  1.00  0.00     0.345 OA 
BRANCH  13  14
HETATM   14  C   UNL     1      -8.159  14.513  67.555  1.00  0.00    -0.189 C  
BRANCH  14  15
HETATM   15  C   UNL     1      -8.580  15.800  66.854  1.00  0.00    -0.279 C  
BRANCH  15  16
HETATM   16  C   UNL     1     -10.081  15.817  66.549  1.00  0.00    -0.292 C  
BRANCH  16  17
HETATM   17  C   UNL     1     -10.962  15.052  67.553  1.00  0.00    -0.307 C  
BRANCH  17  18
HETATM   18  N   UNL     1     -11.954  14.160  66.938  1.00  0.00    -0.433 NA 
HETATM   19  C   UNL     1     -11.665  13.854  65.515  1.00  0.00    -0.349 C  
HETATM   20  C   UNL     1     -10.442  12.937  65.264  1.00  0.00    -0.296 C  
HETATM   21  N   UNL     1     -10.548  11.712  66.064  1.00  0.00    -0.250 NA 
HETATM   22  C   UNL     1     -12.035  12.867  67.670  1.00  0.00    -0.289 C  
HETATM   23  C   UNL     1     -10.814  11.924  67.495  1.00  0.00    -0.238 C  
BRANCH  21  24
HETATM   24  C   UNL     1      -9.945  10.523  65.638  1.00  0.00    -0.270 A  
HETATM   25  C   UNL     1      -9.830   9.316  66.410  1.00  0.00    -0.347 A  
HETATM   26  C   UNL     1     -10.430   8.913  67.662  1.00  0.00    -0.320 A  
HETATM   27  C   UNL     1     -10.017   7.683  68.114  1.00  0.00    -0.175 A  
HETATM   28  S   UNL     1      -8.946   6.943  67.025  1.00  0.00    -0.124 SA 
HETATM   29  C   UNL     1      -9.032   8.270  65.924  1.00  0.00    -0.163 A  
HETATM   30  C   UNL     1      -8.380   8.336  64.681  1.00  0.00    -0.115 A  
HETATM   31  C   UNL     1      -8.543   9.473  63.904  1.00  0.00    -0.226 A  
HETATM   32  C   UNL     1      -9.303  10.535  64.376  1.00  0.00    -0.307 A  
ENDBRANCH  21  24
ENDBRANCH  17  18
ENDBRANCH  16  17
ENDBRANCH  15  16
ENDBRANCH  14  15
ENDBRANCH  13  14
ENDBRANCH   7  13
TORSDOF 7
ENDMDL
MODEL      182
REMARK 921   NORMALIZED FREE ENERGY PREDICTED BY IDOCK:   -4.81 KCAL/MOL
REMARK 922        TOTAL FREE ENERGY PREDICTED BY IDOCK:   -8.09 KCAL/MOL
REMARK 923 INTER-LIGAND FREE ENERGY PREDICTED BY IDOCK:   -7.17 KCAL/MOL
REMARK 924 INTRA-LIGAND FREE ENERGY PREDICTED BY IDOCK:   -0.91 KCAL/MOL
REMARK 927      BINDING AFFINITY PREDICTED BY RF-SCORE:    0.00 PKD
ROOT
HETATM    1  O   UNL     1      -6.329   2.858  70.955  1.00  0.00    -0.018 OA 
HETATM    2  C   UNL     1      -7.232   3.523  70.459  1.00  0.00    -0.037 C  
HETATM    3  N   UNL     1      -8.237   4.071  71.207  1.00  0.00    -0.071 N  
HETATM    4  C   UNL     1      -9.295   4.808  70.657  1.00  0.00    -0.154 A  
HETATM    5  H   UNL     1      -8.215   3.937  72.218  1.00  0.00     0.000 HD 
HETATM    6  C   UNL     1     -10.294   5.319  71.485  1.00  0.00    -0.287 A  
HETATM    7  C   UNL     1     -11.360   6.030  70.928  1.00  0.00    -0.229 A  
HETATM    8  C   UNL     1      -7.275   3.769  68.996  1.00  0.00    -0.050 C  
HETATM    9  C   UNL     1     -11.410   6.221  69.541  1.00  0.00    -0.475 A  
HETATM   10  C   UNL     1      -8.267   4.471  68.435  1.00  0.00    -0.086 C  
HETATM   11  C   UNL     1     -10.403   5.715  68.714  1.00  0.00    -0.288 A  
HETATM   12  C   UNL     1      -9.338   5.009  69.270  1.00  0.00    -0.178 A  
ENDROOT
BRANCH   7  13
HETATM   13  O   UNL     1     -12.285   6.489  71.831  1.00  0.00    -0.343 OA 
BRANCH  13  14
HETATM   14  C   UNL     1     -12.991   7.664  71.435  1.00  0.00    -0.311 C  
BRANCH  14  15
HETATM   15  C   UNL     1     -12.773   8.773  72.458  1.00  0.00    -0.378 C  
BRANCH  15  16
HETATM   16  C   UNL     1     -13.314  10.118  71.962  1.00  0.00    -0.492 C  
BRANCH  16  17
HETATM   17  C   UNL     1     -12.999  10.450  70.493  1.00  0.00    -0.212 C  
BRANCH  17  18
HETATM   18  N   UNL     1     -11.779  11.244  70.295  1.00  0.00    -0.331 NA 
HETATM   19  C   UNL     1     -10.544  10.423  70.255  1.00  0.00    -0.123 C  
HETATM   20  C   UNL     1     -10.370   9.541  68.994  1.00  0.00    -0.206 C  
HETATM   21  N   UNL     1     -10.514  10.350  67.779  1.00  0.00    -0.209 NA 
HETATM   22  C   UNL     1     -11.847  12.021  69.027  1.00  0.00    -0.315 C  
HETATM   23  C   UNL     1     -11.726  11.183  67.726  1.00  0.00    -0.139 C  
BRANCH  21  24
HETATM   24  C   UNL     1      -9.872   9.982  66.591  1.00  0.00    -0.203 A  
HETATM   25  C   UNL     1      -9.970  10.672  65.334  1.00  0.00    -0.343 A  
HETATM   26  C   UNL     1     -10.529  11.959  64.983  1.00  0.00    -0.333 A  
HETATM   27  C   UNL     1     -10.484  12.244  63.640  1.00  0.00    -0.450 A  
HETATM   28  S   UNL     1      -9.715  11.011  62.763  1.00  0.00    -0.218 SA 
HETATM   29  C   UNL     1      -9.425  10.079  64.187  1.00  0.00    -0.252 A  
HETATM   30  C   UNL     1      -8.738   8.852  64.227  1.00  0.00    -0.095 A  
HETATM   31  C   UNL     1      -8.585   8.217  65.450  1.00  0.00    -0.154 A  
HETATM   32  C   UNL     1      -9.141   8.769  66.596  1.00  0.00    -0.196 A  
ENDBRANCH  21  24
ENDBRANCH  17  18
ENDBRANCH  16  17
ENDBRANCH  15  16
ENDBRANCH  14  15
ENDBRANCH  13  14
ENDBRANCH   7  13
TORSDOF 7
ENDMDL
MODEL      183
REMARK 921   NORMALIZED FREE ENERGY PREDICTED BY IDOCK:   -4.81 KCAL/MOL
REMARK 922        TOTAL FREE ENERGY PREDICTED BY IDOCK:   -8.09 KCAL/MOL
REMARK 923 INTER-LIGAND FREE ENERGY PREDICTED BY IDOCK:   -7.40 KCAL/MOL
REMARK 924 INTRA-LIGAND FREE ENERGY PREDICTED BY IDOCK:   -0.69 KCAL/MOL
REMARK 927      BINDING AFFINITY PREDICTED BY RF-SCORE:    0.00 PKD
ROOT
HETATM    1  O   UNL     1      -5.457  19.773  65.162  1.00  0.00    -0.159 OA 
HETATM    2  C   UNL     1      -6.184  19.234  65.990  1.00  0.00    -0.184 C  
HETATM    3  N   UNL     1      -7.192  18.380  65.636  1.00  0.00    -0.181 N  
HETATM    4  C   UNL     1      -8.054  17.777  66.563  1.00  0.00    -0.272 A  
HETATM    5  H   UNL     1      -7.324  18.172  64.647  1.00  0.00     0.000 HD 
HETATM    6  C   UNL     1      -9.072  16.933  66.122  1.00  0.00    -0.265 A  
HETATM    7  C   UNL     1      -9.944  16.355  67.048  1.00  0.00    -0.261 A  
HETATM    8  C   UNL     1      -5.997  19.485  67.440  1.00  0.00    -0.199 C  
HETATM    9  C   UNL     1      -9.782  16.633  68.412  1.00  0.00    -0.243 A  
HETATM   10  C   UNL     1      -6.798  18.925  68.355  1.00  0.00    -0.276 C  
HETATM   11  C   UNL     1      -8.756  17.473  68.852  1.00  0.00    -0.135 A  
HETATM   12  C   UNL     1      -7.884  18.046  67.928  1.00  0.00    -0.235 A  
ENDROOT
BRANCH   7  13
HETATM   13  O   UNL     1     -10.907  15.541  66.508  1.00  0.00    -0.313 OA 
BRANCH  13  14
HETATM   14  C   UNL     1     -10.469  14.227  66.162  1.00  0.00    -0.292 C  
BRANCH  14  15
HETATM   15  C   UNL     1     -10.413  13.352  67.409  1.00  0.00    -0.243 C  
BRANCH  15  16
HETATM   16  C   UNL     1     -11.789  13.208  68.066  1.00  0.00    -0.398 C  
BRANCH  16  17
HETATM   17  C   UNL     1     -11.824  12.330  69.329  1.00  0.00    -0.306 C  
BRANCH  17  18
HETATM   18  N   UNL     1     -12.223  10.936  69.092  1.00  0.00    -0.428 NA 
HETATM   19  C   UNL     1     -11.114  10.084  68.595  1.00  0.00    -0.174 C  
HETATM   20  C   UNL     1     -10.005   9.763  69.628  1.00  0.00    -0.223 C  
HETATM   21  N   UNL     1     -10.593   9.214  70.855  1.00  0.00    -0.248 NA 
HETATM   22  C   UNL     1     -12.750  10.312  70.336  1.00  0.00    -0.175 C  
HETATM   23  C   UNL     1     -11.690  10.009  71.429  1.00  0.00    -0.334 C  
BRANCH  21  24
HETATM   24  C   UNL     1      -9.863   8.346  71.673  1.00  0.00    -0.221 A  
HETATM   25  C   UNL     1     -10.376   7.169  72.319  1.00  0.00    -0.226 A  
HETATM   26  C   UNL     1     -11.626   6.456  72.170  1.00  0.00    -0.357 A  
HETATM   27  C   UNL     1     -11.771   5.391  73.025  1.00  0.00    -0.124 A  
HETATM   28  S   UNL     1     -10.393   5.169  73.991  1.00  0.00    -0.283 SA 
HETATM   29  C   UNL     1      -9.577   6.504  73.261  1.00  0.00    -0.154 A  
HETATM   30  C   UNL     1      -8.267   6.917  73.562  1.00  0.00    -0.121 A  
HETATM   31  C   UNL     1      -7.746   8.013  72.892  1.00  0.00    -0.177 A  
HETATM   32  C   UNL     1      -8.527   8.706  71.977  1.00  0.00    -0.191 A  
ENDBRANCH  21  24
ENDBRANCH  17  18
ENDBRANCH  16  17
ENDBRANCH  15  16
ENDBRANCH  14  15
ENDBRANCH  13  14
ENDBRANCH   7  13
TORSDOF 7
ENDMDL
MODEL      184
REMARK 921   NORMALIZED FREE ENERGY PREDICTED BY IDOCK:   -4.81 KCAL/MOL
REMARK 922        TOTAL FREE ENERGY PREDICTED BY IDOCK:   -8.08 KCAL/MOL
REMARK 923 INTER-LIGAND FREE ENERGY PREDICTED BY IDOCK:   -6.91 KCAL/MOL
REMARK 924 INTRA-LIGAND FREE ENERGY PREDICTED BY IDOCK:   -1.17 KCAL/MOL
REMARK 927      BINDING AFFINITY PREDICTED BY RF-SCORE:    0.00 PKD
ROOT
HETATM    1  O   UNL     1      -9.866   4.046  73.047  1.00  0.00    -0.125 OA 
HETATM    2  C   UNL     1     -10.168   4.619  72.006  1.00  0.00    -0.190 C  
HETATM    3  N   UNL     1      -9.579   4.324  70.807  1.00  0.00    -0.171 N  
HETATM    4  C   UNL     1      -9.887   4.987  69.611  1.00  0.00    -0.220 A  
HETATM    5  H   UNL     1      -8.878   3.584  70.783  1.00  0.00     0.000 HD 
HETATM    6  C   UNL     1      -9.228   4.642  68.432  1.00  0.00    -0.170 A  
HETATM    7  C   UNL     1      -9.521   5.324  67.248  1.00  0.00    -0.127 A  
HETATM    8  C   UNL     1     -11.211   5.675  71.997  1.00  0.00    -0.271 C  
HETATM    9  C   UNL     1     -10.478   6.347  67.263  1.00  0.00    -0.326 A  
HETATM   10  C   UNL     1     -11.535   6.327  70.875  1.00  0.00    -0.377 C  
HETATM   11  C   UNL     1     -11.144   6.685  68.444  1.00  0.00    -0.281 A  
HETATM   12  C   UNL     1     -10.854   6.002  69.623  1.00  0.00    -0.439 A  
ENDROOT
BRANCH   7  13
HETATM   13  O   UNL     1      -8.816   4.904  66.149  1.00  0.00    -0.118 OA 
BRANCH  13  14
HETATM   14  C   UNL     1      -7.541   4.326  66.427  1.00  0.00    -0.089 C  
BRANCH  14  15
HETATM   15  C   UNL     1      -6.432   5.297  66.037  1.00  0.00    -0.040 C  
BRANCH  15  16
HETATM   16  C   UNL     1      -6.977   6.503  65.266  1.00  0.00    -0.052 C  
BRANCH  16  17
HETATM   17  C   UNL     1      -6.649   7.876  65.879  1.00  0.00    -0.049 C  
BRANCH  17  18
HETATM   18  N   UNL     1      -6.896   9.016  64.988  1.00  0.00    -0.076 NA 
HETATM   19  C   UNL     1      -8.263   9.026  64.411  1.00  0.00    -0.165 C  
HETATM   20  C   UNL     1      -9.406   9.346  65.407  1.00  0.00    -0.247 C  
HETATM   21  N   UNL     1      -9.121  10.592  66.129  1.00  0.00    -0.158 NA 
HETATM   22  C   UNL     1      -6.699  10.307  65.704  1.00  0.00    -0.122 C  
HETATM   23  C   UNL     1      -7.789  10.660  66.751  1.00  0.00    -0.126 C  
BRANCH  21  24
HETATM   24  C   UNL     1     -10.160  11.388  66.623  1.00  0.00    -0.212 A  
HETATM   25  C   UNL     1     -10.995  12.259  65.842  1.00  0.00    -0.338 A  
HETATM   26  C   UNL     1     -11.158  12.411  64.413  1.00  0.00    -0.381 A  
HETATM   27  C   UNL     1     -12.025  13.412  64.050  1.00  0.00    -0.464 A  
HETATM   28  S   UNL     1     -12.722  14.161  65.404  1.00  0.00    -0.323 SA 
HETATM   29  C   UNL     1     -11.868  13.137  66.501  1.00  0.00    -0.400 A  
HETATM   30  C   UNL     1     -11.994  13.163  67.901  1.00  0.00    -0.347 A  
HETATM   31  C   UNL     1     -11.238  12.278  68.653  1.00  0.00    -0.305 A  
HETATM   32  C   UNL     1     -10.345  11.419  68.026  1.00  0.00    -0.204 A  
ENDBRANCH  21  24
ENDBRANCH  17  18
ENDBRANCH  16  17
ENDBRANCH  15  16
ENDBRANCH  14  15
ENDBRANCH  13  14
ENDBRANCH   7  13
TORSDOF 7
ENDMDL
MODEL      185
REMARK 921   NORMALIZED FREE ENERGY PREDICTED BY IDOCK:   -4.80 KCAL/MOL
REMARK 922        TOTAL FREE ENERGY PREDICTED BY IDOCK:   -8.07 KCAL/MOL
REMARK 923 INTER-LIGAND FREE ENERGY PREDICTED BY IDOCK:   -7.32 KCAL/MOL
REMARK 924 INTRA-LIGAND FREE ENERGY PREDICTED BY IDOCK:   -0.75 KCAL/MOL
REMARK 927      BINDING AFFINITY PREDICTED BY RF-SCORE:    0.00 PKD
ROOT
HETATM    1  O   UNL     1      -9.823   3.572  63.792  1.00  0.00    -0.141 OA 
HETATM    2  C   UNL     1      -9.488   4.020  64.883  1.00  0.00    -0.171 C  
HETATM    3  N   UNL     1      -9.537   5.354  65.175  1.00  0.00    -0.352 N  
HETATM    4  C   UNL     1      -9.129   5.892  66.404  1.00  0.00    -0.149 A  
HETATM    5  H   UNL     1      -9.888   5.993  64.461  1.00  0.00     0.000 HD 
HETATM    6  C   UNL     1      -9.191   7.268  66.619  1.00  0.00    -0.193 A  
HETATM    7  C   UNL     1      -8.760   7.800  67.837  1.00  0.00    -0.124 A  
HETATM    8  C   UNL     1      -9.007   3.116  65.957  1.00  0.00    -0.146 C  
HETATM    9  C   UNL     1      -8.270   6.939  68.828  1.00  0.00    -0.121 A  
HETATM   10  C   UNL     1      -8.614   3.591  67.145  1.00  0.00    -0.117 C  
HETATM   11  C   UNL     1      -8.217   5.560  68.614  1.00  0.00    -0.102 A  
HETATM   12  C   UNL     1      -8.652   5.029  67.400  1.00  0.00    -0.104 A  
ENDROOT
BRANCH   7  13
HETATM   13  O   UNL     1      -8.865   9.163  67.943  1.00  0.00    -0.128 OA 
BRANCH  13  14
HETATM   14  C   UNL     1      -9.982   9.742  67.268  1.00  0.00    -0.191 C  
BRANCH  14  15
HETATM   15  C   UNL     1     -10.893  10.440  68.272  1.00  0.00    -0.299 C  
BRANCH  15  16
HETATM   16  C   UNL     1     -11.867  11.401  67.584  1.00  0.00    -0.157 C  
BRANCH  16  17
HETATM   17  C   UNL     1     -11.559  12.897  67.777  1.00  0.00    -0.343 C  
BRANCH  17  18
HETATM   18  N   UNL     1     -10.128  13.217  67.870  1.00  0.00    -0.229 NA 
HETATM   19  C   UNL     1      -9.543  13.674  66.585  1.00  0.00    -0.283 C  
HETATM   20  C   UNL     1      -9.994  15.077  66.108  1.00  0.00    -0.291 C  
HETATM   21  N   UNL     1      -9.791  16.069  67.170  1.00  0.00    -0.233 NA 
HETATM   22  C   UNL     1      -9.884  14.283  68.881  1.00  0.00    -0.137 C  
HETATM   23  C   UNL     1     -10.359  15.705  68.478  1.00  0.00    -0.219 C  
BRANCH  21  24
HETATM   24  C   UNL     1      -9.566  17.414  66.861  1.00  0.00    -0.277 A  
HETATM   25  C   UNL     1      -8.303  17.991  66.491  1.00  0.00    -0.293 A  
HETATM   26  C   UNL     1      -7.035  17.390  66.141  1.00  0.00    -0.298 A  
HETATM   27  C   UNL     1      -6.030  18.296  65.902  1.00  0.00    -0.212 A  
HETATM   28  S   UNL     1      -6.584  19.895  66.027  1.00  0.00    -0.246 SA 
HETATM   29  C   UNL     1      -8.192  19.386  66.396  1.00  0.00    -0.325 A  
HETATM   30  C   UNL     1      -9.287  20.244  66.601  1.00  0.00    -0.460 A  
HETATM   31  C   UNL     1     -10.522  19.687  66.894  1.00  0.00    -0.606 A  
HETATM   32  C   UNL     1     -10.651  18.310  67.022  1.00  0.00    -0.375 A  
ENDBRANCH  21  24
ENDBRANCH  17  18
ENDBRANCH  16  17
ENDBRANCH  15  16
ENDBRANCH  14  15
ENDBRANCH  13  14
ENDBRANCH   7  13
TORSDOF 7
ENDMDL
MODEL      186
REMARK 921   NORMALIZED FREE ENERGY PREDICTED BY IDOCK:   -4.77 KCAL/MOL
REMARK 922        TOTAL FREE ENERGY PREDICTED BY IDOCK:   -8.02 KCAL/MOL
REMARK 923 INTER-LIGAND FREE ENERGY PREDICTED BY IDOCK:   -6.86 KCAL/MOL
REMARK 924 INTRA-LIGAND FREE ENERGY PREDICTED BY IDOCK:   -1.17 KCAL/MOL
REMARK 927      BINDING AFFINITY PREDICTED BY RF-SCORE:    0.00 PKD
ROOT
HETATM    1  O   UNL     1      -8.209   8.966  63.229  1.00  0.00    -0.167 OA 
HETATM    2  C   UNL     1      -8.053   8.008  63.978  1.00  0.00    -0.102 C  
HETATM    3  N   UNL     1      -8.898   7.746  65.020  1.00  0.00    -0.375 N  
HETATM    4  C   UNL     1      -8.721   6.675  65.908  1.00  0.00    -0.137 A  
HETATM    5  H   UNL     1      -9.699   8.361  65.160  1.00  0.00     0.000 HD 
HETATM    6  C   UNL     1      -9.616   6.485  66.960  1.00  0.00    -0.174 A  
HETATM    7  C   UNL     1      -9.420   5.431  67.856  1.00  0.00    -0.120 A  
HETATM    8  C   UNL     1      -6.919   7.070  63.783  1.00  0.00    -0.057 C  
HETATM    9  C   UNL     1      -8.322   4.577  67.684  1.00  0.00    -0.099 A  
HETATM   10  C   UNL     1      -6.719   6.035  64.607  1.00  0.00    -0.046 C  
HETATM   11  C   UNL     1      -7.431   4.765  66.625  1.00  0.00    -0.086 A  
HETATM   12  C   UNL     1      -7.630   5.813  65.728  1.00  0.00    -0.090 A  
ENDROOT
BRANCH   7  13
HETATM   13  O   UNL     1     -10.359   5.335  68.851  1.00  0.00    -0.200 OA 
BRANCH  13  14
HETATM   14  C   UNL     1      -9.835   5.160  70.167  1.00  0.00    -0.230 C  
BRANCH  14  15
HETATM   15  C   UNL     1      -9.520   6.517  70.787  1.00  0.00    -0.180 C  
BRANCH  15  16
HETATM   16  C   UNL     1     -10.739   7.445  70.774  1.00  0.00    -0.245 C  
BRANCH  16  17
HETATM   17  C   UNL     1     -10.730   8.524  69.676  1.00  0.00    -0.197 C  
BRANCH  17  18
HETATM   18  N   UNL     1     -10.241   9.837  70.117  1.00  0.00    -0.261 NA 
HETATM   19  C   UNL     1      -9.160  10.380  69.257  1.00  0.00    -0.175 C  
HETATM   20  C   UNL     1      -9.597  10.835  67.842  1.00  0.00    -0.160 C  
HETATM   21  N   UNL     1     -10.728  11.765  67.930  1.00  0.00    -0.197 NA 
HETATM   22  C   UNL     1     -11.343  10.837  70.141  1.00  0.00    -0.309 C  
HETATM   23  C   UNL     1     -11.857  11.296  68.750  1.00  0.00    -0.329 C  
BRANCH  21  24
HETATM   24  C   UNL     1     -10.943  12.729  66.939  1.00  0.00    -0.260 A  
HETATM   25  C   UNL     1     -10.251  13.983  66.824  1.00  0.00    -0.264 A  
HETATM   26  C   UNL     1      -9.081  14.503  67.496  1.00  0.00    -0.193 A  
HETATM   27  C   UNL     1      -8.759  15.792  67.148  1.00  0.00    -0.205 A  
HETATM   28  S   UNL     1      -9.807  16.402  65.961  1.00  0.00    -0.327 SA 
HETATM   29  C   UNL     1     -10.705  14.929  65.894  1.00  0.00    -0.323 A  
HETATM   30  C   UNL     1     -11.785  14.676  65.030  1.00  0.00    -0.385 A  
HETATM   31  C   UNL     1     -12.413  13.442  65.093  1.00  0.00    -0.509 A  
HETATM   32  C   UNL     1     -12.000  12.500  66.026  1.00  0.00    -0.456 A  
ENDBRANCH  21  24
ENDBRANCH  17  18
ENDBRANCH  16  17
ENDBRANCH  15  16
ENDBRANCH  14  15
ENDBRANCH  13  14
ENDBRANCH   7  13
TORSDOF 7
ENDMDL
MODEL      187
REMARK 921   NORMALIZED FREE ENERGY PREDICTED BY IDOCK:   -4.76 KCAL/MOL
REMARK 922        TOTAL FREE ENERGY PREDICTED BY IDOCK:   -8.02 KCAL/MOL
REMARK 923 INTER-LIGAND FREE ENERGY PREDICTED BY IDOCK:   -7.28 KCAL/MOL
REMARK 924 INTRA-LIGAND FREE ENERGY PREDICTED BY IDOCK:   -0.74 KCAL/MOL
REMARK 927      BINDING AFFINITY PREDICTED BY RF-SCORE:    0.00 PKD
ROOT
HETATM    1  O   UNL     1     -11.363  16.849  64.082  1.00  0.00    -1.208 OA 
HETATM    2  C   UNL     1     -10.958  16.526  65.193  1.00  0.00    -0.191 C  
HETATM    3  N   UNL     1     -11.073  15.251  65.675  1.00  0.00    -0.329 N  
HETATM    4  C   UNL     1     -10.646  14.866  66.953  1.00  0.00    -0.300 A  
HETATM    5  H   UNL     1     -11.493  14.543  65.072  1.00  0.00     0.000 HD 
HETATM    6  C   UNL     1     -10.816  13.550  67.380  1.00  0.00    -0.279 A  
HETATM    7  C   UNL     1     -10.412  13.179  68.664  1.00  0.00    -0.227 A  
HETATM    8  C   UNL     1     -10.309  17.521  66.082  1.00  0.00    -0.330 C  
HETATM    9  C   UNL     1      -9.838  14.139  69.509  1.00  0.00     0.423 A  
HETATM   10  C   UNL     1      -9.885  17.191  67.308  1.00  0.00    -0.265 C  
HETATM   11  C   UNL     1      -9.660  15.455  69.077  1.00  0.00    -0.236 A  
HETATM   12  C   UNL     1     -10.060  15.824  67.793  1.00  0.00    -0.238 A  
ENDROOT
BRANCH   7  13
HETATM   13  O   UNL     1     -10.624  11.861  68.981  1.00  0.00    -0.196 OA 
BRANCH  13  14
HETATM   14  C   UNL     1     -11.993  11.480  69.113  1.00  0.00    -0.320 C  
BRANCH  14  15
HETATM   15  C   UNL     1     -12.339  11.284  70.585  1.00  0.00    -0.477 C  
BRANCH  15  16
HETATM   16  C   UNL     1     -12.327   9.805  70.981  1.00  0.00    -0.422 C  
BRANCH  16  17
HETATM   17  C   UNL     1     -10.988   9.287  71.539  1.00  0.00    -0.375 C  
BRANCH  17  18
HETATM   18  N   UNL     1     -11.007   7.879  71.958  1.00  0.00    -0.257 NA 
HETATM   19  C   UNL     1     -11.747   6.997  71.022  1.00  0.00    -0.333 C  
HETATM   20  C   UNL     1     -11.063   6.751  69.654  1.00  0.00    -0.292 C  
HETATM   21  N   UNL     1      -9.684   6.289  69.847  1.00  0.00    -0.165 NA 
HETATM   22  C   UNL     1      -9.624   7.342  72.086  1.00  0.00    -0.146 C  
HETATM   23  C   UNL     1      -8.869   7.120  70.747  1.00  0.00    -0.148 C  
BRANCH  21  24
HETATM   24  C   UNL     1      -9.058   5.481  68.891  1.00  0.00    -0.118 A  
HETATM   25  C   UNL     1      -8.890   4.057  68.975  1.00  0.00    -0.146 A  
HETATM   26  C   UNL     1      -9.448   3.073  69.876  1.00  0.00    -0.189 A  
HETATM   27  C   UNL     1      -8.989   1.795  69.667  1.00  0.00    -0.087 A  
HETATM   28  S   UNL     1      -7.924   1.719  68.348  1.00  0.00    -0.056 SA 
HETATM   29  C   UNL     1      -8.075   3.410  68.034  1.00  0.00    -0.078 A  
HETATM   30  C   UNL     1      -7.455   4.098  66.977  1.00  0.00    -0.077 A  
HETATM   31  C   UNL     1      -7.669   5.461  66.854  1.00  0.00    -0.100 A  
HETATM   32  C   UNL     1      -8.448   6.130  67.790  1.00  0.00    -0.115 A  
ENDBRANCH  21  24
ENDBRANCH  17  18
ENDBRANCH  16  17
ENDBRANCH  15  16
ENDBRANCH  14  15
ENDBRANCH  13  14
ENDBRANCH   7  13
TORSDOF 7
ENDMDL
MODEL      188
REMARK 921   NORMALIZED FREE ENERGY PREDICTED BY IDOCK:   -4.74 KCAL/MOL
REMARK 922        TOTAL FREE ENERGY PREDICTED BY IDOCK:   -7.98 KCAL/MOL
REMARK 923 INTER-LIGAND FREE ENERGY PREDICTED BY IDOCK:   -6.00 KCAL/MOL
REMARK 924 INTRA-LIGAND FREE ENERGY PREDICTED BY IDOCK:   -1.98 KCAL/MOL
REMARK 927      BINDING AFFINITY PREDICTED BY RF-SCORE:    0.00 PKD
ROOT
HETATM    1  O   UNL     1     -10.826   4.653  65.680  1.00  0.00    -0.292 OA 
HETATM    2  C   UNL     1      -9.795   5.023  66.230  1.00  0.00    -0.200 C  
HETATM    3  N   UNL     1      -9.530   4.759  67.546  1.00  0.00    -0.138 N  
HETATM    4  C   UNL     1      -8.373   5.198  68.203  1.00  0.00    -0.097 A  
HETATM    5  H   UNL     1     -10.210   4.214  68.076  1.00  0.00     0.000 HD 
HETATM    6  C   UNL     1      -8.183   4.905  69.553  1.00  0.00    -0.084 A  
HETATM    7  C   UNL     1      -7.040   5.368  70.210  1.00  0.00    -0.062 A  
HETATM    8  C   UNL     1      -8.767   5.785  65.480  1.00  0.00    -0.141 C  
HETATM    9  C   UNL     1      -6.096   6.122  69.499  1.00  0.00    -0.029 A  
HETATM   10  C   UNL     1      -7.648   6.219  66.072  1.00  0.00    -0.087 C  
HETATM   11  C   UNL     1      -6.284   6.407  68.145  1.00  0.00    -0.032 A  
HETATM   12  C   UNL     1      -7.423   5.942  67.489  1.00  0.00    -0.078 A  
ENDROOT
BRANCH   7  13
HETATM   13  O   UNL     1      -6.952   5.022  71.534  1.00  0.00    -0.049 OA 
BRANCH  13  14
HETATM   14  C   UNL     1      -8.036   4.238  72.031  1.00  0.00    -0.094 C  
BRANCH  14  15
HETATM   15  C   UNL     1      -8.448   4.734  73.413  1.00  0.00    -0.102 C  
BRANCH  15  16
HETATM   16  C   UNL     1      -9.382   5.945  73.327  1.00  0.00    -0.135 C  
BRANCH  16  17
HETATM   17  C   UNL     1     -10.644   5.740  72.469  1.00  0.00    -0.221 C  
BRANCH  17  18
HETATM   18  N   UNL     1     -11.543   6.900  72.422  1.00  0.00    -0.262 NA 
HETATM   19  C   UNL     1     -10.829   8.200  72.462  1.00  0.00    -0.361 C  
HETATM   20  C   UNL     1     -10.029   8.562  71.187  1.00  0.00    -0.207 C  
HETATM   21  N   UNL     1     -10.885   8.459  69.999  1.00  0.00    -0.240 NA 
HETATM   22  C   UNL     1     -12.375   6.881  71.188  1.00  0.00    -0.370 C  
HETATM   23  C   UNL     1     -11.617   7.190  69.869  1.00  0.00    -0.055 C  
BRANCH  21  24
HETATM   24  C   UNL     1     -10.631   9.235  68.863  1.00  0.00    -0.199 A  
HETATM   25  C   UNL     1     -11.056  10.593  68.660  1.00  0.00    -0.315 A  
HETATM   26  C   UNL     1     -11.633  11.566  69.561  1.00  0.00    -0.400 A  
HETATM   27  C   UNL     1     -11.964  12.758  68.964  1.00  0.00    -0.242 A  
HETATM   28  S   UNL     1     -11.539  12.776  67.321  1.00  0.00    -0.373 SA 
HETATM   29  C   UNL     1     -10.893  11.177  67.396  1.00  0.00    -0.266 A  
HETATM   30  C   UNL     1     -10.281  10.498  66.327  1.00  0.00    -0.296 A  
HETATM   31  C   UNL     1      -9.810   9.212  66.538  1.00  0.00    -0.333 A  
HETATM   32  C   UNL     1      -9.986   8.601  67.773  1.00  0.00    -0.240 A  
ENDBRANCH  21  24
ENDBRANCH  17  18
ENDBRANCH  16  17
ENDBRANCH  15  16
ENDBRANCH  14  15
ENDBRANCH  13  14
ENDBRANCH   7  13
TORSDOF 7
ENDMDL
MODEL      189
REMARK 921   NORMALIZED FREE ENERGY PREDICTED BY IDOCK:   -4.71 KCAL/MOL
REMARK 922        TOTAL FREE ENERGY PREDICTED BY IDOCK:   -7.94 KCAL/MOL
REMARK 923 INTER-LIGAND FREE ENERGY PREDICTED BY IDOCK:   -6.74 KCAL/MOL
REMARK 924 INTRA-LIGAND FREE ENERGY PREDICTED BY IDOCK:   -1.19 KCAL/MOL
REMARK 927      BINDING AFFINITY PREDICTED BY RF-SCORE:    0.00 PKD
ROOT
HETATM    1  O   UNL     1      -8.211   5.928  65.898  1.00  0.00    -0.115 OA 
HETATM    2  C   UNL     1      -8.569   7.095  65.786  1.00  0.00    -0.133 C  
HETATM    3  N   UNL     1      -9.433   7.687  66.664  1.00  0.00    -0.188 N  
HETATM    4  C   UNL     1      -9.879   9.010  66.537  1.00  0.00    -0.268 A  
HETATM    5  H   UNL     1      -9.771   7.137  67.454  1.00  0.00     0.000 HD 
HETATM    6  C   UNL     1     -10.777   9.537  67.465  1.00  0.00    -0.311 A  
HETATM    7  C   UNL     1     -11.237  10.847  67.318  1.00  0.00    -0.233 A  
HETATM    8  C   UNL     1      -8.068   7.936  64.670  1.00  0.00    -0.125 C  
HETATM    9  C   UNL     1     -10.787  11.617  66.237  1.00  0.00    -0.333 A  
HETATM   10  C   UNL     1      -8.467   9.205  64.518  1.00  0.00    -0.195 C  
HETATM   11  C   UNL     1      -9.881  11.091  65.314  1.00  0.00    -0.309 A  
HETATM   12  C   UNL     1      -9.419   9.785  65.463  1.00  0.00    -0.324 A  
ENDROOT
BRANCH   7  13
HETATM   13  O   UNL     1     -12.115  11.264  68.286  1.00  0.00    -0.619 OA 
BRANCH  13  14
HETATM   14  C   UNL     1     -11.516  11.862  69.435  1.00  0.00    -0.302 C  
BRANCH  14  15
HETATM   15  C   UNL     1     -12.163  11.317  70.704  1.00  0.00    -0.489 C  
BRANCH  15  16
HETATM   16  C   UNL     1     -12.392   9.804  70.620  1.00  0.00    -0.248 C  
BRANCH  16  17
HETATM   17  C   UNL     1     -11.940   9.004  71.855  1.00  0.00    -0.375 C  
BRANCH  17  18
HETATM   18  N   UNL     1     -10.488   8.983  72.070  1.00  0.00    -0.321 NA 
HETATM   19  C   UNL     1     -10.052   7.947  73.039  1.00  0.00    -0.317 C  
HETATM   20  C   UNL     1     -10.165   6.483  72.547  1.00  0.00    -0.183 C  
HETATM   21  N   UNL     1      -9.490   6.324  71.254  1.00  0.00    -0.160 NA 
HETATM   22  C   UNL     1      -9.762   8.740  70.793  1.00  0.00    -0.208 C  
HETATM   23  C   UNL     1      -9.880   7.300  70.224  1.00  0.00    -0.179 C  
BRANCH  21  24
HETATM   24  C   UNL     1      -8.953   5.089  70.873  1.00  0.00    -0.134 A  
HETATM   25  C   UNL     1      -7.572   4.705  70.978  1.00  0.00    -0.072 A  
HETATM   26  C   UNL     1      -6.448   5.325  71.645  1.00  0.00    -0.039 A  
HETATM   27  C   UNL     1      -5.255   4.671  71.461  1.00  0.00    -0.004 A  
HETATM   28  S   UNL     1      -5.448   3.261  70.537  1.00  0.00    -0.013 SA 
HETATM   29  C   UNL     1      -7.149   3.509  70.380  1.00  0.00    -0.037 A  
HETATM   30  C   UNL     1      -8.039   2.642  69.722  1.00  0.00    -0.057 A  
HETATM   31  C   UNL     1      -9.383   2.977  69.676  1.00  0.00    -0.214 A  
HETATM   32  C   UNL     1      -9.821   4.170  70.235  1.00  0.00    -0.239 A  
ENDBRANCH  21  24
ENDBRANCH  17  18
ENDBRANCH  16  17
ENDBRANCH  15  16
ENDBRANCH  14  15
ENDBRANCH  13  14
ENDBRANCH   7  13
TORSDOF 7
ENDMDL
MODEL      190
REMARK 921   NORMALIZED FREE ENERGY PREDICTED BY IDOCK:   -4.70 KCAL/MOL
REMARK 922        TOTAL FREE ENERGY PREDICTED BY IDOCK:   -7.93 KCAL/MOL
REMARK 923 INTER-LIGAND FREE ENERGY PREDICTED BY IDOCK:   -6.61 KCAL/MOL
REMARK 924 INTRA-LIGAND FREE ENERGY PREDICTED BY IDOCK:   -1.32 KCAL/MOL
REMARK 927      BINDING AFFINITY PREDICTED BY RF-SCORE:    0.00 PKD
ROOT
HETATM    1  O   UNL     1     -10.981  11.218  64.216  1.00  0.00    -0.354 OA 
HETATM    2  C   UNL     1     -10.010  10.480  64.344  1.00  0.00    -0.343 C  
HETATM    3  N   UNL     1      -9.938   9.523  65.318  1.00  0.00    -0.404 N  
HETATM    4  C   UNL     1      -8.826   8.690  65.502  1.00  0.00    -0.179 A  
HETATM    5  H   UNL     1     -10.736   9.409  65.944  1.00  0.00     0.000 HD 
HETATM    6  C   UNL     1      -8.821   7.750  66.532  1.00  0.00    -0.175 A  
HETATM    7  C   UNL     1      -7.699   6.941  66.726  1.00  0.00    -0.102 A  
HETATM    8  C   UNL     1      -8.848  10.593  63.429  1.00  0.00    -0.193 C  
HETATM    9  C   UNL     1      -6.591   7.085  65.880  1.00  0.00    -0.052 A  
HETATM   10  C   UNL     1      -7.769   9.813  63.571  1.00  0.00    -0.132 C  
HETATM   11  C   UNL     1      -6.602   8.022  64.844  1.00  0.00    -0.051 A  
HETATM   12  C   UNL     1      -7.723   8.826  64.648  1.00  0.00    -0.119 A  
ENDROOT
BRANCH   7  13
HETATM   13  O   UNL     1      -7.800   6.050  67.765  1.00  0.00    -0.102 OA 
BRANCH  13  14
HETATM   14  C   UNL     1      -6.602   5.851  68.514  1.00  0.00    -0.055 C  
BRANCH  14  15
HETATM   15  C   UNL     1      -6.495   4.393  68.949  1.00  0.00    -0.040 C  
BRANCH  15  16
HETATM   16  C   UNL     1      -7.633   3.996  69.893  1.00  0.00    -0.052 C  
BRANCH  16  17
HETATM   17  C   UNL     1      -7.844   4.934  71.096  1.00  0.00    -0.088 C  
BRANCH  17  18
HETATM   18  N   UNL     1      -9.117   4.742  71.802  1.00  0.00    -0.133 NA 
HETATM   19  C   UNL     1      -9.340   5.727  72.890  1.00  0.00    -0.144 C  
HETATM   20  C   UNL     1      -9.625   7.178  72.429  1.00  0.00    -0.146 C  
HETATM   21  N   UNL     1     -10.723   7.199  71.456  1.00  0.00    -0.223 NA 
HETATM   22  C   UNL     1     -10.268   4.839  70.864  1.00  0.00    -0.177 C  
HETATM   23  C   UNL     1     -10.573   6.265  70.329  1.00  0.00    -0.248 C  
BRANCH  21  24
HETATM   24  C   UNL     1     -11.538   8.328  71.318  1.00  0.00    -0.281 A  
HETATM   25  C   UNL     1     -11.266   9.463  70.480  1.00  0.00    -0.329 A  
HETATM   26  C   UNL     1     -10.276   9.684  69.449  1.00  0.00    -0.220 A  
HETATM   27  C   UNL     1     -10.300  10.947  68.909  1.00  0.00    -0.204 A  
HETATM   28  S   UNL     1     -11.546  11.890  69.570  1.00  0.00    -0.325 SA 
HETATM   29  C   UNL     1     -12.077  10.602  70.591  1.00  0.00    -0.365 A  
HETATM   30  C   UNL     1     -13.182  10.657  71.458  1.00  0.00    -0.460 A  
HETATM   31  C   UNL     1     -13.486   9.540  72.220  1.00  0.00    -0.521 A  
HETATM   32  C   UNL     1     -12.681   8.411  72.150  1.00  0.00    -0.399 A  
ENDBRANCH  21  24
ENDBRANCH  17  18
ENDBRANCH  16  17
ENDBRANCH  15  16
ENDBRANCH  14  15
ENDBRANCH  13  14
ENDBRANCH   7  13
TORSDOF 7
ENDMDL
MODEL      191
REMARK 921   NORMALIZED FREE ENERGY PREDICTED BY IDOCK:   -4.70 KCAL/MOL
REMARK 922        TOTAL FREE ENERGY PREDICTED BY IDOCK:   -7.93 KCAL/MOL
REMARK 923 INTER-LIGAND FREE ENERGY PREDICTED BY IDOCK:   -7.36 KCAL/MOL
REMARK 924 INTRA-LIGAND FREE ENERGY PREDICTED BY IDOCK:   -0.57 KCAL/MOL
REMARK 927      BINDING AFFINITY PREDICTED BY RF-SCORE:    0.00 PKD
ROOT
HETATM    1  O   UNL     1      -8.021   1.493  65.403  1.00  0.00    -0.070 OA 
HETATM    2  C   UNL     1      -8.599   2.503  65.788  1.00  0.00    -0.115 C  
HETATM    3  N   UNL     1      -8.699   2.834  67.111  1.00  0.00    -0.112 N  
HETATM    4  C   UNL     1      -9.381   3.967  67.575  1.00  0.00    -0.191 A  
HETATM    5  H   UNL     1      -8.253   2.223  67.796  1.00  0.00     0.000 HD 
HETATM    6  C   UNL     1      -9.454   4.226  68.943  1.00  0.00    -0.236 A  
HETATM    7  C   UNL     1     -10.158   5.343  69.401  1.00  0.00    -0.234 A  
HETATM    8  C   UNL     1      -9.227   3.433  64.817  1.00  0.00    -0.142 C  
HETATM    9  C   UNL     1     -10.781   6.190  68.476  1.00  0.00    -0.365 A  
HETATM   10  C   UNL     1      -9.884   4.527  65.221  1.00  0.00    -0.182 C  
HETATM   11  C   UNL     1     -10.698   5.934  67.105  1.00  0.00    -0.387 A  
HETATM   12  C   UNL     1      -9.993   4.822  66.648  1.00  0.00    -0.259 A  
ENDROOT
BRANCH   7  13
HETATM   13  O   UNL     1     -10.166   5.504  70.764  1.00  0.00    -0.208 OA 
BRANCH  13  14
HETATM   14  C   UNL     1     -11.275   6.236  71.283  1.00  0.00    -0.297 C  
BRANCH  14  15
HETATM   15  C   UNL     1     -10.796   7.231  72.335  1.00  0.00    -0.293 C  
BRANCH  15  16
HETATM   16  C   UNL     1      -9.983   8.370  71.713  1.00  0.00    -0.312 C  
BRANCH  16  17
HETATM   17  C   UNL     1     -10.759   9.680  71.485  1.00  0.00    -0.067 C  
BRANCH  17  18
HETATM   18  N   UNL     1     -11.565   9.705  70.258  1.00  0.00    -0.233 NA 
HETATM   19  C   UNL     1     -12.417  10.914  70.139  1.00  0.00    -0.283 C  
HETATM   20  C   UNL     1     -11.661  12.238  69.864  1.00  0.00    -0.203 C  
HETATM   21  N   UNL     1     -10.776  12.091  68.703  1.00  0.00    -0.230 NA 
HETATM   22  C   UNL     1     -10.700   9.641  69.048  1.00  0.00    -0.211 C  
HETATM   23  C   UNL     1      -9.880  10.924  68.748  1.00  0.00    -0.196 C  
BRANCH  21  24
HETATM   24  C   UNL     1     -10.439  13.195  67.913  1.00  0.00    -0.240 A  
HETATM   25  C   UNL     1     -10.387  14.561  68.357  1.00  0.00    -0.241 A  
HETATM   26  C   UNL     1     -10.447  15.147  69.678  1.00  0.00    -0.261 A  
HETATM   27  C   UNL     1     -10.425  16.521  69.685  1.00  0.00    -0.267 A  
HETATM   28  S   UNL     1     -10.271  17.154  68.119  1.00  0.00    -0.353 SA 
HETATM   29  C   UNL     1     -10.221  15.581  67.409  1.00  0.00    -0.255 A  
HETATM   30  C   UNL     1     -10.051  15.314  66.039  1.00  0.00    -0.340 A  
HETATM   31  C   UNL     1     -10.034  13.994  65.616  1.00  0.00    -0.309 A  
HETATM   32  C   UNL     1     -10.227  12.968  66.532  1.00  0.00    -0.270 A  
ENDBRANCH  21  24
ENDBRANCH  17  18
ENDBRANCH  16  17
ENDBRANCH  15  16
ENDBRANCH  14  15
ENDBRANCH  13  14
ENDBRANCH   7  13
TORSDOF 7
ENDMDL
MODEL      192
REMARK 921   NORMALIZED FREE ENERGY PREDICTED BY IDOCK:   -4.70 KCAL/MOL
REMARK 922        TOTAL FREE ENERGY PREDICTED BY IDOCK:   -7.93 KCAL/MOL
REMARK 923 INTER-LIGAND FREE ENERGY PREDICTED BY IDOCK:   -6.06 KCAL/MOL
REMARK 924 INTRA-LIGAND FREE ENERGY PREDICTED BY IDOCK:   -1.87 KCAL/MOL
REMARK 927      BINDING AFFINITY PREDICTED BY RF-SCORE:    0.00 PKD
ROOT
HETATM    1  O   UNL     1     -14.149   8.986  71.331  1.00  0.00    -0.335 OA 
HETATM    2  C   UNL     1     -12.932   8.923  71.465  1.00  0.00    -0.332 C  
HETATM    3  N   UNL     1     -12.065   9.484  70.568  1.00  0.00    -0.457 N  
HETATM    4  C   UNL     1     -10.671   9.398  70.685  1.00  0.00    -0.290 A  
HETATM    5  H   UNL     1     -12.453   9.991  69.773  1.00  0.00     0.000 HD 
HETATM    6  C   UNL     1      -9.852   9.981  69.718  1.00  0.00    -0.270 A  
HETATM    7  C   UNL     1      -8.464   9.869  69.825  1.00  0.00    -0.192 A  
HETATM    8  C   UNL     1     -12.333   8.225  72.629  1.00  0.00    -0.256 C  
HETATM    9  C   UNL     1      -7.912   9.172  70.908  1.00  0.00    -0.192 A  
HETATM   10  C   UNL     1     -11.006   8.125  72.777  1.00  0.00    -0.401 C  
HETATM   11  C   UNL     1      -8.733   8.597  71.881  1.00  0.00    -0.256 A  
HETATM   12  C   UNL     1     -10.118   8.712  71.775  1.00  0.00    -0.380 A  
ENDROOT
BRANCH   7  13
HETATM   13  O   UNL     1      -7.754  10.479  68.823  1.00  0.00    -0.093 OA 
BRANCH  13  14
HETATM   14  C   UNL     1      -8.398  11.600  68.216  1.00  0.00    -0.159 C  
BRANCH  14  15
HETATM   15  C   UNL     1      -7.718  11.938  66.894  1.00  0.00    -0.106 C  
BRANCH  15  16
HETATM   16  C   UNL     1      -8.083  10.936  65.794  1.00  0.00    -0.094 C  
BRANCH  16  17
HETATM   17  C   UNL     1      -6.913  10.084  65.270  1.00  0.00    -0.132 C  
BRANCH  17  18
HETATM   18  N   UNL     1      -7.280   8.713  64.891  1.00  0.00    -0.083 NA 
HETATM   19  C   UNL     1      -6.600   7.676  65.706  1.00  0.00    -0.045 C  
HETATM   20  C   UNL     1      -7.070   7.569  67.178  1.00  0.00    -0.085 C  
HETATM   21  N   UNL     1      -8.529   7.427  67.240  1.00  0.00    -0.118 NA 
HETATM   22  C   UNL     1      -8.747   8.497  65.019  1.00  0.00    -0.088 C  
HETATM   23  C   UNL     1      -9.285   8.430  66.474  1.00  0.00    -0.189 C  
BRANCH  21  24
HETATM   24  C   UNL     1      -9.139   6.765  68.311  1.00  0.00    -0.124 A  
HETATM   25  C   UNL     1      -8.462   6.010  69.329  1.00  0.00    -0.115 A  
HETATM   26  C   UNL     1      -7.060   5.886  69.663  1.00  0.00    -0.068 A  
HETATM   27  C   UNL     1      -6.802   5.004  70.684  1.00  0.00    -0.040 A  
HETATM   28  S   UNL     1      -8.230   4.342  71.318  1.00  0.00    -0.083 SA 
HETATM   29  C   UNL     1      -9.218   5.245  70.228  1.00  0.00    -0.143 A  
HETATM   30  C   UNL     1     -10.624   5.229  70.204  1.00  0.00    -0.297 A  
HETATM   31  C   UNL     1     -11.282   6.008  69.266  1.00  0.00    -0.367 A  
HETATM   32  C   UNL     1     -10.555   6.751  68.345  1.00  0.00    -0.270 A  
ENDBRANCH  21  24
ENDBRANCH  17  18
ENDBRANCH  16  17
ENDBRANCH  15  16
ENDBRANCH  14  15
ENDBRANCH  13  14
ENDBRANCH   7  13
TORSDOF 7
ENDMDL
MODEL      193
REMARK 921   NORMALIZED FREE ENERGY PREDICTED BY IDOCK:   -4.69 KCAL/MOL
REMARK 922        TOTAL FREE ENERGY PREDICTED BY IDOCK:   -7.91 KCAL/MOL
REMARK 923 INTER-LIGAND FREE ENERGY PREDICTED BY IDOCK:   -7.02 KCAL/MOL
REMARK 924 INTRA-LIGAND FREE ENERGY PREDICTED BY IDOCK:   -0.89 KCAL/MOL
REMARK 927      BINDING AFFINITY PREDICTED BY RF-SCORE:    0.00 PKD
ROOT
HETATM    1  O   UNL     1      -8.388   9.341  64.249  1.00  0.00    -0.156 OA 
HETATM    2  C   UNL     1      -8.069   8.254  64.717  1.00  0.00    -0.151 C  
HETATM    3  N   UNL     1      -8.872   7.561  65.581  1.00  0.00    -0.346 N  
HETATM    4  C   UNL     1      -8.514   6.332  66.152  1.00  0.00    -0.138 A  
HETATM    5  H   UNL     1      -9.780   7.960  65.822  1.00  0.00     0.000 HD 
HETATM    6  C   UNL     1      -9.381   5.696  67.040  1.00  0.00    -0.119 A  
HETATM    7  C   UNL     1      -9.007   4.484  67.626  1.00  0.00    -0.115 A  
HETATM    8  C   UNL     1      -6.773   7.626  64.360  1.00  0.00    -0.048 C  
HETATM    9  C   UNL     1      -7.762   3.923  67.311  1.00  0.00    -0.080 A  
HETATM   10  C   UNL     1      -6.397   6.452  64.882  1.00  0.00    -0.034 C  
HETATM   11  C   UNL     1      -6.899   4.558  66.414  1.00  0.00    -0.058 A  
HETATM   12  C   UNL     1      -7.274   5.764  65.827  1.00  0.00    -0.075 A  
ENDROOT
BRANCH   7  13
HETATM   13  O   UNL     1      -9.933   3.945  68.482  1.00  0.00    -0.017 OA 
BRANCH  13  14
HETATM   14  C   UNL     1      -9.459   3.676  69.801  1.00  0.00    -0.184 C  
BRANCH  14  15
HETATM   15  C   UNL     1      -9.484   4.953  70.634  1.00  0.00    -0.237 C  
BRANCH  15  16
HETATM   16  C   UNL     1     -10.909   5.483  70.819  1.00  0.00    -0.249 C  
BRANCH  16  17
HETATM   17  C   UNL     1     -11.195   6.842  70.155  1.00  0.00    -0.335 C  
BRANCH  17  18
HETATM   18  N   UNL     1     -10.174   7.868  70.402  1.00  0.00    -0.195 NA 
HETATM   19  C   UNL     1     -10.061   8.861  69.305  1.00  0.00    -0.203 C  
HETATM   20  C   UNL     1     -11.250   9.844  69.169  1.00  0.00    -0.107 C  
HETATM   21  N   UNL     1     -11.524  10.496  70.455  1.00  0.00    -0.323 NA 
HETATM   22  C   UNL     1     -10.459   8.614  71.658  1.00  0.00    -0.296 C  
HETATM   23  C   UNL     1     -11.672   9.581  71.598  1.00  0.00    -0.390 C  
BRANCH  21  24
HETATM   24  C   UNL     1     -12.105  11.768  70.504  1.00  0.00    -0.347 A  
HETATM   25  C   UNL     1     -11.891  12.827  69.556  1.00  0.00    -0.379 A  
HETATM   26  C   UNL     1     -11.247  12.844  68.261  1.00  0.00    -0.304 A  
HETATM   27  C   UNL     1     -11.190  14.086  67.678  1.00  0.00    -0.297 A  
HETATM   28  S   UNL     1     -11.960  15.262  68.630  1.00  0.00    -0.152 SA 
HETATM   29  C   UNL     1     -12.389  14.107  69.839  1.00  0.00    -0.327 A  
HETATM   30  C   UNL     1     -13.137  14.384  70.997  1.00  0.00    -0.417 A  
HETATM   31  C   UNL     1     -13.401  13.350  71.881  1.00  0.00    -0.539 A  
HETATM   32  C   UNL     1     -12.894  12.080  71.638  1.00  0.00    -0.399 A  
ENDBRANCH  21  24
ENDBRANCH  17  18
ENDBRANCH  16  17
ENDBRANCH  15  16
ENDBRANCH  14  15
ENDBRANCH  13  14
ENDBRANCH   7  13
TORSDOF 7
ENDMDL
MODEL      194
REMARK 921   NORMALIZED FREE ENERGY PREDICTED BY IDOCK:   -4.66 KCAL/MOL
REMARK 922        TOTAL FREE ENERGY PREDICTED BY IDOCK:   -7.88 KCAL/MOL
REMARK 923 INTER-LIGAND FREE ENERGY PREDICTED BY IDOCK:   -5.98 KCAL/MOL
REMARK 924 INTRA-LIGAND FREE ENERGY PREDICTED BY IDOCK:   -1.90 KCAL/MOL
REMARK 927      BINDING AFFINITY PREDICTED BY RF-SCORE:    0.00 PKD
ROOT
HETATM    1  O   UNL     1     -10.502  10.275  65.426  1.00  0.00    -0.217 OA 
HETATM    2  C   UNL     1      -9.776   9.315  65.660  1.00  0.00    -0.232 C  
HETATM    3  N   UNL     1     -10.195   8.238  66.391  1.00  0.00    -0.453 N  
HETATM    4  C   UNL     1      -9.373   7.144  66.696  1.00  0.00    -0.166 A  
HETATM    5  H   UNL     1     -11.156   8.230  66.733  1.00  0.00     0.000 HD 
HETATM    6  C   UNL     1      -9.869   6.092  67.465  1.00  0.00    -0.138 A  
HETATM    7  C   UNL     1      -9.037   5.017  67.788  1.00  0.00    -0.114 A  
HETATM    8  C   UNL     1      -8.384   9.275  65.147  1.00  0.00    -0.155 C  
HETATM    9  C   UNL     1      -7.712   5.011  67.331  1.00  0.00    -0.092 A  
HETATM   10  C   UNL     1      -7.571   8.247  65.414  1.00  0.00    -0.096 C  
HETATM   11  C   UNL     1      -7.220   6.063  66.554  1.00  0.00    -0.073 A  
HETATM   12  C   UNL     1      -8.052   7.133  66.229  1.00  0.00    -0.118 A  
ENDROOT
BRANCH   7  13
HETATM   13  O   UNL     1      -9.625   4.037  68.546  1.00  0.00    -0.156 OA 
BRANCH  13  14
HETATM   14  C   UNL     1      -8.769   2.953  68.909  1.00  0.00    -0.085 C  
BRANCH  14  15
HETATM   15  C   UNL     1      -9.324   2.240  70.138  1.00  0.00    -0.179 C  
BRANCH  15  16
HETATM   16  C   UNL     1      -9.863   3.231  71.174  1.00  0.00    -0.144 C  
BRANCH  16  17
HETATM   17  C   UNL     1      -8.805   3.838  72.113  1.00  0.00    -0.097 C  
BRANCH  17  18
HETATM   18  N   UNL     1      -9.308   4.903  72.991  1.00  0.00    -0.129 NA 
HETATM   19  C   UNL     1      -8.350   6.023  73.164  1.00  0.00    -0.116 C  
HETATM   20  C   UNL     1      -8.142   6.922  71.921  1.00  0.00    -0.100 C  
HETATM   21  N   UNL     1      -9.434   7.397  71.411  1.00  0.00    -0.153 NA 
HETATM   22  C   UNL     1     -10.578   5.472  72.466  1.00  0.00    -0.226 C  
HETATM   23  C   UNL     1     -10.440   6.345  71.189  1.00  0.00    -0.221 C  
BRANCH  21  24
HETATM   24  C   UNL     1      -9.529   8.607  70.715  1.00  0.00    -0.190 A  
HETATM   25  C   UNL     1     -10.653   9.502  70.737  1.00  0.00    -0.387 A  
HETATM   26  C   UNL     1     -11.835   9.544  71.570  1.00  0.00    -0.478 A  
HETATM   27  C   UNL     1     -12.723  10.537  71.235  1.00  0.00    -0.428 A  
HETATM   28  S   UNL     1     -12.146  11.490  69.955  1.00  0.00    -0.317 SA 
HETATM   29  C   UNL     1     -10.683  10.581  69.841  1.00  0.00    -0.247 A  
HETATM   30  C   UNL     1      -9.627  10.850  68.953  1.00  0.00    -0.192 A  
HETATM   31  C   UNL     1      -8.512  10.027  68.975  1.00  0.00    -0.147 A  
HETATM   32  C   UNL     1      -8.472   8.935  69.832  1.00  0.00    -0.135 A  
ENDBRANCH  21  24
ENDBRANCH  17  18
ENDBRANCH  16  17
ENDBRANCH  15  16
ENDBRANCH  14  15
ENDBRANCH  13  14
ENDBRANCH   7  13
TORSDOF 7
ENDMDL
MODEL      195
REMARK 921   NORMALIZED FREE ENERGY PREDICTED BY IDOCK:   -4.66 KCAL/MOL
REMARK 922        TOTAL FREE ENERGY PREDICTED BY IDOCK:   -7.87 KCAL/MOL
REMARK 923 INTER-LIGAND FREE ENERGY PREDICTED BY IDOCK:   -7.72 KCAL/MOL
REMARK 924 INTRA-LIGAND FREE ENERGY PREDICTED BY IDOCK:   -0.15 KCAL/MOL
REMARK 927      BINDING AFFINITY PREDICTED BY RF-SCORE:    0.00 PKD
ROOT
HETATM    1  O   UNL     1     -10.822  16.907  68.650  1.00  0.00    -0.342 OA 
HETATM    2  C   UNL     1     -10.973  15.692  68.580  1.00  0.00    -0.294 C  
HETATM    3  N   UNL     1     -11.558  14.967  69.581  1.00  0.00    -0.285 N  
HETATM    4  C   UNL     1     -11.713  13.574  69.537  1.00  0.00    -0.322 A  
HETATM    5  H   UNL     1     -11.898  15.465  70.404  1.00  0.00     0.000 HD 
HETATM    6  C   UNL     1     -12.302  12.903  70.608  1.00  0.00    -0.385 A  
HETATM    7  C   UNL     1     -12.430  11.512  70.569  1.00  0.00    -0.280 A  
HETATM    8  C   UNL     1     -10.523  14.940  67.383  1.00  0.00    -0.255 C  
HETATM    9  C   UNL     1     -11.964  10.810  69.449  1.00  0.00    -0.353 A  
HETATM   10  C   UNL     1     -10.658  13.611  67.302  1.00  0.00    -0.267 C  
HETATM   11  C   UNL     1     -11.382  11.485  68.374  1.00  0.00    -0.342 A  
HETATM   12  C   UNL     1     -11.258  12.873  68.412  1.00  0.00    -0.305 A  
ENDROOT
BRANCH   7  13
HETATM   13  O   UNL     1     -13.025  10.954  71.672  1.00  0.00    -0.433 OA 
BRANCH  13  14
HETATM   14  C   UNL     1     -13.579   9.654  71.472  1.00  0.00    -0.300 C  
BRANCH  14  15
HETATM   15  C   UNL     1     -13.073   8.701  72.550  1.00  0.00    -0.339 C  
BRANCH  15  16
HETATM   16  C   UNL     1     -11.660   8.195  72.244  1.00  0.00    -0.436 C  
BRANCH  16  17
HETATM   17  C   UNL     1     -11.467   6.673  72.371  1.00  0.00    -0.262 C  
BRANCH  17  18
HETATM   18  N   UNL     1     -10.727   6.058  71.262  1.00  0.00    -0.252 NA 
HETATM   19  C   UNL     1     -11.112   6.590  69.931  1.00  0.00    -0.371 C  
HETATM   20  C   UNL     1     -10.667   8.045  69.639  1.00  0.00    -0.207 C  
HETATM   21  N   UNL     1      -9.227   8.197  69.879  1.00  0.00    -0.151 NA 
HETATM   22  C   UNL     1      -9.261   6.261  71.421  1.00  0.00    -0.149 C  
HETATM   23  C   UNL     1      -8.760   7.712  71.187  1.00  0.00    -0.136 C  
BRANCH  21  24
HETATM   24  C   UNL     1      -8.483   9.160  69.189  1.00  0.00    -0.132 A  
HETATM   25  C   UNL     1      -8.437   9.322  67.762  1.00  0.00    -0.116 A  
HETATM   26  C   UNL     1      -9.232   8.745  66.701  1.00  0.00    -0.223 A  
HETATM   27  C   UNL     1      -8.834   9.109  65.437  1.00  0.00    -0.196 A  
HETATM   28  S   UNL     1      -7.536  10.201  65.480  1.00  0.00    -0.149 SA 
HETATM   29  C   UNL     1      -7.500  10.206  67.206  1.00  0.00    -0.091 A  
HETATM   30  C   UNL     1      -6.635  10.980  67.997  1.00  0.00    -0.062 A  
HETATM   31  C   UNL     1      -6.722  10.875  69.377  1.00  0.00    -0.107 A  
HETATM   32  C   UNL     1      -7.621   9.985  69.951  1.00  0.00    -0.177 A  
ENDBRANCH  21  24
ENDBRANCH  17  18
ENDBRANCH  16  17
ENDBRANCH  15  16
ENDBRANCH  14  15
ENDBRANCH  13  14
ENDBRANCH   7  13
TORSDOF 7
ENDMDL
MODEL      196
REMARK 921   NORMALIZED FREE ENERGY PREDICTED BY IDOCK:   -4.62 KCAL/MOL
REMARK 922        TOTAL FREE ENERGY PREDICTED BY IDOCK:   -7.81 KCAL/MOL
REMARK 923 INTER-LIGAND FREE ENERGY PREDICTED BY IDOCK:   -6.61 KCAL/MOL
REMARK 924 INTRA-LIGAND FREE ENERGY PREDICTED BY IDOCK:   -1.20 KCAL/MOL
REMARK 927      BINDING AFFINITY PREDICTED BY RF-SCORE:    0.00 PKD
ROOT
HETATM    1  O   UNL     1      -7.113   8.401  63.807  1.00  0.00    -0.085 OA 
HETATM    2  C   UNL     1      -7.929   8.207  64.701  1.00  0.00    -0.149 C  
HETATM    3  N   UNL     1      -7.935   7.067  65.456  1.00  0.00    -0.122 N  
HETATM    4  C   UNL     1      -8.878   6.810  66.461  1.00  0.00    -0.143 A  
HETATM    5  H   UNL     1      -7.216   6.366  65.277  1.00  0.00     0.000 HD 
HETATM    6  C   UNL     1      -8.829   5.614  67.175  1.00  0.00    -0.106 A  
HETATM    7  C   UNL     1      -9.787   5.353  68.158  1.00  0.00    -0.145 A  
HETATM    8  C   UNL     1      -8.967   9.221  65.012  1.00  0.00    -0.245 C  
HETATM    9  C   UNL     1     -10.786   6.302  68.414  1.00  0.00    -0.394 A  
HETATM   10  C   UNL     1      -9.882   9.014  65.967  1.00  0.00    -0.312 C  
HETATM   11  C   UNL     1     -10.828   7.504  67.703  1.00  0.00    -0.197 A  
HETATM   12  C   UNL     1      -9.869   7.766  66.725  1.00  0.00    -0.312 A  
ENDROOT
BRANCH   7  13
HETATM   13  O   UNL     1      -9.646   4.149  68.799  1.00  0.00    -0.162 OA 
BRANCH  13  14
HETATM   14  C   UNL     1      -8.630   4.108  69.801  1.00  0.00    -0.064 C  
BRANCH  14  15
HETATM   15  C   UNL     1      -9.240   3.729  71.146  1.00  0.00    -0.201 C  
BRANCH  15  16
HETATM   16  C   UNL     1      -8.574   4.480  72.304  1.00  0.00    -0.118 C  
BRANCH  16  17
HETATM   17  C   UNL     1      -7.367   5.351  71.912  1.00  0.00    -0.091 C  
BRANCH  17  18
HETATM   18  N   UNL     1      -7.331   6.668  72.561  1.00  0.00    -0.087 NA 
HETATM   19  C   UNL     1      -7.217   7.793  71.600  1.00  0.00    -0.065 C  
HETATM   20  C   UNL     1      -8.477   8.069  70.742  1.00  0.00    -0.124 C  
HETATM   21  N   UNL     1      -9.658   8.216  71.600  1.00  0.00    -0.167 NA 
HETATM   22  C   UNL     1      -8.553   6.895  73.379  1.00  0.00    -0.125 C  
HETATM   23  C   UNL     1      -9.859   7.130  72.573  1.00  0.00    -0.155 C  
BRANCH  21  24
HETATM   24  C   UNL     1     -10.746   8.996  71.195  1.00  0.00    -0.288 A  
HETATM   25  C   UNL     1     -10.699  10.076  70.248  1.00  0.00    -0.367 A  
HETATM   26  C   UNL     1      -9.663  10.517  69.341  1.00  0.00    -0.188 A  
HETATM   27  C   UNL     1      -9.983  11.647  68.628  1.00  0.00    -0.184 A  
HETATM   28  S   UNL     1     -11.555  12.182  68.974  1.00  0.00    -0.338 SA 
HETATM   29  C   UNL     1     -11.830  10.889  70.085  1.00  0.00    -0.353 A  
HETATM   30  C   UNL     1     -13.031  10.656  70.777  1.00  0.00    -0.396 A  
HETATM   31  C   UNL     1     -13.100   9.574  71.642  1.00  0.00    -0.486 A  
HETATM   32  C   UNL     1     -11.985   8.772  71.843  1.00  0.00    -0.435 A  
ENDBRANCH  21  24
ENDBRANCH  17  18
ENDBRANCH  16  17
ENDBRANCH  15  16
ENDBRANCH  14  15
ENDBRANCH  13  14
ENDBRANCH   7  13
TORSDOF 7
ENDMDL
MODEL      197
REMARK 921   NORMALIZED FREE ENERGY PREDICTED BY IDOCK:   -4.60 KCAL/MOL
REMARK 922        TOTAL FREE ENERGY PREDICTED BY IDOCK:   -7.79 KCAL/MOL
REMARK 923 INTER-LIGAND FREE ENERGY PREDICTED BY IDOCK:   -6.82 KCAL/MOL
REMARK 924 INTRA-LIGAND FREE ENERGY PREDICTED BY IDOCK:   -0.98 KCAL/MOL
REMARK 927      BINDING AFFINITY PREDICTED BY RF-SCORE:    0.00 PKD
ROOT
HETATM    1  O   UNL     1     -12.838  10.923  71.188  1.00  0.00    -0.376 OA 
HETATM    2  C   UNL     1     -12.428   9.781  71.366  1.00  0.00    -0.387 C  
HETATM    3  N   UNL     1     -11.148   9.405  71.064  1.00  0.00    -0.313 N  
HETATM    4  C   UNL     1     -10.667   8.099  71.230  1.00  0.00    -0.227 A  
HETATM    5  H   UNL     1     -10.510  10.112  70.700  1.00  0.00     0.000 HD 
HETATM    6  C   UNL     1      -9.353   7.789  70.881  1.00  0.00    -0.157 A  
HETATM    7  C   UNL     1      -8.888   6.480  71.024  1.00  0.00    -0.139 A  
HETATM    8  C   UNL     1     -13.318   8.735  71.929  1.00  0.00    -0.432 C  
HETATM    9  C   UNL     1      -9.751   5.493  71.519  1.00  0.00    -0.201 A  
HETATM   10  C   UNL     1     -12.894   7.478  72.105  1.00  0.00    -0.132 C  
HETATM   11  C   UNL     1     -11.065   5.807  71.876  1.00  0.00    -0.308 A  
HETATM   12  C   UNL     1     -11.527   7.115  71.737  1.00  0.00    -0.301 A  
ENDROOT
BRANCH   7  13
HETATM   13  O   UNL     1      -7.582   6.285  70.653  1.00  0.00    -0.091 OA 
BRANCH  13  14
HETATM   14  C   UNL     1      -7.386   5.383  69.565  1.00  0.00    -0.065 C  
BRANCH  14  15
HETATM   15  C   UNL     1      -6.906   6.147  68.335  1.00  0.00    -0.074 C  
BRANCH  15  16
HETATM   16  C   UNL     1      -8.077   6.670  67.497  1.00  0.00    -0.118 C  
BRANCH  16  17
HETATM   17  C   UNL     1      -7.736   7.832  66.547  1.00  0.00    -0.097 C  
BRANCH  17  18
HETATM   18  N   UNL     1      -7.016   8.945  67.179  1.00  0.00    -0.074 NA 
HETATM   19  C   UNL     1      -6.843  10.116  66.285  1.00  0.00    -0.104 C  
HETATM   20  C   UNL     1      -8.134  10.914  65.974  1.00  0.00    -0.142 C  
HETATM   21  N   UNL     1      -8.818  11.286  67.217  1.00  0.00    -0.148 NA 
HETATM   22  C   UNL     1      -7.721   9.411  68.404  1.00  0.00    -0.086 C  
HETATM   23  C   UNL     1      -9.049  10.177  68.156  1.00  0.00    -0.128 C  
BRANCH  21  24
HETATM   24  C   UNL     1      -9.627  12.426  67.277  1.00  0.00    -0.199 A  
HETATM   25  C   UNL     1     -10.641  12.788  66.326  1.00  0.00    -0.275 A  
HETATM   26  C   UNL     1     -11.241  12.056  65.232  1.00  0.00    -0.374 A  
HETATM   27  C   UNL     1     -12.151  12.782  64.502  1.00  0.00    -0.414 A  
HETATM   28  S   UNL     1     -12.364  14.341  65.137  1.00  0.00    -0.390 SA 
HETATM   29  C   UNL     1     -11.237  14.055  66.413  1.00  0.00    -0.319 A  
HETATM   30  C   UNL     1     -10.915  14.969  67.432  1.00  0.00    -0.315 A  
HETATM   31  C   UNL     1      -9.985  14.596  68.390  1.00  0.00    -0.227 A  
HETATM   32  C   UNL     1      -9.359  13.360  68.308  1.00  0.00    -0.205 A  
ENDBRANCH  21  24
ENDBRANCH  17  18
ENDBRANCH  16  17
ENDBRANCH  15  16
ENDBRANCH  14  15
ENDBRANCH  13  14
ENDBRANCH   7  13
TORSDOF 7
ENDMDL
MODEL      198
REMARK 921   NORMALIZED FREE ENERGY PREDICTED BY IDOCK:   -4.60 KCAL/MOL
REMARK 922        TOTAL FREE ENERGY PREDICTED BY IDOCK:   -7.79 KCAL/MOL
REMARK 923 INTER-LIGAND FREE ENERGY PREDICTED BY IDOCK:   -6.30 KCAL/MOL
REMARK 924 INTRA-LIGAND FREE ENERGY PREDICTED BY IDOCK:   -1.49 KCAL/MOL
REMARK 927      BINDING AFFINITY PREDICTED BY RF-SCORE:    0.00 PKD
ROOT
HETATM    1  O   UNL     1      -7.916   9.186  63.122  1.00  0.00    -0.130 OA 
HETATM    2  C   UNL     1      -7.662   8.162  63.748  1.00  0.00    -0.142 C  
HETATM    3  N   UNL     1      -8.532   7.620  64.653  1.00  0.00    -0.373 N  
HETATM    4  C   UNL     1      -8.249   6.469  65.401  1.00  0.00    -0.135 A  
HETATM    5  H   UNL     1      -9.433   8.077  64.791  1.00  0.00     0.000 HD 
HETATM    6  C   UNL     1      -9.181   5.988  66.320  1.00  0.00    -0.168 A  
HETATM    7  C   UNL     1      -8.883   4.855  67.082  1.00  0.00    -0.106 A  
HETATM    8  C   UNL     1      -6.376   7.450  63.545  1.00  0.00    -0.053 C  
HETATM    9  C   UNL     1      -7.648   4.216  66.910  1.00  0.00    -0.084 A  
HETATM   10  C   UNL     1      -6.072   6.346  64.238  1.00  0.00    -0.026 C  
HETATM   11  C   UNL     1      -6.719   4.694  65.982  1.00  0.00    -0.053 A  
HETATM   12  C   UNL     1      -7.019   5.822  65.220  1.00  0.00    -0.063 A  
ENDROOT
BRANCH   7  13
HETATM   13  O   UNL     1      -9.869   4.467  67.953  1.00  0.00    -0.155 OA 
BRANCH  13  14
HETATM   14  C   UNL     1      -9.449   4.287  69.306  1.00  0.00    -0.184 C  
BRANCH  14  15
HETATM   15  C   UNL     1      -9.557   5.606  70.064  1.00  0.00    -0.214 C  
BRANCH  15  16
HETATM   16  C   UNL     1     -10.865   6.338  69.749  1.00  0.00    -0.399 C  
BRANCH  16  17
HETATM   17  C   UNL     1     -10.701   7.717  69.085  1.00  0.00    -0.141 C  
BRANCH  17  18
HETATM   18  N   UNL     1      -9.547   8.490  69.562  1.00  0.00    -0.169 NA 
HETATM   19  C   UNL     1      -8.617   8.887  68.476  1.00  0.00    -0.133 C  
HETATM   20  C   UNL     1      -9.149   9.970  67.504  1.00  0.00    -0.134 C  
HETATM   21  N   UNL     1      -9.628  11.138  68.252  1.00  0.00    -0.178 NA 
HETATM   22  C   UNL     1      -9.986   9.731  70.256  1.00  0.00    -0.253 C  
HETATM   23  C   UNL     1     -10.574  10.836  69.338  1.00  0.00    -0.221 C  
BRANCH  21  24
HETATM   24  C   UNL     1      -9.615  12.413  67.676  1.00  0.00    -0.193 A  
HETATM   25  C   UNL     1     -10.560  12.908  66.712  1.00  0.00    -0.268 A  
HETATM   26  C   UNL     1     -11.822  12.381  66.242  1.00  0.00    -0.431 A  
HETATM   27  C   UNL     1     -12.411  13.132  65.253  1.00  0.00    -0.481 A  
HETATM   28  S   UNL     1     -11.506  14.522  64.898  1.00  0.00    -0.410 SA 
HETATM   29  C   UNL     1     -10.310  14.136  66.082  1.00  0.00    -0.300 A  
HETATM   30  C   UNL     1      -9.192  14.928  66.395  1.00  0.00    -0.317 A  
HETATM   31  C   UNL     1      -8.314  14.484  67.371  1.00  0.00    -0.217 A  
HETATM   32  C   UNL     1      -8.523  13.258  67.989  1.00  0.00    -0.170 A  
ENDBRANCH  21  24
ENDBRANCH  17  18
ENDBRANCH  16  17
ENDBRANCH  15  16
ENDBRANCH  14  15
ENDBRANCH  13  14
ENDBRANCH   7  13
TORSDOF 7
ENDMDL
MODEL      199
REMARK 921   NORMALIZED FREE ENERGY PREDICTED BY IDOCK:   -4.60 KCAL/MOL
REMARK 922        TOTAL FREE ENERGY PREDICTED BY IDOCK:   -7.79 KCAL/MOL
REMARK 923 INTER-LIGAND FREE ENERGY PREDICTED BY IDOCK:   -6.32 KCAL/MOL
REMARK 924 INTRA-LIGAND FREE ENERGY PREDICTED BY IDOCK:   -1.47 KCAL/MOL
REMARK 927      BINDING AFFINITY PREDICTED BY RF-SCORE:    0.00 PKD
ROOT
HETATM    1  O   UNL     1     -11.522   9.041  71.532  1.00  0.00    -0.286 OA 
HETATM    2  C   UNL     1     -11.426   9.820  70.590  1.00  0.00    -0.324 C  
HETATM    3  N   UNL     1     -11.674  11.158  70.715  1.00  0.00    -0.385 N  
HETATM    4  C   UNL     1     -11.601  12.061  69.646  1.00  0.00    -0.301 A  
HETATM    5  H   UNL     1     -11.926  11.519  71.636  1.00  0.00     0.000 HD 
HETATM    6  C   UNL     1     -11.888  13.410  69.850  1.00  0.00    -0.385 A  
HETATM    7  C   UNL     1     -11.839  14.301  68.774  1.00  0.00    -0.341 A  
HETATM    8  C   UNL     1     -11.026   9.336  69.245  1.00  0.00    -0.105 C  
HETATM    9  C   UNL     1     -11.499  13.823  67.501  1.00  0.00    -0.359 A  
HETATM   10  C   UNL     1     -10.942  10.168  68.200  1.00  0.00    -0.313 C  
HETATM   11  C   UNL     1     -11.204  12.473  67.301  1.00  0.00    -0.347 A  
HETATM   12  C   UNL     1     -11.249  11.586  68.375  1.00  0.00    -0.314 A  
ENDROOT
BRANCH   7  13
HETATM   13  O   UNL     1     -12.137  15.603  69.086  1.00  0.00    -0.344 OA 
BRANCH  13  14
HETATM   14  C   UNL     1     -11.510  16.585  68.262  1.00  0.00    -0.075 C  
BRANCH  14  15
HETATM   15  C   UNL     1     -10.288  17.158  68.972  1.00  0.00    -0.331 C  
BRANCH  15  16
HETATM   16  C   UNL     1      -9.320  17.824  67.990  1.00  0.00    -0.276 C  
BRANCH  16  17
HETATM   17  C   UNL     1      -7.833  17.743  68.380  1.00  0.00    -0.284 C  
BRANCH  17  18
HETATM   18  N   UNL     1      -6.998  16.979  67.444  1.00  0.00    -0.146 NA 
HETATM   19  C   UNL     1      -5.663  16.635  67.992  1.00  0.00    -0.120 C  
HETATM   20  C   UNL     1      -5.658  15.573  69.120  1.00  0.00    -0.104 C  
HETATM   21  N   UNL     1      -6.387  14.373  68.696  1.00  0.00    -0.083 NA 
HETATM   22  C   UNL     1      -7.665  15.708  67.049  1.00  0.00    -0.222 C  
HETATM   23  C   UNL     1      -7.733  14.620  68.156  1.00  0.00    -0.125 C  
BRANCH  21  24
HETATM   24  C   UNL     1      -6.072  13.117  69.227  1.00  0.00    -0.098 A  
HETATM   25  C   UNL     1      -6.348  11.850  68.609  1.00  0.00    -0.058 A  
HETATM   26  C   UNL     1      -6.795  11.505  67.277  1.00  0.00    -0.118 A  
HETATM   27  C   UNL     1      -7.005  10.161  67.086  1.00  0.00    -0.087 A  
HETATM   28  S   UNL     1      -6.614   9.261  68.470  1.00  0.00    -0.054 SA 
HETATM   29  C   UNL     1      -6.148  10.673  69.346  1.00  0.00    -0.047 A  
HETATM   30  C   UNL     1      -5.636  10.684  70.655  1.00  0.00    -0.105 A  
HETATM   31  C   UNL     1      -5.307  11.901  71.231  1.00  0.00    -0.025 A  
HETATM   32  C   UNL     1      -5.524  13.082  70.533  1.00  0.00    -0.159 A  
ENDBRANCH  21  24
ENDBRANCH  17  18
ENDBRANCH  16  17
ENDBRANCH  15  16
ENDBRANCH  14  15
ENDBRANCH  13  14
ENDBRANCH   7  13
TORSDOF 7
ENDMDL
MODEL      200
REMARK 921   NORMALIZED FREE ENERGY PREDICTED BY IDOCK:   -4.60 KCAL/MOL
REMARK 922        TOTAL FREE ENERGY PREDICTED BY IDOCK:   -7.78 KCAL/MOL
REMARK 923 INTER-LIGAND FREE ENERGY PREDICTED BY IDOCK:   -7.23 KCAL/MOL
REMARK 924 INTRA-LIGAND FREE ENERGY PREDICTED BY IDOCK:   -0.56 KCAL/MOL
REMARK 927      BINDING AFFINITY PREDICTED BY RF-SCORE:    0.00 PKD
ROOT
HETATM    1  O   UNL     1      -7.744   5.871  63.669  1.00  0.00    -0.085 OA 
HETATM    2  C   UNL     1      -8.444   5.799  64.673  1.00  0.00    -0.061 C  
HETATM    3  N   UNL     1      -8.550   6.825  65.570  1.00  0.00    -0.276 N  
HETATM    4  C   UNL     1      -9.320   6.754  66.740  1.00  0.00    -0.160 A  
HETATM    5  H   UNL     1      -8.042   7.689  65.378  1.00  0.00     0.000 HD 
HETATM    6  C   UNL     1      -9.362   7.838  67.616  1.00  0.00    -0.160 A  
HETATM    7  C   UNL     1     -10.110   7.750  68.792  1.00  0.00    -0.196 A  
HETATM    8  C   UNL     1      -9.227   4.572  64.965  1.00  0.00    -0.157 C  
HETATM    9  C   UNL     1     -10.811   6.571  69.075  1.00  0.00    -0.357 A  
HETATM   10  C   UNL     1      -9.976   4.467  66.069  1.00  0.00    -0.265 C  
HETATM   11  C   UNL     1     -10.775   5.489  68.192  1.00  0.00    -0.160 A  
HETATM   12  C   UNL     1     -10.032   5.578  67.016  1.00  0.00    -0.198 A  
ENDROOT
BRANCH   7  13
HETATM   13  O   UNL     1     -10.083   8.873  69.580  1.00  0.00    -0.189 OA 
BRANCH  13  14
HETATM   14  C   UNL     1     -10.715  10.024  69.022  1.00  0.00    -0.220 C  
BRANCH  14  15
HETATM   15  C   UNL     1     -11.605  10.688  70.067  1.00  0.00    -0.406 C  
BRANCH  15  16
HETATM   16  C   UNL     1     -12.390  11.865  69.480  1.00  0.00    -0.082 C  
BRANCH  16  17
HETATM   17  C   UNL     1     -11.699  13.236  69.593  1.00  0.00    -0.303 C  
BRANCH  17  18
HETATM   18  N   UNL     1     -11.515  13.934  68.314  1.00  0.00    -0.291 NA 
HETATM   19  C   UNL     1     -11.732  15.398  68.407  1.00  0.00    -0.316 C  
HETATM   20  C   UNL     1     -10.646  16.187  69.180  1.00  0.00    -0.276 C  
HETATM   21  N   UNL     1      -9.313  15.876  68.650  1.00  0.00    -0.202 NA 
HETATM   22  C   UNL     1     -10.144  13.714  67.778  1.00  0.00    -0.242 C  
HETATM   23  C   UNL     1      -9.005  14.441  68.543  1.00  0.00    -0.187 C  
BRANCH  21  24
HETATM   24  C   UNL     1      -8.272  16.806  68.741  1.00  0.00    -0.250 A  
HETATM   25  C   UNL     1      -8.299  18.150  68.233  1.00  0.00    -0.301 A  
HETATM   26  C   UNL     1      -9.377  18.962  67.715  1.00  0.00    -0.330 A  
HETATM   27  C   UNL     1      -8.983  20.199  67.264  1.00  0.00    -0.356 A  
HETATM   28  S   UNL     1      -7.323  20.454  67.503  1.00  0.00    -0.317 SA 
HETATM   29  C   UNL     1      -7.114  18.901  68.228  1.00  0.00    -0.260 A  
HETATM   30  C   UNL     1      -5.906  18.404  68.749  1.00  0.00    -0.203 A  
HETATM   31  C   UNL     1      -5.893  17.132  69.299  1.00  0.00    -0.201 A  
HETATM   32  C   UNL     1      -7.045  16.358  69.290  1.00  0.00    -0.222 A  
ENDBRANCH  21  24
ENDBRANCH  17  18
ENDBRANCH  16  17
ENDBRANCH  15  16
ENDBRANCH  14  15
ENDBRANCH  13  14
ENDBRANCH   7  13
TORSDOF 7
ENDMDL
MODEL      201
REMARK 921   NORMALIZED FREE ENERGY PREDICTED BY IDOCK:   -4.58 KCAL/MOL
REMARK 922        TOTAL FREE ENERGY PREDICTED BY IDOCK:   -7.75 KCAL/MOL
REMARK 923 INTER-LIGAND FREE ENERGY PREDICTED BY IDOCK:   -7.36 KCAL/MOL
REMARK 924 INTRA-LIGAND FREE ENERGY PREDICTED BY IDOCK:   -0.40 KCAL/MOL
REMARK 927      BINDING AFFINITY PREDICTED BY RF-SCORE:    0.00 PKD
ROOT
HETATM    1  O   UNL     1      -9.625  10.420  66.314  1.00  0.00    -0.169 OA 
HETATM    2  C   UNL     1      -8.866  11.015  67.071  1.00  0.00    -0.143 C  
HETATM    3  N   UNL     1      -8.355  12.249  66.779  1.00  0.00    -0.347 N  
HETATM    4  C   UNL     1      -7.462  12.933  67.616  1.00  0.00    -0.148 A  
HETATM    5  H   UNL     1      -8.638  12.696  65.907  1.00  0.00     0.000 HD 
HETATM    6  C   UNL     1      -6.969  14.182  67.239  1.00  0.00     0.110 A  
HETATM    7  C   UNL     1      -6.060  14.847  68.064  1.00  0.00    -0.152 A  
HETATM    8  C   UNL     1      -8.461  10.412  68.365  1.00  0.00    -0.124 C  
HETATM    9  C   UNL     1      -5.654  14.248  69.265  1.00  0.00    -0.082 A  
HETATM   10  C   UNL     1      -7.613  11.036  69.192  1.00  0.00    -0.113 C  
HETATM   11  C   UNL     1      -6.156  13.001  69.644  1.00  0.00    -0.122 A  
HETATM   12  C   UNL     1      -7.066  12.339  68.822  1.00  0.00    -0.107 A  
ENDROOT
BRANCH   7  13
HETATM   13  O   UNL     1      -5.641  16.068  67.599  1.00  0.00    -0.132 OA 
BRANCH  13  14
HETATM   14  C   UNL     1      -5.635  17.118  68.566  1.00  0.00    -0.137 C  
BRANCH  14  15
HETATM   15  C   UNL     1      -6.578  18.234  68.128  1.00  0.00    -0.205 C  
BRANCH  15  16
HETATM   16  C   UNL     1      -8.025  17.745  68.017  1.00  0.00    -0.244 C  
BRANCH  16  17
HETATM   17  C   UNL     1      -8.512  17.459  66.585  1.00  0.00    -0.261 C  
BRANCH  17  18
HETATM   18  N   UNL     1      -9.972  17.397  66.438  1.00  0.00    -0.305 NA 
HETATM   19  C   UNL     1     -10.494  16.011  66.344  1.00  0.00    -0.309 C  
HETATM   20  C   UNL     1     -10.425  15.181  67.650  1.00  0.00    -0.253 C  
HETATM   21  N   UNL     1     -11.051  15.914  68.756  1.00  0.00    -0.306 NA 
HETATM   22  C   UNL     1     -10.653  18.058  67.585  1.00  0.00    -0.399 C  
HETATM   23  C   UNL     1     -10.576  17.295  68.935  1.00  0.00    -0.276 C  
BRANCH  21  24
HETATM   24  C   UNL     1     -11.626  15.232  69.833  1.00  0.00    -0.311 A  
HETATM   25  C   UNL     1     -11.857  13.815  69.905  1.00  0.00    -0.394 A  
HETATM   26  C   UNL     1     -11.415  12.724  69.064  1.00  0.00    -0.360 A  
HETATM   27  C   UNL     1     -11.905  11.495  69.434  1.00  0.00    -0.350 A  
HETATM   28  S   UNL     1     -12.857  11.595  70.835  1.00  0.00    -0.087 SA 
HETATM   29  C   UNL     1     -12.614  13.300  70.966  1.00  0.00    -0.324 A  
HETATM   30  C   UNL     1     -13.116  14.114  71.997  1.00  0.00    -0.472 A  
HETATM   31  C   UNL     1     -12.840  15.472  71.966  1.00  0.00    -0.500 A  
HETATM   32  C   UNL     1     -12.117  16.010  70.910  1.00  0.00    -0.332 A  
ENDBRANCH  21  24
ENDBRANCH  17  18
ENDBRANCH  16  17
ENDBRANCH  15  16
ENDBRANCH  14  15
ENDBRANCH  13  14
ENDBRANCH   7  13
TORSDOF 7
ENDMDL
MODEL      202
REMARK 921   NORMALIZED FREE ENERGY PREDICTED BY IDOCK:   -4.56 KCAL/MOL
REMARK 922        TOTAL FREE ENERGY PREDICTED BY IDOCK:   -7.74 KCAL/MOL
REMARK 923 INTER-LIGAND FREE ENERGY PREDICTED BY IDOCK:   -8.04 KCAL/MOL
REMARK 924 INTRA-LIGAND FREE ENERGY PREDICTED BY IDOCK:    0.30 KCAL/MOL
REMARK 927      BINDING AFFINITY PREDICTED BY RF-SCORE:    0.00 PKD
ROOT
HETATM    1  O   UNL     1     -10.477   6.024  66.240  1.00  0.00    -0.102 OA 
HETATM    2  C   UNL     1     -10.573   5.974  67.462  1.00  0.00    -0.273 C  
HETATM    3  N   UNL     1     -11.239   6.924  68.186  1.00  0.00    -0.541 N  
HETATM    4  C   UNL     1     -11.334   6.903  69.584  1.00  0.00    -0.203 A  
HETATM    5  H   UNL     1     -11.689   7.688  67.682  1.00  0.00     0.000 HD 
HETATM    6  C   UNL     1     -12.015   7.920  70.252  1.00  0.00     0.245 A  
HETATM    7  C   UNL     1     -12.085   7.908  71.647  1.00  0.00    -0.299 A  
HETATM    8  C   UNL     1      -9.962   4.857  68.225  1.00  0.00    -0.177 C  
HETATM    9  C   UNL     1     -11.469   6.869  72.358  1.00  0.00    -0.297 A  
HETATM   10  C   UNL     1     -10.035   4.801  69.560  1.00  0.00    -0.287 C  
HETATM   11  C   UNL     1     -10.795   5.847  71.686  1.00  0.00    -0.321 A  
HETATM   12  C   UNL     1     -10.729   5.857  70.294  1.00  0.00    -0.383 A  
ENDROOT
BRANCH   7  13
HETATM   13  O   UNL     1     -12.779   8.953  72.202  1.00  0.00    -0.358 OA 
BRANCH  13  14
HETATM   14  C   UNL     1     -12.826  10.140  71.411  1.00  0.00    -0.428 C  
BRANCH  14  15
HETATM   15  C   UNL     1     -13.437  11.281  72.218  1.00  0.00    -0.026 C  
BRANCH  15  16
HETATM   16  C   UNL     1     -13.089  12.649  71.623  1.00  0.00    -0.421 C  
BRANCH  16  17
HETATM   17  C   UNL     1     -13.040  13.810  72.633  1.00  0.00    -0.391 C  
BRANCH  17  18
HETATM   18  N   UNL     1     -13.501  15.099  72.102  1.00  0.00    -0.383 NA 
HETATM   19  C   UNL     1     -12.444  16.140  72.089  1.00  0.00    -0.391 C  
HETATM   20  C   UNL     1     -11.313  15.930  71.050  1.00  0.00    -0.389 C  
HETATM   21  N   UNL     1     -11.879  15.725  69.712  1.00  0.00    -0.351 NA 
HETATM   22  C   UNL     1     -14.008  14.953  70.711  1.00  0.00     0.076 C  
HETATM   23  C   UNL     1     -12.924  14.693  69.630  1.00  0.00     0.421 C  
BRANCH  21  24
HETATM   24  C   UNL     1     -11.156  16.074  68.567  1.00  0.00    -0.347 A  
HETATM   25  C   UNL     1     -10.388  17.276  68.392  1.00  0.00    -0.366 A  
HETATM   26  C   UNL     1      -9.979  18.302  69.325  1.00  0.00    -0.086 A  
HETATM   27  C   UNL     1      -9.291  19.343  68.750  1.00  0.00    -0.387 A  
HETATM   28  S   UNL     1      -9.057  19.099  67.088  1.00  0.00    -0.295 SA 
HETATM   29  C   UNL     1      -9.874  17.578  67.122  1.00  0.00    -0.297 A  
HETATM   30  C   UNL     1     -10.039  16.720  66.020  1.00  0.00    -0.350 A  
HETATM   31  C   UNL     1     -10.723  15.529  66.202  1.00  0.00    -0.315 A  
HETATM   32  C   UNL     1     -11.267  15.221  67.442  1.00  0.00    -0.311 A  
ENDBRANCH  21  24
ENDBRANCH  17  18
ENDBRANCH  16  17
ENDBRANCH  15  16
ENDBRANCH  14  15
ENDBRANCH  13  14
ENDBRANCH   7  13
TORSDOF 7
ENDMDL
MODEL      203
REMARK 921   NORMALIZED FREE ENERGY PREDICTED BY IDOCK:   -4.54 KCAL/MOL
REMARK 922        TOTAL FREE ENERGY PREDICTED BY IDOCK:   -7.70 KCAL/MOL
REMARK 923 INTER-LIGAND FREE ENERGY PREDICTED BY IDOCK:   -7.48 KCAL/MOL
REMARK 924 INTRA-LIGAND FREE ENERGY PREDICTED BY IDOCK:   -0.21 KCAL/MOL
REMARK 927      BINDING AFFINITY PREDICTED BY RF-SCORE:    0.00 PKD
ROOT
HETATM    1  O   UNL     1      -6.981  16.375  67.370  1.00  0.00    -0.133 OA 
HETATM    2  C   UNL     1      -8.139  15.999  67.224  1.00  0.00    -0.177 C  
HETATM    3  N   UNL     1      -8.459  14.846  66.563  1.00  0.00    -0.431 N  
HETATM    4  C   UNL     1      -9.776  14.413  66.357  1.00  0.00    -0.302 A  
HETATM    5  H   UNL     1      -7.699  14.270  66.200  1.00  0.00     0.000 HD 
HETATM    6  C   UNL     1     -10.022  13.233  65.655  1.00  0.00    -0.242 A  
HETATM    7  C   UNL     1     -11.337  12.821  65.431  1.00  0.00    -0.304 A  
HETATM    8  C   UNL     1      -9.267  16.792  67.772  1.00  0.00    -0.222 C  
HETATM    9  C   UNL     1     -12.395  13.600  65.919  1.00  0.00    -0.516 A  
HETATM   10  C   UNL     1     -10.538  16.409  67.599  1.00  0.00    -0.313 C  
HETATM   11  C   UNL     1     -12.146  14.777  66.629  1.00  0.00    -0.117 A  
HETATM   12  C   UNL     1     -10.834  15.186  66.856  1.00  0.00    -0.317 A  
ENDROOT
BRANCH   7  13
HETATM   13  O   UNL     1     -11.466  11.648  64.732  1.00  0.00    -0.257 OA 
BRANCH  13  14
HETATM   14  C   UNL     1     -10.621  11.526  63.588  1.00  0.00    -0.429 C  
BRANCH  14  15
HETATM   15  C   UNL     1      -9.226  11.084  64.015  1.00  0.00    -0.178 C  
BRANCH  15  16
HETATM   16  C   UNL     1      -9.184   9.594  64.367  1.00  0.00    -0.258 C  
BRANCH  16  17
HETATM   17  C   UNL     1      -9.157   9.276  65.873  1.00  0.00    -0.197 C  
BRANCH  17  18
HETATM   18  N   UNL     1     -10.465   8.938  66.448  1.00  0.00    -0.143 NA 
HETATM   19  C   UNL     1     -10.516   7.574  67.030  1.00  0.00    -0.338 C  
HETATM   20  C   UNL     1      -9.708   7.375  68.336  1.00  0.00    -0.153 C  
HETATM   21  N   UNL     1     -10.076   8.393  69.326  1.00  0.00    -0.197 NA 
HETATM   22  C   UNL     1     -10.843   9.900  67.519  1.00  0.00    -0.243 C  
HETATM   23  C   UNL     1     -10.032   9.780  68.838  1.00  0.00    -0.176 C  
BRANCH  21  24
HETATM   24  C   UNL     1      -9.961   8.135  70.696  1.00  0.00    -0.189 A  
HETATM   25  C   UNL     1      -8.791   7.628  71.361  1.00  0.00    -0.141 A  
HETATM   26  C   UNL     1      -7.429   7.449  70.909  1.00  0.00    -0.074 A  
HETATM   27  C   UNL     1      -6.600   6.870  71.839  1.00  0.00    -0.053 A  
HETATM   28  S   UNL     1      -7.407   6.578  73.303  1.00  0.00    -0.085 SA 
HETATM   29  C   UNL     1      -8.885   7.239  72.705  1.00  0.00    -0.126 A  
HETATM   30  C   UNL     1     -10.072   7.374  73.445  1.00  0.00    -0.389 A  
HETATM   31  C   UNL     1     -11.184   7.923  72.826  1.00  0.00    -0.466 A  
HETATM   32  C   UNL     1     -11.125   8.289  71.488  1.00  0.00    -0.315 A  
ENDBRANCH  21  24
ENDBRANCH  17  18
ENDBRANCH  16  17
ENDBRANCH  15  16
ENDBRANCH  14  15
ENDBRANCH  13  14
ENDBRANCH   7  13
TORSDOF 7
ENDMDL
MODEL      204
REMARK 921   NORMALIZED FREE ENERGY PREDICTED BY IDOCK:   -4.53 KCAL/MOL
REMARK 922        TOTAL FREE ENERGY PREDICTED BY IDOCK:   -7.69 KCAL/MOL
REMARK 923 INTER-LIGAND FREE ENERGY PREDICTED BY IDOCK:   -7.09 KCAL/MOL
REMARK 924 INTRA-LIGAND FREE ENERGY PREDICTED BY IDOCK:   -0.60 KCAL/MOL
REMARK 927      BINDING AFFINITY PREDICTED BY RF-SCORE:    0.00 PKD
ROOT
HETATM    1  O   UNL     1      -6.515   1.877  73.994  1.00  0.00    -0.015 OA 
HETATM    2  C   UNL     1      -7.031   2.596  73.146  1.00  0.00    -0.031 C  
HETATM    3  N   UNL     1      -8.207   3.260  73.362  1.00  0.00    -0.074 N  
HETATM    4  C   UNL     1      -8.830   4.062  72.396  1.00  0.00    -0.106 A  
HETATM    5  H   UNL     1      -8.654   3.166  74.274  1.00  0.00     0.000 HD 
HETATM    6  C   UNL     1     -10.040   4.692  72.687  1.00  0.00    -0.224 A  
HETATM    7  C   UNL     1     -10.669   5.469  71.711  1.00  0.00    -0.226 A  
HETATM    8  C   UNL     1      -6.389   2.785  71.821  1.00  0.00    -0.015 C  
HETATM    9  C   UNL     1     -10.073   5.606  70.451  1.00  0.00    -0.284 A  
HETATM   10  C   UNL     1      -6.952   3.546  70.875  1.00  0.00    -0.033 C  
HETATM   11  C   UNL     1      -8.857   4.981  70.165  1.00  0.00    -0.138 A  
HETATM   12  C   UNL     1      -8.227   4.210  71.139  1.00  0.00    -0.075 A  
ENDROOT
BRANCH   7  13
HETATM   13  O   UNL     1     -11.852   6.044  72.102  1.00  0.00    -0.312 OA 
BRANCH  13  14
HETATM   14  C   UNL     1     -12.149   7.300  71.493  1.00  0.00    -0.331 C  
BRANCH  14  15
HETATM   15  C   UNL     1     -12.226   8.389  72.557  1.00  0.00    -0.381 C  
BRANCH  15  16
HETATM   16  C   UNL     1     -13.232   9.481  72.182  1.00  0.00    -0.539 C  
BRANCH  16  17
HETATM   17  C   UNL     1     -12.947  10.207  70.855  1.00  0.00    -0.351 C  
BRANCH  17  18
HETATM   18  N   UNL     1     -11.666  10.925  70.816  1.00  0.00    -0.312 NA 
HETATM   19  C   UNL     1     -10.695  10.343  69.857  1.00  0.00    -0.279 C  
HETATM   20  C   UNL     1     -11.037  10.537  68.359  1.00  0.00    -0.281 C  
HETATM   21  N   UNL     1     -11.288  11.954  68.071  1.00  0.00    -0.264 NA 
HETATM   22  C   UNL     1     -11.865  12.353  70.445  1.00  0.00    -0.161 C  
HETATM   23  C   UNL     1     -12.257  12.608  68.964  1.00  0.00     0.018 C  
BRANCH  21  24
HETATM   24  C   UNL     1     -11.055  12.478  66.795  1.00  0.00    -0.279 A  
HETATM   25  C   UNL     1     -10.856  13.867  66.481  1.00  0.00    -0.295 A  
HETATM   26  C   UNL     1     -10.638  15.023  67.322  1.00  0.00    -0.279 A  
HETATM   27  C   UNL     1     -10.552  16.209  66.635  1.00  0.00    -0.274 A  
HETATM   28  S   UNL     1     -10.666  15.974  64.959  1.00  0.00    -0.267 SA 
HETATM   29  C   UNL     1     -10.825  14.264  65.136  1.00  0.00    -0.378 A  
HETATM   30  C   UNL     1     -10.929  13.344  64.078  1.00  0.00    -0.245 A  
HETATM   31  C   UNL     1     -11.054  11.997  64.378  1.00  0.00    -0.399 A  
HETATM   32  C   UNL     1     -11.118  11.582  65.701  1.00  0.00    -0.261 A  
ENDBRANCH  21  24
ENDBRANCH  17  18
ENDBRANCH  16  17
ENDBRANCH  15  16
ENDBRANCH  14  15
ENDBRANCH  13  14
ENDBRANCH   7  13
TORSDOF 7
ENDMDL
MODEL      205
REMARK 921   NORMALIZED FREE ENERGY PREDICTED BY IDOCK:   -4.53 KCAL/MOL
REMARK 922        TOTAL FREE ENERGY PREDICTED BY IDOCK:   -7.69 KCAL/MOL
REMARK 923 INTER-LIGAND FREE ENERGY PREDICTED BY IDOCK:   -6.00 KCAL/MOL
REMARK 924 INTRA-LIGAND FREE ENERGY PREDICTED BY IDOCK:   -1.68 KCAL/MOL
REMARK 927      BINDING AFFINITY PREDICTED BY RF-SCORE:    0.00 PKD
ROOT
HETATM    1  O   UNL     1      -8.648   8.682  71.297  1.00  0.00    -0.154 OA 
HETATM    2  C   UNL     1      -7.973   9.087  70.357  1.00  0.00    -0.128 C  
HETATM    3  N   UNL     1      -7.840  10.416  70.066  1.00  0.00    -0.345 N  
HETATM    4  C   UNL     1      -7.099  10.899  68.979  1.00  0.00    -0.095 A  
HETATM    5  H   UNL     1      -8.304  11.092  70.673  1.00  0.00     0.000 HD 
HETATM    6  C   UNL     1      -7.026  12.270  68.737  1.00  0.00    -0.098 A  
HETATM    7  C   UNL     1      -6.307  12.743  67.637  1.00  0.00    -0.153 A  
HETATM    8  C   UNL     1      -7.254   8.133  69.476  1.00  0.00    -0.073 C  
HETATM    9  C   UNL     1      -5.666  11.830  66.789  1.00  0.00    -0.113 A  
HETATM   10  C   UNL     1      -6.533   8.556  68.430  1.00  0.00    -0.055 C  
HETATM   11  C   UNL     1      -5.733  10.457  67.038  1.00  0.00    -0.046 A  
HETATM   12  C   UNL     1      -6.447   9.985  68.138  1.00  0.00    -0.055 A  
ENDROOT
BRANCH   7  13
HETATM   13  O   UNL     1      -6.299  14.107  67.493  1.00  0.00    -0.289 OA 
BRANCH  13  14
HETATM   14  C   UNL     1      -6.714  14.843  68.644  1.00  0.00    -0.094 C  
BRANCH  14  15
HETATM   15  C   UNL     1      -6.736  16.335  68.328  1.00  0.00    -0.134 C  
BRANCH  15  16
HETATM   16  C   UNL     1      -8.075  16.769  67.725  1.00  0.00    -0.186 C  
BRANCH  16  17
HETATM   17  C   UNL     1      -9.195  17.046  68.744  1.00  0.00    -0.252 C  
BRANCH  17  18
HETATM   18  N   UNL     1     -10.543  16.695  68.279  1.00  0.00    -0.321 NA 
HETATM   19  C   UNL     1     -10.547  15.950  66.996  1.00  0.00    -0.306 C  
HETATM   20  C   UNL     1     -10.014  14.497  67.066  1.00  0.00    -0.255 C  
HETATM   21  N   UNL     1     -10.707  13.748  68.121  1.00  0.00    -0.242 NA 
HETATM   22  C   UNL     1     -11.255  15.862  69.286  1.00  0.00    -0.335 C  
HETATM   23  C   UNL     1     -10.734  14.407  69.436  1.00  0.00    -0.162 C  
BRANCH  21  24
HETATM   24  C   UNL     1     -10.854  12.360  68.037  1.00  0.00    -0.221 A  
HETATM   25  C   UNL     1     -11.433  11.513  69.043  1.00  0.00    -0.355 A  
HETATM   26  C   UNL     1     -12.173  11.818  70.248  1.00  0.00    -0.381 A  
HETATM   27  C   UNL     1     -12.512  10.714  70.993  1.00  0.00    -0.413 A  
HETATM   28  S   UNL     1     -12.012   9.275  70.246  1.00  0.00     0.220 SA 
HETATM   29  C   UNL     1     -11.339  10.121  68.901  1.00  0.00    -0.120 A  
HETATM   30  C   UNL     1     -10.741   9.519  67.780  1.00  0.00    -0.302 A  
HETATM   31  C   UNL     1     -10.240  10.332  66.776  1.00  0.00    -0.286 A  
HETATM   32  C   UNL     1     -10.295  11.713  66.907  1.00  0.00    -0.253 A  
ENDBRANCH  21  24
ENDBRANCH  17  18
ENDBRANCH  16  17
ENDBRANCH  15  16
ENDBRANCH  14  15
ENDBRANCH  13  14
ENDBRANCH   7  13
TORSDOF 7
ENDMDL
MODEL      206
REMARK 921   NORMALIZED FREE ENERGY PREDICTED BY IDOCK:   -4.51 KCAL/MOL
REMARK 922        TOTAL FREE ENERGY PREDICTED BY IDOCK:   -7.66 KCAL/MOL
REMARK 923 INTER-LIGAND FREE ENERGY PREDICTED BY IDOCK:   -6.72 KCAL/MOL
REMARK 924 INTRA-LIGAND FREE ENERGY PREDICTED BY IDOCK:   -0.94 KCAL/MOL
REMARK 927      BINDING AFFINITY PREDICTED BY RF-SCORE:    0.00 PKD
ROOT
HETATM    1  O   UNL     1     -14.408   9.001  72.623  1.00  0.00    -0.603 OA 
HETATM    2  C   UNL     1     -13.345   9.207  72.048  1.00  0.00    -0.445 C  
HETATM    3  N   UNL     1     -13.217  10.129  71.047  1.00  0.00    -0.446 N  
HETATM    4  C   UNL     1     -12.020  10.358  70.355  1.00  0.00    -0.320 A  
HETATM    5  H   UNL     1     -14.037  10.679  70.789  1.00  0.00     0.000 HD 
HETATM    6  C   UNL     1     -11.974  11.303  69.331  1.00  0.00    -0.410 A  
HETATM    7  C   UNL     1     -10.785  11.508  68.629  1.00  0.00    -0.207 A  
HETATM    8  C   UNL     1     -12.123   8.451  72.422  1.00  0.00    -0.443 C  
HETATM    9  C   UNL     1      -9.649  10.759  68.965  1.00  0.00    -0.193 A  
HETATM   10  C   UNL     1     -10.961   8.644  71.788  1.00  0.00    -0.396 C  
HETATM   11  C   UNL     1      -9.694   9.818  69.997  1.00  0.00    -0.292 A  
HETATM   12  C   UNL     1     -10.880   9.617  70.700  1.00  0.00    -0.386 A  
ENDROOT
BRANCH   7  13
HETATM   13  O   UNL     1     -10.850  12.461  67.644  1.00  0.00    -0.214 OA 
BRANCH  13  14
HETATM   14  C   UNL     1     -11.506  12.052  66.444  1.00  0.00    -0.353 C  
BRANCH  14  15
HETATM   15  C   UNL     1     -10.652  12.413  65.234  1.00  0.00    -0.322 C  
BRANCH  15  16
HETATM   16  C   UNL     1     -10.021  11.174  64.592  1.00  0.00    -0.345 C  
BRANCH  16  17
HETATM   17  C   UNL     1      -8.847  10.557  65.373  1.00  0.00    -0.187 C  
BRANCH  17  18
HETATM   18  N   UNL     1      -7.622  10.369  64.585  1.00  0.00    -0.098 NA 
HETATM   19  C   UNL     1      -6.614   9.516  65.261  1.00  0.00    -0.082 C  
HETATM   20  C   UNL     1      -6.972   8.013  65.365  1.00  0.00    -0.063 C  
HETATM   21  N   UNL     1      -7.326   7.479  64.045  1.00  0.00    -0.088 NA 
HETATM   22  C   UNL     1      -7.925   9.751  63.266  1.00  0.00    -0.145 C  
HETATM   23  C   UNL     1      -8.339   8.255  63.311  1.00  0.00    -0.039 C  
BRANCH  21  24
HETATM   24  C   UNL     1      -7.135   6.126  63.744  1.00  0.00    -0.053 A  
HETATM   25  C   UNL     1      -7.857   5.027  64.322  1.00  0.00    -0.091 A  
HETATM   26  C   UNL     1      -9.040   4.982  65.153  1.00  0.00    -0.127 A  
HETATM   27  C   UNL     1      -9.394   3.719  65.560  1.00  0.00    -0.160 A  
HETATM   28  S   UNL     1      -8.360   2.539  64.913  1.00  0.00    -0.091 SA 
HETATM   29  C   UNL     1      -7.426   3.717  64.066  1.00  0.00    -0.063 A  
HETATM   30  C   UNL     1      -6.340   3.435  63.219  1.00  0.00    -0.022 A  
HETATM   31  C   UNL     1      -5.682   4.491  62.607  1.00  0.00    -0.013 A  
HETATM   32  C   UNL     1      -6.072   5.798  62.868  1.00  0.00    -0.021 A  
ENDBRANCH  21  24
ENDBRANCH  17  18
ENDBRANCH  16  17
ENDBRANCH  15  16
ENDBRANCH  14  15
ENDBRANCH  13  14
ENDBRANCH   7  13
TORSDOF 7
ENDMDL
MODEL      207
REMARK 921   NORMALIZED FREE ENERGY PREDICTED BY IDOCK:   -4.47 KCAL/MOL
REMARK 922        TOTAL FREE ENERGY PREDICTED BY IDOCK:   -7.61 KCAL/MOL
REMARK 923 INTER-LIGAND FREE ENERGY PREDICTED BY IDOCK:   -6.50 KCAL/MOL
REMARK 924 INTRA-LIGAND FREE ENERGY PREDICTED BY IDOCK:   -1.11 KCAL/MOL
REMARK 927      BINDING AFFINITY PREDICTED BY RF-SCORE:    0.00 PKD
ROOT
HETATM    1  O   UNL     1      -6.372  14.094  68.316  1.00  0.00    -0.095 OA 
HETATM    2  C   UNL     1      -7.309  13.604  67.694  1.00  0.00    -0.176 C  
HETATM    3  N   UNL     1      -7.257  12.348  67.157  1.00  0.00    -0.309 N  
HETATM    4  C   UNL     1      -8.304  11.780  66.417  1.00  0.00    -0.040 A  
HETATM    5  H   UNL     1      -6.412  11.795  67.302  1.00  0.00     0.000 HD 
HETATM    6  C   UNL     1      -8.167  10.498  65.884  1.00  0.00    -0.152 A  
HETATM    7  C   UNL     1      -9.203   9.948  65.126  1.00  0.00    -0.234 A  
HETATM    8  C   UNL     1      -8.567  14.365  67.496  1.00  0.00    -0.199 C  
HETATM    9  C   UNL     1     -10.370  10.694  64.912  1.00  0.00    -0.347 A  
HETATM   10  C   UNL     1      -9.590  13.856  66.799  1.00  0.00    -0.288 C  
HETATM   11  C   UNL     1     -10.508  11.974  65.454  1.00  0.00    -0.313 A  
HETATM   12  C   UNL     1      -9.476  12.521  66.214  1.00  0.00    -0.210 A  
ENDROOT
BRANCH   7  13
HETATM   13  O   UNL     1      -8.965   8.684  64.651  1.00  0.00    -0.040 OA 
BRANCH  13  14
HETATM   14  C   UNL     1      -7.699   8.499  64.019  1.00  0.00    -0.137 C  
BRANCH  14  15
HETATM   15  C   UNL     1      -6.849   7.525  64.829  1.00  0.00    -0.047 C  
BRANCH  15  16
HETATM   16  C   UNL     1      -7.248   6.070  64.567  1.00  0.00    -0.063 C  
BRANCH  16  17
HETATM   17  C   UNL     1      -8.691   5.705  64.957  1.00  0.00    -0.064 C  
BRANCH  17  18
HETATM   18  N   UNL     1      -8.834   5.142  66.307  1.00  0.00    -0.121 NA 
HETATM   19  C   UNL     1      -8.015   5.844  67.325  1.00  0.00    -0.102 C  
HETATM   20  C   UNL     1      -8.486   7.273  67.693  1.00  0.00    -0.116 C  
HETATM   21  N   UNL     1      -9.906   7.264  68.063  1.00  0.00    -0.141 NA 
HETATM   22  C   UNL     1     -10.252   5.190  66.758  1.00  0.00    -0.253 C  
HETATM   23  C   UNL     1     -10.796   6.604  67.095  1.00  0.00    -0.401 C  
BRANCH  21  24
HETATM   24  C   UNL     1     -10.423   8.220  68.943  1.00  0.00    -0.191 A  
HETATM   25  C   UNL     1     -11.243   7.948  70.092  1.00  0.00    -0.157 A  
HETATM   26  C   UNL     1     -11.581   6.712  70.763  1.00  0.00    -0.432 A  
HETATM   27  C   UNL     1     -12.459   6.863  71.809  1.00  0.00    -0.356 A  
HETATM   28  S   UNL     1     -12.859   8.492  72.063  1.00  0.00    -0.386 SA 
HETATM   29  C   UNL     1     -11.845   9.019  70.769  1.00  0.00    -0.206 A  
HETATM   30  C   UNL     1     -11.635  10.358  70.396  1.00  0.00    -0.423 A  
HETATM   31  C   UNL     1     -10.791  10.627  69.330  1.00  0.00    -0.282 A  
HETATM   32  C   UNL     1     -10.207   9.583  68.625  1.00  0.00    -0.215 A  
ENDBRANCH  21  24
ENDBRANCH  17  18
ENDBRANCH  16  17
ENDBRANCH  15  16
ENDBRANCH  14  15
ENDBRANCH  13  14
ENDBRANCH   7  13
TORSDOF 7
ENDMDL
MODEL      208
REMARK 921   NORMALIZED FREE ENERGY PREDICTED BY IDOCK:   -4.47 KCAL/MOL
REMARK 922        TOTAL FREE ENERGY PREDICTED BY IDOCK:   -7.60 KCAL/MOL
REMARK 923 INTER-LIGAND FREE ENERGY PREDICTED BY IDOCK:   -7.30 KCAL/MOL
REMARK 924 INTRA-LIGAND FREE ENERGY PREDICTED BY IDOCK:   -0.31 KCAL/MOL
REMARK 927      BINDING AFFINITY PREDICTED BY RF-SCORE:    0.00 PKD
ROOT
HETATM    1  O   UNL     1      -6.259  16.065  67.668  1.00  0.00    -0.134 OA 
HETATM    2  C   UNL     1      -7.463  15.842  67.739  1.00  0.00    -0.140 C  
HETATM    3  N   UNL     1      -8.063  14.826  67.049  1.00  0.00    -0.323 N  
HETATM    4  C   UNL     1      -9.441  14.572  67.090  1.00  0.00    -0.231 A  
HETATM    5  H   UNL     1      -7.477  14.220  66.473  1.00  0.00     0.000 HD 
HETATM    6  C   UNL     1      -9.981  13.527  66.342  1.00  0.00    -0.296 A  
HETATM    7  C   UNL     1     -11.359  13.295  66.367  1.00  0.00    -0.312 A  
HETATM    8  C   UNL     1      -8.340  16.680  68.595  1.00  0.00    -0.246 C  
HETATM    9  C   UNL     1     -12.181  14.119  67.148  1.00  0.00    -0.348 A  
HETATM   10  C   UNL     1      -9.659  16.466  68.663  1.00  0.00    -0.240 C  
HETATM   11  C   UNL     1     -11.636  15.160  67.904  1.00  0.00    -0.326 A  
HETATM   12  C   UNL     1     -10.261  15.388  67.881  1.00  0.00    -0.239 A  
ENDROOT
BRANCH   7  13
HETATM   13  O   UNL     1     -11.783  12.242  65.597  1.00  0.00    -0.382 OA 
BRANCH  13  14
HETATM   14  C   UNL     1     -11.720  12.455  64.187  1.00  0.00    -0.400 C  
BRANCH  14  15
HETATM   15  C   UNL     1     -10.295  12.238  63.691  1.00  0.00    -0.463 C  
BRANCH  15  16
HETATM   16  C   UNL     1      -9.948  10.750  63.590  1.00  0.00    -0.405 C  
BRANCH  16  17
HETATM   17  C   UNL     1      -9.893   9.997  64.931  1.00  0.00    -0.281 C  
BRANCH  17  18
HETATM   18  N   UNL     1      -8.552   9.545  65.322  1.00  0.00    -0.146 NA 
HETATM   19  C   UNL     1      -7.926  10.396  66.365  1.00  0.00    -0.130 C  
HETATM   20  C   UNL     1      -8.553  10.290  67.777  1.00  0.00    -0.118 C  
HETATM   21  N   UNL     1      -8.622   8.887  68.202  1.00  0.00    -0.129 NA 
HETATM   22  C   UNL     1      -8.588   8.150  65.840  1.00  0.00    -0.151 C  
HETATM   23  C   UNL     1      -9.249   7.974  67.234  1.00  0.00    -0.139 C  
BRANCH  21  24
HETATM   24  C   UNL     1      -8.592   8.547  69.559  1.00  0.00    -0.131 A  
HETATM   25  C   UNL     1      -9.736   8.249  70.376  1.00  0.00    -0.175 A  
HETATM   26  C   UNL     1     -11.124   8.015  70.041  1.00  0.00    -0.154 A  
HETATM   27  C   UNL     1     -11.939   7.817  71.130  1.00  0.00    -0.291 A  
HETATM   28  S   UNL     1     -11.063   7.843  72.583  1.00  0.00    -0.396 SA 
HETATM   29  C   UNL     1      -9.568   8.112  71.762  1.00  0.00    -0.188 A  
HETATM   30  C   UNL     1      -8.308   8.206  72.379  1.00  0.00    -0.227 A  
HETATM   31  C   UNL     1      -7.194   8.428  71.586  1.00  0.00    -0.099 A  
HETATM   32  C   UNL     1      -7.338   8.596  70.215  1.00  0.00    -0.054 A  
ENDBRANCH  21  24
ENDBRANCH  17  18
ENDBRANCH  16  17
ENDBRANCH  15  16
ENDBRANCH  14  15
ENDBRANCH  13  14
ENDBRANCH   7  13
TORSDOF 7
ENDMDL
MODEL      209
REMARK 921   NORMALIZED FREE ENERGY PREDICTED BY IDOCK:   -4.46 KCAL/MOL
REMARK 922        TOTAL FREE ENERGY PREDICTED BY IDOCK:   -7.58 KCAL/MOL
REMARK 923 INTER-LIGAND FREE ENERGY PREDICTED BY IDOCK:   -7.01 KCAL/MOL
REMARK 924 INTRA-LIGAND FREE ENERGY PREDICTED BY IDOCK:   -0.58 KCAL/MOL
REMARK 927      BINDING AFFINITY PREDICTED BY RF-SCORE:    0.00 PKD
ROOT
HETATM    1  O   UNL     1     -11.917  16.428  71.728  1.00  0.00    -0.446 OA 
HETATM    2  C   UNL     1     -12.255  15.251  71.786  1.00  0.00    -0.360 C  
HETATM    3  N   UNL     1     -11.651  14.276  71.042  1.00  0.00    -0.516 N  
HETATM    4  C   UNL     1     -12.041  12.930  71.069  1.00  0.00     0.050 A  
HETATM    5  H   UNL     1     -10.876  14.542  70.434  1.00  0.00     0.000 HD 
HETATM    6  C   UNL     1     -11.388  11.997  70.265  1.00  0.00     0.219 A  
HETATM    7  C   UNL     1     -11.798  10.662  70.277  1.00  0.00    -0.342 A  
HETATM    8  C   UNL     1     -13.354  14.822  72.686  1.00  0.00    -0.559 C  
HETATM    9  C   UNL     1     -12.864  10.278  71.102  1.00  0.00    -0.504 A  
HETATM   10  C   UNL     1     -13.752  13.546  72.743  1.00  0.00    -0.329 C  
HETATM   11  C   UNL     1     -13.512  11.212  71.913  1.00  0.00    -0.284 A  
HETATM   12  C   UNL     1     -13.099  12.543  71.903  1.00  0.00    -0.473 A  
ENDROOT
BRANCH   7  13
HETATM   13  O   UNL     1     -11.087   9.830  69.451  1.00  0.00    -0.227 OA 
BRANCH  13  14
HETATM   14  C   UNL     1     -11.162  10.143  68.060  1.00  0.00    -0.179 C  
BRANCH  14  15
HETATM   15  C   UNL     1     -11.118   8.863  67.234  1.00  0.00     0.338 C  
BRANCH  15  16
HETATM   16  C   UNL     1      -9.990   8.892  66.198  1.00  0.00    -0.290 C  
BRANCH  16  17
HETATM   17  C   UNL     1      -8.666   9.504  66.689  1.00  0.00    -0.134 C  
BRANCH  17  18
HETATM   18  N   UNL     1      -8.154  10.599  65.854  1.00  0.00    -0.158 NA 
HETATM   19  C   UNL     1      -9.226  11.448  65.277  1.00  0.00    -0.129 C  
HETATM   20  C   UNL     1      -9.979  12.350  66.286  1.00  0.00    -0.246 C  
HETATM   21  N   UNL     1      -9.028  13.147  67.068  1.00  0.00    -0.226 NA 
HETATM   22  C   UNL     1      -7.247  11.485  66.633  1.00  0.00    -0.068 C  
HETATM   23  C   UNL     1      -7.940  12.380  67.695  1.00  0.00    -0.164 C  
BRANCH  21  24
HETATM   24  C   UNL     1      -9.399  14.387  67.599  1.00  0.00    -0.200 A  
HETATM   25  C   UNL     1      -9.880  15.514  66.847  1.00  0.00    -0.245 A  
HETATM   26  C   UNL     1     -10.300  15.643  65.469  1.00  0.00    -0.421 A  
HETATM   27  C   UNL     1     -10.642  16.922  65.104  1.00  0.00    -0.069 A  
HETATM   28  S   UNL     1     -10.533  17.999  66.411  1.00  0.00    -0.288 SA 
HETATM   29  C   UNL     1     -10.030  16.750  67.492  1.00  0.00    -0.266 A  
HETATM   30  C   UNL     1      -9.775  16.919  68.864  1.00  0.00    -0.256 A  
HETATM   31  C   UNL     1      -9.375  15.819  69.606  1.00  0.00    -0.176 A  
HETATM   32  C   UNL     1      -9.190  14.591  68.985  1.00  0.00    -0.059 A  
ENDBRANCH  21  24
ENDBRANCH  17  18
ENDBRANCH  16  17
ENDBRANCH  15  16
ENDBRANCH  14  15
ENDBRANCH  13  14
ENDBRANCH   7  13
TORSDOF 7
ENDMDL
MODEL      210
REMARK 921   NORMALIZED FREE ENERGY PREDICTED BY IDOCK:   -4.45 KCAL/MOL
REMARK 922        TOTAL FREE ENERGY PREDICTED BY IDOCK:   -7.58 KCAL/MOL
REMARK 923 INTER-LIGAND FREE ENERGY PREDICTED BY IDOCK:   -6.80 KCAL/MOL
REMARK 924 INTRA-LIGAND FREE ENERGY PREDICTED BY IDOCK:   -0.78 KCAL/MOL
REMARK 927      BINDING AFFINITY PREDICTED BY RF-SCORE:    0.00 PKD
ROOT
HETATM    1  O   UNL     1     -11.138  20.121  65.193  1.00  0.00    -0.227 OA 
HETATM    2  C   UNL     1     -10.452  19.438  65.946  1.00  0.00    -0.472 C  
HETATM    3  N   UNL     1     -10.863  18.219  66.410  1.00  0.00    -0.115 N  
HETATM    4  C   UNL     1     -10.110  17.436  67.296  1.00  0.00    -0.310 A  
HETATM    5  H   UNL     1     -11.766  17.862  66.096  1.00  0.00     0.000 HD 
HETATM    6  C   UNL     1     -10.607  16.211  67.740  1.00  0.00    -0.309 A  
HETATM    7  C   UNL     1      -9.864  15.447  68.642  1.00  0.00    -0.208 A  
HETATM    8  C   UNL     1      -9.119  19.910  66.394  1.00  0.00    -0.450 C  
HETATM    9  C   UNL     1      -8.624  15.923  69.089  1.00  0.00    -0.252 A  
HETATM   10  C   UNL     1      -8.369  19.188  67.235  1.00  0.00    -0.301 C  
HETATM   11  C   UNL     1      -8.124  17.146  68.636  1.00  0.00    -0.264 A  
HETATM   12  C   UNL     1      -8.864  17.906  67.732  1.00  0.00    -0.251 A  
ENDROOT
BRANCH   7  13
HETATM   13  O   UNL     1     -10.444  14.260  69.013  1.00  0.00    -0.239 OA 
BRANCH  13  14
HETATM   14  C   UNL     1     -10.734  13.364  67.940  1.00  0.00    -0.247 C  
BRANCH  14  15
HETATM   15  C   UNL     1      -9.438  12.818  67.352  1.00  0.00    -0.190 C  
BRANCH  15  16
HETATM   16  C   UNL     1      -9.277  11.319  67.623  1.00  0.00    -0.156 C  
BRANCH  16  17
HETATM   17  C   UNL     1      -9.425  10.900  69.097  1.00  0.00    -0.089 C  
BRANCH  17  18
HETATM   18  N   UNL     1     -10.549   9.993  69.363  1.00  0.00    -0.218 NA 
HETATM   19  C   UNL     1     -10.460   8.713  68.617  1.00  0.00    -0.177 C  
HETATM   20  C   UNL     1      -9.350   7.741  69.088  1.00  0.00    -0.151 C  
HETATM   21  N   UNL     1      -9.452   7.511  70.534  1.00  0.00    -0.165 NA 
HETATM   22  C   UNL     1     -10.639   9.665  70.812  1.00  0.00    -0.322 C  
HETATM   23  C   UNL     1      -9.524   8.731  71.354  1.00  0.00    -0.259 C  
BRANCH  21  24
HETATM   24  C   UNL     1      -8.997   6.317  71.104  1.00  0.00    -0.146 A  
HETATM   25  C   UNL     1      -9.711   5.519  72.063  1.00  0.00    -0.192 A  
HETATM   26  C   UNL     1     -11.077   5.572  72.533  1.00  0.00    -0.324 A  
HETATM   27  C   UNL     1     -11.369   4.659  73.517  1.00  0.00    -0.268 A  
HETATM   28  S   UNL     1     -10.037   3.667  73.867  1.00  0.00    -0.146 SA 
HETATM   29  C   UNL     1      -9.050   4.451  72.687  1.00  0.00    -0.118 A  
HETATM   30  C   UNL     1      -7.726   4.098  72.372  1.00  0.00    -0.081 A  
HETATM   31  C   UNL     1      -7.058   4.825  71.400  1.00  0.00    -0.051 A  
HETATM   32  C   UNL     1      -7.680   5.905  70.788  1.00  0.00    -0.097 A  
ENDBRANCH  21  24
ENDBRANCH  17  18
ENDBRANCH  16  17
ENDBRANCH  15  16
ENDBRANCH  14  15
ENDBRANCH  13  14
ENDBRANCH   7  13
TORSDOF 7
ENDMDL
MODEL      211
REMARK 921   NORMALIZED FREE ENERGY PREDICTED BY IDOCK:   -4.43 KCAL/MOL
REMARK 922        TOTAL FREE ENERGY PREDICTED BY IDOCK:   -7.55 KCAL/MOL
REMARK 923 INTER-LIGAND FREE ENERGY PREDICTED BY IDOCK:   -6.58 KCAL/MOL
REMARK 924 INTRA-LIGAND FREE ENERGY PREDICTED BY IDOCK:   -0.97 KCAL/MOL
REMARK 927      BINDING AFFINITY PREDICTED BY RF-SCORE:    0.00 PKD
ROOT
HETATM    1  O   UNL     1      -6.752   4.903  71.193  1.00  0.00    -0.033 OA 
HETATM    2  C   UNL     1      -7.200   4.910  70.051  1.00  0.00    -0.054 C  
HETATM    3  N   UNL     1      -6.764   5.787  69.097  1.00  0.00    -0.058 N  
HETATM    4  C   UNL     1      -7.283   5.833  67.795  1.00  0.00    -0.076 A  
HETATM    5  H   UNL     1      -6.023   6.442  69.345  1.00  0.00     0.000 HD 
HETATM    6  C   UNL     1      -6.799   6.770  66.883  1.00  0.00    -0.065 A  
HETATM    7  C   UNL     1      -7.338   6.828  65.596  1.00  0.00    -0.079 A  
HETATM    8  C   UNL     1      -8.252   3.946  69.644  1.00  0.00    -0.067 C  
HETATM    9  C   UNL     1      -8.360   5.939  65.238  1.00  0.00    -0.146 A  
HETATM   10  C   UNL     1      -8.770   3.957  68.410  1.00  0.00    -0.129 C  
HETATM   11  C   UNL     1      -8.837   4.995  66.150  1.00  0.00    -0.125 A  
HETATM   12  C   UNL     1      -8.296   4.935  67.433  1.00  0.00    -0.105 A  
ENDROOT
BRANCH   7  13
HETATM   13  O   UNL     1      -6.789   7.785  64.781  1.00  0.00    -0.050 OA 
BRANCH  13  14
HETATM   14  C   UNL     1      -7.360   9.088  64.901  1.00  0.00    -0.100 C  
BRANCH  14  15
HETATM   15  C   UNL     1      -8.419   9.293  63.822  1.00  0.00    -0.197 C  
BRANCH  15  16
HETATM   16  C   UNL     1      -9.614  10.096  64.344  1.00  0.00    -0.366 C  
BRANCH  16  17
HETATM   17  C   UNL     1      -9.668  10.274  65.872  1.00  0.00    -0.225 C  
BRANCH  17  18
HETATM   18  N   UNL     1      -9.547  11.664  66.329  1.00  0.00    -0.215 NA 
HETATM   19  C   UNL     1     -10.827  12.412  66.281  1.00  0.00    -0.266 C  
HETATM   20  C   UNL     1     -11.888  11.988  67.328  1.00  0.00    -0.187 C  
HETATM   21  N   UNL     1     -11.310  12.003  68.676  1.00  0.00    -0.251 NA 
HETATM   22  C   UNL     1      -9.041  11.725  67.728  1.00  0.00    -0.178 C  
HETATM   23  C   UNL     1     -10.045  11.266  68.819  1.00  0.00    -0.194 C  
BRANCH  21  24
HETATM   24  C   UNL     1     -12.115  12.226  69.799  1.00  0.00    -0.229 A  
HETATM   25  C   UNL     1     -12.430  13.508  70.366  1.00  0.00    -0.345 A  
HETATM   26  C   UNL     1     -12.218  14.854  69.881  1.00  0.00    -0.354 A  
HETATM   27  C   UNL     1     -12.612  15.836  70.757  1.00  0.00    -0.357 A  
HETATM   28  S   UNL     1     -13.305  15.183  72.161  1.00  0.00    -0.451 SA 
HETATM   29  C   UNL     1     -13.091  13.564  71.602  1.00  0.00    -0.374 A  
HETATM   30  C   UNL     1     -13.505  12.407  72.286  1.00  0.00    -0.428 A  
HETATM   31  C   UNL     1     -13.261  11.170  71.709  1.00  0.00    -0.486 A  
HETATM   32  C   UNL     1     -12.582  11.088  70.501  1.00  0.00    -0.390 A  
ENDBRANCH  21  24
ENDBRANCH  17  18
ENDBRANCH  16  17
ENDBRANCH  15  16
ENDBRANCH  14  15
ENDBRANCH  13  14
ENDBRANCH   7  13
TORSDOF 7
ENDMDL
MODEL      212
REMARK 921   NORMALIZED FREE ENERGY PREDICTED BY IDOCK:   -4.41 KCAL/MOL
REMARK 922        TOTAL FREE ENERGY PREDICTED BY IDOCK:   -7.52 KCAL/MOL
REMARK 923 INTER-LIGAND FREE ENERGY PREDICTED BY IDOCK:   -5.55 KCAL/MOL
REMARK 924 INTRA-LIGAND FREE ENERGY PREDICTED BY IDOCK:   -1.98 KCAL/MOL
REMARK 927      BINDING AFFINITY PREDICTED BY RF-SCORE:    0.00 PKD
ROOT
HETATM    1  O   UNL     1      -7.630  10.663  62.654  1.00  0.00    -0.138 OA 
HETATM    2  C   UNL     1      -8.262  10.196  63.595  1.00  0.00    -0.166 C  
HETATM    3  N   UNL     1      -7.981   8.971  64.133  1.00  0.00    -0.136 N  
HETATM    4  C   UNL     1      -8.710   8.404  65.187  1.00  0.00    -0.083 A  
HETATM    5  H   UNL     1      -7.199   8.441  63.746  1.00  0.00     0.000 HD 
HETATM    6  C   UNL     1      -8.373   7.140  65.669  1.00  0.00    -0.138 A  
HETATM    7  C   UNL     1      -9.119   6.569  66.703  1.00  0.00    -0.147 A  
HETATM    8  C   UNL     1      -9.382  10.955  64.206  1.00  0.00    -0.259 C  
HETATM    9  C   UNL     1     -10.200   7.279  67.244  1.00  0.00    -0.323 A  
HETATM   10  C   UNL     1     -10.099  10.448  65.217  1.00  0.00    -0.370 C  
HETATM   11  C   UNL     1     -10.530   8.550  66.766  1.00  0.00    -0.308 A  
HETATM   12  C   UNL     1      -9.782   9.120  65.737  1.00  0.00    -0.299 A  
ENDROOT
BRANCH   7  13
HETATM   13  O   UNL     1      -8.702   5.325  67.100  1.00  0.00    -0.109 OA 
BRANCH  13  14
HETATM   14  C   UNL     1      -7.432   5.288  67.751  1.00  0.00    -0.076 C  
BRANCH  14  15
HETATM   15  C   UNL     1      -7.623   5.190  69.260  1.00  0.00    -0.069 C  
BRANCH  15  16
HETATM   16  C   UNL     1      -7.089   6.430  69.983  1.00  0.00    -0.071 C  
BRANCH  16  17
HETATM   17  C   UNL     1      -6.974   7.696  69.114  1.00  0.00    -0.068 C  
BRANCH  17  18
HETATM   18  N   UNL     1      -6.711   8.930  69.866  1.00  0.00    -0.044 NA 
HETATM   19  C   UNL     1      -6.322  10.073  69.004  1.00  0.00    -0.044 C  
HETATM   20  C   UNL     1      -7.452  10.657  68.120  1.00  0.00    -0.090 C  
HETATM   21  N   UNL     1      -8.626  10.981  68.939  1.00  0.00    -0.149 NA 
HETATM   22  C   UNL     1      -7.907   9.343  70.650  1.00  0.00    -0.151 C  
HETATM   23  C   UNL     1      -9.094   9.893  69.813  1.00  0.00    -0.225 C  
BRANCH  21  24
HETATM   24  C   UNL     1      -9.512  11.992  68.553  1.00  0.00    -0.133 A  
HETATM   25  C   UNL     1      -9.145  13.314  68.125  1.00  0.00    -0.207 A  
HETATM   26  C   UNL     1      -7.865  13.893  67.781  1.00  0.00    -0.172 A  
HETATM   27  C   UNL     1      -7.919  15.231  67.472  1.00  0.00    -0.176 A  
HETATM   28  S   UNL     1      -9.508  15.823  67.523  1.00  0.00    -0.219 SA 
HETATM   29  C   UNL     1     -10.148  14.279  67.954  1.00  0.00    -0.233 A  
HETATM   30  C   UNL     1     -11.511  13.988  68.136  1.00  0.00    -0.341 A  
HETATM   31  C   UNL     1     -11.874  12.696  68.485  1.00  0.00    -0.342 A  
HETATM   32  C   UNL     1     -10.898  11.730  68.690  1.00  0.00    -0.259 A  
ENDBRANCH  21  24
ENDBRANCH  17  18
ENDBRANCH  16  17
ENDBRANCH  15  16
ENDBRANCH  14  15
ENDBRANCH  13  14
ENDBRANCH   7  13
TORSDOF 7
ENDMDL
MODEL      213
REMARK 921   NORMALIZED FREE ENERGY PREDICTED BY IDOCK:   -4.41 KCAL/MOL
REMARK 922        TOTAL FREE ENERGY PREDICTED BY IDOCK:   -7.52 KCAL/MOL
REMARK 923 INTER-LIGAND FREE ENERGY PREDICTED BY IDOCK:   -6.65 KCAL/MOL
REMARK 924 INTRA-LIGAND FREE ENERGY PREDICTED BY IDOCK:   -0.87 KCAL/MOL
REMARK 927      BINDING AFFINITY PREDICTED BY RF-SCORE:    0.00 PKD
ROOT
HETATM    1  O   UNL     1     -11.028   6.493  68.843  1.00  0.00    -0.282 OA 
HETATM    2  C   UNL     1     -10.368   7.161  68.055  1.00  0.00    -0.194 C  
HETATM    3  N   UNL     1     -10.933   8.093  67.229  1.00  0.00    -0.457 N  
HETATM    4  C   UNL     1     -10.203   8.845  66.298  1.00  0.00    -0.133 A  
HETATM    5  H   UNL     1     -11.939   8.248  67.293  1.00  0.00     0.000 HD 
HETATM    6  C   UNL     1     -10.855   9.764  65.477  1.00  0.00     1.068 A  
HETATM    7  C   UNL     1     -10.126  10.492  64.534  1.00  0.00    -0.332 A  
HETATM    8  C   UNL     1      -8.897   6.987  67.960  1.00  0.00    -0.124 C  
HETATM    9  C   UNL     1      -8.744  10.288  64.427  1.00  0.00    -0.209 A  
HETATM   10  C   UNL     1      -8.166   7.689  67.087  1.00  0.00    -0.118 C  
HETATM   11  C   UNL     1      -8.091   9.373  65.257  1.00  0.00    -0.124 A  
HETATM   12  C   UNL     1      -8.818   8.650  66.201  1.00  0.00    -0.204 A  
ENDROOT
BRANCH   7  13
HETATM   13  O   UNL     1     -10.865  11.367  63.780  1.00  0.00    -0.373 OA 
BRANCH  13  14
HETATM   14  C   UNL     1     -10.251  12.633  63.541  1.00  0.00    -0.035 C  
BRANCH  14  15
HETATM   15  C   UNL     1     -11.315  13.721  63.456  1.00  0.00     0.449 C  
BRANCH  15  16
HETATM   16  C   UNL     1     -11.991  13.963  64.809  1.00  0.00    -0.426 C  
BRANCH  16  17
HETATM   17  C   UNL     1     -11.423  15.138  65.625  1.00  0.00    -0.192 C  
BRANCH  17  18
HETATM   18  N   UNL     1     -10.393  14.760  66.602  1.00  0.00    -0.268 NA 
HETATM   19  C   UNL     1     -10.434  15.572  67.843  1.00  0.00    -0.266 C  
HETATM   20  C   UNL     1     -11.644  15.309  68.773  1.00  0.00    -0.362 C  
HETATM   21  N   UNL     1     -11.762  13.877  69.067  1.00  0.00    -0.314 NA 
HETATM   22  C   UNL     1     -10.527  13.330  66.993  1.00  0.00    -0.249 C  
HETATM   23  C   UNL     1     -11.751  12.997  67.888  1.00  0.00    -0.357 C  
BRANCH  21  24
HETATM   24  C   UNL     1     -12.350  13.435  70.257  1.00  0.00    -0.284 A  
HETATM   25  C   UNL     1     -12.318  12.090  70.761  1.00  0.00    -0.403 A  
HETATM   26  C   UNL     1     -11.562  10.926  70.353  1.00  0.00    -0.418 A  
HETATM   27  C   UNL     1     -11.861   9.786  71.059  1.00  0.00    -0.356 A  
HETATM   28  S   UNL     1     -13.009  10.082  72.273  1.00  0.00    -0.133 SA 
HETATM   29  C   UNL     1     -13.112  11.757  71.869  1.00  0.00    -0.376 A  
HETATM   30  C   UNL     1     -13.902  12.707  72.540  1.00  0.00    -0.129 A  
HETATM   31  C   UNL     1     -13.884  14.020  72.097  1.00  0.00    -0.627 A  
HETATM   32  C   UNL     1     -13.129  14.368  70.984  1.00  0.00    -0.417 A  
ENDBRANCH  21  24
ENDBRANCH  17  18
ENDBRANCH  16  17
ENDBRANCH  15  16
ENDBRANCH  14  15
ENDBRANCH  13  14
ENDBRANCH   7  13
TORSDOF 7
ENDMDL
MODEL      214
REMARK 921   NORMALIZED FREE ENERGY PREDICTED BY IDOCK:   -4.39 KCAL/MOL
REMARK 922        TOTAL FREE ENERGY PREDICTED BY IDOCK:   -7.49 KCAL/MOL
REMARK 923 INTER-LIGAND FREE ENERGY PREDICTED BY IDOCK:   -7.02 KCAL/MOL
REMARK 924 INTRA-LIGAND FREE ENERGY PREDICTED BY IDOCK:   -0.48 KCAL/MOL
REMARK 927      BINDING AFFINITY PREDICTED BY RF-SCORE:    0.00 PKD
ROOT
HETATM    1  O   UNL     1      -8.594   2.527  69.791  1.00  0.00    -0.052 OA 
HETATM    2  C   UNL     1      -8.605   3.348  70.701  1.00  0.00    -0.070 C  
HETATM    3  N   UNL     1      -9.607   4.266  70.851  1.00  0.00    -0.169 N  
HETATM    4  C   UNL     1      -9.624   5.233  71.866  1.00  0.00    -0.152 A  
HETATM    5  H   UNL     1     -10.384   4.246  70.190  1.00  0.00     0.000 HD 
HETATM    6  C   UNL     1     -10.673   6.148  71.941  1.00  0.00    -0.277 A  
HETATM    7  C   UNL     1     -10.671   7.126  72.938  1.00  0.00    -0.302 A  
HETATM    8  C   UNL     1      -7.511   3.382  71.703  1.00  0.00    -0.051 C  
HETATM    9  C   UNL     1      -9.611   7.172  73.854  1.00  0.00    -0.319 A  
HETATM   10  C   UNL     1      -7.494   4.288  72.688  1.00  0.00    -0.074 C  
HETATM   11  C   UNL     1      -8.565   6.249  73.782  1.00  0.00    -0.126 A  
HETATM   12  C   UNL     1      -8.570   5.271  72.789  1.00  0.00    -0.120 A  
ENDROOT
BRANCH   7  13
HETATM   13  O   UNL     1     -11.750   7.973  72.922  1.00  0.00    -0.369 OA 
BRANCH  13  14
HETATM   14  C   UNL     1     -12.253   8.292  71.625  1.00  0.00    -0.313 C  
BRANCH  14  15
HETATM   15  C   UNL     1     -12.780   9.723  71.609  1.00  0.00    -0.517 C  
BRANCH  15  16
HETATM   16  C   UNL     1     -11.737  10.708  71.073  1.00  0.00    -0.329 C  
BRANCH  16  17
HETATM   17  C   UNL     1     -10.696  10.102  70.113  1.00  0.00    -0.300 C  
BRANCH  17  18
HETATM   18  N   UNL     1     -11.079  10.141  68.696  1.00  0.00    -0.227 NA 
HETATM   19  C   UNL     1     -12.148  11.128  68.403  1.00  0.00     0.001 C  
HETATM   20  C   UNL     1     -11.729  12.615  68.499  1.00  0.00    -0.330 C  
HETATM   21  N   UNL     1     -10.534  12.864  67.685  1.00  0.00    -0.222 NA 
HETATM   22  C   UNL     1      -9.910  10.474  67.836  1.00  0.00    -0.160 C  
HETATM   23  C   UNL     1      -9.413  11.942  67.927  1.00  0.00    -0.194 C  
BRANCH  21  24
HETATM   24  C   UNL     1     -10.287  14.130  67.142  1.00  0.00    -0.265 A  
HETATM   25  C   UNL     1      -9.444  15.141  67.718  1.00  0.00    -0.194 A  
HETATM   26  C   UNL     1      -8.504  15.101  68.816  1.00  0.00    -0.180 A  
HETATM   27  C   UNL     1      -7.926  16.313  69.106  1.00  0.00    -0.221 A  
HETATM   28  S   UNL     1      -8.440  17.525  68.036  1.00  0.00    -0.249 SA 
HETATM   29  C   UNL     1      -9.444  16.428  67.159  1.00  0.00    -0.231 A  
HETATM   30  C   UNL     1     -10.203  16.754  66.021  1.00  0.00    -0.361 A  
HETATM   31  C   UNL     1     -10.966  15.763  65.425  1.00  0.00    -0.317 A  
HETATM   32  C   UNL     1     -11.006  14.489  65.976  1.00  0.00    -0.324 A  
ENDBRANCH  21  24
ENDBRANCH  17  18
ENDBRANCH  16  17
ENDBRANCH  15  16
ENDBRANCH  14  15
ENDBRANCH  13  14
ENDBRANCH   7  13
TORSDOF 7
ENDMDL
MODEL      215
REMARK 921   NORMALIZED FREE ENERGY PREDICTED BY IDOCK:   -4.37 KCAL/MOL
REMARK 922        TOTAL FREE ENERGY PREDICTED BY IDOCK:   -7.46 KCAL/MOL
REMARK 923 INTER-LIGAND FREE ENERGY PREDICTED BY IDOCK:   -6.68 KCAL/MOL
REMARK 924 INTRA-LIGAND FREE ENERGY PREDICTED BY IDOCK:   -0.78 KCAL/MOL
REMARK 927      BINDING AFFINITY PREDICTED BY RF-SCORE:    0.00 PKD
ROOT
HETATM    1  O   UNL     1      -8.031  13.633  67.133  1.00  0.00    -0.141 OA 
HETATM    2  C   UNL     1      -8.789  14.199  67.913  1.00  0.00    -0.182 C  
HETATM    3  N   UNL     1      -9.816  13.551  68.540  1.00  0.00    -0.324 N  
HETATM    4  C   UNL     1     -10.713  14.185  69.411  1.00  0.00    -0.090 A  
HETATM    5  H   UNL     1      -9.937  12.553  68.365  1.00  0.00     0.000 HD 
HETATM    6  C   UNL     1     -11.749  13.459  69.998  1.00  0.00    -0.297 A  
HETATM    7  C   UNL     1     -12.655  14.102  70.844  1.00  0.00    -0.363 A  
HETATM    8  C   UNL     1      -8.620  15.642  68.220  1.00  0.00    -0.158 C  
HETATM    9  C   UNL     1     -12.508  15.473  71.094  1.00  0.00    -0.491 A  
HETATM   10  C   UNL     1      -9.454  16.281  69.049  1.00  0.00    -0.258 C  
HETATM   11  C   UNL     1     -11.465  16.197  70.512  1.00  0.00    -0.363 A  
HETATM   12  C   UNL     1     -10.559  15.554  69.671  1.00  0.00    -0.285 A  
ENDROOT
BRANCH   7  13
HETATM   13  O   UNL     1     -13.632  13.295  71.368  1.00  0.00    -0.180 OA 
BRANCH  13  14
HETATM   14  C   UNL     1     -13.161  12.191  72.140  1.00  0.00    -0.275 C  
BRANCH  14  15
HETATM   15  C   UNL     1     -13.533  10.880  71.456  1.00  0.00    -0.135 C  
BRANCH  15  16
HETATM   16  C   UNL     1     -13.197   9.667  72.329  1.00  0.00    -0.492 C  
BRANCH  16  17
HETATM   17  C   UNL     1     -12.659   8.441  71.569  1.00  0.00    -0.308 C  
BRANCH  17  18
HETATM   18  N   UNL     1     -11.298   8.039  71.946  1.00  0.00    -0.267 NA 
HETATM   19  C   UNL     1     -11.025   6.599  71.715  1.00  0.00    -0.240 C  
HETATM   20  C   UNL     1     -10.918   6.169  70.231  1.00  0.00    -0.349 C  
HETATM   21  N   UNL     1      -9.952   7.016  69.521  1.00  0.00    -0.160 NA 
HETATM   22  C   UNL     1     -10.282   8.818  71.186  1.00  0.00    -0.246 C  
HETATM   23  C   UNL     1     -10.162   8.464  69.679  1.00  0.00    -0.209 C  
BRANCH  21  24
HETATM   24  C   UNL     1      -9.256   6.532  68.409  1.00  0.00    -0.121 A  
HETATM   25  C   UNL     1      -8.143   5.623  68.445  1.00  0.00    -0.103 A  
HETATM   26  C   UNL     1      -7.584   4.827  69.515  1.00  0.00    -0.059 A  
HETATM   27  C   UNL     1      -6.462   4.118  69.161  1.00  0.00    -0.036 A  
HETATM   28  S   UNL     1      -6.076   4.331  67.523  1.00  0.00    -0.029 SA 
HETATM   29  C   UNL     1      -7.425   5.377  67.265  1.00  0.00    -0.084 A  
HETATM   30  C   UNL     1      -7.785   5.949  66.033  1.00  0.00    -0.099 A  
HETATM   31  C   UNL     1      -8.897   6.775  65.982  1.00  0.00    -0.150 A  
HETATM   32  C   UNL     1      -9.607   7.057  67.142  1.00  0.00    -0.187 A  
ENDBRANCH  21  24
ENDBRANCH  17  18
ENDBRANCH  16  17
ENDBRANCH  15  16
ENDBRANCH  14  15
ENDBRANCH  13  14
ENDBRANCH   7  13
TORSDOF 7
ENDMDL
MODEL      216
REMARK 921   NORMALIZED FREE ENERGY PREDICTED BY IDOCK:   -4.36 KCAL/MOL
REMARK 922        TOTAL FREE ENERGY PREDICTED BY IDOCK:   -7.44 KCAL/MOL
REMARK 923 INTER-LIGAND FREE ENERGY PREDICTED BY IDOCK:   -6.51 KCAL/MOL
REMARK 924 INTRA-LIGAND FREE ENERGY PREDICTED BY IDOCK:   -0.94 KCAL/MOL
REMARK 927      BINDING AFFINITY PREDICTED BY RF-SCORE:    0.00 PKD
ROOT
HETATM    1  O   UNL     1      -9.398   9.678  62.964  1.00  0.00    -0.226 OA 
HETATM    2  C   UNL     1      -9.057  10.210  64.015  1.00  0.00    -0.254 C  
HETATM    3  N   UNL     1      -9.882  11.043  64.718  1.00  0.00    -0.254 N  
HETATM    4  C   UNL     1      -9.503  11.687  65.904  1.00  0.00    -0.228 A  
HETATM    5  H   UNL     1     -10.824  11.206  64.360  1.00  0.00     0.000 HD 
HETATM    6  C   UNL     1     -10.396  12.538  66.553  1.00  0.00    -0.254 A  
HETATM    7  C   UNL     1     -10.003  13.196  67.721  1.00  0.00    -0.227 A  
HETATM    8  C   UNL     1      -7.708   9.967  64.584  1.00  0.00    -0.146 C  
HETATM    9  C   UNL     1      -8.712  12.990  68.226  1.00  0.00    -0.173 A  
HETATM   10  C   UNL     1      -7.311  10.560  65.716  1.00  0.00    -0.137 C  
HETATM   11  C   UNL     1      -7.822  12.130  67.578  1.00  0.00    -0.162 A  
HETATM   12  C   UNL     1      -8.216  11.470  66.415  1.00  0.00    -0.092 A  
ENDROOT
BRANCH   7  13
HETATM   13  O   UNL     1     -10.958  14.008  68.278  1.00  0.00    -0.242 OA 
BRANCH  13  14
HETATM   14  C   UNL     1     -12.074  13.328  68.853  1.00  0.00    -0.222 C  
BRANCH  14  15
HETATM   15  C   UNL     1     -11.814  13.059  70.331  1.00  0.00    -0.245 C  
BRANCH  15  16
HETATM   16  C   UNL     1     -12.737  11.966  70.881  1.00  0.00    -0.301 C  
BRANCH  16  17
HETATM   17  C   UNL     1     -12.297  10.523  70.575  1.00  0.00    -0.343 C  
BRANCH  17  18
HETATM   18  N   UNL     1     -11.156  10.051  71.370  1.00  0.00    -0.155 NA 
HETATM   19  C   UNL     1     -11.425   8.781  72.088  1.00  0.00    -0.351 C  
HETATM   20  C   UNL     1     -11.534   7.520  71.195  1.00  0.00    -0.273 C  
HETATM   21  N   UNL     1     -10.357   7.405  70.326  1.00  0.00    -0.208 NA 
HETATM   22  C   UNL     1      -9.958   9.840  70.513  1.00  0.00    -0.193 C  
HETATM   23  C   UNL     1     -10.029   8.617  69.559  1.00  0.00    -0.196 C  
BRANCH  21  24
HETATM   24  C   UNL     1      -9.921   6.156  69.872  1.00  0.00    -0.172 A  
HETATM   25  C   UNL     1      -9.861   5.735  68.498  1.00  0.00    -0.177 A  
HETATM   26  C   UNL     1     -10.008   6.468  67.260  1.00  0.00    -0.189 A  
HETATM   27  C   UNL     1      -9.942   5.685  66.133  1.00  0.00    -0.058 A  
HETATM   28  S   UNL     1      -9.640   4.060  66.515  1.00  0.00    -0.189 SA 
HETATM   29  C   UNL     1      -9.585   4.391  68.208  1.00  0.00    -0.138 A  
HETATM   30  C   UNL     1      -9.313   3.445  69.212  1.00  0.00    -0.240 A  
HETATM   31  C   UNL     1      -9.305   3.862  70.534  1.00  0.00    -0.224 A  
HETATM   32  C   UNL     1      -9.605   5.181  70.849  1.00  0.00    -0.235 A  
ENDBRANCH  21  24
ENDBRANCH  17  18
ENDBRANCH  16  17
ENDBRANCH  15  16
ENDBRANCH  14  15
ENDBRANCH  13  14
ENDBRANCH   7  13
TORSDOF 7
ENDMDL
MODEL      217
REMARK 921   NORMALIZED FREE ENERGY PREDICTED BY IDOCK:   -4.36 KCAL/MOL
REMARK 922        TOTAL FREE ENERGY PREDICTED BY IDOCK:   -7.44 KCAL/MOL
REMARK 923 INTER-LIGAND FREE ENERGY PREDICTED BY IDOCK:   -7.55 KCAL/MOL
REMARK 924 INTRA-LIGAND FREE ENERGY PREDICTED BY IDOCK:    0.11 KCAL/MOL
REMARK 927      BINDING AFFINITY PREDICTED BY RF-SCORE:    0.00 PKD
ROOT
HETATM    1  O   UNL     1     -10.403  16.333  69.446  1.00  0.00    -0.245 OA 
HETATM    2  C   UNL     1     -11.074  15.525  70.078  1.00  0.00    -0.315 C  
HETATM    3  N   UNL     1     -11.037  14.181  69.826  1.00  0.00    -0.445 N  
HETATM    4  C   UNL     1     -11.819  13.244  70.515  1.00  0.00    -0.134 A  
HETATM    5  H   UNL     1     -10.407  13.844  69.098  1.00  0.00     0.000 HD 
HETATM    6  C   UNL     1     -11.738  11.891  70.186  1.00  0.00    -0.337 A  
HETATM    7  C   UNL     1     -12.539  10.965  70.859  1.00  0.00    -0.397 A  
HETATM    8  C   UNL     1     -11.974  15.977  71.168  1.00  0.00    -0.443 C  
HETATM    9  C   UNL     1     -13.414  11.410  71.858  1.00  0.00    -0.280 A  
HETATM   10  C   UNL     1     -12.733  15.111  71.851  1.00  0.00    -0.414 C  
HETATM   11  C   UNL     1     -13.487  12.765  72.192  1.00  0.00    -0.591 A  
HETATM   12  C   UNL     1     -12.685  13.688  71.524  1.00  0.00    -0.420 A  
ENDROOT
BRANCH   7  13
HETATM   13  O   UNL     1     -12.379   9.663  70.458  1.00  0.00    -0.177 OA 
BRANCH  13  14
HETATM   14  C   UNL     1     -12.084   8.736  71.504  1.00  0.00    -0.329 C  
BRANCH  14  15
HETATM   15  C   UNL     1     -10.984   7.780  71.057  1.00  0.00    -0.260 C  
BRANCH  15  16
HETATM   16  C   UNL     1     -10.247   8.299  69.819  1.00  0.00    -0.204 C  
BRANCH  16  17
HETATM   17  C   UNL     1     -10.192   7.321  68.631  1.00  0.00    -0.182 C  
BRANCH  17  18
HETATM   18  N   UNL     1      -9.280   7.722  67.552  1.00  0.00    -0.132 NA 
HETATM   19  C   UNL     1      -9.747   8.913  66.800  1.00  0.00    -0.219 C  
HETATM   20  C   UNL     1      -9.689  10.255  67.571  1.00  0.00    -0.169 C  
HETATM   21  N   UNL     1      -8.349  10.467  68.129  1.00  0.00    -0.116 NA 
HETATM   22  C   UNL     1      -7.925   8.029  68.086  1.00  0.00    -0.128 C  
HETATM   23  C   UNL     1      -7.815   9.340  68.910  1.00  0.00    -0.087 C  
BRANCH  21  24
HETATM   24  C   UNL     1      -7.861  11.759  68.351  1.00  0.00    -0.141 A  
HETATM   25  C   UNL     1      -8.318  12.954  67.695  1.00  0.00    -0.176 A  
HETATM   26  C   UNL     1      -9.459  13.209  66.844  1.00  0.00    -0.244 A  
HETATM   27  C   UNL     1      -9.520  14.492  66.355  1.00  0.00    -0.291 A  
HETATM   28  S   UNL     1      -8.250  15.450  66.947  1.00  0.00    -0.221 SA 
HETATM   29  C   UNL     1      -7.605  14.148  67.879  1.00  0.00    -0.158 A  
HETATM   30  C   UNL     1      -6.486  14.233  68.726  1.00  0.00    -0.089 A  
HETATM   31  C   UNL     1      -6.083  13.097  69.411  1.00  0.00    -0.107 A  
HETATM   32  C   UNL     1      -6.753  11.896  69.222  1.00  0.00    -0.099 A  
ENDBRANCH  21  24
ENDBRANCH  17  18
ENDBRANCH  16  17
ENDBRANCH  15  16
ENDBRANCH  14  15
ENDBRANCH  13  14
ENDBRANCH   7  13
TORSDOF 7
ENDMDL
MODEL      218
REMARK 921   NORMALIZED FREE ENERGY PREDICTED BY IDOCK:   -4.35 KCAL/MOL
REMARK 922        TOTAL FREE ENERGY PREDICTED BY IDOCK:   -7.44 KCAL/MOL
REMARK 923 INTER-LIGAND FREE ENERGY PREDICTED BY IDOCK:   -7.30 KCAL/MOL
REMARK 924 INTRA-LIGAND FREE ENERGY PREDICTED BY IDOCK:   -0.14 KCAL/MOL
REMARK 927      BINDING AFFINITY PREDICTED BY RF-SCORE:    0.00 PKD
ROOT
HETATM    1  O   UNL     1     -10.172  11.039  64.483  1.00  0.00    -0.295 OA 
HETATM    2  C   UNL     1      -9.323  11.191  65.354  1.00  0.00    -0.219 C  
HETATM    3  N   UNL     1      -9.271  12.308  66.141  1.00  0.00    -0.381 N  
HETATM    4  C   UNL     1      -8.291  12.518  67.121  1.00  0.00    -0.179 A  
HETATM    5  H   UNL     1      -9.982  13.027  66.007  1.00  0.00     0.000 HD 
HETATM    6  C   UNL     1      -8.292  13.693  67.871  1.00  0.00    -0.174 A  
HETATM    7  C   UNL     1      -7.298  13.908  68.828  1.00  0.00    -0.118 A  
HETATM    8  C   UNL     1      -8.296  10.149  65.601  1.00  0.00    -0.153 C  
HETATM    9  C   UNL     1      -6.309  12.934  69.023  1.00  0.00    -0.100 A  
HETATM   10  C   UNL     1      -7.346  10.311  66.530  1.00  0.00    -0.113 C  
HETATM   11  C   UNL     1      -6.314  11.752  68.277  1.00  0.00    -0.050 A  
HETATM   12  C   UNL     1      -7.309  11.537  67.325  1.00  0.00    -0.131 A  
ENDROOT
BRANCH   7  13
HETATM   13  O   UNL     1      -7.395  15.095  69.508  1.00  0.00    -0.188 OA 
BRANCH  13  14
HETATM   14  C   UNL     1      -6.153  15.654  69.935  1.00  0.00    -0.162 C  
BRANCH  14  15
HETATM   15  C   UNL     1      -5.620  16.610  68.874  1.00  0.00    -0.135 C  
BRANCH  15  16
HETATM   16  C   UNL     1      -6.230  18.009  69.009  1.00  0.00    -0.230 C  
BRANCH  16  17
HETATM   17  C   UNL     1      -5.788  19.023  67.939  1.00  0.00    -0.198 C  
BRANCH  17  18
HETATM   18  N   UNL     1      -6.866  19.484  67.054  1.00  0.00    -0.193 NA 
HETATM   19  C   UNL     1      -7.142  18.554  65.931  1.00  0.00    -0.252 C  
HETATM   20  C   UNL     1      -7.815  17.215  66.323  1.00  0.00    -0.316 C  
HETATM   21  N   UNL     1      -9.020  17.462  67.122  1.00  0.00    -0.235 NA 
HETATM   22  C   UNL     1      -8.135  19.669  67.809  1.00  0.00    -0.301 C  
HETATM   23  C   UNL     1      -8.831  18.361  68.272  1.00  0.00    -0.305 C  
BRANCH  21  24
HETATM   24  C   UNL     1     -10.081  16.550  67.121  1.00  0.00    -0.274 A  
HETATM   25  C   UNL     1     -10.731  16.014  68.285  1.00  0.00    -0.298 A  
HETATM   26  C   UNL     1     -10.651  16.375  69.684  1.00  0.00    -0.307 A  
HETATM   27  C   UNL     1     -11.393  15.571  70.514  1.00  0.00    -0.351 A  
HETATM   28  S   UNL     1     -12.258  14.398  69.645  1.00  0.00    -0.270 SA 
HETATM   29  C   UNL     1     -11.649  14.966  68.132  1.00  0.00    -0.334 A  
HETATM   30  C   UNL     1     -12.000  14.451  66.872  1.00  0.00    -0.425 A  
HETATM   31  C   UNL     1     -11.424  15.010  65.742  1.00  0.00    -0.236 A  
HETATM   32  C   UNL     1     -10.489  16.029  65.869  1.00  0.00    -0.373 A  
ENDBRANCH  21  24
ENDBRANCH  17  18
ENDBRANCH  16  17
ENDBRANCH  15  16
ENDBRANCH  14  15
ENDBRANCH  13  14
ENDBRANCH   7  13
TORSDOF 7
ENDMDL
MODEL      219
REMARK 921   NORMALIZED FREE ENERGY PREDICTED BY IDOCK:   -4.33 KCAL/MOL
REMARK 922        TOTAL FREE ENERGY PREDICTED BY IDOCK:   -7.41 KCAL/MOL
REMARK 923 INTER-LIGAND FREE ENERGY PREDICTED BY IDOCK:   -7.04 KCAL/MOL
REMARK 924 INTRA-LIGAND FREE ENERGY PREDICTED BY IDOCK:   -0.37 KCAL/MOL
REMARK 927      BINDING AFFINITY PREDICTED BY RF-SCORE:    0.00 PKD
ROOT
HETATM    1  O   UNL     1      -8.823   3.746  71.750  1.00  0.00    -0.096 OA 
HETATM    2  C   UNL     1      -8.519   4.922  71.579  1.00  0.00    -0.121 C  
HETATM    3  N   UNL     1      -9.404   5.847  71.100  1.00  0.00    -0.153 N  
HETATM    4  C   UNL     1      -9.070   7.188  70.868  1.00  0.00    -0.152 A  
HETATM    5  H   UNL     1     -10.358   5.546  70.901  1.00  0.00     0.000 HD 
HETATM    6  C   UNL     1     -10.025   8.068  70.360  1.00  0.00    -0.188 A  
HETATM    7  C   UNL     1      -9.678   9.397  70.106  1.00  0.00    -0.235 A  
HETATM    8  C   UNL     1      -7.151   5.403  71.893  1.00  0.00    -0.084 C  
HETATM    9  C   UNL     1      -8.371   9.830  70.369  1.00  0.00    -0.106 A  
HETATM   10  C   UNL     1      -6.795   6.677  71.689  1.00  0.00    -0.066 C  
HETATM   11  C   UNL     1      -7.419   8.949  70.887  1.00  0.00    -0.110 A  
HETATM   12  C   UNL     1      -7.766   7.624  71.143  1.00  0.00    -0.085 A  
ENDROOT
BRANCH   7  13
HETATM   13  O   UNL     1     -10.692  10.176  69.609  1.00  0.00    -0.227 OA 
BRANCH  13  14
HETATM   14  C   UNL     1     -10.283  11.425  69.053  1.00  0.00    -0.117 C  
BRANCH  14  15
HETATM   15  C   UNL     1     -10.196  11.317  67.534  1.00  0.00    -0.217 C  
BRANCH  15  16
HETATM   16  C   UNL     1     -11.477  11.811  66.854  1.00  0.00    -0.364 C  
BRANCH  16  17
HETATM   17  C   UNL     1     -11.481  13.301  66.468  1.00  0.00    -0.337 C  
BRANCH  17  18
HETATM   18  N   UNL     1     -10.428  13.687  65.520  1.00  0.00    -0.296 NA 
HETATM   19  C   UNL     1     -10.818  14.813  64.635  1.00  0.00    -0.292 C  
HETATM   20  C   UNL     1     -10.932  16.195  65.325  1.00  0.00    -0.270 C  
HETATM   21  N   UNL     1      -9.704  16.500  66.067  1.00  0.00    -0.390 NA 
HETATM   22  C   UNL     1      -9.185  14.086  66.235  1.00  0.00    -0.102 C  
HETATM   23  C   UNL     1      -9.254  15.442  66.986  1.00  0.00    -0.225 C  
BRANCH  21  24
HETATM   24  C   UNL     1      -9.306  17.824  66.284  1.00  0.00    -0.201 A  
HETATM   25  C   UNL     1      -7.951  18.284  66.411  1.00  0.00    -0.290 A  
HETATM   26  C   UNL     1      -6.685  17.630  66.163  1.00  0.00    -0.321 A  
HETATM   27  C   UNL     1      -5.587  18.399  66.466  1.00  0.00    -0.146 A  
HETATM   28  S   UNL     1      -6.032  19.948  66.996  1.00  0.00    -0.174 SA 
HETATM   29  C   UNL     1      -7.715  19.606  66.816  1.00  0.00    -0.266 A  
HETATM   30  C   UNL     1      -8.758  20.517  67.054  1.00  0.00    -0.340 A  
HETATM   31  C   UNL     1     -10.065  20.095  66.868  1.00  0.00    -0.592 A  
HETATM   32  C   UNL     1     -10.326  18.783  66.496  1.00  0.00    -0.475 A  
ENDBRANCH  21  24
ENDBRANCH  17  18
ENDBRANCH  16  17
ENDBRANCH  15  16
ENDBRANCH  14  15
ENDBRANCH  13  14
ENDBRANCH   7  13
TORSDOF 7
ENDMDL
MODEL      220
REMARK 921   NORMALIZED FREE ENERGY PREDICTED BY IDOCK:   -4.33 KCAL/MOL
REMARK 922        TOTAL FREE ENERGY PREDICTED BY IDOCK:   -7.41 KCAL/MOL
REMARK 923 INTER-LIGAND FREE ENERGY PREDICTED BY IDOCK:   -6.75 KCAL/MOL
REMARK 924 INTRA-LIGAND FREE ENERGY PREDICTED BY IDOCK:   -0.66 KCAL/MOL
REMARK 927      BINDING AFFINITY PREDICTED BY RF-SCORE:    0.00 PKD
ROOT
HETATM    1  O   UNL     1     -11.661   6.113  69.743  1.00  0.00    -0.405 OA 
HETATM    2  C   UNL     1     -10.850   6.888  69.248  1.00  0.00    -0.237 C  
HETATM    3  N   UNL     1     -10.002   7.648  70.007  1.00  0.00    -0.188 N  
HETATM    4  C   UNL     1      -9.089   8.562  69.464  1.00  0.00    -0.150 A  
HETATM    5  H   UNL     1     -10.037   7.543  71.021  1.00  0.00     0.000 HD 
HETATM    6  C   UNL     1      -8.271   9.315  70.306  1.00  0.00    -0.187 A  
HETATM    7  C   UNL     1      -7.382  10.244  69.760  1.00  0.00    -0.165 A  
HETATM    8  C   UNL     1     -10.746   7.039  67.776  1.00  0.00    -0.300 C  
HETATM    9  C   UNL     1      -7.323  10.405  68.369  1.00  0.00    -0.085 A  
HETATM   10  C   UNL     1      -9.884   7.899  67.220  1.00  0.00    -0.256 C  
HETATM   11  C   UNL     1      -8.137   9.644  67.528  1.00  0.00    -0.114 A  
HETATM   12  C   UNL     1      -9.022   8.714  68.072  1.00  0.00    -0.141 A  
ENDROOT
BRANCH   7  13
HETATM   13  O   UNL     1      -6.625  10.929  70.676  1.00  0.00    -0.319 OA 
BRANCH  13  14
HETATM   14  C   UNL     1      -5.484  11.600  70.143  1.00  0.00    -0.113 C  
BRANCH  14  15
HETATM   15  C   UNL     1      -5.391  13.008  70.721  1.00  0.00    -0.167 C  
BRANCH  15  16
HETATM   16  C   UNL     1      -6.452  13.939  70.126  1.00  0.00    -0.023 C  
BRANCH  16  17
HETATM   17  C   UNL     1      -6.148  15.443  70.249  1.00  0.00    -0.098 C  
BRANCH  17  18
HETATM   18  N   UNL     1      -6.028  16.148  68.966  1.00  0.00    -0.123 NA 
HETATM   19  C   UNL     1      -6.036  15.239  67.794  1.00  0.00    -0.149 C  
HETATM   20  C   UNL     1      -7.394  14.562  67.483  1.00  0.00    -0.189 C  
HETATM   21  N   UNL     1      -8.457  15.570  67.386  1.00  0.00    -0.168 NA 
HETATM   22  C   UNL     1      -7.137  17.124  68.788  1.00  0.00    -0.229 C  
HETATM   23  C   UNL     1      -8.535  16.503  68.520  1.00  0.00    -0.226 C  
BRANCH  21  24
HETATM   24  C   UNL     1      -9.587  15.345  66.592  1.00  0.00    -0.256 A  
HETATM   25  C   UNL     1     -10.317  14.110  66.499  1.00  0.00    -0.284 A  
HETATM   26  C   UNL     1     -10.256  12.895  67.280  1.00  0.00    -0.234 A  
HETATM   27  C   UNL     1     -11.088  11.897  66.833  1.00  0.00    -0.305 A  
HETATM   28  S   UNL     1     -12.015  12.402  65.505  1.00  0.00    -0.321 SA 
HETATM   29  C   UNL     1     -11.312  13.978  65.520  1.00  0.00    -0.313 A  
HETATM   30  C   UNL     1     -11.659  15.030  64.654  1.00  0.00    -0.386 A  
HETATM   31  C   UNL     1     -11.003  16.244  64.785  1.00  0.00    -0.288 A  
HETATM   32  C   UNL     1      -9.994  16.390  65.728  1.00  0.00    -0.331 A  
ENDBRANCH  21  24
ENDBRANCH  17  18
ENDBRANCH  16  17
ENDBRANCH  15  16
ENDBRANCH  14  15
ENDBRANCH  13  14
ENDBRANCH   7  13
TORSDOF 7
ENDMDL
MODEL      221
REMARK 921   NORMALIZED FREE ENERGY PREDICTED BY IDOCK:   -4.33 KCAL/MOL
REMARK 922        TOTAL FREE ENERGY PREDICTED BY IDOCK:   -7.41 KCAL/MOL
REMARK 923 INTER-LIGAND FREE ENERGY PREDICTED BY IDOCK:   -6.95 KCAL/MOL
REMARK 924 INTRA-LIGAND FREE ENERGY PREDICTED BY IDOCK:   -0.45 KCAL/MOL
REMARK 927      BINDING AFFINITY PREDICTED BY RF-SCORE:    0.00 PKD
ROOT
HETATM    1  O   UNL     1      -5.165   8.021  71.300  1.00  0.00    -0.030 OA 
HETATM    2  C   UNL     1      -6.306   7.581  71.215  1.00  0.00    -0.035 C  
HETATM    3  N   UNL     1      -7.411   8.380  71.316  1.00  0.00    -0.080 N  
HETATM    4  C   UNL     1      -8.724   7.893  71.253  1.00  0.00    -0.134 A  
HETATM    5  H   UNL     1      -7.273   9.382  71.444  1.00  0.00     0.000 HD 
HETATM    6  C   UNL     1      -9.801   8.770  71.384  1.00  0.00    -0.353 A  
HETATM    7  C   UNL     1     -11.107   8.276  71.346  1.00  0.00    -0.251 A  
HETATM    8  C   UNL     1      -6.544   6.133  70.992  1.00  0.00    -0.050 C  
HETATM    9  C   UNL     1     -11.317   6.901  71.175  1.00  0.00    -0.332 A  
HETATM   10  C   UNL     1      -7.783   5.632  70.922  1.00  0.00    -0.096 C  
HETATM   11  C   UNL     1     -10.238   6.025  71.035  1.00  0.00    -0.253 A  
HETATM   12  C   UNL     1      -8.935   6.520  71.069  1.00  0.00    -0.146 A  
ENDROOT
BRANCH   7  13
HETATM   13  O   UNL     1     -12.089   9.223  71.482  1.00  0.00    -0.314 OA 
BRANCH  13  14
HETATM   14  C   UNL     1     -11.689  10.561  71.187  1.00  0.00    -0.230 C  
BRANCH  14  15
HETATM   15  C   UNL     1     -12.533  11.117  70.045  1.00  0.00    -0.292 C  
BRANCH  15  16
HETATM   16  C   UNL     1     -11.818  10.993  68.696  1.00  0.00    -0.318 C  
BRANCH  16  17
HETATM   17  C   UNL     1     -10.468  11.725  68.600  1.00  0.00    -0.222 C  
BRANCH  17  18
HETATM   18  N   UNL     1     -10.047  12.051  67.231  1.00  0.00    -0.194 NA 
HETATM   19  C   UNL     1     -10.763  13.218  66.659  1.00  0.00    -0.280 C  
HETATM   20  C   UNL     1     -10.398  14.592  67.273  1.00  0.00    -0.256 C  
HETATM   21  N   UNL     1      -8.945  14.793  67.251  1.00  0.00    -0.188 NA 
HETATM   22  C   UNL     1      -8.589  12.345  67.176  1.00  0.00    -0.189 C  
HETATM   23  C   UNL     1      -8.155  13.689  67.821  1.00  0.00    -0.173 C  
BRANCH  21  24
HETATM   24  C   UNL     1      -8.399  16.080  67.196  1.00  0.00    -0.199 A  
HETATM   25  C   UNL     1      -9.144  17.309  67.199  1.00  0.00    -0.234 A  
HETATM   26  C   UNL     1     -10.540  17.588  67.455  1.00  0.00    -0.333 A  
HETATM   27  C   UNL     1     -10.887  18.909  67.301  1.00  0.00    -0.372 A  
HETATM   28  S   UNL     1      -9.544  19.868  66.905  1.00  0.00    -0.425 SA 
HETATM   29  C   UNL     1      -8.473  18.515  66.947  1.00  0.00    -0.273 A  
HETATM   30  C   UNL     1      -7.084  18.572  66.739  1.00  0.00    -0.231 A  
HETATM   31  C   UNL     1      -6.353  17.397  66.801  1.00  0.00    -0.237 A  
HETATM   32  C   UNL     1      -6.998  16.187  67.020  1.00  0.00    -0.234 A  
ENDBRANCH  21  24
ENDBRANCH  17  18
ENDBRANCH  16  17
ENDBRANCH  15  16
ENDBRANCH  14  15
ENDBRANCH  13  14
ENDBRANCH   7  13
TORSDOF 7
ENDMDL
MODEL      222
REMARK 921   NORMALIZED FREE ENERGY PREDICTED BY IDOCK:   -4.32 KCAL/MOL
REMARK 922        TOTAL FREE ENERGY PREDICTED BY IDOCK:   -7.39 KCAL/MOL
REMARK 923 INTER-LIGAND FREE ENERGY PREDICTED BY IDOCK:   -5.90 KCAL/MOL
REMARK 924 INTRA-LIGAND FREE ENERGY PREDICTED BY IDOCK:   -1.49 KCAL/MOL
REMARK 927      BINDING AFFINITY PREDICTED BY RF-SCORE:    0.00 PKD
ROOT
HETATM    1  O   UNL     1      -9.651  10.173  63.424  1.00  0.00    -0.296 OA 
HETATM    2  C   UNL     1     -10.025  10.296  64.585  1.00  0.00    -0.307 C  
HETATM    3  N   UNL     1      -9.773   9.352  65.542  1.00  0.00    -0.407 N  
HETATM    4  C   UNL     1     -10.217   9.457  66.867  1.00  0.00    -0.248 A  
HETATM    5  H   UNL     1      -9.234   8.527  65.277  1.00  0.00     0.000 HD 
HETATM    6  C   UNL     1      -9.937   8.442  67.781  1.00  0.00    -0.236 A  
HETATM    7  C   UNL     1     -10.404   8.541  69.093  1.00  0.00    -0.217 A  
HETATM    8  C   UNL     1     -10.779  11.500  65.014  1.00  0.00    -0.350 C  
HETATM    9  C   UNL     1     -11.150   9.664  69.475  1.00  0.00    -0.198 A  
HETATM   10  C   UNL     1     -11.217  11.638  66.272  1.00  0.00    -0.332 C  
HETATM   11  C   UNL     1     -11.423  10.684  68.560  1.00  0.00    -0.333 A  
HETATM   12  C   UNL     1     -10.953  10.587  67.252  1.00  0.00    -0.325 A  
ENDROOT
BRANCH   7  13
HETATM   13  O   UNL     1     -10.070   7.489  69.908  1.00  0.00    -0.188 OA 
BRANCH  13  14
HETATM   14  C   UNL     1      -8.675   7.201  69.989  1.00  0.00    -0.141 C  
BRANCH  14  15
HETATM   15  C   UNL     1      -8.031   8.049  71.081  1.00  0.00    -0.095 C  
BRANCH  15  16
HETATM   16  C   UNL     1      -6.750   8.730  70.591  1.00  0.00    -0.048 C  
BRANCH  16  17
HETATM   17  C   UNL     1      -6.741   9.116  69.100  1.00  0.00    -0.050 C  
BRANCH  17  18
HETATM   18  N   UNL     1      -5.692  10.072  68.724  1.00  0.00    -0.035 NA 
HETATM   19  C   UNL     1      -5.754  10.482  67.300  1.00  0.00    -0.041 C  
HETATM   20  C   UNL     1      -6.948  11.392  66.918  1.00  0.00    -0.140 C  
HETATM   21  N   UNL     1      -7.012  12.554  67.813  1.00  0.00    -0.107 NA 
HETATM   22  C   UNL     1      -5.771  11.306  69.553  1.00  0.00    -0.061 C  
HETATM   23  C   UNL     1      -6.976  12.236  69.249  1.00  0.00     0.004 C  
BRANCH  21  24
HETATM   24  C   UNL     1      -7.574  13.760  67.382  1.00  0.00    -0.137 A  
HETATM   25  C   UNL     1      -6.971  15.059  67.503  1.00  0.00    -0.214 A  
HETATM   26  C   UNL     1      -5.634  15.469  67.870  1.00  0.00    -0.151 A  
HETATM   27  C   UNL     1      -5.460  16.831  67.929  1.00  0.00    -0.120 A  
HETATM   28  S   UNL     1      -6.871  17.663  67.487  1.00  0.00    -0.173 SA 
HETATM   29  C   UNL     1      -7.735  16.196  67.201  1.00  0.00    -0.194 A  
HETATM   30  C   UNL     1      -9.058  16.111  66.733  1.00  0.00    -0.257 A  
HETATM   31  C   UNL     1      -9.620  14.857  66.553  1.00  0.00    -0.297 A  
HETATM   32  C   UNL     1      -8.895  13.717  66.873  1.00  0.00    -0.203 A  
ENDBRANCH  21  24
ENDBRANCH  17  18
ENDBRANCH  16  17
ENDBRANCH  15  16
ENDBRANCH  14  15
ENDBRANCH  13  14
ENDBRANCH   7  13
TORSDOF 7
ENDMDL
MODEL      223
REMARK 921   NORMALIZED FREE ENERGY PREDICTED BY IDOCK:   -4.31 KCAL/MOL
REMARK 922        TOTAL FREE ENERGY PREDICTED BY IDOCK:   -7.38 KCAL/MOL
REMARK 923 INTER-LIGAND FREE ENERGY PREDICTED BY IDOCK:   -7.11 KCAL/MOL
REMARK 924 INTRA-LIGAND FREE ENERGY PREDICTED BY IDOCK:   -0.27 KCAL/MOL
REMARK 927      BINDING AFFINITY PREDICTED BY RF-SCORE:    0.00 PKD
ROOT
HETATM    1  O   UNL     1      -9.062   3.807  73.366  1.00  0.00    -0.101 OA 
HETATM    2  C   UNL     1      -9.305   4.300  72.270  1.00  0.00    -0.124 C  
HETATM    3  N   UNL     1      -9.413   5.649  72.079  1.00  0.00    -0.150 N  
HETATM    4  C   UNL     1      -9.721   6.232  70.842  1.00  0.00    -0.176 A  
HETATM    5  H   UNL     1      -9.263   6.264  72.878  1.00  0.00     0.000 HD 
HETATM    6  C   UNL     1      -9.834   7.617  70.731  1.00  0.00    -0.177 A  
HETATM    7  C   UNL     1     -10.166   8.190  69.501  1.00  0.00    -0.213 A  
HETATM    8  C   UNL     1      -9.493   3.437  71.077  1.00  0.00    -0.227 C  
HETATM    9  C   UNL     1     -10.382   7.362  68.392  1.00  0.00    -0.224 A  
HETATM   10  C   UNL     1      -9.784   3.957  69.878  1.00  0.00    -0.235 C  
HETATM   11  C   UNL     1     -10.260   5.975  68.503  1.00  0.00    -0.227 A  
HETATM   12  C   UNL     1      -9.924   5.403  69.729  1.00  0.00    -0.294 A  
ENDROOT
BRANCH   7  13
HETATM   13  O   UNL     1     -10.249   9.560  69.504  1.00  0.00    -0.191 OA 
BRANCH  13  14
HETATM   14  C   UNL     1     -11.397  10.098  70.158  1.00  0.00    -0.303 C  
BRANCH  14  15
HETATM   15  C   UNL     1     -11.906  11.319  69.397  1.00  0.00    -0.424 C  
BRANCH  15  16
HETATM   16  C   UNL     1     -11.373  11.357  67.962  1.00  0.00    -0.372 C  
BRANCH  16  17
HETATM   17  C   UNL     1     -11.826  12.568  67.127  1.00  0.00    -0.316 C  
BRANCH  17  18
HETATM   18  N   UNL     1     -10.991  12.844  65.950  1.00  0.00    -0.273 NA 
HETATM   19  C   UNL     1     -11.158  14.220  65.421  1.00  0.00    -0.327 C  
HETATM   20  C   UNL     1     -10.574  15.350  66.304  1.00  0.00    -0.308 C  
HETATM   21  N   UNL     1      -9.172  15.070  66.633  1.00  0.00    -0.258 NA 
HETATM   22  C   UNL     1      -9.548  12.652  66.263  1.00  0.00    -0.244 C  
HETATM   23  C   UNL     1      -8.918  13.730  67.185  1.00  0.00    -0.235 C  
BRANCH  21  24
HETATM   24  C   UNL     1      -8.276  16.112  66.897  1.00  0.00    -0.238 A  
HETATM   25  C   UNL     1      -7.392  16.193  68.028  1.00  0.00    -0.138 A  
HETATM   26  C   UNL     1      -7.025  15.223  69.035  1.00  0.00    -0.136 A  
HETATM   27  C   UNL     1      -6.182  15.710  70.004  1.00  0.00    -0.135 A  
HETATM   28  S   UNL     1      -5.751  17.324  69.707  1.00  0.00    -0.234 SA 
HETATM   29  C   UNL     1      -6.690  17.385  68.260  1.00  0.00    -0.183 A  
HETATM   30  C   UNL     1      -6.780  18.491  67.397  1.00  0.00    -0.205 A  
HETATM   31  C   UNL     1      -7.580  18.392  66.270  1.00  0.00    -0.289 A  
HETATM   32  C   UNL     1      -8.308  17.233  66.033  1.00  0.00    -0.154 A  
ENDBRANCH  21  24
ENDBRANCH  17  18
ENDBRANCH  16  17
ENDBRANCH  15  16
ENDBRANCH  14  15
ENDBRANCH  13  14
ENDBRANCH   7  13
TORSDOF 7
ENDMDL
MODEL      224
REMARK 921   NORMALIZED FREE ENERGY PREDICTED BY IDOCK:   -4.30 KCAL/MOL
REMARK 922        TOTAL FREE ENERGY PREDICTED BY IDOCK:   -7.36 KCAL/MOL
REMARK 923 INTER-LIGAND FREE ENERGY PREDICTED BY IDOCK:   -6.12 KCAL/MOL
REMARK 924 INTRA-LIGAND FREE ENERGY PREDICTED BY IDOCK:   -1.25 KCAL/MOL
REMARK 927      BINDING AFFINITY PREDICTED BY RF-SCORE:    0.00 PKD
ROOT
HETATM    1  O   UNL     1      -7.407   9.785  71.525  1.00  0.00    -0.129 OA 
HETATM    2  C   UNL     1      -8.062   8.798  71.207  1.00  0.00    -0.154 C  
HETATM    3  N   UNL     1      -7.509   7.726  70.563  1.00  0.00    -0.073 N  
HETATM    4  C   UNL     1      -8.245   6.602  70.163  1.00  0.00    -0.133 A  
HETATM    5  H   UNL     1      -6.509   7.746  70.362  1.00  0.00     0.000 HD 
HETATM    6  C   UNL     1      -7.612   5.556  69.492  1.00  0.00    -0.071 A  
HETATM    7  C   UNL     1      -8.356   4.450  69.073  1.00  0.00    -0.078 A  
HETATM    8  C   UNL     1      -9.511   8.719  71.517  1.00  0.00    -0.341 C  
HETATM    9  C   UNL     1      -9.732   4.406  69.336  1.00  0.00    -0.267 A  
HETATM   10  C   UNL     1     -10.246   7.660  71.155  1.00  0.00    -0.207 C  
HETATM   11  C   UNL     1     -10.362   5.451  70.016  1.00  0.00    -0.366 A  
HETATM   12  C   UNL     1      -9.619   6.553  70.437  1.00  0.00    -0.173 A  
ENDROOT
BRANCH   7  13
HETATM   13  O   UNL     1      -7.635   3.480  68.424  1.00  0.00    -0.056 OA 
BRANCH  13  14
HETATM   14  C   UNL     1      -8.303   2.857  67.327  1.00  0.00    -0.086 C  
BRANCH  14  15
HETATM   15  C   UNL     1      -7.715   3.352  66.010  1.00  0.00    -0.081 C  
BRANCH  15  16
HETATM   16  C   UNL     1      -6.539   4.308  66.236  1.00  0.00    -0.042 C  
BRANCH  16  17
HETATM   17  C   UNL     1      -6.826   5.786  65.918  1.00  0.00    -0.060 C  
BRANCH  17  18
HETATM   18  N   UNL     1      -7.975   6.007  65.030  1.00  0.00    -0.119 NA 
HETATM   19  C   UNL     1      -9.276   6.020  65.743  1.00  0.00    -0.012 C  
HETATM   20  C   UNL     1      -9.530   7.251  66.647  1.00  0.00    -0.177 C  
HETATM   21  N   UNL     1      -9.322   8.492  65.892  1.00  0.00    -0.195 NA 
HETATM   22  C   UNL     1      -7.847   7.299  64.302  1.00  0.00    -0.125 C  
HETATM   23  C   UNL     1      -8.044   8.573  65.168  1.00  0.00    -0.142 C  
BRANCH  21  24
HETATM   24  C   UNL     1      -9.998   9.666  66.242  1.00  0.00    -0.264 A  
HETATM   25  C   UNL     1     -10.282  10.766  65.362  1.00  0.00    -0.341 A  
HETATM   26  C   UNL     1     -10.166  10.906  63.927  1.00  0.00    -0.418 A  
HETATM   27  C   UNL     1     -10.484  12.157  63.457  1.00  0.00    -0.454 A  
HETATM   28  S   UNL     1     -10.991  13.187  64.707  1.00  0.00    -0.357 SA 
HETATM   29  C   UNL     1     -10.797  11.954  65.900  1.00  0.00    -0.297 A  
HETATM   30  C   UNL     1     -11.095  12.094  67.267  1.00  0.00    -0.341 A  
HETATM   31  C   UNL     1     -10.884  11.012  68.107  1.00  0.00    -0.274 A  
HETATM   32  C   UNL     1     -10.347   9.835  67.604  1.00  0.00    -0.281 A  
ENDBRANCH  21  24
ENDBRANCH  17  18
ENDBRANCH  16  17
ENDBRANCH  15  16
ENDBRANCH  14  15
ENDBRANCH  13  14
ENDBRANCH   7  13
TORSDOF 7
ENDMDL
MODEL      225
REMARK 921   NORMALIZED FREE ENERGY PREDICTED BY IDOCK:   -4.29 KCAL/MOL
REMARK 922        TOTAL FREE ENERGY PREDICTED BY IDOCK:   -7.36 KCAL/MOL
REMARK 923 INTER-LIGAND FREE ENERGY PREDICTED BY IDOCK:   -5.73 KCAL/MOL
REMARK 924 INTRA-LIGAND FREE ENERGY PREDICTED BY IDOCK:   -1.63 KCAL/MOL
REMARK 927      BINDING AFFINITY PREDICTED BY RF-SCORE:    0.00 PKD
ROOT
HETATM    1  O   UNL     1      -6.816   3.350  74.558  1.00  0.00    -0.042 OA 
HETATM    2  C   UNL     1      -7.430   3.772  73.585  1.00  0.00    -0.069 C  
HETATM    3  N   UNL     1      -8.616   4.444  73.700  1.00  0.00    -0.096 N  
HETATM    4  C   UNL     1      -9.351   4.909  72.600  1.00  0.00    -0.133 A  
HETATM    5  H   UNL     1      -8.985   4.617  74.635  1.00  0.00     0.000 HD 
HETATM    6  C   UNL     1     -10.562   5.570  72.799  1.00  0.00    -0.266 A  
HETATM    7  C   UNL     1     -11.303   6.007  71.698  1.00  0.00    -0.252 A  
HETATM    8  C   UNL     1      -6.905   3.572  72.211  1.00  0.00    -0.030 C  
HETATM    9  C   UNL     1     -10.815   5.776  70.405  1.00  0.00    -0.360 A  
HETATM   10  C   UNL     1      -7.576   4.005  71.137  1.00  0.00    -0.051 C  
HETATM   11  C   UNL     1      -9.596   5.121  70.209  1.00  0.00    -0.249 A  
HETATM   12  C   UNL     1      -8.856   4.689  71.307  1.00  0.00    -0.152 A  
ENDROOT
BRANCH   7  13
HETATM   13  O   UNL     1     -12.477   6.646  72.007  1.00  0.00    -0.325 OA 
BRANCH  13  14
HETATM   14  C   UNL     1     -12.703   7.873  71.313  1.00  0.00    -0.229 C  
BRANCH  14  15
HETATM   15  C   UNL     1     -12.412   9.053  72.234  1.00  0.00    -0.427 C  
BRANCH  15  16
HETATM   16  C   UNL     1     -12.485  10.388  71.487  1.00  0.00    -0.508 C  
BRANCH  16  17
HETATM   17  C   UNL     1     -12.248  10.303  69.968  1.00  0.00    -0.120 C  
BRANCH  17  18
HETATM   18  N   UNL     1     -10.971  10.871  69.518  1.00  0.00    -0.247 NA 
HETATM   19  C   UNL     1      -9.788  10.202  70.113  1.00  0.00    -0.053 C  
HETATM   20  C   UNL     1      -9.512   8.762  69.612  1.00  0.00    -0.170 C  
HETATM   21  N   UNL     1      -9.463   8.732  68.146  1.00  0.00    -0.139 NA 
HETATM   22  C   UNL     1     -10.840  10.785  68.037  1.00  0.00    -0.255 C  
HETATM   23  C   UNL     1     -10.611   9.358  67.471  1.00  0.00    -0.267 C  
BRANCH  21  24
HETATM   24  C   UNL     1      -8.704   7.767  67.474  1.00  0.00    -0.125 A  
HETATM   25  C   UNL     1      -9.207   6.544  66.912  1.00  0.00    -0.153 A  
HETATM   26  C   UNL     1     -10.555   6.069  66.689  1.00  0.00    -0.312 A  
HETATM   27  C   UNL     1     -10.625   4.797  66.175  1.00  0.00    -0.234 A  
HETATM   28  S   UNL     1      -9.083   4.153  65.882  1.00  0.00    -0.145 SA 
HETATM   29  C   UNL     1      -8.298   5.587  66.438  1.00  0.00    -0.111 A  
HETATM   30  C   UNL     1      -6.908   5.801  66.445  1.00  0.00    -0.059 A  
HETATM   31  C   UNL     1      -6.423   7.007  66.926  1.00  0.00    -0.054 A  
HETATM   32  C   UNL     1      -7.301   7.959  67.428  1.00  0.00    -0.092 A  
ENDBRANCH  21  24
ENDBRANCH  17  18
ENDBRANCH  16  17
ENDBRANCH  15  16
ENDBRANCH  14  15
ENDBRANCH  13  14
ENDBRANCH   7  13
TORSDOF 7
ENDMDL
MODEL      226
REMARK 921   NORMALIZED FREE ENERGY PREDICTED BY IDOCK:   -4.28 KCAL/MOL
REMARK 922        TOTAL FREE ENERGY PREDICTED BY IDOCK:   -7.33 KCAL/MOL
REMARK 923 INTER-LIGAND FREE ENERGY PREDICTED BY IDOCK:   -6.52 KCAL/MOL
REMARK 924 INTRA-LIGAND FREE ENERGY PREDICTED BY IDOCK:   -0.82 KCAL/MOL
REMARK 927      BINDING AFFINITY PREDICTED BY RF-SCORE:    0.00 PKD
ROOT
HETATM    1  O   UNL     1     -12.735  13.770  63.043  1.00  0.00    -0.671 OA 
HETATM    2  C   UNL     1     -12.077  12.924  63.638  1.00  0.00    -0.535 C  
HETATM    3  N   UNL     1     -11.077  12.213  63.035  1.00  0.00    -0.645 N  
HETATM    4  C   UNL     1     -10.333  11.220  63.687  1.00  0.00    -0.408 A  
HETATM    5  H   UNL     1     -10.861  12.416  62.059  1.00  0.00     0.000 HD 
HETATM    6  C   UNL     1      -9.341  10.525  62.997  1.00  0.00    -0.343 A  
HETATM    7  C   UNL     1      -8.621   9.518  63.645  1.00  0.00    -0.212 A  
HETATM    8  C   UNL     1     -12.339  12.630  65.069  1.00  0.00    -0.561 C  
HETATM    9  C   UNL     1      -8.906   9.222  64.985  1.00  0.00    -0.238 A  
HETATM   10  C   UNL     1     -11.647  11.692  65.727  1.00  0.00    -0.088 C  
HETATM   11  C   UNL     1      -9.894   9.926  65.677  1.00  0.00    -0.368 A  
HETATM   12  C   UNL     1     -10.610  10.933  65.031  1.00  0.00    -0.287 A  
ENDROOT
BRANCH   7  13
HETATM   13  O   UNL     1      -7.669   8.900  62.875  1.00  0.00    -0.108 OA 
BRANCH  13  14
HETATM   14  C   UNL     1      -6.645   8.221  63.602  1.00  0.00    -0.076 C  
BRANCH  14  15
HETATM   15  C   UNL     1      -6.647   6.739  63.244  1.00  0.00    -0.042 C  
BRANCH  15  16
HETATM   16  C   UNL     1      -7.920   6.038  63.727  1.00  0.00    -0.112 C  
BRANCH  16  17
HETATM   17  C   UNL     1      -7.706   4.654  64.365  1.00  0.00    -0.078 C  
BRANCH  17  18
HETATM   18  N   UNL     1      -8.912   4.063  64.959  1.00  0.00    -0.127 NA 
HETATM   19  C   UNL     1      -8.617   3.038  65.990  1.00  0.00    -0.117 C  
HETATM   20  C   UNL     1      -8.026   3.575  67.318  1.00  0.00    -0.082 C  
HETATM   21  N   UNL     1      -8.872   4.647  67.856  1.00  0.00    -0.104 NA 
HETATM   22  C   UNL     1      -9.761   5.108  65.593  1.00  0.00    -0.060 C  
HETATM   23  C   UNL     1      -9.198   5.720  66.904  1.00  0.00    -0.122 C  
BRANCH  21  24
HETATM   24  C   UNL     1      -8.918   4.900  69.231  1.00  0.00    -0.094 A  
HETATM   25  C   UNL     1      -8.040   5.778  69.955  1.00  0.00    -0.107 A  
HETATM   26  C   UNL     1      -7.067   6.749  69.506  1.00  0.00    -0.072 A  
HETATM   27  C   UNL     1      -6.371   7.358  70.523  1.00  0.00    -0.038 A  
HETATM   28  S   UNL     1      -6.901   6.834  72.047  1.00  0.00    -0.063 SA 
HETATM   29  C   UNL     1      -8.085   5.785  71.356  1.00  0.00    -0.114 A  
HETATM   30  C   UNL     1      -8.996   4.999  72.083  1.00  0.00    -0.144 A  
HETATM   31  C   UNL     1      -9.889   4.200  71.387  1.00  0.00    -0.254 A  
HETATM   32  C   UNL     1      -9.845   4.154  70.000  1.00  0.00    -0.245 A  
ENDBRANCH  21  24
ENDBRANCH  17  18
ENDBRANCH  16  17
ENDBRANCH  15  16
ENDBRANCH  14  15
ENDBRANCH  13  14
ENDBRANCH   7  13
TORSDOF 7
ENDMDL
MODEL      227
REMARK 921   NORMALIZED FREE ENERGY PREDICTED BY IDOCK:   -4.25 KCAL/MOL
REMARK 922        TOTAL FREE ENERGY PREDICTED BY IDOCK:   -7.29 KCAL/MOL
REMARK 923 INTER-LIGAND FREE ENERGY PREDICTED BY IDOCK:   -6.75 KCAL/MOL
REMARK 924 INTRA-LIGAND FREE ENERGY PREDICTED BY IDOCK:   -0.54 KCAL/MOL
REMARK 927      BINDING AFFINITY PREDICTED BY RF-SCORE:    0.00 PKD
ROOT
HETATM    1  O   UNL     1      -9.291   5.004  66.949  1.00  0.00    -0.122 OA 
HETATM    2  C   UNL     1      -8.913   5.961  66.281  1.00  0.00    -0.148 C  
HETATM    3  N   UNL     1      -9.550   7.171  66.306  1.00  0.00    -0.388 N  
HETATM    4  C   UNL     1      -9.154   8.268  65.529  1.00  0.00    -0.006 A  
HETATM    5  H   UNL     1     -10.356   7.280  66.922  1.00  0.00     0.000 HD 
HETATM    6  C   UNL     1      -9.868   9.464  65.595  1.00  0.00    -0.294 A  
HETATM    7  C   UNL     1      -9.484  10.546  64.798  1.00  0.00    -0.259 A  
HETATM    8  C   UNL     1      -7.723   5.849  65.403  1.00  0.00    -0.093 C  
HETATM    9  C   UNL     1      -8.382  10.413  63.942  1.00  0.00    -0.143 A  
HETATM   10  C   UNL     1      -7.312   6.875  64.649  1.00  0.00    -0.090 C  
HETATM   11  C   UNL     1      -7.664   9.217  63.884  1.00  0.00    -0.122 A  
HETATM   12  C   UNL     1      -8.044   8.139  64.682  1.00  0.00    -0.148 A  
ENDROOT
BRANCH   7  13
HETATM   13  O   UNL     1     -10.253  11.673  64.942  1.00  0.00    -0.246 OA 
BRANCH  13  14
HETATM   14  C   UNL     1     -10.627  12.314  63.723  1.00  0.00    -0.451 C  
BRANCH  14  15
HETATM   15  C   UNL     1     -12.082  12.765  63.797  1.00  0.00    -0.596 C  
BRANCH  15  16
HETATM   16  C   UNL     1     -12.386  13.489  65.112  1.00  0.00    -0.488 C  
BRANCH  16  17
HETATM   17  C   UNL     1     -11.405  14.616  65.482  1.00  0.00    -0.341 C  
BRANCH  17  18
HETATM   18  N   UNL     1     -11.248  14.837  66.926  1.00  0.00    -0.340 NA 
HETATM   19  C   UNL     1     -12.012  13.873  67.755  1.00  0.00    -0.355 C  
HETATM   20  C   UNL     1     -11.476  12.420  67.753  1.00  0.00    -0.324 C  
HETATM   21  N   UNL     1     -10.048  12.401  68.090  1.00  0.00    -0.218 NA 
HETATM   22  C   UNL     1      -9.818  14.744  67.328  1.00  0.00    -0.230 C  
HETATM   23  C   UNL     1      -9.210  13.315  67.299  1.00  0.00    -0.222 C  
BRANCH  21  24
HETATM   24  C   UNL     1      -9.470  11.282  68.701  1.00  0.00    -0.175 A  
HETATM   25  C   UNL     1      -8.066  11.081  68.929  1.00  0.00    -0.135 A  
HETATM   26  C   UNL     1      -6.934  11.974  68.812  1.00  0.00    -0.101 A  
HETATM   27  C   UNL     1      -5.721  11.379  69.064  1.00  0.00    -0.044 A  
HETATM   28  S   UNL     1      -5.901   9.752  69.510  1.00  0.00    -0.033 SA 
HETATM   29  C   UNL     1      -7.620   9.829  69.377  1.00  0.00    -0.104 A  
HETATM   30  C   UNL     1      -8.504   8.774  69.662  1.00  0.00    -0.129 A  
HETATM   31  C   UNL     1      -9.865   8.986  69.506  1.00  0.00    -0.181 A  
HETATM   32  C   UNL     1     -10.329  10.207  69.035  1.00  0.00    -0.230 A  
ENDBRANCH  21  24
ENDBRANCH  17  18
ENDBRANCH  16  17
ENDBRANCH  15  16
ENDBRANCH  14  15
ENDBRANCH  13  14
ENDBRANCH   7  13
TORSDOF 7
ENDMDL
MODEL      228
REMARK 921   NORMALIZED FREE ENERGY PREDICTED BY IDOCK:   -4.22 KCAL/MOL
REMARK 922        TOTAL FREE ENERGY PREDICTED BY IDOCK:   -7.26 KCAL/MOL
REMARK 923 INTER-LIGAND FREE ENERGY PREDICTED BY IDOCK:   -6.81 KCAL/MOL
REMARK 924 INTRA-LIGAND FREE ENERGY PREDICTED BY IDOCK:   -0.45 KCAL/MOL
REMARK 927      BINDING AFFINITY PREDICTED BY RF-SCORE:    0.00 PKD
ROOT
HETATM    1  O   UNL     1      -5.152  19.775  65.147  1.00  0.00    -0.154 OA 
HETATM    2  C   UNL     1      -6.208  19.802  65.770  1.00  0.00    -0.195 C  
HETATM    3  N   UNL     1      -7.082  18.750  65.778  1.00  0.00    -0.255 N  
HETATM    4  C   UNL     1      -8.308  18.770  66.457  1.00  0.00    -0.297 A  
HETATM    5  H   UNL     1      -6.829  17.907  65.263  1.00  0.00     0.000 HD 
HETATM    6  C   UNL     1      -9.155  17.664  66.402  1.00  0.00    -0.257 A  
HETATM    7  C   UNL     1     -10.387  17.700  67.059  1.00  0.00    -0.330 A  
HETATM    8  C   UNL     1      -6.591  20.998  66.560  1.00  0.00    -0.316 C  
HETATM    9  C   UNL     1     -10.755  18.851  67.768  1.00  0.00    -0.426 A  
HETATM   10  C   UNL     1      -7.752  21.053  67.225  1.00  0.00    -0.175 C  
HETATM   11  C   UNL     1      -9.902  19.955  67.830  1.00  0.00    -0.530 A  
HETATM   12  C   UNL     1      -8.671  19.917  67.177  1.00  0.00    -0.397 A  
ENDROOT
BRANCH   7  13
HETATM   13  O   UNL     1     -11.141  16.560  66.941  1.00  0.00    -0.058 OA 
BRANCH  13  14
HETATM   14  C   UNL     1     -11.269  15.789  68.135  1.00  0.00    -0.344 C  
BRANCH  14  15
HETATM   15  C   UNL     1     -10.112  14.801  68.245  1.00  0.00    -0.221 C  
BRANCH  15  16
HETATM   16  C   UNL     1     -10.603  13.350  68.261  1.00  0.00    -0.264 C  
BRANCH  16  17
HETATM   17  C   UNL     1      -9.982  12.437  67.189  1.00  0.00    -0.207 C  
BRANCH  17  18
HETATM   18  N   UNL     1     -10.821  11.296  66.801  1.00  0.00    -0.276 NA 
HETATM   19  C   UNL     1     -10.251  10.500  65.686  1.00  0.00    -0.246 C  
HETATM   20  C   UNL     1      -8.993   9.666  66.035  1.00  0.00    -0.162 C  
HETATM   21  N   UNL     1      -9.245   8.830  67.215  1.00  0.00    -0.137 NA 
HETATM   22  C   UNL     1     -11.034  10.374  67.950  1.00  0.00    -0.297 C  
HETATM   23  C   UNL     1      -9.793   9.545  68.378  1.00  0.00    -0.158 C  
BRANCH  21  24
HETATM   24  C   UNL     1      -8.557   7.627  67.401  1.00  0.00    -0.125 A  
HETATM   25  C   UNL     1      -8.976   6.541  68.244  1.00  0.00    -0.121 A  
HETATM   26  C   UNL     1     -10.222   6.279  68.929  1.00  0.00    -0.219 A  
HETATM   27  C   UNL     1     -10.212   5.142  69.700  1.00  0.00    -0.267 A  
HETATM   28  S   UNL     1      -8.734   4.317  69.581  1.00  0.00    -0.078 SA 
HETATM   29  C   UNL     1      -8.090   5.479  68.479  1.00  0.00    -0.099 A  
HETATM   30  C   UNL     1      -6.821   5.411  67.877  1.00  0.00    -0.060 A  
HETATM   31  C   UNL     1      -6.440   6.424  67.012  1.00  0.00    -0.046 A  
HETATM   32  C   UNL     1      -7.287   7.501  66.786  1.00  0.00    -0.092 A  
ENDBRANCH  21  24
ENDBRANCH  17  18
ENDBRANCH  16  17
ENDBRANCH  15  16
ENDBRANCH  14  15
ENDBRANCH  13  14
ENDBRANCH   7  13
TORSDOF 7
ENDMDL
MODEL      229
REMARK 921   NORMALIZED FREE ENERGY PREDICTED BY IDOCK:   -4.22 KCAL/MOL
REMARK 922        TOTAL FREE ENERGY PREDICTED BY IDOCK:   -7.25 KCAL/MOL
REMARK 923 INTER-LIGAND FREE ENERGY PREDICTED BY IDOCK:   -7.25 KCAL/MOL
REMARK 924 INTRA-LIGAND FREE ENERGY PREDICTED BY IDOCK:   -0.01 KCAL/MOL
REMARK 927      BINDING AFFINITY PREDICTED BY RF-SCORE:    0.00 PKD
ROOT
HETATM    1  O   UNL     1     -11.736  16.889  63.852  1.00  0.00    -0.845 OA 
HETATM    2  C   UNL     1     -11.025  16.451  64.749  1.00  0.00    -0.231 C  
HETATM    3  N   UNL     1     -10.771  15.116  64.900  1.00  0.00    -0.519 N  
HETATM    4  C   UNL     1      -9.986  14.590  65.935  1.00  0.00    -0.329 A  
HETATM    5  H   UNL     1     -11.175  14.468  64.223  1.00  0.00     0.000 HD 
HETATM    6  C   UNL     1      -9.790  13.213  66.033  1.00  0.00    -0.266 A  
HETATM    7  C   UNL     1      -9.028  12.694  67.082  1.00  0.00    -0.205 A  
HETATM    8  C   UNL     1     -10.391  17.367  65.729  1.00  0.00    -0.226 C  
HETATM    9  C   UNL     1      -8.469  13.568  68.025  1.00  0.00    -0.176 A  
HETATM   10  C   UNL     1      -9.633  16.904  66.730  1.00  0.00    -0.273 C  
HETATM   11  C   UNL     1      -8.660  14.947  67.920  1.00  0.00    -0.160 A  
HETATM   12  C   UNL     1      -9.417  15.466  66.871  1.00  0.00    -0.246 A  
ENDROOT
BRANCH   7  13
HETATM   13  O   UNL     1      -8.897  11.329  67.083  1.00  0.00    -0.147 OA 
BRANCH  13  14
HETATM   14  C   UNL     1      -9.953  10.616  66.439  1.00  0.00    -0.222 C  
BRANCH  14  15
HETATM   15  C   UNL     1     -10.739   9.808  67.466  1.00  0.00    -0.327 C  
BRANCH  15  16
HETATM   16  C   UNL     1      -9.937   8.609  67.982  1.00  0.00    -0.221 C  
BRANCH  16  17
HETATM   17  C   UNL     1     -10.040   7.335  67.124  1.00  0.00    -0.236 C  
BRANCH  17  18
HETATM   18  N   UNL     1      -9.139   6.250  67.534  1.00  0.00    -0.111 NA 
HETATM   19  C   UNL     1      -8.201   6.642  68.615  1.00  0.00    -0.119 C  
HETATM   20  C   UNL     1      -8.841   6.859  70.009  1.00  0.00    -0.142 C  
HETATM   21  N   UNL     1      -9.640   5.689  70.392  1.00  0.00    -0.164 NA 
HETATM   22  C   UNL     1      -9.908   5.068  68.011  1.00  0.00    -0.149 C  
HETATM   23  C   UNL     1     -10.614   5.243  69.383  1.00  0.00    -0.145 C  
BRANCH  21  24
HETATM   24  C   UNL     1      -9.838   5.366  71.739  1.00  0.00    -0.174 A  
HETATM   25  C   UNL     1     -10.033   4.043  72.266  1.00  0.00    -0.236 A  
HETATM   26  C   UNL     1      -9.883   2.736  71.666  1.00  0.00    -0.211 A  
HETATM   27  C   UNL     1     -10.228   1.695  72.494  1.00  0.00    -0.146 A  
HETATM   28  S   UNL     1     -10.680   2.242  74.035  1.00  0.00    -0.168 SA 
HETATM   29  C   UNL     1     -10.409   3.893  73.609  1.00  0.00    -0.167 A  
HETATM   30  C   UNL     1     -10.554   4.989  74.476  1.00  0.00    -0.177 A  
HETATM   31  C   UNL     1     -10.303   6.262  73.988  1.00  0.00    -0.322 A  
HETATM   32  C   UNL     1      -9.958   6.439  72.655  1.00  0.00    -0.184 A  
ENDBRANCH  21  24
ENDBRANCH  17  18
ENDBRANCH  16  17
ENDBRANCH  15  16
ENDBRANCH  14  15
ENDBRANCH  13  14
ENDBRANCH   7  13
TORSDOF 7
ENDMDL
MODEL      230
REMARK 921   NORMALIZED FREE ENERGY PREDICTED BY IDOCK:   -4.22 KCAL/MOL
REMARK 922        TOTAL FREE ENERGY PREDICTED BY IDOCK:   -7.25 KCAL/MOL
REMARK 923 INTER-LIGAND FREE ENERGY PREDICTED BY IDOCK:   -6.69 KCAL/MOL
REMARK 924 INTRA-LIGAND FREE ENERGY PREDICTED BY IDOCK:   -0.56 KCAL/MOL
REMARK 927      BINDING AFFINITY PREDICTED BY RF-SCORE:    0.00 PKD
ROOT
HETATM    1  O   UNL     1     -12.256  11.827  70.164  1.00  0.00    -0.299 OA 
HETATM    2  C   UNL     1     -12.046  10.792  70.786  1.00  0.00    -0.372 C  
HETATM    3  N   UNL     1     -10.793  10.265  70.935  1.00  0.00    -0.326 N  
HETATM    4  C   UNL     1     -10.534   9.067  71.615  1.00  0.00    -0.355 A  
HETATM    5  H   UNL     1     -10.005  10.770  70.529  1.00  0.00     0.000 HD 
HETATM    6  C   UNL     1      -9.230   8.584  71.707  1.00  0.00    -0.316 A  
HETATM    7  C   UNL     1      -8.982   7.376  72.365  1.00  0.00    -0.131 A  
HETATM    8  C   UNL     1     -13.164  10.051  71.422  1.00  0.00    -0.486 C  
HETATM    9  C   UNL     1     -10.052   6.666  72.925  1.00  0.00    -0.200 A  
HETATM   10  C   UNL     1     -12.956   8.906  72.083  1.00  0.00    -0.473 C  
HETATM   11  C   UNL     1     -11.357   7.156  72.839  1.00  0.00    -0.257 A  
HETATM   12  C   UNL     1     -11.603   8.363  72.187  1.00  0.00    -0.442 A  
ENDROOT
BRANCH   7  13
HETATM   13  O   UNL     1      -7.664   6.995  72.398  1.00  0.00    -0.093 OA 
BRANCH  13  14
HETATM   14  C   UNL     1      -7.421   5.621  72.098  1.00  0.00    -0.099 C  
BRANCH  14  15
HETATM   15  C   UNL     1      -6.975   5.476  70.647  1.00  0.00    -0.057 C  
BRANCH  15  16
HETATM   16  C   UNL     1      -8.165   5.487  69.682  1.00  0.00    -0.101 C  
BRANCH  16  17
HETATM   17  C   UNL     1      -7.800   5.610  68.192  1.00  0.00    -0.096 C  
BRANCH  17  18
HETATM   18  N   UNL     1      -6.770   6.614  67.898  1.00  0.00    -0.068 NA 
HETATM   19  C   UNL     1      -6.328   6.605  66.481  1.00  0.00    -0.042 C  
HETATM   20  C   UNL     1      -7.363   7.127  65.455  1.00  0.00    -0.080 C  
HETATM   21  N   UNL     1      -7.854   8.452  65.853  1.00  0.00    -0.092 NA 
HETATM   22  C   UNL     1      -7.256   7.986  68.209  1.00  0.00    -0.093 C  
HETATM   23  C   UNL     1      -8.333   8.546  67.241  1.00  0.00    -0.115 C  
BRANCH  21  24
HETATM   24  C   UNL     1      -8.313   9.363  64.896  1.00  0.00    -0.150 A  
HETATM   25  C   UNL     1      -9.440  10.243  65.046  1.00  0.00    -0.314 A  
HETATM   26  C   UNL     1     -10.244  10.590  66.197  1.00  0.00    -0.299 A  
HETATM   27  C   UNL     1     -11.289  11.437  65.918  1.00  0.00    -0.020 A  
HETATM   28  S   UNL     1     -11.305  11.895  64.284  1.00  0.00    -0.343 SA 
HETATM   29  C   UNL     1      -9.896  10.963  63.932  1.00  0.00    -0.331 A  
HETATM   30  C   UNL     1      -9.259  10.895  62.681  1.00  0.00    -0.357 A  
HETATM   31  C   UNL     1      -8.132  10.098  62.550  1.00  0.00    -0.158 A  
HETATM   32  C   UNL     1      -7.679   9.353  63.630  1.00  0.00    -0.123 A  
ENDBRANCH  21  24
ENDBRANCH  17  18
ENDBRANCH  16  17
ENDBRANCH  15  16
ENDBRANCH  14  15
ENDBRANCH  13  14
ENDBRANCH   7  13
TORSDOF 7
ENDMDL
MODEL      231
REMARK 921   NORMALIZED FREE ENERGY PREDICTED BY IDOCK:   -4.22 KCAL/MOL
REMARK 922        TOTAL FREE ENERGY PREDICTED BY IDOCK:   -7.25 KCAL/MOL
REMARK 923 INTER-LIGAND FREE ENERGY PREDICTED BY IDOCK:   -6.47 KCAL/MOL
REMARK 924 INTRA-LIGAND FREE ENERGY PREDICTED BY IDOCK:   -0.78 KCAL/MOL
REMARK 927      BINDING AFFINITY PREDICTED BY RF-SCORE:    0.00 PKD
ROOT
HETATM    1  O   UNL     1     -12.367  15.906  63.772  1.00  0.00    -0.791 OA 
HETATM    2  C   UNL     1     -11.927  14.835  64.176  1.00  0.00    -0.259 C  
HETATM    3  N   UNL     1     -11.050  14.748  65.221  1.00  0.00    -0.350 N  
HETATM    4  C   UNL     1     -10.511  13.538  65.679  1.00  0.00    -0.293 A  
HETATM    5  H   UNL     1     -10.773  15.609  65.692  1.00  0.00     0.000 HD 
HETATM    6  C   UNL     1      -9.606  13.533  66.739  1.00  0.00    -0.268 A  
HETATM    7  C   UNL     1      -9.053  12.326  67.174  1.00  0.00    -0.193 A  
HETATM    8  C   UNL     1     -12.338  13.560  63.538  1.00  0.00    -0.343 C  
HETATM    9  C   UNL     1      -9.418  11.133  66.536  1.00  0.00    -0.215 A  
HETATM   10  C   UNL     1     -11.848  12.384  63.949  1.00  0.00    -0.551 C  
HETATM   11  C   UNL     1     -10.331  11.139  65.479  1.00  0.00    -0.326 A  
HETATM   12  C   UNL     1     -10.886  12.343  65.049  1.00  0.00    -0.331 A  
ENDROOT
BRANCH   7  13
HETATM   13  O   UNL     1      -8.176  12.435  68.223  1.00  0.00    -0.162 OA 
BRANCH  13  14
HETATM   14  C   UNL     1      -6.841  12.792  67.866  1.00  0.00    -0.114 C  
BRANCH  14  15
HETATM   15  C   UNL     1      -5.852  12.124  68.815  1.00  0.00    -0.055 C  
BRANCH  15  16
HETATM   16  C   UNL     1      -6.519  11.031  69.655  1.00  0.00    -0.123 C  
BRANCH  16  17
HETATM   17  C   UNL     1      -6.515   9.626  69.025  1.00  0.00    -0.045 C  
BRANCH  17  18
HETATM   18  N   UNL     1      -6.027   8.562  69.911  1.00  0.00    -0.028 NA 
HETATM   19  C   UNL     1      -6.410   8.758  71.331  1.00  0.00    -0.068 C  
HETATM   20  C   UNL     1      -7.912   8.562  71.651  1.00  0.00    -0.142 C  
HETATM   21  N   UNL     1      -8.378   7.265  71.147  1.00  0.00    -0.111 NA 
HETATM   22  C   UNL     1      -6.544   7.233  69.485  1.00  0.00    -0.040 C  
HETATM   23  C   UNL     1      -8.058   6.995  69.736  1.00  0.00    -0.126 C  
BRANCH  21  24
HETATM   24  C   UNL     1      -9.448   6.601  71.756  1.00  0.00    -0.151 A  
HETATM   25  C   UNL     1      -9.431   5.248  72.242  1.00  0.00    -0.164 A  
HETATM   26  C   UNL     1      -8.348   4.309  72.438  1.00  0.00    -0.104 A  
HETATM   27  C   UNL     1      -8.751   3.070  72.873  1.00  0.00    -0.080 A  
HETATM   28  S   UNL     1     -10.429   3.007  73.122  1.00  0.00    -0.169 SA 
HETATM   29  C   UNL     1     -10.633   4.656  72.654  1.00  0.00    -0.195 A  
HETATM   30  C   UNL     1     -11.853   5.355  72.657  1.00  0.00    -0.145 A  
HETATM   31  C   UNL     1     -11.862   6.680  72.251  1.00  0.00    -0.289 A  
HETATM   32  C   UNL     1     -10.689   7.280  71.810  1.00  0.00    -0.243 A  
ENDBRANCH  21  24
ENDBRANCH  17  18
ENDBRANCH  16  17
ENDBRANCH  15  16
ENDBRANCH  14  15
ENDBRANCH  13  14
ENDBRANCH   7  13
TORSDOF 7
ENDMDL
MODEL      232
REMARK 921   NORMALIZED FREE ENERGY PREDICTED BY IDOCK:   -4.18 KCAL/MOL
REMARK 922        TOTAL FREE ENERGY PREDICTED BY IDOCK:   -7.20 KCAL/MOL
REMARK 923 INTER-LIGAND FREE ENERGY PREDICTED BY IDOCK:   -6.61 KCAL/MOL
REMARK 924 INTRA-LIGAND FREE ENERGY PREDICTED BY IDOCK:   -0.59 KCAL/MOL
REMARK 927      BINDING AFFINITY PREDICTED BY RF-SCORE:    0.00 PKD
ROOT
HETATM    1  O   UNL     1      -5.737  20.830  71.768  1.00  0.00    -0.611 OA 
HETATM    2  C   UNL     1      -6.082  20.668  70.603  1.00  0.00     0.119 C  
HETATM    3  N   UNL     1      -7.340  20.254  70.260  1.00  0.00     0.311 N  
HETATM    4  C   UNL     1      -7.746  20.032  68.936  1.00  0.00    -0.031 A  
HETATM    5  H   UNL     1      -8.017  20.098  71.006  1.00  0.00     0.000 HD 
HETATM    6  C   UNL     1      -9.041  19.592  68.668  1.00  0.00    -0.396 A  
HETATM    7  C   UNL     1      -9.432  19.348  67.350  1.00  0.00    -0.316 A  
HETATM    8  C   UNL     1      -5.134  20.921  69.490  1.00  0.00    -0.394 C  
HETATM    9  C   UNL     1      -8.514  19.551  66.311  1.00  0.00    -0.370 A  
HETATM   10  C   UNL     1      -5.486  20.724  68.213  1.00  0.00    -0.335 C  
HETATM   11  C   UNL     1      -7.219  20.001  66.581  1.00  0.00    -0.278 A  
HETATM   12  C   UNL     1      -6.831  20.249  67.897  1.00  0.00    -0.326 A  
ENDROOT
BRANCH   7  13
HETATM   13  O   UNL     1     -10.727  18.919  67.199  1.00  0.00    -0.439 OA 
BRANCH  13  14
HETATM   14  C   UNL     1     -10.881  17.685  66.499  1.00  0.00     0.055 C  
BRANCH  14  15
HETATM   15  C   UNL     1      -9.859  16.670  67.001  1.00  0.00    -0.260 C  
BRANCH  15  16
HETATM   16  C   UNL     1      -9.360  15.761  65.874  1.00  0.00    -0.356 C  
BRANCH  16  17
HETATM   17  C   UNL     1     -10.099  14.418  65.738  1.00  0.00    -0.340 C  
BRANCH  17  18
HETATM   18  N   UNL     1     -10.347  13.727  67.010  1.00  0.00    -0.258 NA 
HETATM   19  C   UNL     1     -11.302  12.598  66.890  1.00  0.00    -0.320 C  
HETATM   20  C   UNL     1     -10.774  11.356  66.130  1.00  0.00    -0.267 C  
HETATM   21  N   UNL     1      -9.494  10.915  66.695  1.00  0.00    -0.176 NA 
HETATM   22  C   UNL     1      -9.081  13.189  67.581  1.00  0.00    -0.201 C  
HETATM   23  C   UNL     1      -8.478  11.971  66.831  1.00  0.00    -0.172 C  
BRANCH  21  24
HETATM   24  C   UNL     1      -9.098   9.576  66.614  1.00  0.00    -0.148 A  
HETATM   25  C   UNL     1      -8.549   8.930  65.453  1.00  0.00    -0.200 A  
HETATM   26  C   UNL     1      -8.076   9.457  64.192  1.00  0.00    -0.145 A  
HETATM   27  C   UNL     1      -7.674   8.495  63.297  1.00  0.00    -0.138 A  
HETATM   28  S   UNL     1      -7.791   6.936  63.956  1.00  0.00    -0.070 SA 
HETATM   29  C   UNL     1      -8.377   7.539  65.464  1.00  0.00    -0.133 A  
HETATM   30  C   UNL     1      -8.675   6.753  66.592  1.00  0.00    -0.128 A  
HETATM   31  C   UNL     1      -9.142   7.381  67.736  1.00  0.00    -0.129 A  
HETATM   32  C   UNL     1      -9.349   8.754  67.740  1.00  0.00    -0.157 A  
ENDBRANCH  21  24
ENDBRANCH  17  18
ENDBRANCH  16  17
ENDBRANCH  15  16
ENDBRANCH  14  15
ENDBRANCH  13  14
ENDBRANCH   7  13
TORSDOF 7
ENDMDL
MODEL      233
REMARK 921   NORMALIZED FREE ENERGY PREDICTED BY IDOCK:   -4.17 KCAL/MOL
REMARK 922        TOTAL FREE ENERGY PREDICTED BY IDOCK:   -7.18 KCAL/MOL
REMARK 923 INTER-LIGAND FREE ENERGY PREDICTED BY IDOCK:   -6.49 KCAL/MOL
REMARK 924 INTRA-LIGAND FREE ENERGY PREDICTED BY IDOCK:   -0.69 KCAL/MOL
REMARK 927      BINDING AFFINITY PREDICTED BY RF-SCORE:    0.00 PKD
ROOT
HETATM    1  O   UNL     1      -6.494  20.477  71.356  1.00  0.00    -0.575 OA 
HETATM    2  C   UNL     1      -6.516  20.012  70.222  1.00  0.00    -0.265 C  
HETATM    3  N   UNL     1      -7.191  18.864  69.912  1.00  0.00     0.276 N  
HETATM    4  C   UNL     1      -7.205  18.297  68.630  1.00  0.00    -0.282 A  
HETATM    5  H   UNL     1      -7.713  18.395  70.653  1.00  0.00     0.000 HD 
HETATM    6  C   UNL     1      -7.902  17.112  68.397  1.00  0.00    -0.244 A  
HETATM    7  C   UNL     1      -7.890  16.539  67.123  1.00  0.00    -0.182 A  
HETATM    8  C   UNL     1      -5.799  20.687  69.111  1.00  0.00    -0.395 C  
HETATM    9  C   UNL     1      -7.176  17.166  66.093  1.00  0.00    -0.253 A  
HETATM   10  C   UNL     1      -5.792  20.179  67.873  1.00  0.00    -0.244 C  
HETATM   11  C   UNL     1      -6.485  18.357  66.327  1.00  0.00    -0.245 A  
HETATM   12  C   UNL     1      -6.500  18.931  67.596  1.00  0.00    -0.209 A  
ENDROOT
BRANCH   7  13
HETATM   13  O   UNL     1      -8.609  15.377  67.005  1.00  0.00    -0.197 OA 
BRANCH  13  14
HETATM   14  C   UNL     1      -9.817  15.328  67.764  1.00  0.00    -0.220 C  
BRANCH  14  15
HETATM   15  C   UNL     1     -10.876  14.534  67.006  1.00  0.00    -0.297 C  
BRANCH  15  16
HETATM   16  C   UNL     1     -11.602  13.540  67.918  1.00  0.00    -0.377 C  
BRANCH  16  17
HETATM   17  C   UNL     1     -10.704  12.477  68.576  1.00  0.00    -0.239 C  
BRANCH  17  18
HETATM   18  N   UNL     1     -10.105  11.520  67.636  1.00  0.00    -0.182 NA 
HETATM   19  C   UNL     1      -8.828  10.942  68.122  1.00  0.00    -0.137 C  
HETATM   20  C   UNL     1      -8.951   9.951  69.306  1.00  0.00    -0.178 C  
HETATM   21  N   UNL     1      -9.930   8.903  68.997  1.00  0.00    -0.184 NA 
HETATM   22  C   UNL     1     -11.034  10.392  67.357  1.00  0.00    -0.270 C  
HETATM   23  C   UNL     1     -11.236   9.390  68.526  1.00  0.00     0.181 C  
BRANCH  21  24
HETATM   24  C   UNL     1      -9.831   7.635  69.579  1.00  0.00    -0.178 A  
HETATM   25  C   UNL     1     -10.368   7.253  70.856  1.00  0.00    -0.210 A  
HETATM   26  C   UNL     1     -11.278   7.924  71.758  1.00  0.00    -0.305 A  
HETATM   27  C   UNL     1     -11.508   7.247  72.931  1.00  0.00    -0.183 A  
HETATM   28  S   UNL     1     -10.693   5.759  72.967  1.00  0.00    -0.275 SA 
HETATM   29  C   UNL     1     -10.026   6.003  71.394  1.00  0.00    -0.186 A  
HETATM   30  C   UNL     1      -9.214   5.085  70.705  1.00  0.00    -0.192 A  
HETATM   31  C   UNL     1      -8.748   5.424  69.445  1.00  0.00    -0.110 A  
HETATM   32  C   UNL     1      -9.049   6.667  68.903  1.00  0.00    -0.132 A  
ENDBRANCH  21  24
ENDBRANCH  17  18
ENDBRANCH  16  17
ENDBRANCH  15  16
ENDBRANCH  14  15
ENDBRANCH  13  14
ENDBRANCH   7  13
TORSDOF 7
ENDMDL
MODEL      234
REMARK 921   NORMALIZED FREE ENERGY PREDICTED BY IDOCK:   -4.17 KCAL/MOL
REMARK 922        TOTAL FREE ENERGY PREDICTED BY IDOCK:   -7.18 KCAL/MOL
REMARK 923 INTER-LIGAND FREE ENERGY PREDICTED BY IDOCK:   -5.82 KCAL/MOL
REMARK 924 INTRA-LIGAND FREE ENERGY PREDICTED BY IDOCK:   -1.36 KCAL/MOL
REMARK 927      BINDING AFFINITY PREDICTED BY RF-SCORE:    0.00 PKD
ROOT
HETATM    1  O   UNL     1     -11.333  14.217  64.295  1.00  0.00    -0.332 OA 
HETATM    2  C   UNL     1     -10.666  13.773  65.223  1.00  0.00    -0.339 C  
HETATM    3  N   UNL     1      -9.880  12.661  65.098  1.00  0.00    -0.463 N  
HETATM    4  C   UNL     1      -9.134  12.119  66.154  1.00  0.00    -0.101 A  
HETATM    5  H   UNL     1      -9.835  12.202  64.188  1.00  0.00     0.000 HD 
HETATM    6  C   UNL     1      -8.371  10.970  65.952  1.00  0.00    -0.119 A  
HETATM    7  C   UNL     1      -7.650  10.420  67.014  1.00  0.00    -0.101 A  
HETATM    8  C   UNL     1     -10.678  14.438  66.550  1.00  0.00    -0.306 C  
HETATM    9  C   UNL     1      -7.704  11.034  68.273  1.00  0.00    -0.113 A  
HETATM   10  C   UNL     1      -9.976  13.953  67.581  1.00  0.00    -0.237 C  
HETATM   11  C   UNL     1      -8.462  12.191  68.471  1.00  0.00    -0.083 A  
HETATM   12  C   UNL     1      -9.177  12.741  67.409  1.00  0.00    -0.193 A  
ENDROOT
BRANCH   7  13
HETATM   13  O   UNL     1      -6.934   9.291  66.706  1.00  0.00    -0.079 OA 
BRANCH  13  14
HETATM   14  C   UNL     1      -6.090   8.802  67.748  1.00  0.00    -0.048 C  
BRANCH  14  15
HETATM   15  C   UNL     1      -5.736   7.342  67.489  1.00  0.00    -0.029 C  
BRANCH  15  16
HETATM   16  C   UNL     1      -6.848   6.613  66.729  1.00  0.00    -0.065 C  
BRANCH  16  17
HETATM   17  C   UNL     1      -7.750   5.712  67.592  1.00  0.00    -0.097 C  
BRANCH  17  18
HETATM   18  N   UNL     1      -9.158   5.679  67.174  1.00  0.00    -0.112 NA 
HETATM   19  C   UNL     1     -10.034   4.942  68.118  1.00  0.00    -0.108 C  
HETATM   20  C   UNL     1     -10.284   5.637  69.479  1.00  0.00    -0.250 C  
HETATM   21  N   UNL     1     -10.756   7.011  69.273  1.00  0.00    -0.226 NA 
HETATM   22  C   UNL     1      -9.705   7.056  67.033  1.00  0.00    -0.167 C  
HETATM   23  C   UNL     1      -9.932   7.823  68.364  1.00  0.00    -0.178 C  
BRANCH  21  24
HETATM   24  C   UNL     1     -11.568   7.640  70.223  1.00  0.00    -0.060 A  
HETATM   25  C   UNL     1     -11.808   9.054  70.318  1.00  0.00     0.076 A  
HETATM   26  C   UNL     1     -11.497  10.146  69.423  1.00  0.00    -0.202 A  
HETATM   27  C   UNL     1     -11.842  11.385  69.906  1.00  0.00    -0.359 A  
HETATM   28  S   UNL     1     -12.606  11.278  71.418  1.00  0.00    -0.306 SA 
HETATM   29  C   UNL     1     -12.489   9.556  71.437  1.00  0.00    -0.362 A  
HETATM   30  C   UNL     1     -12.993   8.720  72.449  1.00  0.00    -0.442 A  
HETATM   31  C   UNL     1     -12.820   7.350  72.326  1.00  0.00     0.004 A  
HETATM   32  C   UNL     1     -12.123   6.831  71.243  1.00  0.00    -0.421 A  
ENDBRANCH  21  24
ENDBRANCH  17  18
ENDBRANCH  16  17
ENDBRANCH  15  16
ENDBRANCH  14  15
ENDBRANCH  13  14
ENDBRANCH   7  13
TORSDOF 7
ENDMDL
MODEL      235
REMARK 921   NORMALIZED FREE ENERGY PREDICTED BY IDOCK:   -4.16 KCAL/MOL
REMARK 922        TOTAL FREE ENERGY PREDICTED BY IDOCK:   -7.17 KCAL/MOL
REMARK 923 INTER-LIGAND FREE ENERGY PREDICTED BY IDOCK:   -6.27 KCAL/MOL
REMARK 924 INTRA-LIGAND FREE ENERGY PREDICTED BY IDOCK:   -0.90 KCAL/MOL
REMARK 927      BINDING AFFINITY PREDICTED BY RF-SCORE:    0.00 PKD
ROOT
HETATM    1  O   UNL     1      -7.765  14.185  67.019  1.00  0.00    -0.076 OA 
HETATM    2  C   UNL     1      -7.270  13.385  67.805  1.00  0.00    -0.154 C  
HETATM    3  N   UNL     1      -7.943  12.280  68.250  1.00  0.00    -0.157 N  
HETATM    4  C   UNL     1      -7.409  11.369  69.172  1.00  0.00    -0.081 A  
HETATM    5  H   UNL     1      -8.883  12.110  67.892  1.00  0.00     0.000 HD 
HETATM    6  C   UNL     1      -8.165  10.276  69.592  1.00  0.00    -0.146 A  
HETATM    7  C   UNL     1      -7.638   9.386  70.530  1.00  0.00    -0.150 A  
HETATM    8  C   UNL     1      -5.892  13.580  68.319  1.00  0.00    -0.100 C  
HETATM    9  C   UNL     1      -6.350   9.605  71.037  1.00  0.00    -0.063 A  
HETATM   10  C   UNL     1      -5.346  12.731  69.197  1.00  0.00    -0.069 C  
HETATM   11  C   UNL     1      -5.590  10.697  70.609  1.00  0.00    -0.105 A  
HETATM   12  C   UNL     1      -6.116  11.582  69.670  1.00  0.00    -0.114 A  
ENDROOT
BRANCH   7  13
HETATM   13  O   UNL     1      -8.465   8.346  70.872  1.00  0.00    -0.120 OA 
BRANCH  13  14
HETATM   14  C   UNL     1      -9.057   7.654  69.773  1.00  0.00    -0.147 C  
BRANCH  14  15
HETATM   15  C   UNL     1     -10.574   7.801  69.821  1.00  0.00    -0.241 C  
BRANCH  15  16
HETATM   16  C   UNL     1     -11.054   8.302  71.187  1.00  0.00    -0.289 C  
BRANCH  16  17
HETATM   17  C   UNL     1     -11.308   9.818  71.277  1.00  0.00    -0.375 C  
BRANCH  17  18
HETATM   18  N   UNL     1     -12.494  10.281  70.545  1.00  0.00    -0.287 NA 
HETATM   19  C   UNL     1     -12.974  11.614  70.988  1.00  0.00    -0.135 C  
HETATM   20  C   UNL     1     -12.068  12.811  70.606  1.00  0.00    -0.228 C  
HETATM   21  N   UNL     1     -11.782  12.797  69.167  1.00  0.00    -0.309 NA 
HETATM   22  C   UNL     1     -12.222  10.363  69.084  1.00  0.00     0.244 C  
HETATM   23  C   UNL     1     -11.280  11.516  68.645  1.00  0.00    -0.248 C  
BRANCH  21  24
HETATM   24  C   UNL     1     -11.505  13.984  68.480  1.00  0.00    -0.302 A  
HETATM   25  C   UNL     1     -11.663  14.193  67.067  1.00  0.00    -0.430 A  
HETATM   26  C   UNL     1     -12.302  13.398  66.042  1.00  0.00    -0.471 A  
HETATM   27  C   UNL     1     -12.189  13.918  64.775  1.00  0.00    -0.415 A  
HETATM   28  S   UNL     1     -11.371  15.405  64.778  1.00  0.00    -0.311 SA 
HETATM   29  C   UNL     1     -11.165  15.372  66.492  1.00  0.00    -0.162 A  
HETATM   30  C   UNL     1     -10.559  16.384  67.257  1.00  0.00    -0.293 A  
HETATM   31  C   UNL     1     -10.463  16.214  68.629  1.00  0.00    -0.269 A  
HETATM   32  C   UNL     1     -10.922  15.043  69.218  1.00  0.00    -0.269 A  
ENDBRANCH  21  24
ENDBRANCH  17  18
ENDBRANCH  16  17
ENDBRANCH  15  16
ENDBRANCH  14  15
ENDBRANCH  13  14
ENDBRANCH   7  13
TORSDOF 7
ENDMDL
MODEL      236
REMARK 921   NORMALIZED FREE ENERGY PREDICTED BY IDOCK:   -4.16 KCAL/MOL
REMARK 922        TOTAL FREE ENERGY PREDICTED BY IDOCK:   -7.17 KCAL/MOL
REMARK 923 INTER-LIGAND FREE ENERGY PREDICTED BY IDOCK:   -6.36 KCAL/MOL
REMARK 924 INTRA-LIGAND FREE ENERGY PREDICTED BY IDOCK:   -0.81 KCAL/MOL
REMARK 927      BINDING AFFINITY PREDICTED BY RF-SCORE:    0.00 PKD
ROOT
HETATM    1  O   UNL     1      -8.131   4.828  65.585  1.00  0.00    -0.108 OA 
HETATM    2  C   UNL     1      -7.755   5.781  66.259  1.00  0.00    -0.099 C  
HETATM    3  N   UNL     1      -8.521   6.898  66.445  1.00  0.00    -0.124 N  
HETATM    4  C   UNL     1      -8.098   8.010  67.185  1.00  0.00    -0.117 A  
HETATM    5  H   UNL     1      -9.448   6.924  66.022  1.00  0.00     0.000 HD 
HETATM    6  C   UNL     1      -8.930   9.122  67.313  1.00  0.00    -0.136 A  
HETATM    7  C   UNL     1      -8.492  10.238  68.031  1.00  0.00    -0.118 A  
HETATM    8  C   UNL     1      -6.426   5.762  66.920  1.00  0.00    -0.050 C  
HETATM    9  C   UNL     1      -7.219  10.223  68.615  1.00  0.00    -0.081 A  
HETATM   10  C   UNL     1      -5.989   6.804  67.638  1.00  0.00    -0.024 C  
HETATM   11  C   UNL     1      -6.390   9.105  68.494  1.00  0.00    -0.053 A  
HETATM   12  C   UNL     1      -6.829   7.991  67.781  1.00  0.00    -0.070 A  
ENDROOT
BRANCH   7  13
HETATM   13  O   UNL     1      -9.389  11.273  68.095  1.00  0.00    -0.167 OA 
BRANCH  13  14
HETATM   14  C   UNL     1     -10.319  11.341  67.014  1.00  0.00    -0.227 C  
BRANCH  14  15
HETATM   15  C   UNL     1     -11.700  11.721  67.537  1.00  0.00    -0.312 C  
BRANCH  15  16
HETATM   16  C   UNL     1     -11.989  13.213  67.350  1.00  0.00    -0.379 C  
BRANCH  16  17
HETATM   17  C   UNL     1     -10.902  14.002  66.599  1.00  0.00    -0.297 C  
BRANCH  17  18
HETATM   18  N   UNL     1     -11.072  15.461  66.635  1.00  0.00    -0.283 NA 
HETATM   19  C   UNL     1     -11.139  16.011  68.012  1.00  0.00    -0.334 C  
HETATM   20  C   UNL     1      -9.810  15.982  68.807  1.00  0.00    -0.223 C  
HETATM   21  N   UNL     1      -8.736  16.611  68.032  1.00  0.00    -0.191 NA 
HETATM   22  C   UNL     1      -9.956  16.147  65.929  1.00  0.00    -0.356 C  
HETATM   23  C   UNL     1      -8.585  16.110  66.657  1.00  0.00    -0.276 C  
BRANCH  21  24
HETATM   24  C   UNL     1      -7.650  17.219  68.672  1.00  0.00    -0.260 A  
HETATM   25  C   UNL     1      -7.216  18.576  68.485  1.00  0.00    -0.306 A  
HETATM   26  C   UNL     1      -7.829  19.698  67.809  1.00  0.00    -0.325 A  
HETATM   27  C   UNL     1      -7.059  20.836  67.796  1.00  0.00    -0.259 A  
HETATM   28  S   UNL     1      -5.605  20.619  68.644  1.00  0.00    -0.351 SA 
HETATM   29  C   UNL     1      -6.000  18.987  69.049  1.00  0.00    -0.223 A  
HETATM   30  C   UNL     1      -5.210  18.133  69.838  1.00  0.00    -0.207 A  
HETATM   31  C   UNL     1      -5.659  16.844  70.076  1.00  0.00    -0.222 A  
HETATM   32  C   UNL     1      -6.845  16.403  69.504  1.00  0.00    -0.187 A  
ENDBRANCH  21  24
ENDBRANCH  17  18
ENDBRANCH  16  17
ENDBRANCH  15  16
ENDBRANCH  14  15
ENDBRANCH  13  14
ENDBRANCH   7  13
TORSDOF 7
ENDMDL
MODEL      237
REMARK 921   NORMALIZED FREE ENERGY PREDICTED BY IDOCK:   -4.15 KCAL/MOL
REMARK 922        TOTAL FREE ENERGY PREDICTED BY IDOCK:   -7.16 KCAL/MOL
REMARK 923 INTER-LIGAND FREE ENERGY PREDICTED BY IDOCK:   -6.17 KCAL/MOL
REMARK 924 INTRA-LIGAND FREE ENERGY PREDICTED BY IDOCK:   -0.99 KCAL/MOL
REMARK 927      BINDING AFFINITY PREDICTED BY RF-SCORE:    0.00 PKD
ROOT
HETATM    1  O   UNL     1      -9.059   2.358  62.630  1.00  0.00    -0.087 OA 
HETATM    2  C   UNL     1      -9.376   3.030  63.606  1.00  0.00    -0.098 C  
HETATM    3  N   UNL     1      -8.483   3.376  64.581  1.00  0.00    -0.093 N  
HETATM    4  C   UNL     1      -8.830   4.117  65.719  1.00  0.00    -0.122 A  
HETATM    5  H   UNL     1      -7.513   3.079  64.475  1.00  0.00     0.000 HD 
HETATM    6  C   UNL     1      -7.865   4.414  66.681  1.00  0.00    -0.098 A  
HETATM    7  C   UNL     1      -8.223   5.130  67.825  1.00  0.00    -0.098 A  
HETATM    8  C   UNL     1     -10.770   3.510  63.773  1.00  0.00    -0.263 C  
HETATM    9  C   UNL     1      -9.553   5.542  67.991  1.00  0.00    -0.147 A  
HETATM   10  C   UNL     1     -11.140   4.222  64.844  1.00  0.00     0.077 C  
HETATM   11  C   UNL     1     -10.516   5.251  67.023  1.00  0.00    -0.290 A  
HETATM   12  C   UNL     1     -10.157   4.540  65.879  1.00  0.00    -0.279 A  
ENDROOT
BRANCH   7  13
HETATM   13  O   UNL     1      -7.198   5.369  68.704  1.00  0.00    -0.064 OA 
BRANCH  13  14
HETATM   14  C   UNL     1      -7.534   6.186  69.824  1.00  0.00    -0.081 C  
BRANCH  14  15
HETATM   15  C   UNL     1      -6.608   7.397  69.883  1.00  0.00    -0.043 C  
BRANCH  15  16
HETATM   16  C   UNL     1      -6.833   8.342  68.699  1.00  0.00    -0.063 C  
BRANCH  16  17
HETATM   17  C   UNL     1      -8.178   9.090  68.703  1.00  0.00    -0.118 C  
BRANCH  17  18
HETATM   18  N   UNL     1      -9.161   8.581  67.737  1.00  0.00    -0.135 NA 
HETATM   19  C   UNL     1     -10.509   9.179  67.900  1.00  0.00    -0.237 C  
HETATM   20  C   UNL     1     -10.634  10.668  67.492  1.00  0.00    -0.252 C  
HETATM   21  N   UNL     1     -10.121  10.870  66.132  1.00  0.00    -0.232 NA 
HETATM   22  C   UNL     1      -8.719   8.841  66.339  1.00  0.00    -0.139 C  
HETATM   23  C   UNL     1      -8.776  10.325  65.887  1.00  0.00    -0.156 C  
BRANCH  21  24
HETATM   24  C   UNL     1     -10.606  11.908  65.330  1.00  0.00    -0.275 A  
HETATM   25  C   UNL     1     -10.348  13.309  65.521  1.00  0.00    -0.298 A  
HETATM   26  C   UNL     1      -9.422  14.009  66.384  1.00  0.00    -0.278 A  
HETATM   27  C   UNL     1      -9.520  15.377  66.321  1.00  0.00    -0.309 A  
HETATM   28  S   UNL     1     -10.677  15.872  65.183  1.00  0.00    -0.369 SA 
HETATM   29  C   UNL     1     -11.057  14.244  64.753  1.00  0.00    -0.391 A  
HETATM   30  C   UNL     1     -11.977  13.860  63.762  1.00  0.00    -0.305 A  
HETATM   31  C   UNL     1     -12.179  12.509  63.529  1.00  0.00    -0.652 A  
HETATM   32  C   UNL     1     -11.512  11.564  64.297  1.00  0.00    -0.271 A  
ENDBRANCH  21  24
ENDBRANCH  17  18
ENDBRANCH  16  17
ENDBRANCH  15  16
ENDBRANCH  14  15
ENDBRANCH  13  14
ENDBRANCH   7  13
TORSDOF 7
ENDMDL
MODEL      238
REMARK 921   NORMALIZED FREE ENERGY PREDICTED BY IDOCK:   -4.15 KCAL/MOL
REMARK 922        TOTAL FREE ENERGY PREDICTED BY IDOCK:   -7.15 KCAL/MOL
REMARK 923 INTER-LIGAND FREE ENERGY PREDICTED BY IDOCK:   -5.33 KCAL/MOL
REMARK 924 INTRA-LIGAND FREE ENERGY PREDICTED BY IDOCK:   -1.82 KCAL/MOL
REMARK 927      BINDING AFFINITY PREDICTED BY RF-SCORE:    0.00 PKD
ROOT
HETATM    1  O   UNL     1      -8.464   7.191  74.386  1.00  0.00    -0.166 OA 
HETATM    2  C   UNL     1      -8.746   6.364  73.525  1.00  0.00    -0.123 C  
HETATM    3  N   UNL     1      -7.797   5.766  72.743  1.00  0.00    -0.101 N  
HETATM    4  C   UNL     1      -8.099   4.842  71.733  1.00  0.00    -0.113 A  
HETATM    5  H   UNL     1      -6.818   6.005  72.903  1.00  0.00     0.000 HD 
HETATM    6  C   UNL     1      -7.075   4.290  70.964  1.00  0.00    -0.037 A  
HETATM    7  C   UNL     1      -7.385   3.389  69.942  1.00  0.00    -0.041 A  
HETATM    8  C   UNL     1     -10.156   5.965  73.291  1.00  0.00    -0.202 C  
HETATM    9  C   UNL     1      -8.724   3.052  69.704  1.00  0.00    -0.130 A  
HETATM   10  C   UNL     1     -10.483   5.084  72.338  1.00  0.00    -0.275 C  
HETATM   11  C   UNL     1      -9.747   3.600  70.481  1.00  0.00    -0.210 A  
HETATM   12  C   UNL     1      -9.438   4.495  71.504  1.00  0.00    -0.214 A  
ENDROOT
BRANCH   7  13
HETATM   13  O   UNL     1      -6.304   2.906  69.249  1.00  0.00    -0.028 OA 
BRANCH  13  14
HETATM   14  C   UNL     1      -5.815   3.757  68.213  1.00  0.00    -0.026 C  
BRANCH  14  15
HETATM   15  C   UNL     1      -6.199   3.191  66.850  1.00  0.00    -0.025 C  
BRANCH  15  16
HETATM   16  C   UNL     1      -7.346   3.978  66.210  1.00  0.00    -0.079 C  
BRANCH  16  17
HETATM   17  C   UNL     1      -7.184   5.509  66.230  1.00  0.00    -0.077 C  
BRANCH  17  18
HETATM   18  N   UNL     1      -8.300   6.249  65.628  1.00  0.00    -0.142 NA 
HETATM   19  C   UNL     1      -9.624   5.866  66.179  1.00  0.00    -0.076 C  
HETATM   20  C   UNL     1      -9.896   6.316  67.636  1.00  0.00    -0.121 C  
HETATM   21  N   UNL     1      -9.653   7.756  67.780  1.00  0.00    -0.143 NA 
HETATM   22  C   UNL     1      -8.137   7.715  65.824  1.00  0.00    -0.126 C  
HETATM   23  C   UNL     1      -8.351   8.220  67.277  1.00  0.00    -0.124 C  
BRANCH  21  24
HETATM   24  C   UNL     1     -10.330   8.503  68.750  1.00  0.00    -0.213 A  
HETATM   25  C   UNL     1     -10.786   9.858  68.600  1.00  0.00    -0.256 A  
HETATM   26  C   UNL     1     -10.877  10.720  67.442  1.00  0.00    -0.345 A  
HETATM   27  C   UNL     1     -11.317  11.991  67.722  1.00  0.00    -0.303 A  
HETATM   28  S   UNL     1     -11.695  12.177  69.366  1.00  0.00    -0.324 SA 
HETATM   29  C   UNL     1     -11.278  10.540  69.722  1.00  0.00    -0.298 A  
HETATM   30  C   UNL     1     -11.390   9.931  70.984  1.00  0.00    -0.460 A  
HETATM   31  C   UNL     1     -11.012   8.604  71.117  1.00  0.00    -0.320 A  
HETATM   32  C   UNL     1     -10.494   7.915  70.028  1.00  0.00    -0.231 A  
ENDBRANCH  21  24
ENDBRANCH  17  18
ENDBRANCH  16  17
ENDBRANCH  15  16
ENDBRANCH  14  15
ENDBRANCH  13  14
ENDBRANCH   7  13
TORSDOF 7
ENDMDL
MODEL      239
REMARK 921   NORMALIZED FREE ENERGY PREDICTED BY IDOCK:   -4.14 KCAL/MOL
REMARK 922        TOTAL FREE ENERGY PREDICTED BY IDOCK:   -7.13 KCAL/MOL
REMARK 923 INTER-LIGAND FREE ENERGY PREDICTED BY IDOCK:   -6.94 KCAL/MOL
REMARK 924 INTRA-LIGAND FREE ENERGY PREDICTED BY IDOCK:   -0.20 KCAL/MOL
REMARK 927      BINDING AFFINITY PREDICTED BY RF-SCORE:    0.00 PKD
ROOT
HETATM    1  O   UNL     1      -8.692   7.334  72.299  1.00  0.00    -0.119 OA 
HETATM    2  C   UNL     1      -8.170   7.399  71.192  1.00  0.00    -0.106 C  
HETATM    3  N   UNL     1      -8.493   8.367  70.282  1.00  0.00    -0.122 N  
HETATM    4  C   UNL     1      -7.932   8.442  69.000  1.00  0.00    -0.111 A  
HETATM    5  H   UNL     1      -9.180   9.072  70.551  1.00  0.00     0.000 HD 
HETATM    6  C   UNL     1      -8.328   9.450  68.122  1.00  0.00    -0.119 A  
HETATM    7  C   UNL     1      -7.784   9.503  66.837  1.00  0.00    -0.098 A  
HETATM    8  C   UNL     1      -7.140   6.412  70.781  1.00  0.00    -0.069 C  
HETATM    9  C   UNL     1      -6.843   8.541  66.447  1.00  0.00    -0.074 A  
HETATM   10  C   UNL     1      -6.579   6.453  69.567  1.00  0.00    -0.048 C  
HETATM   11  C   UNL     1      -6.441   7.537  67.332  1.00  0.00    -0.058 A  
HETATM   12  C   UNL     1      -6.981   7.486  68.615  1.00  0.00    -0.079 A  
ENDROOT
BRANCH   7  13
HETATM   13  O   UNL     1      -8.242  10.534  66.056  1.00  0.00    -0.139 OA 
BRANCH  13  14
HETATM   14  C   UNL     1      -9.380  10.229  65.251  1.00  0.00    -0.215 C  
BRANCH  14  15
HETATM   15  C   UNL     1     -10.621  10.102  66.130  1.00  0.00    -0.099 C  
BRANCH  15  16
HETATM   16  C   UNL     1     -11.200  11.471  66.497  1.00  0.00    -0.324 C  
BRANCH  16  17
HETATM   17  C   UNL     1     -11.752  12.288  65.315  1.00  0.00    -0.361 C  
BRANCH  17  18
HETATM   18  N   UNL     1     -12.317  13.592  65.686  1.00  0.00    -0.451 NA 
HETATM   19  C   UNL     1     -11.972  14.010  67.067  1.00  0.00    -0.438 C  
HETATM   20  C   UNL     1     -10.492  14.403  67.296  1.00  0.00    -0.269 C  
HETATM   21  N   UNL     1     -10.070  15.407  66.313  1.00  0.00    -0.275 NA 
HETATM   22  C   UNL     1     -11.848  14.660  64.761  1.00  0.00    -0.440 C  
HETATM   23  C   UNL     1     -10.356  15.063  64.911  1.00  0.00    -0.282 C  
BRANCH  21  24
HETATM   24  C   UNL     1      -9.052  16.319  66.611  1.00  0.00    -0.248 A  
HETATM   25  C   UNL     1      -9.138  17.748  66.479  1.00  0.00    -0.281 A  
HETATM   26  C   UNL     1     -10.260  18.625  66.230  1.00  0.00    -0.462 A  
HETATM   27  C   UNL     1      -9.921  19.951  66.110  1.00  0.00    -0.487 A  
HETATM   28  S   UNL     1      -8.260  20.198  66.352  1.00  0.00    -0.198 SA 
HETATM   29  C   UNL     1      -7.977  18.518  66.633  1.00  0.00    -0.261 A  
HETATM   30  C   UNL     1      -6.735  17.948  66.963  1.00  0.00    -0.203 A  
HETATM   31  C   UNL     1      -6.662  16.578  67.157  1.00  0.00    -0.232 A  
HETATM   32  C   UNL     1      -7.792  15.790  66.981  1.00  0.00    -0.271 A  
ENDBRANCH  21  24
ENDBRANCH  17  18
ENDBRANCH  16  17
ENDBRANCH  15  16
ENDBRANCH  14  15
ENDBRANCH  13  14
ENDBRANCH   7  13
TORSDOF 7
ENDMDL
MODEL      240
REMARK 921   NORMALIZED FREE ENERGY PREDICTED BY IDOCK:   -4.13 KCAL/MOL
REMARK 922        TOTAL FREE ENERGY PREDICTED BY IDOCK:   -7.13 KCAL/MOL
REMARK 923 INTER-LIGAND FREE ENERGY PREDICTED BY IDOCK:   -6.41 KCAL/MOL
REMARK 924 INTRA-LIGAND FREE ENERGY PREDICTED BY IDOCK:   -0.72 KCAL/MOL
REMARK 927      BINDING AFFINITY PREDICTED BY RF-SCORE:    0.00 PKD
ROOT
HETATM    1  O   UNL     1      -8.300   4.300  65.598  1.00  0.00    -0.108 OA 
HETATM    2  C   UNL     1      -7.851   4.903  66.566  1.00  0.00    -0.099 C  
HETATM    3  N   UNL     1      -8.560   5.869  67.224  1.00  0.00    -0.107 N  
HETATM    4  C   UNL     1      -8.055   6.592  68.314  1.00  0.00    -0.110 A  
HETATM    5  H   UNL     1      -9.507   6.075  66.905  1.00  0.00     0.000 HD 
HETATM    6  C   UNL     1      -8.833   7.576  68.920  1.00  0.00    -0.135 A  
HETATM    7  C   UNL     1      -8.314   8.311  69.989  1.00  0.00    -0.121 A  
HETATM    8  C   UNL     1      -6.491   4.603  67.081  1.00  0.00    -0.042 C  
HETATM    9  C   UNL     1      -7.014   8.046  70.439  1.00  0.00    -0.041 A  
HETATM   10  C   UNL     1      -5.976   5.269  68.121  1.00  0.00    -0.022 C  
HETATM   11  C   UNL     1      -6.238   7.053  69.835  1.00  0.00    -0.031 A  
HETATM   12  C   UNL     1      -6.758   6.318  68.772  1.00  0.00    -0.061 A  
ENDROOT
BRANCH   7  13
HETATM   13  O   UNL     1      -9.164   9.252  70.512  1.00  0.00    -0.222 OA 
BRANCH  13  14
HETATM   14  C   UNL     1     -10.182   9.714  69.624  1.00  0.00    -0.222 C  
BRANCH  14  15
HETATM   15  C   UNL     1     -11.424  10.109  70.415  1.00  0.00    -0.400 C  
BRANCH  15  16
HETATM   16  C   UNL     1     -11.762  11.593  70.240  1.00  0.00    -0.355 C  
BRANCH  16  17
HETATM   17  C   UNL     1     -11.295  12.219  68.913  1.00  0.00    -0.287 C  
BRANCH  17  18
HETATM   18  N   UNL     1     -11.874  13.538  68.625  1.00  0.00    -0.353 NA 
HETATM   19  C   UNL     1     -11.364  14.610  69.515  1.00  0.00    -0.280 C  
HETATM   20  C   UNL     1      -9.889  15.025  69.283  1.00  0.00    -0.197 C  
HETATM   21  N   UNL     1      -9.665  15.350  67.870  1.00  0.00    -0.207 NA 
HETATM   22  C   UNL     1     -11.598  13.947  67.221  1.00  0.00    -0.365 C  
HETATM   23  C   UNL     1     -10.125  14.329  66.916  1.00  0.00    -0.264 C  
BRANCH  21  24
HETATM   24  C   UNL     1      -8.667  16.255  67.492  1.00  0.00    -0.181 A  
HETATM   25  C   UNL     1      -8.875  17.627  67.117  1.00  0.00    -0.251 A  
HETATM   26  C   UNL     1     -10.035  18.486  67.212  1.00  0.00    -0.350 A  
HETATM   27  C   UNL     1      -9.850  19.740  66.682  1.00  0.00    -0.425 A  
HETATM   28  S   UNL     1      -8.266  19.952  66.110  1.00  0.00    -0.263 SA 
HETATM   29  C   UNL     1      -7.805  18.356  66.579  1.00  0.00    -0.255 A  
HETATM   30  C   UNL     1      -6.517  17.810  66.439  1.00  0.00    -0.265 A  
HETATM   31  C   UNL     1      -6.298  16.508  66.861  1.00  0.00    -0.166 A  
HETATM   32  C   UNL     1      -7.348  15.755  67.369  1.00  0.00    -0.229 A  
ENDBRANCH  21  24
ENDBRANCH  17  18
ENDBRANCH  16  17
ENDBRANCH  15  16
ENDBRANCH  14  15
ENDBRANCH  13  14
ENDBRANCH   7  13
TORSDOF 7
ENDMDL
MODEL      241
REMARK 921   NORMALIZED FREE ENERGY PREDICTED BY IDOCK:   -4.13 KCAL/MOL
REMARK 922        TOTAL FREE ENERGY PREDICTED BY IDOCK:   -7.13 KCAL/MOL
REMARK 923 INTER-LIGAND FREE ENERGY PREDICTED BY IDOCK:   -5.80 KCAL/MOL
REMARK 924 INTRA-LIGAND FREE ENERGY PREDICTED BY IDOCK:   -1.33 KCAL/MOL
REMARK 927      BINDING AFFINITY PREDICTED BY RF-SCORE:    0.00 PKD
ROOT
HETATM    1  O   UNL     1     -11.789  14.255  64.123  1.00  0.00    -0.389 OA 
HETATM    2  C   UNL     1     -11.125  13.627  64.940  1.00  0.00    -0.351 C  
HETATM    3  N   UNL     1     -10.405  12.515  64.603  1.00  0.00    -0.310 N  
HETATM    4  C   UNL     1      -9.664  11.764  65.526  1.00  0.00    -0.224 A  
HETATM    5  H   UNL     1     -10.408  12.215  63.628  1.00  0.00     0.000 HD 
HETATM    6  C   UNL     1      -8.971  10.629  65.108  1.00  0.00    -0.217 A  
HETATM    7  C   UNL     1      -8.255   9.871  66.038  1.00  0.00    -0.119 A  
HETATM    8  C   UNL     1     -11.068  14.056  66.360  1.00  0.00    -0.316 C  
HETATM    9  C   UNL     1      -8.244  10.264  67.383  1.00  0.00    -0.114 A  
HETATM   10  C   UNL     1     -10.369  13.368  67.270  1.00  0.00    -0.244 C  
HETATM   11  C   UNL     1      -8.932  11.407  67.798  1.00  0.00    -0.147 A  
HETATM   12  C   UNL     1      -9.642  12.165  66.870  1.00  0.00    -0.210 A  
ENDROOT
BRANCH   7  13
HETATM   13  O   UNL     1      -7.610   8.777  65.520  1.00  0.00    -0.084 OA 
BRANCH  13  14
HETATM   14  C   UNL     1      -6.377   8.441  66.155  1.00  0.00    -0.050 C  
BRANCH  14  15
HETATM   15  C   UNL     1      -5.865   7.106  65.624  1.00  0.00    -0.036 C  
BRANCH  15  16
HETATM   16  C   UNL     1      -7.013   6.156  65.269  1.00  0.00    -0.056 C  
BRANCH  16  17
HETATM   17  C   UNL     1      -7.385   5.140  66.364  1.00  0.00    -0.086 C  
BRANCH  17  18
HETATM   18  N   UNL     1      -8.828   4.914  66.521  1.00  0.00    -0.112 NA 
HETATM   19  C   UNL     1      -9.166   4.076  67.698  1.00  0.00    -0.160 C  
HETATM   20  C   UNL     1      -8.954   4.745  69.078  1.00  0.00    -0.104 C  
HETATM   21  N   UNL     1      -9.641   6.041  69.130  1.00  0.00    -0.130 NA 
HETATM   22  C   UNL     1      -9.558   6.204  66.662  1.00  0.00    -0.152 C  
HETATM   23  C   UNL     1      -9.345   6.946  68.008  1.00  0.00    -0.123 C  
BRANCH  21  24
HETATM   24  C   UNL     1     -10.092   6.565  70.346  1.00  0.00    -0.184 A  
HETATM   25  C   UNL     1      -9.274   7.200  71.342  1.00  0.00    -0.150 A  
HETATM   26  C   UNL     1      -7.900   7.652  71.315  1.00  0.00    -0.090 A  
HETATM   27  C   UNL     1      -7.454   8.165  72.509  1.00  0.00    -0.117 A  
HETATM   28  S   UNL     1      -8.680   8.181  73.682  1.00  0.00    -0.188 SA 
HETATM   29  C   UNL     1      -9.834   7.504  72.592  1.00  0.00    -0.191 A  
HETATM   30  C   UNL     1     -11.185   7.256  72.891  1.00  0.00    -0.336 A  
HETATM   31  C   UNL     1     -11.993   6.704  71.909  1.00  0.00    -0.386 A  
HETATM   32  C   UNL     1     -11.455   6.367  70.674  1.00  0.00    -0.426 A  
ENDBRANCH  21  24
ENDBRANCH  17  18
ENDBRANCH  16  17
ENDBRANCH  15  16
ENDBRANCH  14  15
ENDBRANCH  13  14
ENDBRANCH   7  13
TORSDOF 7
ENDMDL
MODEL      242
REMARK 921   NORMALIZED FREE ENERGY PREDICTED BY IDOCK:   -4.11 KCAL/MOL
REMARK 922        TOTAL FREE ENERGY PREDICTED BY IDOCK:   -7.10 KCAL/MOL
REMARK 923 INTER-LIGAND FREE ENERGY PREDICTED BY IDOCK:   -6.28 KCAL/MOL
REMARK 924 INTRA-LIGAND FREE ENERGY PREDICTED BY IDOCK:   -0.83 KCAL/MOL
REMARK 927      BINDING AFFINITY PREDICTED BY RF-SCORE:    0.00 PKD
ROOT
HETATM    1  O   UNL     1      -6.738   2.082  70.483  1.00  0.00    -0.031 OA 
HETATM    2  C   UNL     1      -7.373   2.653  71.363  1.00  0.00    -0.033 C  
HETATM    3  N   UNL     1      -8.527   3.341  71.107  1.00  0.00    -0.066 N  
HETATM    4  C   UNL     1      -9.252   4.027  72.091  1.00  0.00    -0.123 A  
HETATM    5  H   UNL     1      -8.879   3.355  70.150  1.00  0.00     0.000 HD 
HETATM    6  C   UNL     1     -10.411   4.722  71.748  1.00  0.00    -0.230 A  
HETATM    7  C   UNL     1     -11.114   5.425  72.729  1.00  0.00    -0.294 A  
HETATM    8  C   UNL     1      -6.910   2.622  72.772  1.00  0.00    -0.026 C  
HETATM    9  C   UNL     1     -10.644   5.422  74.049  1.00  0.00    -0.305 A  
HETATM   10  C   UNL     1      -7.577   3.262  73.741  1.00  0.00    -0.061 C  
HETATM   11  C   UNL     1      -9.487   4.718  74.392  1.00  0.00    -0.139 A  
HETATM   12  C   UNL     1      -8.788   4.012  73.414  1.00  0.00    -0.097 A  
ENDROOT
BRANCH   7  13
HETATM   13  O   UNL     1     -12.239   6.072  72.283  1.00  0.00    -0.281 OA 
BRANCH  13  14
HETATM   14  C   UNL     1     -12.037   6.953  71.179  1.00  0.00    -0.381 C  
BRANCH  14  15
HETATM   15  C   UNL     1     -12.034   8.400  71.661  1.00  0.00    -0.357 C  
BRANCH  15  16
HETATM   16  C   UNL     1     -10.620   8.988  71.686  1.00  0.00    -0.434 C  
BRANCH  16  17
HETATM   17  C   UNL     1      -9.974   9.203  70.306  1.00  0.00    -0.208 C  
BRANCH  17  18
HETATM   18  N   UNL     1     -10.059  10.579  69.800  1.00  0.00    -0.151 NA 
HETATM   19  C   UNL     1      -8.847  11.009  69.060  1.00  0.00    -0.058 C  
HETATM   20  C   UNL     1      -8.635  10.341  67.679  1.00  0.00    -0.118 C  
HETATM   21  N   UNL     1      -9.841  10.477  66.855  1.00  0.00    -0.186 NA 
HETATM   22  C   UNL     1     -11.225  10.743  68.890  1.00  0.00    -0.268 C  
HETATM   23  C   UNL     1     -11.091  10.052  67.505  1.00  0.00    -0.120 C  
BRANCH  21  24
HETATM   24  C   UNL     1      -9.757  10.496  65.458  1.00  0.00    -0.242 A  
HETATM   25  C   UNL     1      -9.054   9.541  64.646  1.00  0.00    -0.263 A  
HETATM   26  C   UNL     1      -8.453   8.264  64.963  1.00  0.00    -0.141 A  
HETATM   27  C   UNL     1      -7.809   7.668  63.906  1.00  0.00    -0.122 A  
HETATM   28  S   UNL     1      -7.953   8.585  62.486  1.00  0.00    -0.159 SA 
HETATM   29  C   UNL     1      -8.897   9.796  63.276  1.00  0.00    -0.245 A  
HETATM   30  C   UNL     1      -9.448  10.930  62.654  1.00  0.00    -0.324 A  
HETATM   31  C   UNL     1     -10.183  11.819  63.422  1.00  0.00    -0.482 A  
HETATM   32  C   UNL     1     -10.328  11.604  64.787  1.00  0.00    -0.331 A  
ENDBRANCH  21  24
ENDBRANCH  17  18
ENDBRANCH  16  17
ENDBRANCH  15  16
ENDBRANCH  14  15
ENDBRANCH  13  14
ENDBRANCH   7  13
TORSDOF 7
ENDMDL
MODEL      243
REMARK 921   NORMALIZED FREE ENERGY PREDICTED BY IDOCK:   -4.11 KCAL/MOL
REMARK 922        TOTAL FREE ENERGY PREDICTED BY IDOCK:   -7.10 KCAL/MOL
REMARK 923 INTER-LIGAND FREE ENERGY PREDICTED BY IDOCK:   -7.99 KCAL/MOL
REMARK 924 INTRA-LIGAND FREE ENERGY PREDICTED BY IDOCK:    0.89 KCAL/MOL
REMARK 927      BINDING AFFINITY PREDICTED BY RF-SCORE:    0.00 PKD
ROOT
HETATM    1  O   UNL     1     -13.068  14.424  64.493  1.00  0.00    -0.384 OA 
HETATM    2  C   UNL     1     -12.218  13.541  64.547  1.00  0.00    -0.398 C  
HETATM    3  N   UNL     1     -11.250  13.513  65.512  1.00  0.00    -0.291 N  
HETATM    4  C   UNL     1     -10.251  12.532  65.575  1.00  0.00    -0.275 A  
HETATM    5  H   UNL     1     -11.254  14.244  66.223  1.00  0.00     0.000 HD 
HETATM    6  C   UNL     1      -9.285  12.582  66.580  1.00  0.00    -0.210 A  
HETATM    7  C   UNL     1      -8.276  11.617  66.622  1.00  0.00    -0.140 A  
HETATM    8  C   UNL     1     -12.204  12.441  63.552  1.00  0.00    -0.661 C  
HETATM    9  C   UNL     1      -8.250  10.606  65.651  1.00  0.00    -0.154 A  
HETATM   10  C   UNL     1     -11.268  11.485  63.581  1.00  0.00    -0.451 C  
HETATM   11  C   UNL     1      -9.224  10.553  64.650  1.00  0.00    -0.274 A  
HETATM   12  C   UNL     1     -10.232  11.514  64.611  1.00  0.00    -0.334 A  
ENDROOT
BRANCH   7  13
HETATM   13  O   UNL     1      -7.380  11.759  67.650  1.00  0.00    -0.103 OA 
BRANCH  13  14
HETATM   14  C   UNL     1      -6.752  13.038  67.738  1.00  0.00    -0.143 C  
BRANCH  14  15
HETATM   15  C   UNL     1      -7.568  14.073  66.969  1.00  0.00     0.212 C  
BRANCH  15  16
HETATM   16  C   UNL     1      -7.156  15.503  67.329  1.00  0.00    -0.225 C  
BRANCH  16  17
HETATM   17  C   UNL     1      -8.027  16.611  66.711  1.00  0.00    -0.249 C  
BRANCH  17  18
HETATM   18  N   UNL     1      -8.605  17.546  67.685  1.00  0.00    -0.217 NA 
HETATM   19  C   UNL     1     -10.086  17.618  67.624  1.00  0.00    -0.339 C  
HETATM   20  C   UNL     1     -10.836  16.363  68.137  1.00  0.00    -0.346 C  
HETATM   21  N   UNL     1     -10.373  16.004  69.482  1.00  0.00    -0.260 NA 
HETATM   22  C   UNL     1      -8.228  17.170  69.075  1.00  0.00    -0.107 C  
HETATM   23  C   UNL     1      -8.913  15.891  69.628  1.00  0.00    -0.010 C  
BRANCH  21  24
HETATM   24  C   UNL     1     -11.214  15.330  70.374  1.00  0.00    -0.299 A  
HETATM   25  C   UNL     1     -11.599  13.948  70.285  1.00  0.00    -0.217 A  
HETATM   26  C   UNL     1     -11.118  12.866  69.455  1.00  0.00    -0.131 A  
HETATM   27  C   UNL     1     -11.795  11.683  69.625  1.00  0.00    -0.352 A  
HETATM   28  S   UNL     1     -12.986  11.809  70.827  1.00  0.00     0.184 SA 
HETATM   29  C   UNL     1     -12.598  13.462  71.140  1.00  0.00    -0.345 A  
HETATM   30  C   UNL     1     -13.204  14.266  72.122  1.00  0.00    -0.491 A  
HETATM   31  C   UNL     1     -12.788  15.581  72.255  1.00  0.00    -0.493 A  
HETATM   32  C   UNL     1     -11.822  16.094  71.400  1.00  0.00    -0.490 A  
ENDBRANCH  21  24
ENDBRANCH  17  18
ENDBRANCH  16  17
ENDBRANCH  15  16
ENDBRANCH  14  15
ENDBRANCH  13  14
ENDBRANCH   7  13
TORSDOF 7
ENDMDL
MODEL      244
REMARK 921   NORMALIZED FREE ENERGY PREDICTED BY IDOCK:   -4.11 KCAL/MOL
REMARK 922        TOTAL FREE ENERGY PREDICTED BY IDOCK:   -7.09 KCAL/MOL
REMARK 923 INTER-LIGAND FREE ENERGY PREDICTED BY IDOCK:   -5.52 KCAL/MOL
REMARK 924 INTRA-LIGAND FREE ENERGY PREDICTED BY IDOCK:   -1.57 KCAL/MOL
REMARK 927      BINDING AFFINITY PREDICTED BY RF-SCORE:    0.00 PKD
ROOT
HETATM    1  O   UNL     1     -10.535   7.591  66.335  1.00  0.00    -0.088 OA 
HETATM    2  C   UNL     1      -9.702   6.816  66.794  1.00  0.00    -0.171 C  
HETATM    3  N   UNL     1     -10.048   5.726  67.544  1.00  0.00    -0.155 N  
HETATM    4  C   UNL     1      -9.113   4.845  68.104  1.00  0.00    -0.114 A  
HETATM    5  H   UNL     1     -11.039   5.545  67.704  1.00  0.00     0.000 HD 
HETATM    6  C   UNL     1      -9.544   3.766  68.874  1.00  0.00    -0.183 A  
HETATM    7  C   UNL     1      -8.606   2.906  69.451  1.00  0.00    -0.068 A  
HETATM    8  C   UNL     1      -8.254   7.028  66.550  1.00  0.00    -0.114 C  
HETATM    9  C   UNL     1      -7.240   3.141  69.246  1.00  0.00    -0.045 A  
HETATM   10  C   UNL     1      -7.331   6.206  67.064  1.00  0.00    -0.083 C  
HETATM   11  C   UNL     1      -6.810   4.219  68.467  1.00  0.00    -0.047 A  
HETATM   12  C   UNL     1      -7.747   5.073  67.888  1.00  0.00    -0.084 A  
ENDROOT
BRANCH   7  13
HETATM   13  O   UNL     1      -9.138   1.878  70.187  1.00  0.00    -0.077 OA 
BRANCH  13  14
HETATM   14  C   UNL     1      -8.387   1.503  71.341  1.00  0.00    -0.047 C  
BRANCH  14  15
HETATM   15  C   UNL     1      -8.874   2.285  72.556  1.00  0.00    -0.087 C  
BRANCH  15  16
HETATM   16  C   UNL     1      -8.019   3.530  72.811  1.00  0.00    -0.076 C  
BRANCH  16  17
HETATM   17  C   UNL     1      -8.702   4.637  73.635  1.00  0.00    -0.106 C  
BRANCH  17  18
HETATM   18  N   UNL     1      -8.087   5.964  73.500  1.00  0.00    -0.111 NA 
HETATM   19  C   UNL     1      -7.937   6.402  72.091  1.00  0.00    -0.107 C  
HETATM   20  C   UNL     1      -9.255   6.757  71.358  1.00  0.00    -0.153 C  
HETATM   21  N   UNL     1     -10.029   7.728  72.140  1.00  0.00    -0.182 NA 
HETATM   22  C   UNL     1      -8.888   6.998  74.211  1.00  0.00    -0.196 C  
HETATM   23  C   UNL     1     -10.244   7.362  73.549  1.00  0.00    -0.349 C  
BRANCH  21  24
HETATM   24  C   UNL     1     -10.908   8.617  71.511  1.00  0.00    -0.282 A  
HETATM   25  C   UNL     1     -10.612   9.411  70.350  1.00  0.00    -0.316 A  
HETATM   26  C   UNL     1      -9.501   9.386  69.424  1.00  0.00    -0.177 A  
HETATM   27  C   UNL     1      -9.551  10.363  68.460  1.00  0.00    -0.158 A  
HETATM   28  S   UNL     1     -10.958  11.303  68.592  1.00  0.00    -0.239 SA 
HETATM   29  C   UNL     1     -11.524  10.397  69.948  1.00  0.00    -0.297 A  
HETATM   30  C   UNL     1     -12.747  10.605  70.609  1.00  0.00    -0.445 A  
HETATM   31  C   UNL     1     -13.065   9.796  71.689  1.00  0.00    -0.516 A  
HETATM   32  C   UNL     1     -12.165   8.833  72.125  1.00  0.00    -0.448 A  
ENDBRANCH  21  24
ENDBRANCH  17  18
ENDBRANCH  16  17
ENDBRANCH  15  16
ENDBRANCH  14  15
ENDBRANCH  13  14
ENDBRANCH   7  13
TORSDOF 7
ENDMDL
MODEL      245
REMARK 921   NORMALIZED FREE ENERGY PREDICTED BY IDOCK:   -4.09 KCAL/MOL
REMARK 922        TOTAL FREE ENERGY PREDICTED BY IDOCK:   -7.06 KCAL/MOL
REMARK 923 INTER-LIGAND FREE ENERGY PREDICTED BY IDOCK:   -6.20 KCAL/MOL
REMARK 924 INTRA-LIGAND FREE ENERGY PREDICTED BY IDOCK:   -0.87 KCAL/MOL
REMARK 927      BINDING AFFINITY PREDICTED BY RF-SCORE:    0.00 PKD
ROOT
HETATM    1  O   UNL     1      -8.200   6.720  71.833  1.00  0.00    -0.102 OA 
HETATM    2  C   UNL     1      -7.915   7.496  70.927  1.00  0.00    -0.096 C  
HETATM    3  N   UNL     1      -8.309   7.291  69.634  1.00  0.00    -0.131 N  
HETATM    4  C   UNL     1      -7.969   8.148  68.578  1.00  0.00    -0.126 A  
HETATM    5  H   UNL     1      -8.880   6.472  69.427  1.00  0.00     0.000 HD 
HETATM    6  C   UNL     1      -8.394   7.861  67.281  1.00  0.00    -0.122 A  
HETATM    7  C   UNL     1      -8.030   8.705  66.229  1.00  0.00    -0.102 A  
HETATM    8  C   UNL     1      -7.117   8.717  71.199  1.00  0.00    -0.089 C  
HETATM    9  C   UNL     1      -7.242   9.833  66.494  1.00  0.00    -0.094 A  
HETATM   10  C   UNL     1      -6.776   9.561  70.218  1.00  0.00    -0.084 C  
HETATM   11  C   UNL     1      -6.825  10.124  67.795  1.00  0.00    -0.075 A  
HETATM   12  C   UNL     1      -7.192   9.284  68.845  1.00  0.00    -0.073 A  
ENDROOT
BRANCH   7  13
HETATM   13  O   UNL     1      -8.501   8.331  64.997  1.00  0.00    -0.166 OA 
BRANCH  13  14
HETATM   14  C   UNL     1      -7.995   9.086  63.897  1.00  0.00    -0.146 C  
BRANCH  14  15
HETATM   15  C   UNL     1      -9.124   9.877  63.244  1.00  0.00    -0.294 C  
BRANCH  15  16
HETATM   16  C   UNL     1      -8.941  11.386  63.429  1.00  0.00     0.017 C  
BRANCH  16  17
HETATM   17  C   UNL     1      -9.698  11.997  64.623  1.00  0.00    -0.083 C  
BRANCH  17  18
HETATM   18  N   UNL     1     -11.009  11.390  64.889  1.00  0.00    -0.256 NA 
HETATM   19  C   UNL     1     -10.976  10.370  65.966  1.00  0.00     0.240 C  
HETATM   20  C   UNL     1     -10.756  10.917  67.398  1.00  0.00    -0.257 C  
HETATM   21  N   UNL     1     -11.726  11.978  67.695  1.00  0.00    -0.503 NA 
HETATM   22  C   UNL     1     -12.007  12.424  65.277  1.00  0.00    -0.404 C  
HETATM   23  C   UNL     1     -11.809  13.045  66.685  1.00  0.00    -0.393 C  
BRANCH  21  24
HETATM   24  C   UNL     1     -12.130  12.232  69.010  1.00  0.00    -0.145 A  
HETATM   25  C   UNL     1     -12.127  13.516  69.656  1.00  0.00    -0.365 A  
HETATM   26  C   UNL     1     -11.934  14.853  69.140  1.00  0.00    -0.313 A  
HETATM   27  C   UNL     1     -11.944  15.833  70.103  1.00  0.00    -0.347 A  
HETATM   28  S   UNL     1     -12.247  15.195  71.646  1.00  0.00    -0.381 SA 
HETATM   29  C   UNL     1     -12.378  13.586  71.034  1.00  0.00    -0.338 A  
HETATM   30  C   UNL     1     -12.683  12.448  71.802  1.00  0.00    -0.249 A  
HETATM   31  C   UNL     1     -12.751  11.217  71.169  1.00  0.00    -0.492 A  
HETATM   32  C   UNL     1     -12.478  11.118  69.811  1.00  0.00    -0.230 A  
ENDBRANCH  21  24
ENDBRANCH  17  18
ENDBRANCH  16  17
ENDBRANCH  15  16
ENDBRANCH  14  15
ENDBRANCH  13  14
ENDBRANCH   7  13
TORSDOF 7
ENDMDL
MODEL      246
REMARK 921   NORMALIZED FREE ENERGY PREDICTED BY IDOCK:   -4.08 KCAL/MOL
REMARK 922        TOTAL FREE ENERGY PREDICTED BY IDOCK:   -7.06 KCAL/MOL
REMARK 923 INTER-LIGAND FREE ENERGY PREDICTED BY IDOCK:   -6.47 KCAL/MOL
REMARK 924 INTRA-LIGAND FREE ENERGY PREDICTED BY IDOCK:   -0.60 KCAL/MOL
REMARK 927      BINDING AFFINITY PREDICTED BY RF-SCORE:    0.00 PKD
ROOT
HETATM    1  O   UNL     1      -8.781  14.274  66.968  1.00  0.00    -0.214 OA 
HETATM    2  C   UNL     1      -8.003  13.811  67.796  1.00  0.00    -0.169 C  
HETATM    3  N   UNL     1      -7.862  12.467  68.000  1.00  0.00    -0.130 N  
HETATM    4  C   UNL     1      -7.003  11.917  68.962  1.00  0.00    -0.098 A  
HETATM    5  H   UNL     1      -8.410  11.830  67.421  1.00  0.00     0.000 HD 
HETATM    6  C   UNL     1      -6.928  10.534  69.122  1.00  0.00    -0.080 A  
HETATM    7  C   UNL     1      -6.090   9.993  70.100  1.00  0.00    -0.070 A  
HETATM    8  C   UNL     1      -7.163  14.707  68.629  1.00  0.00    -0.122 C  
HETATM    9  C   UNL     1      -5.332  10.852  70.908  1.00  0.00    -0.113 A  
HETATM   10  C   UNL     1      -6.328  14.219  69.555  1.00  0.00    -0.127 C  
HETATM   11  C   UNL     1      -5.402  12.237  70.739  1.00  0.00    -0.161 A  
HETATM   12  C   UNL     1      -6.235  12.776  69.761  1.00  0.00    -0.108 A  
ENDROOT
BRANCH   7  13
HETATM   13  O   UNL     1      -6.092   8.624  70.172  1.00  0.00    -0.033 OA 
BRANCH  13  14
HETATM   14  C   UNL     1      -5.963   7.948  68.921  1.00  0.00    -0.038 C  
BRANCH  14  15
HETATM   15  C   UNL     1      -7.287   7.293  68.544  1.00  0.00    -0.100 C  
BRANCH  15  16
HETATM   16  C   UNL     1      -7.981   6.671  69.760  1.00  0.00    -0.120 C  
BRANCH  16  17
HETATM   17  C   UNL     1      -8.988   7.587  70.479  1.00  0.00    -0.152 C  
BRANCH  17  18
HETATM   18  N   UNL     1     -10.342   7.569  69.910  1.00  0.00    -0.217 NA 
HETATM   19  C   UNL     1     -11.347   8.251  70.763  1.00  0.00    -0.266 C  
HETATM   20  C   UNL     1     -11.222   9.793  70.840  1.00  0.00    -0.359 C  
HETATM   21  N   UNL     1     -11.184  10.371  69.492  1.00  0.00    -0.253 NA 
HETATM   22  C   UNL     1     -10.367   8.222  68.573  1.00  0.00    -0.199 C  
HETATM   23  C   UNL     1     -10.198   9.766  68.582  1.00  0.00    -0.190 C  
BRANCH  21  24
HETATM   24  C   UNL     1     -11.638  11.673  69.257  1.00  0.00    -0.320 A  
HETATM   25  C   UNL     1     -11.739  12.309  67.972  1.00  0.00    -0.417 A  
HETATM   26  C   UNL     1     -11.624  11.788  66.628  1.00  0.00    -0.273 A  
HETATM   27  C   UNL     1     -11.725  12.742  65.645  1.00  0.00    -0.399 A  
HETATM   28  S   UNL     1     -12.022  14.282  66.293  1.00  0.00    -0.393 SA 
HETATM   29  C   UNL     1     -12.028  13.680  67.911  1.00  0.00    -0.347 A  
HETATM   30  C   UNL     1     -12.275  14.449  69.062  1.00  0.00    -0.233 A  
HETATM   31  C   UNL     1     -12.243  13.824  70.299  1.00  0.00    -0.429 A  
HETATM   32  C   UNL     1     -11.930  12.474  70.388  1.00  0.00    -0.335 A  
ENDBRANCH  21  24
ENDBRANCH  17  18
ENDBRANCH  16  17
ENDBRANCH  15  16
ENDBRANCH  14  15
ENDBRANCH  13  14
ENDBRANCH   7  13
TORSDOF 7
ENDMDL
MODEL      247
REMARK 921   NORMALIZED FREE ENERGY PREDICTED BY IDOCK:   -4.08 KCAL/MOL
REMARK 922        TOTAL FREE ENERGY PREDICTED BY IDOCK:   -7.06 KCAL/MOL
REMARK 923 INTER-LIGAND FREE ENERGY PREDICTED BY IDOCK:   -6.74 KCAL/MOL
REMARK 924 INTRA-LIGAND FREE ENERGY PREDICTED BY IDOCK:   -0.32 KCAL/MOL
REMARK 927      BINDING AFFINITY PREDICTED BY RF-SCORE:    0.00 PKD
ROOT
HETATM    1  O   UNL     1      -8.557  13.983  66.994  1.00  0.00    -0.213 OA 
HETATM    2  C   UNL     1      -9.352  14.307  67.870  1.00  0.00    -0.198 C  
HETATM    3  N   UNL     1     -10.101  13.393  68.557  1.00  0.00    -0.296 N  
HETATM    4  C   UNL     1     -11.038  13.743  69.539  1.00  0.00    -0.103 A  
HETATM    5  H   UNL     1      -9.972  12.404  68.344  1.00  0.00     0.000 HD 
HETATM    6  C   UNL     1     -11.778  12.753  70.183  1.00  0.00    -0.239 A  
HETATM    7  C   UNL     1     -12.729  13.110  71.142  1.00  0.00    -0.300 A  
HETATM    8  C   UNL     1      -9.538  15.734  68.232  1.00  0.00    -0.201 C  
HETATM    9  C   UNL     1     -12.924  14.465  71.446  1.00  0.00    -0.405 A  
HETATM   10  C   UNL     1     -10.420  16.108  69.167  1.00  0.00    -0.265 C  
HETATM   11  C   UNL     1     -12.175  15.455  70.806  1.00  0.00    -0.430 A  
HETATM   12  C   UNL     1     -11.224  15.097  69.852  1.00  0.00    -0.305 A  
ENDROOT
BRANCH   7  13
HETATM   13  O   UNL     1     -13.399  12.059  71.714  1.00  0.00    -0.406 OA 
BRANCH  13  14
HETATM   14  C   UNL     1     -12.654  10.845  71.815  1.00  0.00    -0.240 C  
BRANCH  14  15
HETATM   15  C   UNL     1     -13.489   9.678  71.300  1.00  0.00    -0.359 C  
BRANCH  15  16
HETATM   16  C   UNL     1     -13.429   8.475  72.246  1.00  0.00    -0.362 C  
BRANCH  16  17
HETATM   17  C   UNL     1     -13.161   7.119  71.568  1.00  0.00    -0.360 C  
BRANCH  17  18
HETATM   18  N   UNL     1     -11.991   6.399  72.087  1.00  0.00    -0.323 NA 
HETATM   19  C   UNL     1     -11.234   5.674  71.036  1.00  0.00    -0.050 C  
HETATM   20  C   UNL     1     -10.449   6.567  70.044  1.00  0.00    -0.212 C  
HETATM   21  N   UNL     1      -9.588   7.507  70.771  1.00  0.00    -0.167 NA 
HETATM   22  C   UNL     1     -11.047   7.329  72.763  1.00  0.00    -0.319 C  
HETATM   23  C   UNL     1     -10.265   8.285  71.821  1.00  0.00    -0.230 C  
BRANCH  21  24
HETATM   24  C   UNL     1      -8.411   7.996  70.194  1.00  0.00    -0.128 A  
HETATM   25  C   UNL     1      -7.557   7.276  69.289  1.00  0.00    -0.102 A  
HETATM   26  C   UNL     1      -7.736   6.025  68.586  1.00  0.00    -0.095 A  
HETATM   27  C   UNL     1      -6.645   5.635  67.848  1.00  0.00    -0.053 A  
HETATM   28  S   UNL     1      -5.395   6.781  67.921  1.00  0.00    -0.012 SA 
HETATM   29  C   UNL     1      -6.314   7.825  68.943  1.00  0.00    -0.036 A  
HETATM   30  C   UNL     1      -5.891   9.082  69.410  1.00  0.00    -0.034 A  
HETATM   31  C   UNL     1      -6.740   9.808  70.229  1.00  0.00    -0.111 A  
HETATM   32  C   UNL     1      -7.964   9.273  70.610  1.00  0.00    -0.189 A  
ENDBRANCH  21  24
ENDBRANCH  17  18
ENDBRANCH  16  17
ENDBRANCH  15  16
ENDBRANCH  14  15
ENDBRANCH  13  14
ENDBRANCH   7  13
TORSDOF 7
ENDMDL
MODEL      248
REMARK 921   NORMALIZED FREE ENERGY PREDICTED BY IDOCK:   -4.06 KCAL/MOL
REMARK 922        TOTAL FREE ENERGY PREDICTED BY IDOCK:   -7.03 KCAL/MOL
REMARK 923 INTER-LIGAND FREE ENERGY PREDICTED BY IDOCK:   -6.61 KCAL/MOL
REMARK 924 INTRA-LIGAND FREE ENERGY PREDICTED BY IDOCK:   -0.42 KCAL/MOL
REMARK 927      BINDING AFFINITY PREDICTED BY RF-SCORE:    0.00 PKD
ROOT
HETATM    1  O   UNL     1     -10.743   8.274  72.308  1.00  0.00    -0.279 OA 
HETATM    2  C   UNL     1     -10.327   7.198  71.892  1.00  0.00    -0.192 C  
HETATM    3  N   UNL     1      -9.486   7.101  70.818  1.00  0.00    -0.164 N  
HETATM    4  C   UNL     1      -9.023   5.881  70.307  1.00  0.00    -0.146 A  
HETATM    5  H   UNL     1      -9.181   7.962  70.364  1.00  0.00     0.000 HD 
HETATM    6  C   UNL     1      -8.183   5.864  69.194  1.00  0.00    -0.106 A  
HETATM    7  C   UNL     1      -7.745   4.643  68.674  1.00  0.00    -0.072 A  
HETATM    8  C   UNL     1     -10.721   5.928  72.551  1.00  0.00    -0.274 C  
HETATM    9  C   UNL     1      -8.158   3.449  69.280  1.00  0.00    -0.064 A  
HETATM   10  C   UNL     1     -10.296   4.743  72.094  1.00  0.00    -0.256 C  
HETATM   11  C   UNL     1      -8.993   3.469  70.400  1.00  0.00    -0.168 A  
HETATM   12  C   UNL     1      -9.426   4.687  70.921  1.00  0.00    -0.233 A  
ENDROOT
BRANCH   7  13
HETATM   13  O   UNL     1      -6.923   4.741  67.581  1.00  0.00    -0.058 OA 
BRANCH  13  14
HETATM   14  C   UNL     1      -7.480   4.268  66.355  1.00  0.00    -0.085 C  
BRANCH  14  15
HETATM   15  C   UNL     1      -8.624   5.177  65.918  1.00  0.00    -0.128 C  
BRANCH  15  16
HETATM   16  C   UNL     1      -8.128   6.344  65.060  1.00  0.00    -0.135 C  
BRANCH  16  17
HETATM   17  C   UNL     1      -8.478   7.745  65.593  1.00  0.00    -0.141 C  
BRANCH  17  18
HETATM   18  N   UNL     1      -7.691   8.836  65.002  1.00  0.00    -0.100 NA 
HETATM   19  C   UNL     1      -8.234   9.318  63.708  1.00  0.00    -0.166 C  
HETATM   20  C   UNL     1      -9.566  10.105  63.795  1.00  0.00    -0.223 C  
HETATM   21  N   UNL     1      -9.452  11.198  64.768  1.00  0.00    -0.224 NA 
HETATM   22  C   UNL     1      -7.619  10.002  65.924  1.00  0.00    -0.114 C  
HETATM   23  C   UNL     1      -8.939  10.803  66.089  1.00  0.00    -0.177 C  
BRANCH  21  24
HETATM   24  C   UNL     1     -10.229  12.354  64.641  1.00  0.00    -0.287 A  
HETATM   25  C   UNL     1     -10.203  13.485  65.528  1.00  0.00    -0.308 A  
HETATM   26  C   UNL     1      -9.301  13.849  66.599  1.00  0.00    -0.282 A  
HETATM   27  C   UNL     1      -9.652  14.999  67.263  1.00  0.00    -0.207 A  
HETATM   28  S   UNL     1     -11.034  15.716  66.588  1.00  0.00    -0.143 SA 
HETATM   29  C   UNL     1     -11.173  14.487  65.383  1.00  0.00    -0.342 A  
HETATM   30  C   UNL     1     -12.145  14.453  64.368  1.00  0.00    -0.491 A  
HETATM   31  C   UNL     1     -12.132  13.396  63.471  1.00  0.00    -0.497 A  
HETATM   32  C   UNL     1     -11.200  12.377  63.610  1.00  0.00    -0.544 A  
ENDBRANCH  21  24
ENDBRANCH  17  18
ENDBRANCH  16  17
ENDBRANCH  15  16
ENDBRANCH  14  15
ENDBRANCH  13  14
ENDBRANCH   7  13
TORSDOF 7
ENDMDL
MODEL      249
REMARK 921   NORMALIZED FREE ENERGY PREDICTED BY IDOCK:   -4.01 KCAL/MOL
REMARK 922        TOTAL FREE ENERGY PREDICTED BY IDOCK:   -6.96 KCAL/MOL
REMARK 923 INTER-LIGAND FREE ENERGY PREDICTED BY IDOCK:   -6.17 KCAL/MOL
REMARK 924 INTRA-LIGAND FREE ENERGY PREDICTED BY IDOCK:   -0.79 KCAL/MOL
REMARK 927      BINDING AFFINITY PREDICTED BY RF-SCORE:    0.00 PKD
ROOT
HETATM    1  O   UNL     1      -7.440   6.266  71.428  1.00  0.00    -0.086 OA 
HETATM    2  C   UNL     1      -8.083   6.076  70.402  1.00  0.00    -0.111 C  
HETATM    3  N   UNL     1      -7.506   5.631  69.245  1.00  0.00    -0.077 N  
HETATM    4  C   UNL     1      -8.216   5.436  68.052  1.00  0.00    -0.099 A  
HETATM    5  H   UNL     1      -6.506   5.430  69.250  1.00  0.00     0.000 HD 
HETATM    6  C   UNL     1      -7.551   4.997  66.908  1.00  0.00    -0.088 A  
HETATM    7  C   UNL     1      -8.260   4.830  65.715  1.00  0.00    -0.112 A  
HETATM    8  C   UNL     1      -9.546   6.322  70.368  1.00  0.00    -0.183 C  
HETATM    9  C   UNL     1      -9.633   5.105  65.687  1.00  0.00    -0.104 A  
HETATM   10  C   UNL     1     -10.259   6.144  69.249  1.00  0.00    -0.251 C  
HETATM   11  C   UNL     1     -10.299   5.536  66.837  1.00  0.00    -0.315 A  
HETATM   12  C   UNL     1      -9.593   5.699  68.027  1.00  0.00    -0.137 A  
ENDROOT
BRANCH   7  13
HETATM   13  O   UNL     1      -7.510   4.394  64.652  1.00  0.00    -0.070 OA 
BRANCH  13  14
HETATM   14  C   UNL     1      -6.606   5.356  64.110  1.00  0.00    -0.041 C  
BRANCH  14  15
HETATM   15  C   UNL     1      -6.901   5.573  62.630  1.00  0.00    -0.033 C  
BRANCH  15  16
HETATM   16  C   UNL     1      -7.418   6.988  62.354  1.00  0.00    -0.086 C  
BRANCH  16  17
HETATM   17  C   UNL     1      -7.903   7.762  63.593  1.00  0.00    -0.128 C  
BRANCH  17  18
HETATM   18  N   UNL     1      -7.226   9.047  63.812  1.00  0.00    -0.095 NA 
HETATM   19  C   UNL     1      -7.636  10.099  62.850  1.00  0.00    -0.142 C  
HETATM   20  C   UNL     1      -9.076  10.641  63.027  1.00  0.00    -0.280 C  
HETATM   21  N   UNL     1      -9.294  11.070  64.413  1.00  0.00    -0.209 NA 
HETATM   22  C   UNL     1      -7.489   9.562  65.184  1.00  0.00    -0.109 C  
HETATM   23  C   UNL     1      -8.932  10.076  65.436  1.00  0.00    -0.180 C  
BRANCH  21  24
HETATM   24  C   UNL     1     -10.223  12.071  64.716  1.00  0.00    -0.279 A  
HETATM   25  C   UNL     1     -10.499  12.593  66.027  1.00  0.00    -0.288 A  
HETATM   26  C   UNL     1      -9.821  12.423  67.293  1.00  0.00    -0.207 A  
HETATM   27  C   UNL     1     -10.439  13.048  68.349  1.00  0.00    -0.252 A  
HETATM   28  S   UNL     1     -11.814  13.909  67.852  1.00  0.00    -0.366 SA 
HETATM   29  C   UNL     1     -11.589  13.458  66.201  1.00  0.00    -0.346 A  
HETATM   30  C   UNL     1     -12.396  13.876  65.128  1.00  0.00    -0.471 A  
HETATM   31  C   UNL     1     -12.092  13.427  63.852  1.00  0.00    -0.514 A  
HETATM   32  C   UNL     1     -11.036  12.547  63.658  1.00  0.00    -0.507 A  
ENDBRANCH  21  24
ENDBRANCH  17  18
ENDBRANCH  16  17
ENDBRANCH  15  16
ENDBRANCH  14  15
ENDBRANCH  13  14
ENDBRANCH   7  13
TORSDOF 7
ENDMDL
MODEL      250
REMARK 921   NORMALIZED FREE ENERGY PREDICTED BY IDOCK:   -4.01 KCAL/MOL
REMARK 922        TOTAL FREE ENERGY PREDICTED BY IDOCK:   -6.96 KCAL/MOL
REMARK 923 INTER-LIGAND FREE ENERGY PREDICTED BY IDOCK:   -6.19 KCAL/MOL
REMARK 924 INTRA-LIGAND FREE ENERGY PREDICTED BY IDOCK:   -0.76 KCAL/MOL
REMARK 927      BINDING AFFINITY PREDICTED BY RF-SCORE:    0.00 PKD
ROOT
HETATM    1  O   UNL     1      -9.123   9.357  62.990  1.00  0.00    -0.224 OA 
HETATM    2  C   UNL     1      -8.847   9.769  64.111  1.00  0.00    -0.231 C  
HETATM    3  N   UNL     1      -9.797  10.235  64.977  1.00  0.00    -0.310 N  
HETATM    4  C   UNL     1      -9.501  10.739  66.251  1.00  0.00    -0.181 A  
HETATM    5  H   UNL     1     -10.773  10.215  64.680  1.00  0.00     0.000 HD 
HETATM    6  C   UNL     1     -10.524  11.214  67.070  1.00  0.00    -0.277 A  
HETATM    7  C   UNL     1     -10.220  11.739  68.328  1.00  0.00    -0.205 A  
HETATM    8  C   UNL     1      -7.442   9.778  64.590  1.00  0.00    -0.134 C  
HETATM    9  C   UNL     1      -8.884  11.780  68.751  1.00  0.00     0.018 A  
HETATM   10  C   UNL     1      -7.120  10.248  65.801  1.00  0.00    -0.132 C  
HETATM   11  C   UNL     1      -7.861  11.295  67.933  1.00  0.00    -0.116 A  
HETATM   12  C   UNL     1      -8.166  10.767  66.680  1.00  0.00    -0.140 A  
ENDROOT
BRANCH   7  13
HETATM   13  O   UNL     1     -11.300  12.177  69.050  1.00  0.00    -0.239 OA 
BRANCH  13  14
HETATM   14  C   UNL     1     -12.175  11.151  69.518  1.00  0.00    -0.277 C  
BRANCH  14  15
HETATM   15  C   UNL     1     -12.442  11.334  71.008  1.00  0.00    -0.503 C  
BRANCH  15  16
HETATM   16  C   UNL     1     -12.980  10.052  71.651  1.00  0.00    -0.554 C  
BRANCH  16  17
HETATM   17  C   UNL     1     -11.911   9.125  72.257  1.00  0.00    -0.165 C  
BRANCH  17  18
HETATM   18  N   UNL     1     -10.672   9.028  71.473  1.00  0.00    -0.325 NA 
HETATM   19  C   UNL     1      -9.481   8.698  72.294  1.00  0.00    -0.265 C  
HETATM   20  C   UNL     1      -9.435   7.253  72.852  1.00  0.00    -0.159 C  
HETATM   21  N   UNL     1      -9.625   6.281  71.769  1.00  0.00    -0.154 NA 
HETATM   22  C   UNL     1     -10.791   7.991  70.412  1.00  0.00    -0.247 C  
HETATM   23  C   UNL     1     -10.798   6.522  70.915  1.00  0.00    -0.253 C  
BRANCH  21  24
HETATM   24  C   UNL     1      -9.083   4.994  71.859  1.00  0.00    -0.137 A  
HETATM   25  C   UNL     1      -9.634   3.901  72.612  1.00  0.00    -0.188 A  
HETATM   26  C   UNL     1     -10.909   3.734  73.274  1.00  0.00    -0.293 A  
HETATM   27  C   UNL     1     -11.039   2.546  73.951  1.00  0.00    -0.180 A  
HETATM   28  S   UNL     1      -9.666   1.565  73.767  1.00  0.00    -0.072 SA 
HETATM   29  C   UNL     1      -8.880   2.728  72.762  1.00  0.00    -0.082 A  
HETATM   30  C   UNL     1      -7.622   2.560  72.158  1.00  0.00    -0.048 A  
HETATM   31  C   UNL     1      -7.117   3.587  71.376  1.00  0.00    -0.032 A  
HETATM   32  C   UNL     1      -7.831   4.770  71.236  1.00  0.00    -0.088 A  
ENDBRANCH  21  24
ENDBRANCH  17  18
ENDBRANCH  16  17
ENDBRANCH  15  16
ENDBRANCH  14  15
ENDBRANCH  13  14
ENDBRANCH   7  13
TORSDOF 7
ENDMDL
MODEL      251
REMARK 921   NORMALIZED FREE ENERGY PREDICTED BY IDOCK:   -4.00 KCAL/MOL
REMARK 922        TOTAL FREE ENERGY PREDICTED BY IDOCK:   -6.95 KCAL/MOL
REMARK 923 INTER-LIGAND FREE ENERGY PREDICTED BY IDOCK:   -5.35 KCAL/MOL
REMARK 924 INTRA-LIGAND FREE ENERGY PREDICTED BY IDOCK:   -1.59 KCAL/MOL
REMARK 927      BINDING AFFINITY PREDICTED BY RF-SCORE:    0.00 PKD
ROOT
HETATM    1  O   UNL     1      -7.942  10.424  62.354  1.00  0.00    -0.141 OA 
HETATM    2  C   UNL     1      -8.515  10.163  63.406  1.00  0.00    -0.185 C  
HETATM    3  N   UNL     1      -8.110   9.151  64.232  1.00  0.00    -0.139 N  
HETATM    4  C   UNL     1      -8.769   8.816  65.423  1.00  0.00    -0.183 A  
HETATM    5  H   UNL     1      -7.285   8.613  63.968  1.00  0.00     0.000 HD 
HETATM    6  C   UNL     1      -8.306   7.757  66.203  1.00  0.00    -0.129 A  
HETATM    7  C   UNL     1      -8.982   7.411  67.375  1.00  0.00    -0.123 A  
HETATM    8  C   UNL     1      -9.697  10.949  63.839  1.00  0.00    -0.352 C  
HETATM    9  C   UNL     1     -10.120   8.136  67.752  1.00  0.00    -0.260 A  
HETATM   10  C   UNL     1     -10.350  10.661  64.972  1.00  0.00    -0.341 C  
HETATM   11  C   UNL     1     -10.578   9.202  66.974  1.00  0.00    -0.266 A  
HETATM   12  C   UNL     1      -9.901   9.550  65.807  1.00  0.00    -0.363 A  
ENDROOT
BRANCH   7  13
HETATM   13  O   UNL     1      -8.441   6.357  68.066  1.00  0.00    -0.118 OA 
BRANCH  13  14
HETATM   14  C   UNL     1      -7.023   6.395  68.222  1.00  0.00    -0.080 C  
BRANCH  14  15
HETATM   15  C   UNL     1      -6.656   7.191  69.470  1.00  0.00    -0.044 C  
BRANCH  15  16
HETATM   16  C   UNL     1      -5.667   8.318  69.155  1.00  0.00    -0.034 C  
BRANCH  16  17
HETATM   17  C   UNL     1      -5.980   9.129  67.885  1.00  0.00    -0.049 C  
BRANCH  17  18
HETATM   18  N   UNL     1      -5.231  10.387  67.765  1.00  0.00    -0.037 NA 
HETATM   19  C   UNL     1      -5.740  11.273  66.689  1.00  0.00    -0.130 C  
HETATM   20  C   UNL     1      -7.117  11.928  66.959  1.00  0.00    -0.116 C  
HETATM   21  N   UNL     1      -7.113  12.611  68.257  1.00  0.00    -0.095 NA 
HETATM   22  C   UNL     1      -5.271  11.155  69.039  1.00  0.00    -0.040 C  
HETATM   23  C   UNL     1      -6.641  11.796  69.388  1.00  0.00    -0.113 C  
BRANCH  21  24
HETATM   24  C   UNL     1      -7.950  13.708  68.492  1.00  0.00    -0.127 A  
HETATM   25  C   UNL     1      -9.377  13.727  68.324  1.00  0.00    -0.209 A  
HETATM   26  C   UNL     1     -10.334  12.668  68.093  1.00  0.00    -0.238 A  
HETATM   27  C   UNL     1     -11.626  13.104  67.924  1.00  0.00    -0.336 A  
HETATM   28  S   UNL     1     -11.747  14.788  68.099  1.00  0.00    -0.299 SA 
HETATM   29  C   UNL     1     -10.058  14.950  68.414  1.00  0.00    -0.225 A  
HETATM   30  C   UNL     1      -9.400  16.156  68.714  1.00  0.00    -0.229 A  
HETATM   31  C   UNL     1      -8.034  16.130  68.942  1.00  0.00    -0.223 A  
HETATM   32  C   UNL     1      -7.332  14.937  68.830  1.00  0.00    -0.127 A  
ENDBRANCH  21  24
ENDBRANCH  17  18
ENDBRANCH  16  17
ENDBRANCH  15  16
ENDBRANCH  14  15
ENDBRANCH  13  14
ENDBRANCH   7  13
TORSDOF 7
ENDMDL
MODEL      252
REMARK 921   NORMALIZED FREE ENERGY PREDICTED BY IDOCK:   -3.97 KCAL/MOL
REMARK 922        TOTAL FREE ENERGY PREDICTED BY IDOCK:   -6.90 KCAL/MOL
REMARK 923 INTER-LIGAND FREE ENERGY PREDICTED BY IDOCK:   -5.84 KCAL/MOL
REMARK 924 INTRA-LIGAND FREE ENERGY PREDICTED BY IDOCK:   -1.06 KCAL/MOL
REMARK 927      BINDING AFFINITY PREDICTED BY RF-SCORE:    0.00 PKD
ROOT
HETATM    1  O   UNL     1     -13.437  14.216  65.418  1.00  0.00    -0.648 OA 
HETATM    2  C   UNL     1     -12.584  13.391  65.110  1.00  0.00    -0.440 C  
HETATM    3  N   UNL     1     -12.029  12.533  66.019  1.00  0.00    -0.421 N  
HETATM    4  C   UNL     1     -11.031  11.604  65.697  1.00  0.00    -0.266 A  
HETATM    5  H   UNL     1     -12.360  12.572  66.984  1.00  0.00     0.000 HD 
HETATM    6  C   UNL     1     -10.501  10.777  66.686  1.00  0.00    -0.302 A  
HETATM    7  C   UNL     1      -9.488   9.871  66.363  1.00  0.00    -0.183 A  
HETATM    8  C   UNL     1     -12.107  13.281  63.709  1.00  0.00    -0.546 C  
HETATM    9  C   UNL     1      -9.017   9.806  65.044  1.00  0.00    -0.247 A  
HETATM   10  C   UNL     1     -11.157  12.404  63.361  1.00  0.00    -0.465 C  
HETATM   11  C   UNL     1      -9.556  10.630  64.053  1.00  0.00    -0.351 A  
HETATM   12  C   UNL     1     -10.569  11.531  64.375  1.00  0.00    -0.392 A  
ENDROOT
BRANCH   7  13
HETATM   13  O   UNL     1      -9.040   9.105  67.409  1.00  0.00    -0.126 OA 
BRANCH  13  14
HETATM   14  C   UNL     1      -7.649   9.229  67.702  1.00  0.00    -0.088 C  
BRANCH  14  15
HETATM   15  C   UNL     1      -7.460   9.864  69.076  1.00  0.00    -0.083 C  
BRANCH  15  16
HETATM   16  C   UNL     1      -6.014  10.318  69.299  1.00  0.00    -0.037 C  
BRANCH  16  17
HETATM   17  C   UNL     1      -5.799  11.842  69.309  1.00  0.00    -0.070 C  
BRANCH  17  18
HETATM   18  N   UNL     1      -5.617  12.440  67.980  1.00  0.00    -0.064 NA 
HETATM   19  C   UNL     1      -6.853  12.438  67.160  1.00  0.00    -0.075 C  
HETATM   20  C   UNL     1      -7.965  13.410  67.625  1.00  0.00    -0.174 C  
HETATM   21  N   UNL     1      -7.427  14.767  67.778  1.00  0.00    -0.146 NA 
HETATM   22  C   UNL     1      -5.150  13.849  68.088  1.00  0.00    -0.112 C  
HETATM   23  C   UNL     1      -6.209  14.864  68.597  1.00  0.00    -0.086 C  
BRANCH  21  24
HETATM   24  C   UNL     1      -8.252  15.886  67.624  1.00  0.00    -0.150 A  
HETATM   25  C   UNL     1      -9.550  16.062  68.214  1.00  0.00    -0.210 A  
HETATM   26  C   UNL     1     -10.256  15.311  69.229  1.00  0.00    -0.250 A  
HETATM   27  C   UNL     1     -11.526  15.768  69.485  1.00  0.00    -0.353 A  
HETATM   28  S   UNL     1     -11.894  17.146  68.566  1.00  0.00     1.655 SA 
HETATM   29  C   UNL     1     -10.339  17.151  67.816  1.00  0.00    -0.347 A  
HETATM   30  C   UNL     1      -9.886  18.111  66.894  1.00  0.00    -0.331 A  
HETATM   31  C   UNL     1      -8.608  17.981  66.373  1.00  0.00    -0.253 A  
HETATM   32  C   UNL     1      -7.819  16.895  66.729  1.00  0.00    -0.279 A  
ENDBRANCH  21  24
ENDBRANCH  17  18
ENDBRANCH  16  17
ENDBRANCH  15  16
ENDBRANCH  14  15
ENDBRANCH  13  14
ENDBRANCH   7  13
TORSDOF 7
ENDMDL
MODEL      253
REMARK 921   NORMALIZED FREE ENERGY PREDICTED BY IDOCK:   -3.95 KCAL/MOL
REMARK 922        TOTAL FREE ENERGY PREDICTED BY IDOCK:   -6.87 KCAL/MOL
REMARK 923 INTER-LIGAND FREE ENERGY PREDICTED BY IDOCK:   -5.73 KCAL/MOL
REMARK 924 INTRA-LIGAND FREE ENERGY PREDICTED BY IDOCK:   -1.14 KCAL/MOL
REMARK 927      BINDING AFFINITY PREDICTED BY RF-SCORE:    0.00 PKD
ROOT
HETATM    1  O   UNL     1      -6.076   5.056  70.457  1.00  0.00    -0.017 OA 
HETATM    2  C   UNL     1      -6.653   5.180  69.382  1.00  0.00    -0.046 C  
HETATM    3  N   UNL     1      -6.156   5.948  68.365  1.00  0.00    -0.020 N  
HETATM    4  C   UNL     1      -6.813   6.128  67.141  1.00  0.00    -0.063 A  
HETATM    5  H   UNL     1      -5.259   6.414  68.506  1.00  0.00     0.000 HD 
HETATM    6  C   UNL     1      -6.250   6.943  66.159  1.00  0.00    -0.042 A  
HETATM    7  C   UNL     1      -6.922   7.139  64.951  1.00  0.00    -0.055 A  
HETATM    8  C   UNL     1      -7.940   4.486  69.129  1.00  0.00    -0.069 C  
HETATM    9  C   UNL     1      -8.157   6.510  64.740  1.00  0.00    -0.112 A  
HETATM   10  C   UNL     1      -8.595   4.630  67.971  1.00  0.00    -0.107 C  
HETATM   11  C   UNL     1      -8.715   5.687  65.721  1.00  0.00    -0.150 A  
HETATM   12  C   UNL     1      -8.042   5.488  66.925  1.00  0.00    -0.101 A  
ENDROOT
BRANCH   7  13
HETATM   13  O   UNL     1      -6.280   7.957  64.056  1.00  0.00    -0.056 OA 
BRANCH  13  14
HETATM   14  C   UNL     1      -6.674   9.328  64.095  1.00  0.00    -0.091 C  
BRANCH  14  15
HETATM   15  C   UNL     1      -7.677   9.614  62.983  1.00  0.00    -0.125 C  
BRANCH  15  16
HETATM   16  C   UNL     1      -9.026  10.079  63.539  1.00  0.00    -0.279 C  
BRANCH  16  17
HETATM   17  C   UNL     1      -9.157  10.024  65.072  1.00  0.00    -0.211 C  
BRANCH  17  18
HETATM   18  N   UNL     1      -9.078  11.330  65.738  1.00  0.00    -0.210 NA 
HETATM   19  C   UNL     1     -10.405  11.948  65.980  1.00  0.00    -0.233 C  
HETATM   20  C   UNL     1     -11.272  11.264  67.065  1.00  0.00    -0.255 C  
HETATM   21  N   UNL     1     -10.513  11.122  68.313  1.00  0.00    -0.182 NA 
HETATM   22  C   UNL     1      -8.386  11.219  67.051  1.00  0.00    -0.153 C  
HETATM   23  C   UNL     1      -9.188  10.498  68.168  1.00  0.00    -0.148 C  
BRANCH  21  24
HETATM   24  C   UNL     1     -11.166  11.086  69.550  1.00  0.00    -0.279 A  
HETATM   25  C   UNL     1     -11.399   9.910  70.343  1.00  0.00    -0.376 A  
HETATM   26  C   UNL     1     -10.894   8.559  70.234  1.00  0.00    -0.249 A  
HETATM   27  C   UNL     1     -11.408   7.690  71.165  1.00  0.00    -0.266 A  
HETATM   28  S   UNL     1     -12.464   8.473  72.238  1.00  0.00    -0.362 SA 
HETATM   29  C   UNL     1     -12.234  10.000  71.466  1.00  0.00    -0.405 A  
HETATM   30  C   UNL     1     -12.813  11.213  71.878  1.00  0.00    -0.400 A  
HETATM   31  C   UNL     1     -12.537  12.362  71.153  1.00  0.00    -0.349 A  
HETATM   32  C   UNL     1     -11.737  12.293  70.020  1.00  0.00    -0.319 A  
ENDBRANCH  21  24
ENDBRANCH  17  18
ENDBRANCH  16  17
ENDBRANCH  15  16
ENDBRANCH  14  15
ENDBRANCH  13  14
ENDBRANCH   7  13
TORSDOF 7
ENDMDL
MODEL      254
REMARK 921   NORMALIZED FREE ENERGY PREDICTED BY IDOCK:   -3.94 KCAL/MOL
REMARK 922        TOTAL FREE ENERGY PREDICTED BY IDOCK:   -6.85 KCAL/MOL
REMARK 923 INTER-LIGAND FREE ENERGY PREDICTED BY IDOCK:   -6.31 KCAL/MOL
REMARK 924 INTRA-LIGAND FREE ENERGY PREDICTED BY IDOCK:   -0.54 KCAL/MOL
REMARK 927      BINDING AFFINITY PREDICTED BY RF-SCORE:    0.00 PKD
ROOT
HETATM    1  O   UNL     1      -9.812   3.006  70.611  1.00  0.00    -0.112 OA 
HETATM    2  C   UNL     1      -9.297   3.836  69.870  1.00  0.00    -0.177 C  
HETATM    3  N   UNL     1      -9.689   5.146  69.849  1.00  0.00    -0.179 N  
HETATM    4  C   UNL     1      -9.136   6.105  68.989  1.00  0.00    -0.124 A  
HETATM    5  H   UNL     1     -10.423   5.441  70.494  1.00  0.00     0.000 HD 
HETATM    6  C   UNL     1      -9.604   7.418  69.015  1.00  0.00    -0.148 A  
HETATM    7  C   UNL     1      -9.067   8.363  68.137  1.00  0.00    -0.138 A  
HETATM    8  C   UNL     1      -8.201   3.451  68.946  1.00  0.00    -0.075 C  
HETATM    9  C   UNL     1      -8.061   7.976  67.241  1.00  0.00    -0.121 A  
HETATM   10  C   UNL     1      -7.646   4.339  68.113  1.00  0.00    -0.068 C  
HETATM   11  C   UNL     1      -7.588   6.662  67.223  1.00  0.00    -0.100 A  
HETATM   12  C   UNL     1      -8.121   5.721  68.102  1.00  0.00    -0.104 A  
ENDROOT
BRANCH   7  13
HETATM   13  O   UNL     1      -9.598   9.623  68.247  1.00  0.00    -0.139 OA 
BRANCH  13  14
HETATM   14  C   UNL     1     -10.985   9.729  67.929  1.00  0.00    -0.188 C  
BRANCH  14  15
HETATM   15  C   UNL     1     -11.370  11.195  67.756  1.00  0.00    -0.364 C  
BRANCH  15  16
HETATM   16  C   UNL     1     -10.166  12.124  67.939  1.00  0.00    -0.203 C  
BRANCH  16  17
HETATM   17  C   UNL     1     -10.145  13.358  67.020  1.00  0.00    -0.247 C  
BRANCH  17  18
HETATM   18  N   UNL     1     -10.724  14.570  67.613  1.00  0.00    -0.252 NA 
HETATM   19  C   UNL     1     -10.306  14.794  69.019  1.00  0.00    -0.243 C  
HETATM   20  C   UNL     1      -8.826  15.207  69.218  1.00  0.00    -0.207 C  
HETATM   21  N   UNL     1      -8.498  16.360  68.372  1.00  0.00    -0.195 NA 
HETATM   22  C   UNL     1     -10.347  15.780  66.832  1.00  0.00    -0.295 C  
HETATM   23  C   UNL     1      -8.861  16.215  66.953  1.00  0.00    -0.219 C  
BRANCH  21  24
HETATM   24  C   UNL     1      -7.491  17.258  68.743  1.00  0.00    -0.260 A  
HETATM   25  C   UNL     1      -7.358  18.610  68.277  1.00  0.00    -0.294 A  
HETATM   26  C   UNL     1      -8.252  19.461  67.523  1.00  0.00    -0.321 A  
HETATM   27  C   UNL     1      -7.728  20.694  67.215  1.00  0.00    -0.311 A  
HETATM   28  S   UNL     1      -6.176  20.897  67.869  1.00  0.00    -0.348 SA 
HETATM   29  C   UNL     1      -6.193  19.327  68.586  1.00  0.00    -0.240 A  
HETATM   30  C   UNL     1      -5.168  18.787  69.383  1.00  0.00    -0.198 A  
HETATM   31  C   UNL     1      -5.323  17.506  69.889  1.00  0.00    -0.217 A  
HETATM   32  C   UNL     1      -6.454  16.766  69.572  1.00  0.00    -0.225 A  
ENDBRANCH  21  24
ENDBRANCH  17  18
ENDBRANCH  16  17
ENDBRANCH  15  16
ENDBRANCH  14  15
ENDBRANCH  13  14
ENDBRANCH   7  13
TORSDOF 7
ENDMDL
MODEL      255
REMARK 921   NORMALIZED FREE ENERGY PREDICTED BY IDOCK:   -3.93 KCAL/MOL
REMARK 922        TOTAL FREE ENERGY PREDICTED BY IDOCK:   -6.84 KCAL/MOL
REMARK 923 INTER-LIGAND FREE ENERGY PREDICTED BY IDOCK:   -6.74 KCAL/MOL
REMARK 924 INTRA-LIGAND FREE ENERGY PREDICTED BY IDOCK:   -0.10 KCAL/MOL
REMARK 927      BINDING AFFINITY PREDICTED BY RF-SCORE:    0.00 PKD
ROOT
HETATM    1  O   UNL     1      -6.577  17.239  67.269  1.00  0.00    -0.141 OA 
HETATM    2  C   UNL     1      -7.692  16.782  67.495  1.00  0.00    -0.168 C  
HETATM    3  N   UNL     1      -8.102  15.571  67.010  1.00  0.00    -0.219 N  
HETATM    4  C   UNL     1      -9.382  15.043  67.230  1.00  0.00    -0.202 A  
HETATM    5  H   UNL     1      -7.442  15.023  66.457  1.00  0.00     0.000 HD 
HETATM    6  C   UNL     1      -9.731  13.809  66.684  1.00  0.00    -0.293 A  
HETATM    7  C   UNL     1     -11.016  13.300  66.885  1.00  0.00    -0.283 A  
HETATM    8  C   UNL     1      -8.665  17.534  68.326  1.00  0.00    -0.270 C  
HETATM    9  C   UNL     1     -11.939  14.040  67.637  1.00  0.00    -0.404 A  
HETATM   10  C   UNL     1      -9.895  17.061  68.561  1.00  0.00    -0.290 C  
HETATM   11  C   UNL     1     -11.584  15.272  68.191  1.00  0.00    -0.344 A  
HETATM   12  C   UNL     1     -10.300  15.777  67.993  1.00  0.00    -0.252 A  
ENDROOT
BRANCH   7  13
HETATM   13  O   UNL     1     -11.254  12.079  66.306  1.00  0.00    -0.313 OA 
BRANCH  13  14
HETATM   14  C   UNL     1     -10.723  11.916  64.992  1.00  0.00    -0.292 C  
BRANCH  14  15
HETATM   15  C   UNL     1      -9.425  11.117  65.049  1.00  0.00    -0.259 C  
BRANCH  15  16
HETATM   16  C   UNL     1      -9.688   9.619  65.233  1.00  0.00    -0.330 C  
BRANCH  16  17
HETATM   17  C   UNL     1      -9.394   9.069  66.640  1.00  0.00    -0.177 C  
BRANCH  17  18
HETATM   18  N   UNL     1     -10.281   9.582  67.692  1.00  0.00    -0.205 NA 
HETATM   19  C   UNL     1     -11.024   8.514  68.406  1.00  0.00     0.202 C  
HETATM   20  C   UNL     1     -10.172   7.614  69.335  1.00  0.00    -0.206 C  
HETATM   21  N   UNL     1      -9.389   8.436  70.266  1.00  0.00    -0.162 NA 
HETATM   22  C   UNL     1      -9.514  10.354  68.708  1.00  0.00    -0.175 C  
HETATM   23  C   UNL     1      -8.603   9.509  69.639  1.00  0.00    -0.183 C  
BRANCH  21  24
HETATM   24  C   UNL     1      -9.010   7.937  71.517  1.00  0.00    -0.136 A  
HETATM   25  C   UNL     1      -9.709   6.931  72.268  1.00  0.00    -0.159 A  
HETATM   26  C   UNL     1     -10.795   6.044  71.911  1.00  0.00    -0.304 A  
HETATM   27  C   UNL     1     -11.235   5.252  72.944  1.00  0.00    -0.312 A  
HETATM   28  S   UNL     1     -10.326   5.497  74.355  1.00  0.00    -0.217 SA 
HETATM   29  C   UNL     1      -9.317   6.670  73.589  1.00  0.00    -0.152 A  
HETATM   30  C   UNL     1      -8.229   7.323  74.194  1.00  0.00    -0.188 A  
HETATM   31  C   UNL     1      -7.511   8.247  73.450  1.00  0.00    -0.170 A  
HETATM   32  C   UNL     1      -7.898   8.544  72.150  1.00  0.00    -0.136 A  
ENDBRANCH  21  24
ENDBRANCH  17  18
ENDBRANCH  16  17
ENDBRANCH  15  16
ENDBRANCH  14  15
ENDBRANCH  13  14
ENDBRANCH   7  13
TORSDOF 7
ENDMDL
MODEL      256
REMARK 921   NORMALIZED FREE ENERGY PREDICTED BY IDOCK:   -3.92 KCAL/MOL
REMARK 922        TOTAL FREE ENERGY PREDICTED BY IDOCK:   -6.83 KCAL/MOL
REMARK 923 INTER-LIGAND FREE ENERGY PREDICTED BY IDOCK:   -6.08 KCAL/MOL
REMARK 924 INTRA-LIGAND FREE ENERGY PREDICTED BY IDOCK:   -0.75 KCAL/MOL
REMARK 927      BINDING AFFINITY PREDICTED BY RF-SCORE:    0.00 PKD
ROOT
HETATM    1  O   UNL     1     -10.767   3.520  63.141  1.00  0.00    -0.220 OA 
HETATM    2  C   UNL     1     -10.210   3.564  64.232  1.00  0.00    -0.200 C  
HETATM    3  N   UNL     1     -10.202   4.689  65.008  1.00  0.00    -0.416 N  
HETATM    4  C   UNL     1      -9.546   4.771  66.244  1.00  0.00    -0.178 A  
HETATM    5  H   UNL     1     -10.701   5.513  64.670  1.00  0.00     0.000 HD 
HETATM    6  C   UNL     1      -9.568   5.962  66.969  1.00  0.00    -0.144 A  
HETATM    7  C   UNL     1      -8.890   6.046  68.187  1.00  0.00    -0.111 A  
HETATM    8  C   UNL     1      -9.507   2.373  64.772  1.00  0.00    -0.085 C  
HETATM    9  C   UNL     1      -8.196   4.926  68.666  1.00  0.00    -0.084 A  
HETATM   10  C   UNL     1      -8.872   2.412  65.949  1.00  0.00    -0.128 C  
HETATM   11  C   UNL     1      -8.182   3.731  67.943  1.00  0.00    -0.092 A  
HETATM   12  C   UNL     1      -8.862   3.648  66.729  1.00  0.00    -0.137 A  
ENDROOT
BRANCH   7  13
HETATM   13  O   UNL     1      -8.977   7.261  68.817  1.00  0.00    -0.130 OA 
BRANCH  13  14
HETATM   14  C   UNL     1      -9.979   7.351  69.830  1.00  0.00    -0.188 C  
BRANCH  14  15
HETATM   15  C   UNL     1     -10.816   8.609  69.624  1.00  0.00    -0.163 C  
BRANCH  15  16
HETATM   16  C   UNL     1     -10.447   9.332  68.325  1.00  0.00    -0.260 C  
BRANCH  16  17
HETATM   17  C   UNL     1     -11.182  10.663  68.084  1.00  0.00    -0.302 C  
BRANCH  17  18
HETATM   18  N   UNL     1     -10.814  11.740  69.012  1.00  0.00    -0.213 NA 
HETATM   19  C   UNL     1      -9.535  12.406  68.662  1.00  0.00    -0.011 C  
HETATM   20  C   UNL     1      -9.570  13.291  67.391  1.00  0.00    -0.223 C  
HETATM   21  N   UNL     1     -10.672  14.256  67.469  1.00  0.00    -0.268 NA 
HETATM   22  C   UNL     1     -11.870  12.787  69.061  1.00  0.00    -0.297 C  
HETATM   23  C   UNL     1     -11.985  13.676  67.793  1.00  0.00    -0.352 C  
BRANCH  21  24
HETATM   24  C   UNL     1     -10.600  15.482  66.799  1.00  0.00    -0.307 A  
HETATM   25  C   UNL     1     -10.438  16.770  67.417  1.00  0.00    -0.310 A  
HETATM   26  C   UNL     1     -10.111  17.152  68.773  1.00  0.00    -0.329 A  
HETATM   27  C   UNL     1     -10.107  18.509  68.989  1.00  0.00    -0.237 A  
HETATM   28  S   UNL     1     -10.434  19.372  67.565  1.00  0.00    -0.475 SA 
HETATM   29  C   UNL     1     -10.575  17.925  66.634  1.00  0.00    -0.238 A  
HETATM   30  C   UNL     1     -10.816  17.870  65.250  1.00  0.00     0.336 A  
HETATM   31  C   UNL     1     -10.907  16.629  64.639  1.00  0.00     0.086 A  
HETATM   32  C   UNL     1     -10.805  15.471  65.398  1.00  0.00    -0.402 A  
ENDBRANCH  21  24
ENDBRANCH  17  18
ENDBRANCH  16  17
ENDBRANCH  15  16
ENDBRANCH  14  15
ENDBRANCH  13  14
ENDBRANCH   7  13
TORSDOF 7
ENDMDL
MODEL      257
REMARK 921   NORMALIZED FREE ENERGY PREDICTED BY IDOCK:   -3.92 KCAL/MOL
REMARK 922        TOTAL FREE ENERGY PREDICTED BY IDOCK:   -6.83 KCAL/MOL
REMARK 923 INTER-LIGAND FREE ENERGY PREDICTED BY IDOCK:   -6.15 KCAL/MOL
REMARK 924 INTRA-LIGAND FREE ENERGY PREDICTED BY IDOCK:   -0.68 KCAL/MOL
REMARK 927      BINDING AFFINITY PREDICTED BY RF-SCORE:    0.00 PKD
ROOT
HETATM    1  O   UNL     1      -5.724  20.203  66.224  1.00  0.00    -0.167 OA 
HETATM    2  C   UNL     1      -6.646  19.609  66.772  1.00  0.00    -0.193 C  
HETATM    3  N   UNL     1      -7.369  18.634  66.143  1.00  0.00    -0.254 N  
HETATM    4  C   UNL     1      -8.446  17.965  66.740  1.00  0.00    -0.249 A  
HETATM    5  H   UNL     1      -7.111  18.381  65.189  1.00  0.00     0.000 HD 
HETATM    6  C   UNL     1      -9.147  16.994  66.025  1.00  0.00    -0.172 A  
HETATM    7  C   UNL     1     -10.236  16.349  66.616  1.00  0.00    -0.294 A  
HETATM    8  C   UNL     1      -7.025  19.926  68.172  1.00  0.00    -0.331 C  
HETATM    9  C   UNL     1     -10.609  16.686  67.925  1.00  0.00    -0.342 A  
HETATM   10  C   UNL     1      -8.045  19.306  68.777  1.00  0.00    -0.391 C  
HETATM   11  C   UNL     1      -9.900  17.653  68.642  1.00  0.00    -0.347 A  
HETATM   12  C   UNL     1      -8.811  18.293  68.053  1.00  0.00    -0.290 A  
ENDROOT
BRANCH   7  13
HETATM   13  O   UNL     1     -10.853  15.412  65.827  1.00  0.00    -0.329 OA 
BRANCH  13  14
HETATM   14  C   UNL     1      -9.983  14.449  65.233  1.00  0.00    -0.280 C  
BRANCH  14  15
HETATM   15  C   UNL     1      -9.465  13.488  66.298  1.00  0.00    -0.199 C  
BRANCH  15  16
HETATM   16  C   UNL     1     -10.473  12.374  66.598  1.00  0.00    -0.251 C  
BRANCH  16  17
HETATM   17  C   UNL     1      -9.935  11.218  67.461  1.00  0.00    -0.182 C  
BRANCH  17  18
HETATM   18  N   UNL     1     -10.972  10.432  68.142  1.00  0.00    -0.264 NA 
HETATM   19  C   UNL     1     -10.958   8.995  67.770  1.00  0.00     0.067 C  
HETATM   20  C   UNL     1      -9.756   8.179  68.306  1.00  0.00    -0.161 C  
HETATM   21  N   UNL     1      -9.622   8.358  69.756  1.00  0.00    -0.170 NA 
HETATM   22  C   UNL     1     -10.823  10.517  69.620  1.00  0.00    -0.274 C  
HETATM   23  C   UNL     1      -9.606   9.757  70.212  1.00  0.00    -0.208 C  
BRANCH  21  24
HETATM   24  C   UNL     1      -9.044   7.362  70.551  1.00  0.00    -0.157 A  
HETATM   25  C   UNL     1      -7.698   6.871  70.437  1.00  0.00    -0.100 A  
HETATM   26  C   UNL     1      -6.559   7.351  69.687  1.00  0.00    -0.040 A  
HETATM   27  C   UNL     1      -5.442   6.558  69.793  1.00  0.00    -0.014 A  
HETATM   28  S   UNL     1      -5.699   5.249  70.841  1.00  0.00    -0.017 SA 
HETATM   29  C   UNL     1      -7.320   5.739  71.174  1.00  0.00    -0.082 A  
HETATM   30  C   UNL     1      -8.197   5.094  72.064  1.00  0.00    -0.117 A  
HETATM   31  C   UNL     1      -9.475   5.604  72.226  1.00  0.00    -0.160 A  
HETATM   32  C   UNL     1      -9.883   6.706  71.485  1.00  0.00    -0.182 A  
ENDBRANCH  21  24
ENDBRANCH  17  18
ENDBRANCH  16  17
ENDBRANCH  15  16
ENDBRANCH  14  15
ENDBRANCH  13  14
ENDBRANCH   7  13
TORSDOF 7
ENDMDL
MODEL      258
REMARK 921   NORMALIZED FREE ENERGY PREDICTED BY IDOCK:   -3.91 KCAL/MOL
REMARK 922        TOTAL FREE ENERGY PREDICTED BY IDOCK:   -6.81 KCAL/MOL
REMARK 923 INTER-LIGAND FREE ENERGY PREDICTED BY IDOCK:   -6.19 KCAL/MOL
REMARK 924 INTRA-LIGAND FREE ENERGY PREDICTED BY IDOCK:   -0.62 KCAL/MOL
REMARK 927      BINDING AFFINITY PREDICTED BY RF-SCORE:    0.00 PKD
ROOT
HETATM    1  O   UNL     1      -5.962  20.600  64.537  1.00  0.00    -0.238 OA 
HETATM    2  C   UNL     1      -6.237  19.827  65.449  1.00  0.00    -0.233 C  
HETATM    3  N   UNL     1      -7.421  19.146  65.504  1.00  0.00    -0.065 N  
HETATM    4  C   UNL     1      -7.768  18.283  66.552  1.00  0.00    -0.251 A  
HETATM    5  H   UNL     1      -8.087  19.274  64.742  1.00  0.00     0.000 HD 
HETATM    6  C   UNL     1      -9.005  17.639  66.546  1.00  0.00    -0.283 A  
HETATM    7  C   UNL     1      -9.355  16.800  67.606  1.00  0.00    -0.228 A  
HETATM    8  C   UNL     1      -5.276  19.590  66.555  1.00  0.00    -0.162 C  
HETATM    9  C   UNL     1      -8.456  16.616  68.665  1.00  0.00    -0.253 A  
HETATM   10  C   UNL     1      -5.570  18.770  67.572  1.00  0.00    -0.161 C  
HETATM   11  C   UNL     1      -7.214  17.256  68.665  1.00  0.00    -0.231 A  
HETATM   12  C   UNL     1      -6.863  18.089  67.605  1.00  0.00    -0.196 A  
ENDROOT
BRANCH   7  13
HETATM   13  O   UNL     1     -10.592  16.216  67.499  1.00  0.00    -0.304 OA 
BRANCH  13  14
HETATM   14  C   UNL     1     -10.618  14.966  66.811  1.00  0.00    -0.305 C  
BRANCH  14  15
HETATM   15  C   UNL     1     -10.345  13.828  67.790  1.00  0.00    -0.241 C  
BRANCH  15  16
HETATM   16  C   UNL     1     -11.549  13.557  68.697  1.00  0.00    -0.365 C  
BRANCH  16  17
HETATM   17  C   UNL     1     -11.327  12.482  69.776  1.00  0.00    -0.040 C  
BRANCH  17  18
HETATM   18  N   UNL     1     -12.016  11.210  69.521  1.00  0.00    -0.337 NA 
HETATM   19  C   UNL     1     -11.647  10.593  68.223  1.00  0.00    -0.167 C  
HETATM   20  C   UNL     1     -10.211  10.019  68.141  1.00  0.00    -0.175 C  
HETATM   21  N   UNL     1      -9.961   9.103  69.260  1.00  0.00    -0.181 NA 
HETATM   22  C   UNL     1     -11.724  10.219  70.592  1.00  0.00    -0.348 C  
HETATM   23  C   UNL     1     -10.282   9.644  70.590  1.00  0.00    -0.278 C  
BRANCH  21  24
HETATM   24  C   UNL     1      -9.039   8.058  69.139  1.00  0.00    -0.145 A  
HETATM   25  C   UNL     1      -9.166   6.922  68.267  1.00  0.00    -0.123 A  
HETATM   26  C   UNL     1     -10.085   6.634  67.188  1.00  0.00    -0.230 A  
HETATM   27  C   UNL     1      -9.920   5.392  66.625  1.00  0.00    -0.195 A  
HETATM   28  S   UNL     1      -8.621   4.554  67.326  1.00  0.00    -0.104 SA 
HETATM   29  C   UNL     1      -8.258   5.861  68.393  1.00  0.00    -0.109 A  
HETATM   30  C   UNL     1      -7.192   5.888  69.310  1.00  0.00    -0.074 A  
HETATM   31  C   UNL     1      -7.028   7.011  70.106  1.00  0.00    -0.065 A  
HETATM   32  C   UNL     1      -7.931   8.062  70.021  1.00  0.00    -0.106 A  
ENDBRANCH  21  24
ENDBRANCH  17  18
ENDBRANCH  16  17
ENDBRANCH  15  16
ENDBRANCH  14  15
ENDBRANCH  13  14
ENDBRANCH   7  13
TORSDOF 7
ENDMDL
MODEL      259
REMARK 921   NORMALIZED FREE ENERGY PREDICTED BY IDOCK:   -3.80 KCAL/MOL
REMARK 922        TOTAL FREE ENERGY PREDICTED BY IDOCK:   -6.65 KCAL/MOL
REMARK 923 INTER-LIGAND FREE ENERGY PREDICTED BY IDOCK:   -5.80 KCAL/MOL
REMARK 924 INTRA-LIGAND FREE ENERGY PREDICTED BY IDOCK:   -0.85 KCAL/MOL
REMARK 927      BINDING AFFINITY PREDICTED BY RF-SCORE:    0.00 PKD
ROOT
HETATM    1  O   UNL     1      -7.649   1.603  63.260  1.00  0.00    -0.051 OA 
HETATM    2  C   UNL     1      -8.381   2.368  63.878  1.00  0.00    -0.082 C  
HETATM    3  N   UNL     1      -8.007   2.949  65.058  1.00  0.00    -0.082 N  
HETATM    4  C   UNL     1      -8.839   3.802  65.796  1.00  0.00    -0.124 A  
HETATM    5  H   UNL     1      -7.075   2.752  65.420  1.00  0.00     0.000 HD 
HETATM    6  C   UNL     1      -8.393   4.341  67.002  1.00  0.00    -0.101 A  
HETATM    7  C   UNL     1      -9.236   5.170  67.746  1.00  0.00    -0.115 A  
HETATM    8  C   UNL     1      -9.730   2.707  63.362  1.00  0.00    -0.104 C  
HETATM    9  C   UNL     1     -10.523   5.449  67.267  1.00  0.00    -0.274 A  
HETATM   10  C   UNL     1     -10.552   3.520  64.036  1.00  0.00    -0.245 C  
HETATM   11  C   UNL     1     -10.966   4.915  66.055  1.00  0.00     0.026 A  
HETATM   12  C   UNL     1     -10.122   4.092  65.311  1.00  0.00    -0.213 A  
ENDROOT
BRANCH   7  13
HETATM   13  O   UNL     1      -8.698   5.646  68.914  1.00  0.00    -0.107 OA 
BRANCH  13  14
HETATM   14  C   UNL     1      -9.617   5.781  69.998  1.00  0.00    -0.164 C  
BRANCH  14  15
HETATM   15  C   UNL     1      -9.045   6.723  71.052  1.00  0.00    -0.156 C  
BRANCH  15  16
HETATM   16  C   UNL     1      -8.609   8.060  70.444  1.00  0.00    -0.131 C  
BRANCH  16  17
HETATM   17  C   UNL     1      -9.701   9.144  70.392  1.00  0.00    -0.221 C  
BRANCH  17  18
HETATM   18  N   UNL     1     -10.426   9.218  69.117  1.00  0.00    -0.215 NA 
HETATM   19  C   UNL     1     -11.693   9.986  69.205  1.00  0.00     0.093 C  
HETATM   20  C   UNL     1     -11.535  11.515  69.392  1.00  0.00    -0.309 C  
HETATM   21  N   UNL     1     -10.645  12.067  68.364  1.00  0.00    -0.210 NA 
HETATM   22  C   UNL     1      -9.588   9.850  68.062  1.00  0.00    -0.138 C  
HETATM   23  C   UNL     1      -9.354  11.376  68.223  1.00  0.00    -0.187 C  
BRANCH  21  24
HETATM   24  C   UNL     1     -10.772  13.396  67.945  1.00  0.00    -0.247 A  
HETATM   25  C   UNL     1     -11.160  13.829  66.631  1.00  0.00    -0.316 A  
HETATM   26  C   UNL     1     -11.701  13.108  65.500  1.00  0.00    -0.393 A  
HETATM   27  C   UNL     1     -11.889  13.880  64.379  1.00  0.00    -0.429 A  
HETATM   28  S   UNL     1     -11.484  15.503  64.660  1.00  0.00    -0.236 SA 
HETATM   29  C   UNL     1     -11.058  15.189  66.303  1.00  0.00    -0.309 A  
HETATM   30  C   UNL     1     -10.636  16.157  67.232  1.00  0.00    -0.305 A  
HETATM   31  C   UNL     1     -10.324  15.751  68.520  1.00  0.00    -0.229 A  
HETATM   32  C   UNL     1     -10.389  14.406  68.860  1.00  0.00    -0.233 A  
ENDBRANCH  21  24
ENDBRANCH  17  18
ENDBRANCH  16  17
ENDBRANCH  15  16
ENDBRANCH  14  15
ENDBRANCH  13  14
ENDBRANCH   7  13
TORSDOF 7
ENDMDL
MODEL      260
REMARK 921   NORMALIZED FREE ENERGY PREDICTED BY IDOCK:   -3.77 KCAL/MOL
REMARK 922        TOTAL FREE ENERGY PREDICTED BY IDOCK:   -6.62 KCAL/MOL
REMARK 923 INTER-LIGAND FREE ENERGY PREDICTED BY IDOCK:   -5.49 KCAL/MOL
REMARK 924 INTRA-LIGAND FREE ENERGY PREDICTED BY IDOCK:   -1.13 KCAL/MOL
REMARK 927      BINDING AFFINITY PREDICTED BY RF-SCORE:    0.00 PKD
ROOT
HETATM    1  O   UNL     1     -11.104   8.466  72.418  1.00  0.00    -0.346 OA 
HETATM    2  C   UNL     1     -10.691   7.363  72.078  1.00  0.00    -0.219 C  
HETATM    3  N   UNL     1      -9.714   7.202  71.134  1.00  0.00    -0.169 N  
HETATM    4  C   UNL     1      -9.250   5.951  70.708  1.00  0.00    -0.153 A  
HETATM    5  H   UNL     1      -9.302   8.038  70.719  1.00  0.00     0.000 HD 
HETATM    6  C   UNL     1      -8.263   5.869  69.726  1.00  0.00    -0.113 A  
HETATM    7  C   UNL     1      -7.823   4.619  69.287  1.00  0.00    -0.063 A  
HETATM    8  C   UNL     1     -11.242   6.127  72.688  1.00  0.00    -0.312 C  
HETATM    9  C   UNL     1      -8.380   3.459  69.842  1.00  0.00    -0.081 A  
HETATM   10  C   UNL     1     -10.821   4.914  72.309  1.00  0.00    -0.172 C  
HETATM   11  C   UNL     1      -9.363   3.543  70.832  1.00  0.00    -0.217 A  
HETATM   12  C   UNL     1      -9.799   4.791  71.273  1.00  0.00    -0.256 A  
ENDROOT
BRANCH   7  13
HETATM   13  O   UNL     1      -6.850   4.653  68.320  1.00  0.00    -0.053 OA 
BRANCH  13  14
HETATM   14  C   UNL     1      -7.173   3.976  67.107  1.00  0.00    -0.068 C  
BRANCH  14  15
HETATM   15  C   UNL     1      -8.314   4.697  66.395  1.00  0.00    -0.106 C  
BRANCH  15  16
HETATM   16  C   UNL     1      -7.816   5.919  65.617  1.00  0.00    -0.101 C  
BRANCH  16  17
HETATM   17  C   UNL     1      -8.137   7.281  66.260  1.00  0.00    -0.121 C  
BRANCH  17  18
HETATM   18  N   UNL     1      -7.517   8.432  65.591  1.00  0.00    -0.079 NA 
HETATM   19  C   UNL     1      -8.467   9.209  64.758  1.00  0.00    -0.178 C  
HETATM   20  C   UNL     1      -9.527  10.025  65.539  1.00  0.00    -0.237 C  
HETATM   21  N   UNL     1      -8.879  10.875  66.545  1.00  0.00    -0.158 NA 
HETATM   22  C   UNL     1      -6.917   9.367  66.582  1.00  0.00    -0.081 C  
HETATM   23  C   UNL     1      -7.933  10.179  67.431  1.00  0.00    -0.110 C  
BRANCH  21  24
HETATM   24  C   UNL     1      -9.474  12.069  66.965  1.00  0.00    -0.198 A  
HETATM   25  C   UNL     1     -10.439  12.201  68.022  1.00  0.00    -0.227 A  
HETATM   26  C   UNL     1     -10.893  11.271  69.032  1.00  0.00    -0.268 A  
HETATM   27  C   UNL     1     -11.890  11.762  69.841  1.00  0.00    -0.348 A  
HETATM   28  S   UNL     1     -12.271  13.371  69.460  1.00  0.00    -0.129 SA 
HETATM   29  C   UNL     1     -11.089  13.430  68.203  1.00  0.00    -0.258 A  
HETATM   30  C   UNL     1     -10.795  14.559  67.419  1.00  0.00    -0.291 A  
HETATM   31  C   UNL     1      -9.817  14.454  66.442  1.00  0.00    -0.309 A  
HETATM   32  C   UNL     1      -9.181  13.239  66.223  1.00  0.00    -0.067 A  
ENDBRANCH  21  24
ENDBRANCH  17  18
ENDBRANCH  16  17
ENDBRANCH  15  16
ENDBRANCH  14  15
ENDBRANCH  13  14
ENDBRANCH   7  13
TORSDOF 7
ENDMDL
MODEL      261
REMARK 921   NORMALIZED FREE ENERGY PREDICTED BY IDOCK:   -3.75 KCAL/MOL
REMARK 922        TOTAL FREE ENERGY PREDICTED BY IDOCK:   -6.58 KCAL/MOL
REMARK 923 INTER-LIGAND FREE ENERGY PREDICTED BY IDOCK:   -6.08 KCAL/MOL
REMARK 924 INTRA-LIGAND FREE ENERGY PREDICTED BY IDOCK:   -0.50 KCAL/MOL
REMARK 927      BINDING AFFINITY PREDICTED BY RF-SCORE:    0.00 PKD
ROOT
HETATM    1  O   UNL     1      -6.621  19.901  69.351  1.00  0.00    -0.330 OA 
HETATM    2  C   UNL     1      -7.112  18.877  68.889  1.00  0.00    -0.321 C  
HETATM    3  N   UNL     1      -6.732  17.629  69.301  1.00  0.00    -0.247 N  
HETATM    4  C   UNL     1      -7.257  16.445  68.765  1.00  0.00    -0.191 A  
HETATM    5  H   UNL     1      -6.030  17.557  70.037  1.00  0.00     0.000 HD 
HETATM    6  C   UNL     1      -6.805  15.210  69.226  1.00  0.00    -0.153 A  
HETATM    7  C   UNL     1      -7.313  14.033  68.670  1.00  0.00    -0.120 A  
HETATM    8  C   UNL     1      -8.162  18.945  67.843  1.00  0.00    -0.305 C  
HETATM    9  C   UNL     1      -8.275  14.113  67.654  1.00  0.00    -0.193 A  
HETATM   10  C   UNL     1      -8.690  17.837  67.310  1.00  0.00    -0.241 C  
HETATM   11  C   UNL     1      -8.734  15.352  67.200  1.00  0.00    -0.243 A  
HETATM   12  C   UNL     1      -8.229  16.525  67.758  1.00  0.00    -0.173 A  
ENDROOT
BRANCH   7  13
HETATM   13  O   UNL     1      -6.801  12.875  69.196  1.00  0.00    -0.101 OA 
BRANCH  13  14
HETATM   14  C   UNL     1      -5.854  12.198  68.370  1.00  0.00    -0.053 C  
BRANCH  14  15
HETATM   15  C   UNL     1      -6.526  11.027  67.660  1.00  0.00    -0.060 C  
BRANCH  15  16
HETATM   16  C   UNL     1      -5.632   9.783  67.645  1.00  0.00    -0.036 C  
BRANCH  16  17
HETATM   17  C   UNL     1      -6.171   8.599  66.821  1.00  0.00    -0.059 C  
BRANCH  17  18
HETATM   18  N   UNL     1      -6.386   7.368  67.592  1.00  0.00    -0.050 NA 
HETATM   19  C   UNL     1      -6.334   7.578  69.060  1.00  0.00    -0.039 C  
HETATM   20  C   UNL     1      -7.525   8.361  69.666  1.00  0.00    -0.073 C  
HETATM   21  N   UNL     1      -8.797   7.754  69.258  1.00  0.00    -0.139 NA 
HETATM   22  C   UNL     1      -7.706   6.760  67.271  1.00  0.00    -0.109 C  
HETATM   23  C   UNL     1      -8.943   7.528  67.811  1.00  0.00    -0.131 C  
BRANCH  21  24
HETATM   24  C   UNL     1      -9.936   7.868  70.061  1.00  0.00    -0.191 A  
HETATM   25  C   UNL     1     -10.754   9.042  70.198  1.00  0.00    -0.258 A  
HETATM   26  C   UNL     1     -10.785  10.285  69.459  1.00  0.00    -0.280 A  
HETATM   27  C   UNL     1     -11.686  11.203  69.942  1.00  0.00    -0.355 A  
HETATM   28  S   UNL     1     -12.566  10.588  71.255  1.00  0.00    -0.452 SA 
HETATM   29  C   UNL     1     -11.751   9.068  71.185  1.00  0.00    -0.302 A  
HETATM   30  C   UNL     1     -12.016   7.965  72.015  1.00  0.00    -0.364 A  
HETATM   31  C   UNL     1     -11.274   6.808  71.841  1.00  0.00    -0.294 A  
HETATM   32  C   UNL     1     -10.261   6.767  70.891  1.00  0.00    -0.215 A  
ENDBRANCH  21  24
ENDBRANCH  17  18
ENDBRANCH  16  17
ENDBRANCH  15  16
ENDBRANCH  14  15
ENDBRANCH  13  14
ENDBRANCH   7  13
TORSDOF 7
ENDMDL
MODEL      262
REMARK 921   NORMALIZED FREE ENERGY PREDICTED BY IDOCK:   -3.74 KCAL/MOL
REMARK 922        TOTAL FREE ENERGY PREDICTED BY IDOCK:   -6.58 KCAL/MOL
REMARK 923 INTER-LIGAND FREE ENERGY PREDICTED BY IDOCK:   -6.24 KCAL/MOL
REMARK 924 INTRA-LIGAND FREE ENERGY PREDICTED BY IDOCK:   -0.34 KCAL/MOL
REMARK 927      BINDING AFFINITY PREDICTED BY RF-SCORE:    0.00 PKD
ROOT
HETATM    1  O   UNL     1      -6.966  11.150  68.711  1.00  0.00    -0.074 OA 
HETATM    2  C   UNL     1      -7.114  10.184  69.452  1.00  0.00    -0.085 C  
HETATM    3  N   UNL     1      -8.347   9.692  69.779  1.00  0.00    -0.156 N  
HETATM    4  C   UNL     1      -8.541   8.610  70.648  1.00  0.00    -0.163 A  
HETATM    5  H   UNL     1      -9.169  10.136  69.369  1.00  0.00     0.000 HD 
HETATM    6  C   UNL     1      -9.833   8.178  70.948  1.00  0.00    -0.203 A  
HETATM    7  C   UNL     1     -10.021   7.115  71.835  1.00  0.00    -0.167 A  
HETATM    8  C   UNL     1      -5.940   9.491  70.037  1.00  0.00    -0.041 C  
HETATM    9  C   UNL     1      -8.904   6.495  72.413  1.00  0.00    -0.133 A  
HETATM   10  C   UNL     1      -6.085   8.452  70.868  1.00  0.00    -0.034 C  
HETATM   11  C   UNL     1      -7.611   6.924  72.104  1.00  0.00    -0.092 A  
HETATM   12  C   UNL     1      -7.424   7.981  71.216  1.00  0.00    -0.072 A  
ENDROOT
BRANCH   7  13
HETATM   13  O   UNL     1     -11.330   6.772  72.059  1.00  0.00    -0.251 OA 
BRANCH  13  14
HETATM   14  C   UNL     1     -12.210   6.977  70.954  1.00  0.00    -0.342 C  
BRANCH  14  15
HETATM   15  C   UNL     1     -13.647   7.099  71.449  1.00  0.00    -0.368 C  
BRANCH  15  16
HETATM   16  C   UNL     1     -13.928   8.483  72.042  1.00  0.00    -0.494 C  
BRANCH  16  17
HETATM   17  C   UNL     1     -13.558   9.672  71.136  1.00  0.00    -0.168 C  
BRANCH  17  18
HETATM   18  N   UNL     1     -12.599  10.613  71.728  1.00  0.00    -0.364 NA 
HETATM   19  C   UNL     1     -11.300  10.655  71.013  1.00  0.00     0.148 C  
HETATM   20  C   UNL     1     -11.330  11.313  69.611  1.00  0.00    -0.287 C  
HETATM   21  N   UNL     1     -11.944  12.644  69.683  1.00  0.00    -0.309 NA 
HETATM   22  C   UNL     1     -13.149  11.996  71.746  1.00  0.00    -0.355 C  
HETATM   23  C   UNL     1     -13.249  12.691  70.361  1.00  0.00     0.837 C  
BRANCH  21  24
HETATM   24  C   UNL     1     -11.602  13.642  68.765  1.00  0.00    -0.324 A  
HETATM   25  C   UNL     1     -11.470  13.467  67.344  1.00  0.00    -0.366 A  
HETATM   26  C   UNL     1     -11.825  12.370  66.472  1.00  0.00    -0.407 A  
HETATM   27  C   UNL     1     -11.479  12.563  65.157  1.00  0.00    -0.328 A  
HETATM   28  S   UNL     1     -10.774  14.087  64.910  1.00  0.00    -0.430 SA 
HETATM   29  C   UNL     1     -10.935  14.512  66.576  1.00  0.00    -0.321 A  
HETATM   30  C   UNL     1     -10.569  15.747  67.137  1.00  0.00    -0.313 A  
HETATM   31  C   UNL     1     -10.756  15.942  68.496  1.00  0.00    -0.274 A  
HETATM   32  C   UNL     1     -11.256  14.913  69.284  1.00  0.00    -0.300 A  
ENDBRANCH  21  24
ENDBRANCH  17  18
ENDBRANCH  16  17
ENDBRANCH  15  16
ENDBRANCH  14  15
ENDBRANCH  13  14
ENDBRANCH   7  13
TORSDOF 7
ENDMDL
MODEL      263
REMARK 921   NORMALIZED FREE ENERGY PREDICTED BY IDOCK:   -3.71 KCAL/MOL
REMARK 922        TOTAL FREE ENERGY PREDICTED BY IDOCK:   -6.54 KCAL/MOL
REMARK 923 INTER-LIGAND FREE ENERGY PREDICTED BY IDOCK:   -5.80 KCAL/MOL
REMARK 924 INTRA-LIGAND FREE ENERGY PREDICTED BY IDOCK:   -0.74 KCAL/MOL
REMARK 927      BINDING AFFINITY PREDICTED BY RF-SCORE:    0.00 PKD
ROOT
HETATM    1  O   UNL     1      -6.652  20.684  71.250  1.00  0.00    -0.430 OA 
HETATM    2  C   UNL     1      -6.511  20.285  70.099  1.00  0.00    -0.198 C  
HETATM    3  N   UNL     1      -7.201  19.213  69.604  1.00  0.00    -0.075 N  
HETATM    4  C   UNL     1      -7.032  18.720  68.303  1.00  0.00    -0.246 A  
HETATM    5  H   UNL     1      -7.873  18.747  70.214  1.00  0.00     0.000 HD 
HETATM    6  C   UNL     1      -7.759  17.609  67.877  1.00  0.00    -0.216 A  
HETATM    7  C   UNL     1      -7.568  17.107  66.588  1.00  0.00    -0.264 A  
HETATM    8  C   UNL     1      -5.569  20.960  69.173  1.00  0.00    -0.394 C  
HETATM    9  C   UNL     1      -6.645  17.730  65.737  1.00  0.00    -0.221 A  
HETATM   10  C   UNL     1      -5.383  20.522  67.922  1.00  0.00    -0.240 C  
HETATM   11  C   UNL     1      -5.924  18.848  66.162  1.00  0.00    -0.192 A  
HETATM   12  C   UNL     1      -6.118  19.351  67.447  1.00  0.00    -0.199 A  
ENDROOT
BRANCH   7  13
HETATM   13  O   UNL     1      -8.334  16.014  66.272  1.00  0.00    -0.308 OA 
BRANCH  13  14
HETATM   14  C   UNL     1      -9.721  16.132  66.587  1.00  0.00    -0.244 C  
BRANCH  14  15
HETATM   15  C   UNL     1     -10.561  15.473  65.497  1.00  0.00    -0.413 C  
BRANCH  15  16
HETATM   16  C   UNL     1     -11.445  14.355  66.057  1.00  0.00    -0.349 C  
BRANCH  16  17
HETATM   17  C   UNL     1     -10.688  13.123  66.586  1.00  0.00    -0.279 C  
BRANCH  17  18
HETATM   18  N   UNL     1     -10.350  12.129  65.560  1.00  0.00    -0.255 NA 
HETATM   19  C   UNL     1      -8.901  11.812  65.503  1.00  0.00     0.192 C  
HETATM   20  C   UNL     1      -8.347  11.004  66.703  1.00  0.00    -0.155 C  
HETATM   21  N   UNL     1      -9.150   9.796  66.920  1.00  0.00    -0.141 NA 
HETATM   22  C   UNL     1     -11.082  10.853  65.790  1.00  0.00     0.122 C  
HETATM   23  C   UNL     1     -10.602  10.021  67.010  1.00  0.00    -0.212 C  
BRANCH  21  24
HETATM   24  C   UNL     1      -8.587   8.656  67.504  1.00  0.00    -0.135 A  
HETATM   25  C   UNL     1      -8.315   8.476  68.904  1.00  0.00    -0.118 A  
HETATM   26  C   UNL     1      -8.698   9.247  70.066  1.00  0.00    -0.208 A  
HETATM   27  C   UNL     1      -8.182   8.775  71.248  1.00  0.00    -0.167 A  
HETATM   28  S   UNL     1      -7.275   7.360  71.017  1.00  0.00    -0.068 SA 
HETATM   29  C   UNL     1      -7.574   7.359  69.316  1.00  0.00    -0.101 A  
HETATM   30  C   UNL     1      -7.128   6.377  68.414  1.00  0.00    -0.083 A  
HETATM   31  C   UNL     1      -7.446   6.514  67.072  1.00  0.00    -0.087 A  
HETATM   32  C   UNL     1      -8.153   7.626  66.634  1.00  0.00    -0.119 A  
ENDBRANCH  21  24
ENDBRANCH  17  18
ENDBRANCH  16  17
ENDBRANCH  15  16
ENDBRANCH  14  15
ENDBRANCH  13  14
ENDBRANCH   7  13
TORSDOF 7
ENDMDL
MODEL      264
REMARK 921   NORMALIZED FREE ENERGY PREDICTED BY IDOCK:   -3.71 KCAL/MOL
REMARK 922        TOTAL FREE ENERGY PREDICTED BY IDOCK:   -6.53 KCAL/MOL
REMARK 923 INTER-LIGAND FREE ENERGY PREDICTED BY IDOCK:   -5.74 KCAL/MOL
REMARK 924 INTRA-LIGAND FREE ENERGY PREDICTED BY IDOCK:   -0.79 KCAL/MOL
REMARK 927      BINDING AFFINITY PREDICTED BY RF-SCORE:    0.00 PKD
ROOT
HETATM    1  O   UNL     1      -9.729   2.782  70.684  1.00  0.00    -0.134 OA 
HETATM    2  C   UNL     1      -9.526   3.865  70.146  1.00  0.00    -0.191 C  
HETATM    3  N   UNL     1      -9.961   5.045  70.683  1.00  0.00    -0.213 N  
HETATM    4  C   UNL     1      -9.767   6.290  70.071  1.00  0.00    -0.168 A  
HETATM    5  H   UNL     1     -10.452   5.017  71.577  1.00  0.00     0.000 HD 
HETATM    6  C   UNL     1     -10.258   7.448  70.673  1.00  0.00    -0.202 A  
HETATM    7  C   UNL     1     -10.084   8.684  70.044  1.00  0.00    -0.189 A  
HETATM    8  C   UNL     1      -8.782   3.946  68.865  1.00  0.00    -0.132 C  
HETATM    9  C   UNL     1      -9.416   8.742  68.814  1.00  0.00    -0.142 A  
HETATM   10  C   UNL     1      -8.574   5.118  68.251  1.00  0.00    -0.098 C  
HETATM   11  C   UNL     1      -8.917   7.582  68.217  1.00  0.00    -0.130 A  
HETATM   12  C   UNL     1      -9.087   6.350  68.846  1.00  0.00    -0.129 A  
ENDROOT
BRANCH   7  13
HETATM   13  O   UNL     1     -10.604   9.757  70.723  1.00  0.00    -0.304 OA 
BRANCH  13  14
HETATM   14  C   UNL     1     -11.943   9.592  71.187  1.00  0.00    -0.367 C  
BRANCH  14  15
HETATM   15  C   UNL     1     -12.700  10.912  71.076  1.00  0.00    -0.505 C  
BRANCH  15  16
HETATM   16  C   UNL     1     -11.867  11.986  70.369  1.00  0.00    -0.302 C  
BRANCH  16  17
HETATM   17  C   UNL     1     -12.429  12.469  69.020  1.00  0.00     0.446 C  
BRANCH  17  18
HETATM   18  N   UNL     1     -11.567  13.419  68.306  1.00  0.00    -0.321 NA 
HETATM   19  C   UNL     1     -10.132  13.292  68.661  1.00  0.00    -0.146 C  
HETATM   20  C   UNL     1      -9.427  12.012  68.145  1.00  0.00    -0.200 C  
HETATM   21  N   UNL     1      -9.636  11.860  66.701  1.00  0.00    -0.204 NA 
HETATM   22  C   UNL     1     -11.684  13.244  66.832  1.00  0.00    -0.388 C  
HETATM   23  C   UNL     1     -11.038  11.952  66.262  1.00  0.00    -0.314 C  
BRANCH  21  24
HETATM   24  C   UNL     1      -8.704  11.181  65.909  1.00  0.00    -0.164 A  
HETATM   25  C   UNL     1      -8.895  10.780  64.543  1.00  0.00    -0.143 A  
HETATM   26  C   UNL     1      -9.922  11.108  63.578  1.00  0.00    -0.425 A  
HETATM   27  C   UNL     1      -9.785  10.464  62.372  1.00  0.00    -0.027 A  
HETATM   28  S   UNL     1      -8.392   9.497  62.331  1.00  0.00    -0.169 SA 
HETATM   29  C   UNL     1      -7.948   9.940  63.939  1.00  0.00    -0.149 A  
HETATM   30  C   UNL     1      -6.787   9.514  64.607  1.00  0.00    -0.101 A  
HETATM   31  C   UNL     1      -6.566   9.953  65.903  1.00  0.00    -0.091 A  
HETATM   32  C   UNL     1      -7.504  10.761  66.533  1.00  0.00    -0.139 A  
ENDBRANCH  21  24
ENDBRANCH  17  18
ENDBRANCH  16  17
ENDBRANCH  15  16
ENDBRANCH  14  15
ENDBRANCH  13  14
ENDBRANCH   7  13
TORSDOF 7
ENDMDL
MODEL      265
REMARK 921   NORMALIZED FREE ENERGY PREDICTED BY IDOCK:   -3.67 KCAL/MOL
REMARK 922        TOTAL FREE ENERGY PREDICTED BY IDOCK:   -6.47 KCAL/MOL
REMARK 923 INTER-LIGAND FREE ENERGY PREDICTED BY IDOCK:   -6.47 KCAL/MOL
REMARK 924 INTRA-LIGAND FREE ENERGY PREDICTED BY IDOCK:   -0.00 KCAL/MOL
REMARK 927      BINDING AFFINITY PREDICTED BY RF-SCORE:    0.00 PKD
ROOT
HETATM    1  O   UNL     1     -10.287  20.416  66.952  1.00  0.00    -0.367 OA 
HETATM    2  C   UNL     1      -9.333  19.646  66.937  1.00  0.00    -0.355 C  
HETATM    3  N   UNL     1      -9.307  18.495  67.675  1.00  0.00    -0.279 N  
HETATM    4  C   UNL     1      -8.214  17.617  67.697  1.00  0.00    -0.224 A  
HETATM    5  H   UNL     1     -10.125  18.263  68.238  1.00  0.00     0.000 HD 
HETATM    6  C   UNL     1      -8.256  16.471  68.490  1.00  0.00    -0.212 A  
HETATM    7  C   UNL     1      -7.154  15.613  68.528  1.00  0.00    -0.116 A  
HETATM    8  C   UNL     1      -8.141  19.933  66.101  1.00  0.00    -0.347 C  
HETATM    9  C   UNL     1      -6.019  15.917  67.764  1.00  0.00    -0.167 A  
HETATM   10  C   UNL     1      -7.081  19.117  66.093  1.00  0.00    -0.273 C  
HETATM   11  C   UNL     1      -5.983  17.061  66.964  1.00  0.00    -0.214 A  
HETATM   12  C   UNL     1      -7.084  17.914  66.923  1.00  0.00    -0.212 A  
ENDROOT
BRANCH   7  13
HETATM   13  O   UNL     1      -7.302  14.516  69.339  1.00  0.00    -0.145 OA 
BRANCH  13  14
HETATM   14  C   UNL     1      -6.308  13.504  69.180  1.00  0.00    -0.101 C  
BRANCH  14  15
HETATM   15  C   UNL     1      -6.974  12.154  68.938  1.00  0.00    -0.102 C  
BRANCH  15  16
HETATM   16  C   UNL     1      -6.165  11.287  67.968  1.00  0.00    -0.049 C  
BRANCH  16  17
HETATM   17  C   UNL     1      -6.987  10.597  66.864  1.00  0.00    -0.100 C  
BRANCH  17  18
HETATM   18  N   UNL     1      -7.221   9.164  67.084  1.00  0.00    -0.086 NA 
HETATM   19  C   UNL     1      -6.847   8.709  68.446  1.00  0.00    -0.065 C  
HETATM   20  C   UNL     1      -7.766   9.202  69.591  1.00  0.00    -0.082 C  
HETATM   21  N   UNL     1      -9.168   8.892  69.291  1.00  0.00    -0.144 NA 
HETATM   22  C   UNL     1      -8.653   8.818  66.871  1.00  0.00    -0.115 C  
HETATM   23  C   UNL     1      -9.631   9.328  67.964  1.00  0.00    -0.142 C  
BRANCH  21  24
HETATM   24  C   UNL     1     -10.095   8.696  70.320  1.00  0.00    -0.187 A  
HETATM   25  C   UNL     1     -10.329   7.460  71.016  1.00  0.00    -0.201 A  
HETATM   26  C   UNL     1      -9.604   6.209  71.025  1.00  0.00    -0.194 A  
HETATM   27  C   UNL     1     -10.190   5.226  71.786  1.00  0.00    -0.210 A  
HETATM   28  S   UNL     1     -11.591   5.786  72.564  1.00  0.00    -0.195 SA 
HETATM   29  C   UNL     1     -11.421   7.367  71.891  1.00  0.00    -0.266 A  
HETATM   30  C   UNL     1     -12.270   8.456  72.154  1.00  0.00    -0.434 A  
HETATM   31  C   UNL     1     -12.007   9.668  71.535  1.00  0.00    -0.485 A  
HETATM   32  C   UNL     1     -10.950   9.778  70.641  1.00  0.00    -0.398 A  
ENDBRANCH  21  24
ENDBRANCH  17  18
ENDBRANCH  16  17
ENDBRANCH  15  16
ENDBRANCH  14  15
ENDBRANCH  13  14
ENDBRANCH   7  13
TORSDOF 7
ENDMDL
MODEL      266
REMARK 921   NORMALIZED FREE ENERGY PREDICTED BY IDOCK:   -3.65 KCAL/MOL
REMARK 922        TOTAL FREE ENERGY PREDICTED BY IDOCK:   -6.45 KCAL/MOL
REMARK 923 INTER-LIGAND FREE ENERGY PREDICTED BY IDOCK:   -6.99 KCAL/MOL
REMARK 924 INTRA-LIGAND FREE ENERGY PREDICTED BY IDOCK:    0.54 KCAL/MOL
REMARK 927      BINDING AFFINITY PREDICTED BY RF-SCORE:    0.00 PKD
ROOT
HETATM    1  O   UNL     1      -9.853  19.998  65.954  1.00  0.00    -0.430 OA 
HETATM    2  C   UNL     1      -8.895  19.440  66.478  1.00  0.00    -0.352 C  
HETATM    3  N   UNL     1      -9.009  18.244  67.131  1.00  0.00    -0.259 N  
HETATM    4  C   UNL     1      -7.935  17.604  67.764  1.00  0.00    -0.218 A  
HETATM    5  H   UNL     1      -9.924  17.795  67.160  1.00  0.00     0.000 HD 
HETATM    6  C   UNL     1      -8.135  16.394  68.427  1.00  0.00    -0.188 A  
HETATM    7  C   UNL     1      -7.066  15.774  69.078  1.00  0.00    -0.159 A  
HETATM    8  C   UNL     1      -7.542  20.047  66.424  1.00  0.00    -0.320 C  
HETATM    9  C   UNL     1      -5.802  16.378  69.054  1.00  0.00    -0.136 A  
HETATM   10  C   UNL     1      -6.491  19.464  67.013  1.00  0.00    -0.201 C  
HETATM   11  C   UNL     1      -5.601  17.586  68.381  1.00  0.00    -0.151 A  
HETATM   12  C   UNL     1      -6.667  18.202  67.729  1.00  0.00    -0.204 A  
ENDROOT
BRANCH   7  13
HETATM   13  O   UNL     1      -7.373  14.589  69.697  1.00  0.00    -0.112 OA 
BRANCH  13  14
HETATM   14  C   UNL     1      -6.766  13.430  69.128  1.00  0.00    -0.099 C  
BRANCH  14  15
HETATM   15  C   UNL     1      -7.755  12.722  68.208  1.00  0.00    -0.136 C  
BRANCH  15  16
HETATM   16  C   UNL     1      -7.832  11.221  68.502  1.00  0.00    -0.138 C  
BRANCH  16  17
HETATM   17  C   UNL     1      -8.000  10.318  67.267  1.00  0.00    -0.107 C  
BRANCH  17  18
HETATM   18  N   UNL     1      -9.132   9.386  67.343  1.00  0.00    -0.127 NA 
HETATM   19  C   UNL     1      -9.294   8.766  68.681  1.00  0.00    -0.141 C  
HETATM   20  C   UNL     1      -9.788   9.715  69.801  1.00  0.00    -0.229 C  
HETATM   21  N   UNL     1     -11.012  10.408  69.382  1.00  0.00    -0.235 NA 
HETATM   22  C   UNL     1     -10.411  10.069  67.005  1.00  0.00    -0.243 C  
HETATM   23  C   UNL     1     -10.932  11.071  68.070  1.00  0.00    -0.258 C  
BRANCH  21  24
HETATM   24  C   UNL     1     -11.948  10.845  70.325  1.00  0.00    -0.361 A  
HETATM   25  C   UNL     1     -12.253  12.215  70.635  1.00  0.00    -0.392 A  
HETATM   26  C   UNL     1     -11.887  13.453  69.983  1.00  0.00    -0.364 A  
HETATM   27  C   UNL     1     -12.332  14.581  70.630  1.00  0.00    -0.339 A  
HETATM   28  S   UNL     1     -13.254  14.195  72.001  1.00  0.00    -0.440 SA 
HETATM   29  C   UNL     1     -13.073  12.499  71.736  1.00  0.00    -0.347 A  
HETATM   30  C   UNL     1     -13.653  11.488  72.523  1.00  0.00     0.534 A  
HETATM   31  C   UNL     1     -13.414  10.165  72.187  1.00  0.00    -0.371 A  
HETATM   32  C   UNL     1     -12.581   9.858  71.119  1.00  0.00    -0.464 A  
ENDBRANCH  21  24
ENDBRANCH  17  18
ENDBRANCH  16  17
ENDBRANCH  15  16
ENDBRANCH  14  15
ENDBRANCH  13  14
ENDBRANCH   7  13
TORSDOF 7
ENDMDL
MODEL      267
REMARK 921   NORMALIZED FREE ENERGY PREDICTED BY IDOCK:   -3.65 KCAL/MOL
REMARK 922        TOTAL FREE ENERGY PREDICTED BY IDOCK:   -6.45 KCAL/MOL
REMARK 923 INTER-LIGAND FREE ENERGY PREDICTED BY IDOCK:   -5.58 KCAL/MOL
REMARK 924 INTRA-LIGAND FREE ENERGY PREDICTED BY IDOCK:   -0.87 KCAL/MOL
REMARK 927      BINDING AFFINITY PREDICTED BY RF-SCORE:    0.00 PKD
ROOT
HETATM    1  O   UNL     1      -9.081  10.508  62.610  1.00  0.00    -0.227 OA 
HETATM    2  C   UNL     1      -8.246  10.188  63.449  1.00  0.00    -0.164 C  
HETATM    3  N   UNL     1      -8.238  10.708  64.713  1.00  0.00    -0.335 N  
HETATM    4  C   UNL     1      -7.275  10.379  65.678  1.00  0.00    -0.146 A  
HETATM    5  H   UNL     1      -8.970  11.371  64.968  1.00  0.00     0.000 HD 
HETATM    6  C   UNL     1      -7.322  10.968  66.941  1.00  0.00    -0.133 A  
HETATM    7  C   UNL     1      -6.345  10.656  67.889  1.00  0.00    -0.058 A  
HETATM    8  C   UNL     1      -7.188   9.198  63.125  1.00  0.00    -0.091 C  
HETATM    9  C   UNL     1      -5.328   9.751  67.556  1.00  0.00    -0.036 A  
HETATM   10  C   UNL     1      -6.254   8.856  64.020  1.00  0.00    -0.072 C  
HETATM   11  C   UNL     1      -5.288   9.156  66.293  1.00  0.00    -0.040 A  
HETATM   12  C   UNL     1      -6.265   9.464  65.349  1.00  0.00    -0.065 A  
ENDROOT
BRANCH   7  13
HETATM   13  O   UNL     1      -6.487  11.289  69.097  1.00  0.00    -0.065 OA 
BRANCH  13  14
HETATM   14  C   UNL     1      -5.383  12.104  69.491  1.00  0.00    -0.070 C  
BRANCH  14  15
HETATM   15  C   UNL     1      -5.221  13.267  68.518  1.00  0.00    -0.076 C  
BRANCH  15  16
HETATM   16  C   UNL     1      -5.311  14.620  69.230  1.00  0.00    -0.088 C  
BRANCH  16  17
HETATM   17  C   UNL     1      -5.594  15.825  68.314  1.00  0.00    -0.115 C  
BRANCH  17  18
HETATM   18  N   UNL     1      -6.765  16.623  68.702  1.00  0.00    -0.155 NA 
HETATM   19  C   UNL     1      -7.273  17.490  67.610  1.00  0.00    -0.169 C  
HETATM   20  C   UNL     1      -7.961  16.750  66.436  1.00  0.00    -0.321 C  
HETATM   21  N   UNL     1      -9.008  15.855  66.939  1.00  0.00    -0.214 NA 
HETATM   22  C   UNL     1      -7.886  15.748  69.142  1.00  0.00    -0.227 C  
HETATM   23  C   UNL     1      -8.585  14.943  68.014  1.00  0.00    -0.160 C  
BRANCH  21  24
HETATM   24  C   UNL     1     -10.113  15.527  66.146  1.00  0.00    -0.309 A  
HETATM   25  C   UNL     1     -10.729  14.232  66.056  1.00  0.00    -0.304 A  
HETATM   26  C   UNL     1     -10.559  13.028  66.840  1.00  0.00    -0.260 A  
HETATM   27  C   UNL     1     -11.298  11.959  66.396  1.00  0.00    -0.339 A  
HETATM   28  S   UNL     1     -12.265  12.374  65.065  1.00  0.00    -0.323 SA 
HETATM   29  C   UNL     1     -11.707  14.008  65.076  1.00  0.00    -0.364 A  
HETATM   30  C   UNL     1     -12.148  15.022  64.208  1.00  0.00    -0.323 A  
HETATM   31  C   UNL     1     -11.604  16.290  64.336  1.00  0.00    -0.056 A  
HETATM   32  C   UNL     1     -10.612  16.529  65.279  1.00  0.00    -0.273 A  
ENDBRANCH  21  24
ENDBRANCH  17  18
ENDBRANCH  16  17
ENDBRANCH  15  16
ENDBRANCH  14  15
ENDBRANCH  13  14
ENDBRANCH   7  13
TORSDOF 7
ENDMDL
MODEL      268
REMARK 921   NORMALIZED FREE ENERGY PREDICTED BY IDOCK:   -3.61 KCAL/MOL
REMARK 922        TOTAL FREE ENERGY PREDICTED BY IDOCK:   -6.39 KCAL/MOL
REMARK 923 INTER-LIGAND FREE ENERGY PREDICTED BY IDOCK:   -5.66 KCAL/MOL
REMARK 924 INTRA-LIGAND FREE ENERGY PREDICTED BY IDOCK:   -0.72 KCAL/MOL
REMARK 927      BINDING AFFINITY PREDICTED BY RF-SCORE:    0.00 PKD
ROOT
HETATM    1  O   UNL     1     -12.431  15.886  63.847  1.00  0.00    -0.760 OA 
HETATM    2  C   UNL     1     -12.015  14.802  64.239  1.00  0.00    -0.368 C  
HETATM    3  N   UNL     1     -11.027  14.690  65.178  1.00  0.00    -0.361 N  
HETATM    4  C   UNL     1     -10.514  13.462  65.618  1.00  0.00    -0.290 A  
HETATM    5  H   UNL     1     -10.642  15.546  65.579  1.00  0.00     0.000 HD 
HETATM    6  C   UNL     1      -9.492  13.432  66.566  1.00  0.00    -0.252 A  
HETATM    7  C   UNL     1      -8.968  12.205  66.982  1.00  0.00    -0.201 A  
HETATM    8  C   UNL     1     -12.577  13.536  63.706  1.00  0.00    -0.147 C  
HETATM    9  C   UNL     1      -9.480  11.019  66.439  1.00  0.00    -0.218 A  
HETATM   10  C   UNL     1     -12.117  12.344  64.105  1.00  0.00    -0.539 C  
HETATM   11  C   UNL     1     -10.510  11.051  65.497  1.00  0.00    -0.302 A  
HETATM   12  C   UNL     1     -11.036  12.275  65.085  1.00  0.00    -0.344 A  
ENDROOT
BRANCH   7  13
HETATM   13  O   UNL     1      -7.967  12.290  67.916  1.00  0.00    -0.130 OA 
BRANCH  13  14
HETATM   14  C   UNL     1      -6.661  12.524  67.391  1.00  0.00    -0.147 C  
BRANCH  14  15
HETATM   15  C   UNL     1      -5.674  11.526  67.986  1.00  0.00    -0.043 C  
BRANCH  15  16
HETATM   16  C   UNL     1      -6.387  10.320  68.604  1.00  0.00    -0.051 C  
BRANCH  16  17
HETATM   17  C   UNL     1      -6.595   9.125  67.656  1.00  0.00    -0.064 C  
BRANCH  17  18
HETATM   18  N   UNL     1      -5.685   7.996  67.890  1.00  0.00    -0.037 NA 
HETATM   19  C   UNL     1      -5.463   7.708  69.329  1.00  0.00    -0.019 C  
HETATM   20  C   UNL     1      -6.673   7.102  70.083  1.00  0.00    -0.051 C  
HETATM   21  N   UNL     1      -7.179   5.922  69.374  1.00  0.00    -0.065 NA 
HETATM   22  C   UNL     1      -6.203   6.752  67.257  1.00  0.00    -0.036 C  
HETATM   23  C   UNL     1      -7.447   6.124  67.942  1.00  0.00    -0.085 C  
BRANCH  21  24
HETATM   24  C   UNL     1      -7.833   4.896  70.065  1.00  0.00    -0.066 A  
HETATM   25  C   UNL     1      -8.893   5.070  71.021  1.00  0.00    -0.153 A  
HETATM   26  C   UNL     1      -9.690   6.223  71.375  1.00  0.00    -0.191 A  
HETATM   27  C   UNL     1     -10.580   5.998  72.398  1.00  0.00    -0.217 A  
HETATM   28  S   UNL     1     -10.535   4.386  72.925  1.00  0.00    -0.190 SA 
HETATM   29  C   UNL     1      -9.320   3.966  71.773  1.00  0.00    -0.134 A  
HETATM   30  C   UNL     1      -8.783   2.679  71.592  1.00  0.00    -0.112 A  
HETATM   31  C   UNL     1      -7.807   2.496  70.625  1.00  0.00    -0.046 A  
HETATM   32  C   UNL     1      -7.347   3.578  69.887  1.00  0.00    -0.041 A  
ENDBRANCH  21  24
ENDBRANCH  17  18
ENDBRANCH  16  17
ENDBRANCH  15  16
ENDBRANCH  14  15
ENDBRANCH  13  14
ENDBRANCH   7  13
TORSDOF 7
ENDMDL
MODEL      269
REMARK 921   NORMALIZED FREE ENERGY PREDICTED BY IDOCK:   -3.60 KCAL/MOL
REMARK 922        TOTAL FREE ENERGY PREDICTED BY IDOCK:   -6.37 KCAL/MOL
REMARK 923 INTER-LIGAND FREE ENERGY PREDICTED BY IDOCK:   -6.07 KCAL/MOL
REMARK 924 INTRA-LIGAND FREE ENERGY PREDICTED BY IDOCK:   -0.30 KCAL/MOL
REMARK 927      BINDING AFFINITY PREDICTED BY RF-SCORE:    0.00 PKD
ROOT
HETATM    1  O   UNL     1     -10.311   5.556  74.143  1.00  0.00    -0.244 OA 
HETATM    2  C   UNL     1     -10.280   5.908  72.969  1.00  0.00    -0.192 C  
HETATM    3  N   UNL     1     -10.853   7.071  72.535  1.00  0.00    -0.238 N  
HETATM    4  C   UNL     1     -10.856   7.477  71.194  1.00  0.00    -0.238 A  
HETATM    5  H   UNL     1     -11.302   7.675  73.224  1.00  0.00     0.000 HD 
HETATM    6  C   UNL     1     -11.479   8.670  70.827  1.00  0.00    -0.293 A  
HETATM    7  C   UNL     1     -11.501   9.056  69.485  1.00  0.00     0.315 A  
HETATM    8  C   UNL     1      -9.603   5.073  71.946  1.00  0.00    -0.199 C  
HETATM    9  C   UNL     1     -10.893   8.238  68.523  1.00  0.00     0.041 A  
HETATM   10  C   UNL     1      -9.581   5.429  70.656  1.00  0.00    -0.228 C  
HETATM   11  C   UNL     1     -10.262   7.049  68.894  1.00  0.00    -0.183 A  
HETATM   12  C   UNL     1     -10.237   6.665  70.233  1.00  0.00    -0.215 A  
ENDROOT
BRANCH   7  13
HETATM   13  O   UNL     1     -12.138  10.245  69.235  1.00  0.00    -0.052 OA 
BRANCH  13  14
HETATM   14  C   UNL     1     -11.926  11.266  70.209  1.00  0.00    -0.379 C  
BRANCH  14  15
HETATM   15  C   UNL     1     -12.238  12.633  69.608  1.00  0.00    -0.177 C  
BRANCH  15  16
HETATM   16  C   UNL     1     -11.831  13.773  70.547  1.00  0.00    -0.296 C  
BRANCH  16  17
HETATM   17  C   UNL     1     -11.872  15.180  69.925  1.00  0.00    -0.330 C  
BRANCH  17  18
HETATM   18  N   UNL     1     -11.356  15.254  68.551  1.00  0.00    -0.310 NA 
HETATM   19  C   UNL     1     -11.396  16.624  67.982  1.00  0.00    -0.052 C  
HETATM   20  C   UNL     1     -10.386  17.629  68.590  1.00  0.00    -0.359 C  
HETATM   21  N   UNL     1      -9.028  17.074  68.555  1.00  0.00    -0.256 NA 
HETATM   22  C   UNL     1      -9.948  14.778  68.483  1.00  0.00    -0.228 C  
HETATM   23  C   UNL     1      -8.894  15.723  69.120  1.00  0.00    -0.250 C  
BRANCH  21  24
HETATM   24  C   UNL     1      -7.912  17.915  68.491  1.00  0.00    -0.298 A  
HETATM   25  C   UNL     1      -7.708  18.971  67.538  1.00  0.00    -0.262 A  
HETATM   26  C   UNL     1      -8.597  19.584  66.576  1.00  0.00    -0.374 A  
HETATM   27  C   UNL     1      -8.001  20.540  65.789  1.00  0.00     0.228 A  
HETATM   28  S   UNL     1      -6.376  20.781  66.217  1.00  0.00    -0.251 SA 
HETATM   29  C   UNL     1      -6.458  19.603  67.477  1.00  0.00    -0.207 A  
HETATM   30  C   UNL     1      -5.406  19.277  68.352  1.00  0.00    -0.197 A  
HETATM   31  C   UNL     1      -5.621  18.304  69.316  1.00  0.00    -0.210 A  
HETATM   32  C   UNL     1      -6.841  17.643  69.377  1.00  0.00    -0.135 A  
ENDBRANCH  21  24
ENDBRANCH  17  18
ENDBRANCH  16  17
ENDBRANCH  15  16
ENDBRANCH  14  15
ENDBRANCH  13  14
ENDBRANCH   7  13
TORSDOF 7
ENDMDL
MODEL      270
REMARK 921   NORMALIZED FREE ENERGY PREDICTED BY IDOCK:   -3.59 KCAL/MOL
REMARK 922        TOTAL FREE ENERGY PREDICTED BY IDOCK:   -6.37 KCAL/MOL
REMARK 923 INTER-LIGAND FREE ENERGY PREDICTED BY IDOCK:   -4.99 KCAL/MOL
REMARK 924 INTRA-LIGAND FREE ENERGY PREDICTED BY IDOCK:   -1.38 KCAL/MOL
REMARK 927      BINDING AFFINITY PREDICTED BY RF-SCORE:    0.00 PKD
ROOT
HETATM    1  O   UNL     1     -12.118  11.930  67.353  1.00  0.00    -0.577 OA 
HETATM    2  C   UNL     1     -11.025  11.375  67.306  1.00  0.00    -0.282 C  
HETATM    3  N   UNL     1     -10.750  10.367  66.425  1.00  0.00    -0.121 N  
HETATM    4  C   UNL     1      -9.519   9.698  66.375  1.00  0.00    -0.189 A  
HETATM    5  H   UNL     1     -11.480  10.086  65.769  1.00  0.00     0.000 HD 
HETATM    6  C   UNL     1      -9.322   8.666  65.459  1.00  0.00    -0.105 A  
HETATM    7  C   UNL     1      -8.102   7.986  65.432  1.00  0.00    -0.135 A  
HETATM    8  C   UNL     1      -9.930  11.783  68.221  1.00  0.00    -0.200 C  
HETATM    9  C   UNL     1      -7.090   8.354  66.329  1.00  0.00    -0.077 A  
HETATM   10  C   UNL     1      -8.739  11.171  68.201  1.00  0.00    -0.144 C  
HETATM   11  C   UNL     1      -7.286   9.394  67.240  1.00  0.00    -0.087 A  
HETATM   12  C   UNL     1      -8.502  10.075  67.263  1.00  0.00    -0.122 A  
ENDROOT
BRANCH   7  13
HETATM   13  O   UNL     1      -8.015   6.990  64.493  1.00  0.00    -0.122 OA 
BRANCH  13  14
HETATM   14  C   UNL     1      -6.876   6.138  64.613  1.00  0.00    -0.047 C  
BRANCH  14  15
HETATM   15  C   UNL     1      -7.296   4.681  64.456  1.00  0.00    -0.070 C  
BRANCH  15  16
HETATM   16  C   UNL     1      -6.548   3.765  65.429  1.00  0.00    -0.040 C  
BRANCH  16  17
HETATM   17  C   UNL     1      -7.442   2.886  66.322  1.00  0.00    -0.075 C  
BRANCH  17  18
HETATM   18  N   UNL     1      -6.937   2.692  67.688  1.00  0.00    -0.048 NA 
HETATM   19  C   UNL     1      -6.584   3.961  68.370  1.00  0.00    -0.045 C  
HETATM   20  C   UNL     1      -7.780   4.863  68.765  1.00  0.00    -0.077 C  
HETATM   21  N   UNL     1      -8.764   4.097  69.537  1.00  0.00    -0.079 NA 
HETATM   22  C   UNL     1      -7.941   1.990  68.533  1.00  0.00    -0.052 C  
HETATM   23  C   UNL     1      -9.188   2.829  68.922  1.00  0.00    -0.161 C  
BRANCH  21  24
HETATM   24  C   UNL     1      -9.597   4.731  70.466  1.00  0.00    -0.187 A  
HETATM   25  C   UNL     1     -10.081   6.081  70.376  1.00  0.00    -0.249 A  
HETATM   26  C   UNL     1     -10.047   7.046  69.300  1.00  0.00    -0.178 A  
HETATM   27  C   UNL     1     -10.571   8.273  69.628  1.00  0.00    -0.222 A  
HETATM   28  S   UNL     1     -11.178   8.292  71.213  1.00  0.00    -0.269 SA 
HETATM   29  C   UNL     1     -10.749   6.640  71.475  1.00  0.00    -0.230 A  
HETATM   30  C   UNL     1     -11.009   5.911  72.648  1.00  0.00    -0.305 A  
HETATM   31  C   UNL     1     -10.601   4.587  72.713  1.00  0.00    -0.263 A  
HETATM   32  C   UNL     1      -9.912   4.020  71.649  1.00  0.00    -0.232 A  
ENDBRANCH  21  24
ENDBRANCH  17  18
ENDBRANCH  16  17
ENDBRANCH  15  16
ENDBRANCH  14  15
ENDBRANCH  13  14
ENDBRANCH   7  13
TORSDOF 7
ENDMDL
MODEL      271
REMARK 921   NORMALIZED FREE ENERGY PREDICTED BY IDOCK:   -3.56 KCAL/MOL
REMARK 922        TOTAL FREE ENERGY PREDICTED BY IDOCK:   -6.31 KCAL/MOL
REMARK 923 INTER-LIGAND FREE ENERGY PREDICTED BY IDOCK:   -5.17 KCAL/MOL
REMARK 924 INTRA-LIGAND FREE ENERGY PREDICTED BY IDOCK:   -1.14 KCAL/MOL
REMARK 927      BINDING AFFINITY PREDICTED BY RF-SCORE:    0.00 PKD
ROOT
HETATM    1  O   UNL     1      -7.948   3.614  71.146  1.00  0.00    -0.058 OA 
HETATM    2  C   UNL     1      -8.144   3.692  69.938  1.00  0.00    -0.053 C  
HETATM    3  N   UNL     1      -7.265   4.307  69.090  1.00  0.00    -0.051 N  
HETATM    4  C   UNL     1      -7.484   4.436  67.711  1.00  0.00    -0.069 A  
HETATM    5  H   UNL     1      -6.406   4.693  69.481  1.00  0.00     0.000 HD 
HETATM    6  C   UNL     1      -6.548   5.094  66.914  1.00  0.00    -0.053 A  
HETATM    7  C   UNL     1      -6.784   5.242  65.545  1.00  0.00    -0.045 A  
HETATM    8  C   UNL     1      -9.365   3.109  69.329  1.00  0.00    -0.223 C  
HETATM    9  C   UNL     1      -7.961   4.722  64.990  1.00  0.00    -0.097 A  
HETATM   10  C   UNL     1      -9.607   3.208  68.017  1.00  0.00    -0.137 C  
HETATM   11  C   UNL     1      -8.893   4.055  65.789  1.00  0.00    -0.123 A  
HETATM   12  C   UNL     1      -8.656   3.905  67.154  1.00  0.00    -0.109 A  
ENDROOT
BRANCH   7  13
HETATM   13  O   UNL     1      -5.800   5.903  64.856  1.00  0.00    -0.023 OA 
BRANCH  13  14
HETATM   14  C   UNL     1      -5.931   7.324  64.823  1.00  0.00    -0.037 C  
BRANCH  14  15
HETATM   15  C   UNL     1      -6.715   7.747  63.585  1.00  0.00    -0.062 C  
BRANCH  15  16
HETATM   16  C   UNL     1      -7.644   8.930  63.877  1.00  0.00    -0.121 C  
BRANCH  16  17
HETATM   17  C   UNL     1      -7.676   9.392  65.345  1.00  0.00    -0.103 C  
BRANCH  17  18
HETATM   18  N   UNL     1      -8.445  10.620  65.580  1.00  0.00    -0.176 NA 
HETATM   19  C   UNL     1      -9.913  10.409  65.552  1.00  0.00    -0.282 C  
HETATM   20  C   UNL     1     -10.497   9.619  66.750  1.00  0.00    -0.186 C  
HETATM   21  N   UNL     1     -10.068  10.220  68.018  1.00  0.00    -0.156 NA 
HETATM   22  C   UNL     1      -8.101  11.222  66.898  1.00  0.00    -0.155 C  
HETATM   23  C   UNL     1      -8.619  10.446  68.139  1.00  0.00    -0.125 C  
BRANCH  21  24
HETATM   24  C   UNL     1     -10.851  10.098  69.170  1.00  0.00    -0.226 A  
HETATM   25  C   UNL     1     -11.522  11.173  69.848  1.00  0.00    -0.386 A  
HETATM   26  C   UNL     1     -11.758  12.549  69.472  1.00  0.00    -0.375 A  
HETATM   27  C   UNL     1     -12.397  13.293  70.434  1.00  0.00    -0.295 A  
HETATM   28  S   UNL     1     -12.790  12.356  71.793  1.00  0.00    -0.160 SA 
HETATM   29  C   UNL     1     -12.111  10.930  71.097  1.00  0.00    -0.281 A  
HETATM   30  C   UNL     1     -12.115   9.656  71.691  1.00  0.00    -0.481 A  
HETATM   31  C   UNL     1     -11.527   8.602  71.010  1.00  0.00    -0.324 A  
HETATM   32  C   UNL     1     -10.911   8.823  69.785  1.00  0.00    -0.196 A  
ENDBRANCH  21  24
ENDBRANCH  17  18
ENDBRANCH  16  17
ENDBRANCH  15  16
ENDBRANCH  14  15
ENDBRANCH  13  14
ENDBRANCH   7  13
TORSDOF 7
ENDMDL
MODEL      272
REMARK 921   NORMALIZED FREE ENERGY PREDICTED BY IDOCK:   -3.55 KCAL/MOL
REMARK 922        TOTAL FREE ENERGY PREDICTED BY IDOCK:   -6.31 KCAL/MOL
REMARK 923 INTER-LIGAND FREE ENERGY PREDICTED BY IDOCK:   -6.02 KCAL/MOL
REMARK 924 INTRA-LIGAND FREE ENERGY PREDICTED BY IDOCK:   -0.29 KCAL/MOL
REMARK 927      BINDING AFFINITY PREDICTED BY RF-SCORE:    0.00 PKD
ROOT
HETATM    1  O   UNL     1     -12.603  15.377  64.160  1.00  0.00    -0.627 OA 
HETATM    2  C   UNL     1     -12.045  14.286  64.206  1.00  0.00    -0.441 C  
HETATM    3  N   UNL     1     -11.275  13.899  65.268  1.00  0.00    -0.304 N  
HETATM    4  C   UNL     1     -10.603  12.671  65.328  1.00  0.00    -0.291 A  
HETATM    5  H   UNL     1     -11.185  14.539  66.058  1.00  0.00     0.000 HD 
HETATM    6  C   UNL     1      -9.821  12.356  66.439  1.00  0.00    -0.249 A  
HETATM    7  C   UNL     1      -9.133  11.141  66.482  1.00  0.00    -0.182 A  
HETATM    8  C   UNL     1     -12.184  13.316  63.091  1.00  0.00    -0.221 C  
HETATM    9  C   UNL     1      -9.241  10.252  65.404  1.00  0.00    -0.236 A  
HETATM   10  C   UNL     1     -11.561  12.132  63.114  1.00  0.00    -0.275 C  
HETATM   11  C   UNL     1     -10.032  10.565  64.296  1.00  0.00    -0.398 A  
HETATM   12  C   UNL     1     -10.721  11.775  64.256  1.00  0.00    -0.395 A  
ENDROOT
BRANCH   7  13
HETATM   13  O   UNL     1      -8.396  10.933  67.619  1.00  0.00    -0.115 OA 
BRANCH  13  14
HETATM   14  C   UNL     1      -9.110  11.087  68.845  1.00  0.00    -0.123 C  
BRANCH  14  15
HETATM   15  C   UNL     1     -10.105   9.943  69.016  1.00  0.00    -0.199 C  
BRANCH  15  16
HETATM   16  C   UNL     1      -9.978   9.279  70.390  1.00  0.00    -0.287 C  
BRANCH  16  17
HETATM   17  C   UNL     1     -11.050   8.223  70.710  1.00  0.00    -0.258 C  
BRANCH  17  18
HETATM   18  N   UNL     1     -10.556   7.058  71.456  1.00  0.00    -0.212 NA 
HETATM   19  C   UNL     1     -10.786   5.771  70.756  1.00  0.00    -0.271 C  
HETATM   20  C   UNL     1      -9.921   5.534  69.493  1.00  0.00    -0.210 C  
HETATM   21  N   UNL     1      -8.500   5.728  69.801  1.00  0.00    -0.121 NA 
HETATM   22  C   UNL     1      -9.095   7.174  71.720  1.00  0.00    -0.139 C  
HETATM   23  C   UNL     1      -8.178   6.994  70.480  1.00  0.00    -0.123 C  
BRANCH  21  24
HETATM   24  C   UNL     1      -7.510   5.060  69.073  1.00  0.00    -0.065 A  
HETATM   25  C   UNL     1      -6.766   5.604  67.970  1.00  0.00    -0.055 A  
HETATM   26  C   UNL     1      -6.657   6.950  67.453  1.00  0.00    -0.051 A  
HETATM   27  C   UNL     1      -5.878   7.058  66.327  1.00  0.00    -0.034 A  
HETATM   28  S   UNL     1      -5.202   5.565  65.887  1.00  0.00    -0.009 SA 
HETATM   29  C   UNL     1      -5.944   4.753  67.217  1.00  0.00    -0.023 A  
HETATM   30  C   UNL     1      -5.779   3.393  67.532  1.00  0.00    -0.022 A  
HETATM   31  C   UNL     1      -6.444   2.880  68.635  1.00  0.00    -0.029 A  
HETATM   32  C   UNL     1      -7.287   3.695  69.379  1.00  0.00    -0.049 A  
ENDBRANCH  21  24
ENDBRANCH  17  18
ENDBRANCH  16  17
ENDBRANCH  15  16
ENDBRANCH  14  15
ENDBRANCH  13  14
ENDBRANCH   7  13
TORSDOF 7
ENDMDL
MODEL      273
REMARK 921   NORMALIZED FREE ENERGY PREDICTED BY IDOCK:   -3.47 KCAL/MOL
REMARK 922        TOTAL FREE ENERGY PREDICTED BY IDOCK:   -6.19 KCAL/MOL
REMARK 923 INTER-LIGAND FREE ENERGY PREDICTED BY IDOCK:   -5.24 KCAL/MOL
REMARK 924 INTRA-LIGAND FREE ENERGY PREDICTED BY IDOCK:   -0.95 KCAL/MOL
REMARK 927      BINDING AFFINITY PREDICTED BY RF-SCORE:    0.00 PKD
ROOT
HETATM    1  O   UNL     1     -13.000  12.636  65.971  1.00  0.00     0.057 OA 
HETATM    2  C   UNL     1     -12.031  12.357  65.273  1.00  0.00    -0.404 C  
HETATM    3  N   UNL     1     -11.458  11.115  65.274  1.00  0.00     0.178 N  
HETATM    4  C   UNL     1     -10.332  10.783  64.508  1.00  0.00    -0.331 A  
HETATM    5  H   UNL     1     -11.871  10.393  65.865  1.00  0.00     0.000 HD 
HETATM    6  C   UNL     1      -9.793   9.499  64.579  1.00  0.00     0.374 A  
HETATM    7  C   UNL     1      -8.656   9.182  63.832  1.00  0.00    -0.170 A  
HETATM    8  C   UNL     1     -11.428  13.372  64.374  1.00  0.00    -0.417 C  
HETATM    9  C   UNL     1      -8.072  10.162  63.019  1.00  0.00    -0.152 A  
HETATM   10  C   UNL     1     -10.355  13.091  63.624  1.00  0.00     0.188 C  
HETATM   11  C   UNL     1      -8.618  11.445  62.942  1.00  0.00     0.050 A  
HETATM   12  C   UNL     1      -9.755  11.760  63.684  1.00  0.00    -0.293 A  
ENDROOT
BRANCH   7  13
HETATM   13  O   UNL     1      -8.211   7.893  63.975  1.00  0.00    -0.121 OA 
BRANCH  13  14
HETATM   14  C   UNL     1      -7.184   7.708  64.948  1.00  0.00    -0.066 C  
BRANCH  14  15
HETATM   15  C   UNL     1      -7.741   6.966  66.159  1.00  0.00    -0.091 C  
BRANCH  15  16
HETATM   16  C   UNL     1      -7.534   7.757  67.455  1.00  0.00    -0.093 C  
BRANCH  16  17
HETATM   17  C   UNL     1      -8.582   8.851  67.729  1.00  0.00    -0.125 C  
BRANCH  17  18
HETATM   18  N   UNL     1      -8.158   9.871  68.697  1.00  0.00    -0.096 NA 
HETATM   19  C   UNL     1      -8.639  11.234  68.362  1.00  0.00    -0.155 C  
HETATM   20  C   UNL     1     -10.161  11.466  68.536  1.00  0.00    -0.206 C  
HETATM   21  N   UNL     1     -10.589  11.063  69.880  1.00  0.00    -0.018 NA 
HETATM   22  C   UNL     1      -8.644   9.544  70.065  1.00  0.00    -0.215 C  
HETATM   23  C   UNL     1     -10.171   9.712  70.287  1.00  0.00    -0.277 C  
BRANCH  21  24
HETATM   24  C   UNL     1     -11.700  11.658  70.487  1.00  0.00    -0.098 A  
HETATM   25  C   UNL     1     -12.051  13.050  70.417  1.00  0.00    -0.391 A  
HETATM   26  C   UNL     1     -11.543  14.131  69.600  1.00  0.00    -0.349 A  
HETATM   27  C   UNL     1     -12.105  15.354  69.874  1.00  0.00    -0.355 A  
HETATM   28  S   UNL     1     -13.301  15.241  71.073  1.00  0.00    -0.443 SA 
HETATM   29  C   UNL     1     -13.083  13.536  71.232  1.00  0.00    -0.262 A  
HETATM   30  C   UNL     1     -13.826  12.699  72.083  1.00  0.00    -0.263 A  
HETATM   31  C   UNL     1     -13.534  11.344  72.104  1.00  0.00    -0.203 A  
HETATM   32  C   UNL     1     -12.497  10.844  71.328  1.00  0.00    -0.493 A  
ENDBRANCH  21  24
ENDBRANCH  17  18
ENDBRANCH  16  17
ENDBRANCH  15  16
ENDBRANCH  14  15
ENDBRANCH  13  14
ENDBRANCH   7  13
TORSDOF 7
ENDMDL
MODEL      274
REMARK 921   NORMALIZED FREE ENERGY PREDICTED BY IDOCK:   -3.44 KCAL/MOL
REMARK 922        TOTAL FREE ENERGY PREDICTED BY IDOCK:   -6.16 KCAL/MOL
REMARK 923 INTER-LIGAND FREE ENERGY PREDICTED BY IDOCK:   -5.43 KCAL/MOL
REMARK 924 INTRA-LIGAND FREE ENERGY PREDICTED BY IDOCK:   -0.73 KCAL/MOL
REMARK 927      BINDING AFFINITY PREDICTED BY RF-SCORE:    0.00 PKD
ROOT
HETATM    1  O   UNL     1      -5.713  20.258  71.561  1.00  0.00    -0.449 OA 
HETATM    2  C   UNL     1      -6.086  20.326  70.395  1.00  0.00    -0.324 C  
HETATM    3  N   UNL     1      -7.268  19.787  69.970  1.00  0.00     0.024 N  
HETATM    4  C   UNL     1      -7.700  19.825  68.637  1.00  0.00    -0.270 A  
HETATM    5  H   UNL     1      -7.868  19.333  70.659  1.00  0.00     0.000 HD 
HETATM    6  C   UNL     1      -8.911  19.236  68.278  1.00  0.00    -0.381 A  
HETATM    7  C   UNL     1      -9.323  19.255  66.943  1.00  0.00    -0.318 A  
HETATM    8  C   UNL     1      -5.256  21.011  69.373  1.00  0.00    -0.378 C  
HETATM    9  C   UNL     1      -8.511  19.869  65.981  1.00  0.00    -0.291 A  
HETATM   10  C   UNL     1      -5.636  21.071  68.091  1.00  0.00    -0.376 C  
HETATM   11  C   UNL     1      -7.302  20.467  66.344  1.00  0.00    -0.226 A  
HETATM   12  C   UNL     1      -6.893  20.452  67.677  1.00  0.00    -0.331 A  
ENDROOT
BRANCH   7  13
HETATM   13  O   UNL     1     -10.529  18.648  66.701  1.00  0.00    -0.389 OA 
BRANCH  13  14
HETATM   14  C   UNL     1     -10.465  17.455  65.920  1.00  0.00    -0.252 C  
BRANCH  14  15
HETATM   15  C   UNL     1      -9.934  16.305  66.770  1.00  0.00    -0.268 C  
BRANCH  15  16
HETATM   16  C   UNL     1      -9.943  14.980  66.002  1.00  0.00    -0.334 C  
BRANCH  16  17
HETATM   17  C   UNL     1      -9.470  13.754  66.805  1.00  0.00    -0.275 C  
BRANCH  17  18
HETATM   18  N   UNL     1      -8.012  13.590  66.863  1.00  0.00     0.066 NA 
HETATM   19  C   UNL     1      -7.452  13.791  68.223  1.00  0.00    -0.120 C  
HETATM   20  C   UNL     1      -7.783  12.681  69.252  1.00  0.00     0.461 C  
HETATM   21  N   UNL     1      -7.425  11.363  68.716  1.00  0.00    -0.118 NA 
HETATM   22  C   UNL     1      -7.608  12.232  66.405  1.00  0.00     0.548 C  
HETATM   23  C   UNL     1      -7.958  11.071  67.375  1.00  0.00    -0.119 C  
BRANCH  21  24
HETATM   24  C   UNL     1      -7.081  10.310  69.571  1.00  0.00    -0.107 A  
HETATM   25  C   UNL     1      -7.988   9.584  70.417  1.00  0.00    -0.200 A  
HETATM   26  C   UNL     1      -9.433   9.564  70.486  1.00  0.00    -0.306 A  
HETATM   27  C   UNL     1      -9.936   8.771  71.488  1.00  0.00    -0.300 A  
HETATM   28  S   UNL     1      -8.702   7.976  72.339  1.00  0.00    -0.185 SA 
HETATM   29  C   UNL     1      -7.470   8.685  71.359  1.00  0.00    -0.105 A  
HETATM   30  C   UNL     1      -6.093   8.427  71.474  1.00  0.00    -0.043 A  
HETATM   31  C   UNL     1      -5.220   9.076  70.615  1.00  0.00    -0.024 A  
HETATM   32  C   UNL     1      -5.706   9.994  69.693  1.00  0.00    -0.037 A  
ENDBRANCH  21  24
ENDBRANCH  17  18
ENDBRANCH  16  17
ENDBRANCH  15  16
ENDBRANCH  14  15
ENDBRANCH  13  14
ENDBRANCH   7  13
TORSDOF 7
ENDMDL
MODEL      275
REMARK 921   NORMALIZED FREE ENERGY PREDICTED BY IDOCK:   -3.40 KCAL/MOL
REMARK 922        TOTAL FREE ENERGY PREDICTED BY IDOCK:   -6.10 KCAL/MOL
REMARK 923 INTER-LIGAND FREE ENERGY PREDICTED BY IDOCK:   -5.13 KCAL/MOL
REMARK 924 INTRA-LIGAND FREE ENERGY PREDICTED BY IDOCK:   -0.97 KCAL/MOL
REMARK 927      BINDING AFFINITY PREDICTED BY RF-SCORE:    0.00 PKD
ROOT
HETATM    1  O   UNL     1      -9.856   3.356  70.843  1.00  0.00    -0.163 OA 
HETATM    2  C   UNL     1      -9.395   4.481  70.689  1.00  0.00    -0.155 C  
HETATM    3  N   UNL     1     -10.078   5.610  71.048  1.00  0.00    -0.198 N  
HETATM    4  C   UNL     1      -9.584   6.907  70.852  1.00  0.00    -0.164 A  
HETATM    5  H   UNL     1     -10.996   5.503  71.480  1.00  0.00     0.000 HD 
HETATM    6  C   UNL     1     -10.351   8.010  71.227  1.00  0.00    -0.230 A  
HETATM    7  C   UNL     1      -9.864   9.301  71.006  1.00  0.00    -0.285 A  
HETATM    8  C   UNL     1      -8.048   4.674  70.098  1.00  0.00    -0.068 C  
HETATM    9  C   UNL     1      -8.607   9.469  70.409  1.00  0.00    -0.246 A  
HETATM   10  C   UNL     1      -7.540   5.897  69.899  1.00  0.00    -0.080 C  
HETATM   11  C   UNL     1      -7.837   8.363  70.042  1.00  0.00    -0.103 A  
HETATM   12  C   UNL     1      -8.322   7.075  70.267  1.00  0.00    -0.133 A  
ENDROOT
BRANCH   7  13
HETATM   13  O   UNL     1     -10.697  10.312  71.413  1.00  0.00     0.330 OA 
BRANCH  13  14
HETATM   14  C   UNL     1     -12.079  10.119  71.114  1.00  0.00    -0.388 C  
BRANCH  14  15
HETATM   15  C   UNL     1     -12.521  11.103  70.036  1.00  0.00    -0.292 C  
BRANCH  15  16
HETATM   16  C   UNL     1     -11.366  11.480  69.103  1.00  0.00    -0.351 C  
BRANCH  16  17
HETATM   17  C   UNL     1     -11.772  12.265  67.842  1.00  0.00    -0.347 C  
BRANCH  17  18
HETATM   18  N   UNL     1     -10.644  12.775  67.052  1.00  0.00    -0.240 NA 
HETATM   19  C   UNL     1      -9.321  12.468  67.650  1.00  0.00    -0.189 C  
HETATM   20  C   UNL     1      -8.896  10.980  67.600  1.00  0.00    -0.131 C  
HETATM   21  N   UNL     1      -8.995  10.465  66.230  1.00  0.00    -0.152 NA 
HETATM   22  C   UNL     1     -10.658  12.212  65.675  1.00  0.00    -0.262 C  
HETATM   23  C   UNL     1     -10.286  10.709  65.566  1.00  0.00    -0.262 C  
BRANCH  21  24
HETATM   24  C   UNL     1      -8.180   9.414  65.797  1.00  0.00    -0.116 A  
HETATM   25  C   UNL     1      -8.425   8.015  66.016  1.00  0.00    -0.144 A  
HETATM   26  C   UNL     1      -9.586   7.307  66.511  1.00  0.00    -0.211 A  
HETATM   27  C   UNL     1      -9.406   5.951  66.634  1.00  0.00    -0.145 A  
HETATM   28  S   UNL     1      -7.867   5.471  66.105  1.00  0.00    -0.101 SA 
HETATM   29  C   UNL     1      -7.424   7.088  65.692  1.00  0.00    -0.085 A  
HETATM   30  C   UNL     1      -6.203   7.472  65.111  1.00  0.00    -0.038 A  
HETATM   31  C   UNL     1      -5.989   8.814  64.838  1.00  0.00    -0.063 A  
HETATM   32  C   UNL     1      -6.953   9.755  65.177  1.00  0.00    -0.117 A  
ENDBRANCH  21  24
ENDBRANCH  17  18
ENDBRANCH  16  17
ENDBRANCH  15  16
ENDBRANCH  14  15
ENDBRANCH  13  14
ENDBRANCH   7  13
TORSDOF 7
ENDMDL
MODEL      276
REMARK 921   NORMALIZED FREE ENERGY PREDICTED BY IDOCK:   -3.31 KCAL/MOL
REMARK 922        TOTAL FREE ENERGY PREDICTED BY IDOCK:   -5.97 KCAL/MOL
REMARK 923 INTER-LIGAND FREE ENERGY PREDICTED BY IDOCK:   -5.43 KCAL/MOL
REMARK 924 INTRA-LIGAND FREE ENERGY PREDICTED BY IDOCK:   -0.54 KCAL/MOL
REMARK 927      BINDING AFFINITY PREDICTED BY RF-SCORE:    0.00 PKD
ROOT
HETATM    1  O   UNL     1     -11.777   1.978  63.020  1.00  0.00    -0.289 OA 
HETATM    2  C   UNL     1     -10.648   2.359  63.310  1.00  0.00    -0.206 C  
HETATM    3  N   UNL     1     -10.144   3.556  62.883  1.00  0.00    -0.138 N  
HETATM    4  C   UNL     1      -8.846   3.996  63.176  1.00  0.00    -0.110 A  
HETATM    5  H   UNL     1     -10.744   4.159  62.320  1.00  0.00     0.000 HD 
HETATM    6  C   UNL     1      -8.398   5.223  62.687  1.00  0.00    -0.114 A  
HETATM    7  C   UNL     1      -7.095   5.644  62.961  1.00  0.00    -0.045 A  
HETATM    8  C   UNL     1      -9.762   1.523  64.157  1.00  0.00    -0.117 C  
HETATM    9  C   UNL     1      -6.254   4.826  63.728  1.00  0.00    -0.022 A  
HETATM   10  C   UNL     1      -8.518   1.911  64.462  1.00  0.00    -0.085 C  
HETATM   11  C   UNL     1      -6.708   3.602  64.224  1.00  0.00    -0.044 A  
HETATM   12  C   UNL     1      -8.010   3.184  63.954  1.00  0.00    -0.082 A  
ENDROOT
BRANCH   7  13
HETATM   13  O   UNL     1      -6.758   6.865  62.433  1.00  0.00    -0.046 OA 
BRANCH  13  14
HETATM   14  C   UNL     1      -6.814   7.960  63.347  1.00  0.00    -0.075 C  
BRANCH  14  15
HETATM   15  C   UNL     1      -8.252   8.447  63.488  1.00  0.00    -0.106 C  
BRANCH  15  16
HETATM   16  C   UNL     1      -8.736   8.379  64.940  1.00  0.00    -0.053 C  
BRANCH  16  17
HETATM   17  C   UNL     1      -7.914   9.207  65.944  1.00  0.00    -0.106 C  
BRANCH  17  18
HETATM   18  N   UNL     1      -8.162   8.877  67.354  1.00  0.00    -0.108 NA 
HETATM   19  C   UNL     1      -7.708   9.932  68.293  1.00  0.00    -0.085 C  
HETATM   20  C   UNL     1      -8.540  11.238  68.283  1.00  0.00    -0.153 C  
HETATM   21  N   UNL     1      -9.965  10.939  68.463  1.00  0.00    -0.175 NA 
HETATM   22  C   UNL     1      -9.612   8.646  67.601  1.00  0.00    -0.155 C  
HETATM   23  C   UNL     1     -10.506   9.915  67.555  1.00  0.00    -0.255 C  
BRANCH  21  24
HETATM   24  C   UNL     1     -10.826  11.875  69.045  1.00  0.00    -0.190 A  
HETATM   25  C   UNL     1     -10.932  13.261  68.679  1.00  0.00    -0.294 A  
HETATM   26  C   UNL     1     -10.396  14.005  67.561  1.00  0.00    -0.245 A  
HETATM   27  C   UNL     1     -10.674  15.350  67.596  1.00  0.00    -0.292 A  
HETATM   28  S   UNL     1     -11.637  15.758  68.932  1.00  0.00    -0.382 SA 
HETATM   29  C   UNL     1     -11.700  14.121  69.478  1.00  0.00    -0.312 A  
HETATM   30  C   UNL     1     -12.415  13.667  70.600  1.00  0.00    -0.417 A  
HETATM   31  C   UNL     1     -12.368  12.318  70.917  1.00  0.00    -0.363 A  
HETATM   32  C   UNL     1     -11.591  11.452  70.159  1.00  0.00    -0.368 A  
ENDBRANCH  21  24
ENDBRANCH  17  18
ENDBRANCH  16  17
ENDBRANCH  15  16
ENDBRANCH  14  15
ENDBRANCH  13  14
ENDBRANCH   7  13
TORSDOF 7
ENDMDL
MODEL      277
REMARK 921   NORMALIZED FREE ENERGY PREDICTED BY IDOCK:   -3.29 KCAL/MOL
REMARK 922        TOTAL FREE ENERGY PREDICTED BY IDOCK:   -5.94 KCAL/MOL
REMARK 923 INTER-LIGAND FREE ENERGY PREDICTED BY IDOCK:   -5.31 KCAL/MOL
REMARK 924 INTRA-LIGAND FREE ENERGY PREDICTED BY IDOCK:   -0.64 KCAL/MOL
REMARK 927      BINDING AFFINITY PREDICTED BY RF-SCORE:    0.00 PKD
ROOT
HETATM    1  O   UNL     1      -9.956  11.241  62.456  1.00  0.00    -0.100 OA 
HETATM    2  C   UNL     1      -9.603  10.808  63.547  1.00  0.00    -0.320 C  
HETATM    3  N   UNL     1     -10.467  10.675  64.599  1.00  0.00    -0.291 N  
HETATM    4  C   UNL     1     -10.079  10.212  65.864  1.00  0.00    -0.254 A  
HETATM    5  H   UNL     1     -11.445  10.927  64.455  1.00  0.00     0.000 HD 
HETATM    6  C   UNL     1     -11.016  10.123  66.892  1.00  0.00    -0.106 A  
HETATM    7  C   UNL     1     -10.617   9.685  68.158  1.00  0.00    -0.226 A  
HETATM    8  C   UNL     1      -8.196  10.398  63.780  1.00  0.00    -0.122 C  
HETATM    9  C   UNL     1      -9.277   9.340  68.375  1.00  0.00    -0.132 A  
HETATM   10  C   UNL     1      -7.788   9.947  64.973  1.00  0.00    -0.131 C  
HETATM   11  C   UNL     1      -8.341   9.421  67.341  1.00  0.00    -0.125 A  
HETATM   12  C   UNL     1      -8.740   9.854  66.078  1.00  0.00    -0.152 A  
ENDROOT
BRANCH   7  13
HETATM   13  O   UNL     1     -11.618   9.634  69.095  1.00  0.00     0.074 OA 
BRANCH  13  14
HETATM   14  C   UNL     1     -11.782  10.818  69.874  1.00  0.00    -0.333 C  
BRANCH  14  15
HETATM   15  C   UNL     1     -11.985  10.452  71.341  1.00  0.00    -0.379 C  
BRANCH  15  16
HETATM   16  C   UNL     1     -11.359   9.096  71.681  1.00  0.00    -0.446 C  
BRANCH  16  17
HETATM   17  C   UNL     1     -12.263   8.138  72.477  1.00  0.00    -0.278 C  
BRANCH  17  18
HETATM   18  N   UNL     1     -12.535   6.860  71.808  1.00  0.00    -0.358 NA 
HETATM   19  C   UNL     1     -11.773   6.682  70.547  1.00  0.00    -0.394 C  
HETATM   20  C   UNL     1     -10.250   6.458  70.714  1.00  0.00    -0.190 C  
HETATM   21  N   UNL     1      -9.994   5.359  71.652  1.00  0.00    -0.179 NA 
HETATM   22  C   UNL     1     -12.210   5.711  72.697  1.00  0.00     0.116 C  
HETATM   23  C   UNL     1     -10.697   5.466  72.941  1.00  0.00    -0.253 C  
BRANCH  21  24
HETATM   24  C   UNL     1      -8.827   4.593  71.558  1.00  0.00    -0.124 A  
HETATM   25  C   UNL     1      -8.503   3.683  70.494  1.00  0.00    -0.102 A  
HETATM   26  C   UNL     1      -9.113   3.455  69.203  1.00  0.00    -0.205 A  
HETATM   27  C   UNL     1      -8.537   2.438  68.481  1.00  0.00    -0.075 A  
HETATM   28  S   UNL     1      -7.210   1.764  69.295  1.00  0.00    -0.036 SA 
HETATM   29  C   UNL     1      -7.388   2.843  70.631  1.00  0.00    -0.037 A  
HETATM   30  C   UNL     1      -6.543   2.892  71.753  1.00  0.00    -0.018 A  
HETATM   31  C   UNL     1      -6.815   3.815  72.751  1.00  0.00    -0.039 A  
HETATM   32  C   UNL     1      -7.930   4.637  72.653  1.00  0.00    -0.092 A  
ENDBRANCH  21  24
ENDBRANCH  17  18
ENDBRANCH  16  17
ENDBRANCH  15  16
ENDBRANCH  14  15
ENDBRANCH  13  14
ENDBRANCH   7  13
TORSDOF 7
ENDMDL
MODEL      278
REMARK 921   NORMALIZED FREE ENERGY PREDICTED BY IDOCK:   -3.26 KCAL/MOL
REMARK 922        TOTAL FREE ENERGY PREDICTED BY IDOCK:   -5.91 KCAL/MOL
REMARK 923 INTER-LIGAND FREE ENERGY PREDICTED BY IDOCK:   -5.14 KCAL/MOL
REMARK 924 INTRA-LIGAND FREE ENERGY PREDICTED BY IDOCK:   -0.77 KCAL/MOL
REMARK 927      BINDING AFFINITY PREDICTED BY RF-SCORE:    0.00 PKD
ROOT
HETATM    1  O   UNL     1     -11.074   2.924  62.358  1.00  0.00    -0.157 OA 
HETATM    2  C   UNL     1     -10.342   2.932  63.342  1.00  0.00    -0.190 C  
HETATM    3  N   UNL     1      -9.768   4.077  63.821  1.00  0.00    -0.163 N  
HETATM    4  C   UNL     1      -8.904   4.104  64.925  1.00  0.00    -0.133 A  
HETATM    5  H   UNL     1      -9.979   4.957  63.351  1.00  0.00     0.000 HD 
HETATM    6  C   UNL     1      -8.342   5.310  65.342  1.00  0.00    -0.136 A  
HETATM    7  C   UNL     1      -7.462   5.327  66.426  1.00  0.00    -0.087 A  
HETATM    8  C   UNL     1     -10.043   1.676  64.073  1.00  0.00    -0.033 C  
HETATM    9  C   UNL     1      -7.156   4.127  67.082  1.00  0.00    -0.067 A  
HETATM   10  C   UNL     1      -9.226   1.663  65.133  1.00  0.00    -0.078 C  
HETATM   11  C   UNL     1      -7.727   2.921  66.668  1.00  0.00    -0.076 A  
HETATM   12  C   UNL     1      -8.608   2.906  65.589  1.00  0.00    -0.116 A  
ENDROOT
BRANCH   7  13
HETATM   13  O   UNL     1      -6.968   6.565  66.753  1.00  0.00    -0.064 OA 
BRANCH  13  14
HETATM   14  C   UNL     1      -7.324   7.617  65.857  1.00  0.00    -0.074 C  
BRANCH  14  15
HETATM   15  C   UNL     1      -8.006   8.746  66.624  1.00  0.00    -0.100 C  
BRANCH  15  16
HETATM   16  C   UNL     1      -9.423   9.009  66.107  1.00  0.00    -0.318 C  
BRANCH  16  17
HETATM   17  C   UNL     1      -9.706  10.461  65.681  1.00  0.00    -0.236 C  
BRANCH  17  18
HETATM   18  N   UNL     1     -10.526  11.226  66.630  1.00  0.00    -0.238 NA 
HETATM   19  C   UNL     1      -9.799  11.595  67.870  1.00  0.00    -0.184 C  
HETATM   20  C   UNL     1      -8.697  12.670  67.703  1.00  0.00    -0.179 C  
HETATM   21  N   UNL     1      -9.236  13.855  67.027  1.00  0.00    -0.241 NA 
HETATM   22  C   UNL     1     -11.027  12.483  66.010  1.00  0.00    -0.283 C  
HETATM   23  C   UNL     1      -9.957  13.582  65.773  1.00  0.00    -0.252 C  
BRANCH  21  24
HETATM   24  C   UNL     1      -8.682  15.121  67.248  1.00  0.00    -0.202 A  
HETATM   25  C   UNL     1      -9.413  16.307  67.600  1.00  0.00    -0.221 A  
HETATM   26  C   UNL     1     -10.785  16.507  68.010  1.00  0.00    -0.343 A  
HETATM   27  C   UNL     1     -11.128  17.824  68.203  1.00  0.00     0.138 A  
HETATM   28  S   UNL     1      -9.805  18.858  67.962  1.00  0.00    -0.374 SA 
HETATM   29  C   UNL     1      -8.747  17.542  67.602  1.00  0.00    -0.223 A  
HETATM   30  C   UNL     1      -7.375  17.657  67.321  1.00  0.00    -0.203 A  
HETATM   31  C   UNL     1      -6.653  16.506  67.047  1.00  0.00    -0.234 A  
HETATM   32  C   UNL     1      -7.295  15.275  67.009  1.00  0.00    -0.072 A  
ENDBRANCH  21  24
ENDBRANCH  17  18
ENDBRANCH  16  17
ENDBRANCH  15  16
ENDBRANCH  14  15
ENDBRANCH  13  14
ENDBRANCH   7  13
TORSDOF 7
ENDMDL
MODEL      279
REMARK 921   NORMALIZED FREE ENERGY PREDICTED BY IDOCK:   -3.26 KCAL/MOL
REMARK 922        TOTAL FREE ENERGY PREDICTED BY IDOCK:   -5.89 KCAL/MOL
REMARK 923 INTER-LIGAND FREE ENERGY PREDICTED BY IDOCK:   -5.05 KCAL/MOL
REMARK 924 INTRA-LIGAND FREE ENERGY PREDICTED BY IDOCK:   -0.84 KCAL/MOL
REMARK 927      BINDING AFFINITY PREDICTED BY RF-SCORE:    0.00 PKD
ROOT
HETATM    1  O   UNL     1     -11.501   2.541  62.848  1.00  0.00    -0.238 OA 
HETATM    2  C   UNL     1     -10.453   3.010  63.279  1.00  0.00    -0.208 C  
HETATM    3  N   UNL     1      -9.966   4.220  62.867  1.00  0.00    -0.326 N  
HETATM    4  C   UNL     1      -8.756   4.762  63.323  1.00  0.00    -0.124 A  
HETATM    5  H   UNL     1     -10.513   4.757  62.194  1.00  0.00     0.000 HD 
HETATM    6  C   UNL     1      -8.318   5.994  62.841  1.00  0.00    -0.003 A  
HETATM    7  C   UNL     1      -7.098   6.516  63.279  1.00  0.00    -0.054 A  
HETATM    8  C   UNL     1      -9.651   2.274  64.287  1.00  0.00    -0.132 C  
HETATM    9  C   UNL     1      -6.331   5.792  64.201  1.00  0.00    -0.029 A  
HETATM   10  C   UNL     1      -8.492   2.760  64.748  1.00  0.00    -0.089 C  
HETATM   11  C   UNL     1      -6.776   4.561  64.689  1.00  0.00    -0.045 A  
HETATM   12  C   UNL     1      -7.995   4.042  64.255  1.00  0.00    -0.086 A  
ENDROOT
BRANCH   7  13
HETATM   13  O   UNL     1      -6.763   7.734  62.743  1.00  0.00    -0.074 OA 
BRANCH  13  14
HETATM   14  C   UNL     1      -6.560   8.781  63.691  1.00  0.00    -0.088 C  
BRANCH  14  15
HETATM   15  C   UNL     1      -7.830   9.615  63.827  1.00  0.00    -0.139 C  
BRANCH  15  16
HETATM   16  C   UNL     1      -7.938  10.265  65.210  1.00  0.00    -0.148 C  
BRANCH  16  17
HETATM   17  C   UNL     1      -9.344  10.763  65.592  1.00  0.00    -0.207 C  
BRANCH  17  18
HETATM   18  N   UNL     1      -9.502  11.113  67.009  1.00  0.00    -0.176 NA 
HETATM   19  C   UNL     1     -10.813  10.706  67.572  1.00  0.00    -0.296 C  
HETATM   20  C   UNL     1     -11.015   9.181  67.757  1.00  0.00     0.037 C  
HETATM   21  N   UNL     1      -9.903   8.607  68.522  1.00  0.00    -0.165 NA 
HETATM   22  C   UNL     1      -8.439  10.482  67.837  1.00  0.00    -0.119 C  
HETATM   23  C   UNL     1      -8.562   8.945  68.019  1.00  0.00    -0.130 C  
BRANCH  21  24
HETATM   24  C   UNL     1     -10.084   7.456  69.297  1.00  0.00    -0.186 A  
HETATM   25  C   UNL     1     -10.209   7.418  70.728  1.00  0.00    -0.200 A  
HETATM   26  C   UNL     1     -10.389   8.468  71.707  1.00  0.00    -0.354 A  
HETATM   27  C   UNL     1     -10.404   8.026  73.008  1.00  0.00    -0.280 A  
HETATM   28  S   UNL     1     -10.267   6.337  73.099  1.00  0.00    -0.217 SA 
HETATM   29  C   UNL     1     -10.194   6.177  71.382  1.00  0.00    -0.205 A  
HETATM   30  C   UNL     1     -10.112   4.960  70.683  1.00  0.00    -0.306 A  
HETATM   31  C   UNL     1     -10.058   4.991  69.298  1.00  0.00    -0.270 A  
HETATM   32  C   UNL     1     -10.042   6.208  68.629  1.00  0.00    -0.196 A  
ENDBRANCH  21  24
ENDBRANCH  17  18
ENDBRANCH  16  17
ENDBRANCH  15  16
ENDBRANCH  14  15
ENDBRANCH  13  14
ENDBRANCH   7  13
TORSDOF 7
ENDMDL
MODEL      280
REMARK 921   NORMALIZED FREE ENERGY PREDICTED BY IDOCK:   -3.25 KCAL/MOL
REMARK 922        TOTAL FREE ENERGY PREDICTED BY IDOCK:   -5.89 KCAL/MOL
REMARK 923 INTER-LIGAND FREE ENERGY PREDICTED BY IDOCK:   -5.92 KCAL/MOL
REMARK 924 INTRA-LIGAND FREE ENERGY PREDICTED BY IDOCK:    0.03 KCAL/MOL
REMARK 927      BINDING AFFINITY PREDICTED BY RF-SCORE:    0.00 PKD
ROOT
HETATM    1  O   UNL     1      -9.147   4.702  64.480  1.00  0.00    -0.155 OA 
HETATM    2  C   UNL     1      -9.205   5.200  65.599  1.00  0.00    -0.151 C  
HETATM    3  N   UNL     1      -8.372   6.208  65.999  1.00  0.00    -0.130 N  
HETATM    4  C   UNL     1      -8.400   6.770  67.282  1.00  0.00    -0.121 A  
HETATM    5  H   UNL     1      -7.694   6.569  65.328  1.00  0.00     0.000 HD 
HETATM    6  C   UNL     1      -7.503   7.783  67.621  1.00  0.00    -0.104 A  
HETATM    7  C   UNL     1      -7.519   8.321  68.910  1.00  0.00    -0.092 A  
HETATM    8  C   UNL     1     -10.203   4.724  66.588  1.00  0.00    -0.274 C  
HETATM    9  C   UNL     1      -8.440   7.834  69.847  1.00  0.00    -0.132 A  
HETATM   10  C   UNL     1     -10.263   5.239  67.822  1.00  0.00    -0.211 C  
HETATM   11  C   UNL     1      -9.343   6.826  69.504  1.00  0.00    -0.146 A  
HETATM   12  C   UNL     1      -9.330   6.292  68.216  1.00  0.00    -0.112 A  
ENDROOT
BRANCH   7  13
HETATM   13  O   UNL     1      -6.597   9.311  69.135  1.00  0.00    -0.048 OA 
BRANCH  13  14
HETATM   14  C   UNL     1      -6.590  10.366  68.174  1.00  0.00    -0.060 C  
BRANCH  14  15
HETATM   15  C   UNL     1      -7.982  10.977  68.060  1.00  0.00    -0.115 C  
BRANCH  15  16
HETATM   16  C   UNL     1      -8.387  11.200  66.600  1.00  0.00    -0.160 C  
BRANCH  16  17
HETATM   17  C   UNL     1      -9.321  12.400  66.354  1.00  0.00    -0.219 C  
BRANCH  17  18
HETATM   18  N   UNL     1      -9.592  13.214  67.546  1.00  0.00    -0.202 NA 
HETATM   19  C   UNL     1      -8.369  13.796  68.151  1.00  0.00    -0.165 C  
HETATM   20  C   UNL     1      -7.691  14.923  67.334  1.00  0.00    -0.204 C  
HETATM   21  N   UNL     1      -8.665  15.965  66.993  1.00  0.00    -0.205 NA 
HETATM   22  C   UNL     1     -10.515  14.337  67.226  1.00  0.00    -0.269 C  
HETATM   23  C   UNL     1      -9.904  15.477  66.366  1.00  0.00    -0.278 C  
BRANCH  21  24
HETATM   24  C   UNL     1      -8.259  17.288  66.789  1.00  0.00    -0.247 A  
HETATM   25  C   UNL     1      -8.947  18.460  67.256  1.00  0.00    -0.265 A  
HETATM   26  C   UNL     1     -10.049  18.626  68.178  1.00  0.00    -0.418 A  
HETATM   27  C   UNL     1     -10.470  19.926  68.322  1.00  0.00    -0.300 A  
HETATM   28  S   UNL     1      -9.523  20.997  67.409  1.00  0.00     0.111 SA 
HETATM   29  C   UNL     1      -8.524  19.722  66.812  1.00  0.00    -0.321 A  
HETATM   30  C   UNL     1      -7.415  19.888  65.965  1.00  0.00    -0.338 A  
HETATM   31  C   UNL     1      -6.709  18.764  65.565  1.00  0.00    -0.285 A  
HETATM   32  C   UNL     1      -7.126  17.502  65.967  1.00  0.00    -0.299 A  
ENDBRANCH  21  24
ENDBRANCH  17  18
ENDBRANCH  16  17
ENDBRANCH  15  16
ENDBRANCH  14  15
ENDBRANCH  13  14
ENDBRANCH   7  13
TORSDOF 7
ENDMDL
MODEL      281
REMARK 921   NORMALIZED FREE ENERGY PREDICTED BY IDOCK:   -3.21 KCAL/MOL
REMARK 922        TOTAL FREE ENERGY PREDICTED BY IDOCK:   -5.83 KCAL/MOL
REMARK 923 INTER-LIGAND FREE ENERGY PREDICTED BY IDOCK:   -5.45 KCAL/MOL
REMARK 924 INTRA-LIGAND FREE ENERGY PREDICTED BY IDOCK:   -0.39 KCAL/MOL
REMARK 927      BINDING AFFINITY PREDICTED BY RF-SCORE:    0.00 PKD
ROOT
HETATM    1  O   UNL     1     -11.684  11.793  69.038  1.00  0.00    -0.278 OA 
HETATM    2  C   UNL     1     -11.694  10.938  69.916  1.00  0.00    -0.339 C  
HETATM    3  N   UNL     1     -10.548  10.408  70.440  1.00  0.00    -0.437 N  
HETATM    4  C   UNL     1     -10.537   9.408  71.421  1.00  0.00    -0.311 A  
HETATM    5  H   UNL     1      -9.653  10.760  70.098  1.00  0.00     0.000 HD 
HETATM    6  C   UNL     1      -9.324   8.905  71.892  1.00  0.00    -0.275 A  
HETATM    7  C   UNL     1      -9.320   7.890  72.852  1.00  0.00    -0.246 A  
HETATM    8  C   UNL     1     -12.977  10.430  70.463  1.00  0.00    -0.280 C  
HETATM    9  C   UNL     1     -10.539   7.390  73.330  1.00  0.00    -0.442 A  
HETATM   10  C   UNL     1     -13.007   9.478  71.403  1.00  0.00    -0.450 C  
HETATM   11  C   UNL     1     -11.752   7.902  72.863  1.00  0.00    -0.239 A  
HETATM   12  C   UNL     1     -11.756   8.917  71.909  1.00  0.00    -0.439 A  
ENDROOT
BRANCH   7  13
HETATM   13  O   UNL     1      -8.075   7.470  73.245  1.00  0.00    -0.104 OA 
BRANCH  13  14
HETATM   14  C   UNL     1      -7.979   6.087  73.585  1.00  0.00    -0.102 C  
BRANCH  14  15
HETATM   15  C   UNL     1      -7.548   5.279  72.365  1.00  0.00    -0.097 C  
BRANCH  15  16
HETATM   16  C   UNL     1      -8.742   4.615  71.673  1.00  0.00    -0.135 C  
BRANCH  16  17
HETATM   17  C   UNL     1      -8.384   3.676  70.506  1.00  0.00    -0.057 C  
BRANCH  17  18
HETATM   18  N   UNL     1      -7.058   3.911  69.919  1.00  0.00    -0.041 NA 
HETATM   19  C   UNL     1      -6.708   2.943  68.851  1.00  0.00    -0.037 C  
HETATM   20  C   UNL     1      -7.501   3.092  67.529  1.00  0.00    -0.061 C  
HETATM   21  N   UNL     1      -7.428   4.474  67.042  1.00  0.00    -0.081 NA 
HETATM   22  C   UNL     1      -6.967   5.278  69.337  1.00  0.00    -0.055 C  
HETATM   23  C   UNL     1      -7.780   5.502  68.034  1.00  0.00    -0.092 C  
BRANCH  21  24
HETATM   24  C   UNL     1      -7.536   4.759  65.677  1.00  0.00    -0.086 A  
HETATM   25  C   UNL     1      -8.527   4.226  64.783  1.00  0.00    -0.119 A  
HETATM   26  C   UNL     1      -9.738   3.474  65.026  1.00  0.00    -0.142 A  
HETATM   27  C   UNL     1     -10.398   3.087  63.884  1.00  0.00    -0.174 A  
HETATM   28  S   UNL     1      -9.627   3.664  62.488  1.00  0.00    -0.112 SA 
HETATM   29  C   UNL     1      -8.395   4.453  63.405  1.00  0.00    -0.104 A  
HETATM   30  C   UNL     1      -7.353   5.227  62.867  1.00  0.00    -0.044 A  
HETATM   31  C   UNL     1      -6.433   5.798  63.732  1.00  0.00    -0.029 A  
HETATM   32  C   UNL     1      -6.525   5.564  65.098  1.00  0.00    -0.039 A  
ENDBRANCH  21  24
ENDBRANCH  17  18
ENDBRANCH  16  17
ENDBRANCH  15  16
ENDBRANCH  14  15
ENDBRANCH  13  14
ENDBRANCH   7  13
TORSDOF 7
ENDMDL
MODEL      282
REMARK 921   NORMALIZED FREE ENERGY PREDICTED BY IDOCK:   -3.17 KCAL/MOL
REMARK 922        TOTAL FREE ENERGY PREDICTED BY IDOCK:   -5.77 KCAL/MOL
REMARK 923 INTER-LIGAND FREE ENERGY PREDICTED BY IDOCK:   -5.14 KCAL/MOL
REMARK 924 INTRA-LIGAND FREE ENERGY PREDICTED BY IDOCK:   -0.63 KCAL/MOL
REMARK 927      BINDING AFFINITY PREDICTED BY RF-SCORE:    0.00 PKD
ROOT
HETATM    1  O   UNL     1     -11.428   8.357  72.042  1.00  0.00    -0.301 OA 
HETATM    2  C   UNL     1     -10.772   7.443  71.554  1.00  0.00    -0.222 C  
HETATM    3  N   UNL     1      -9.933   7.628  70.490  1.00  0.00    -0.184 N  
HETATM    4  C   UNL     1      -9.198   6.593  69.897  1.00  0.00    -0.146 A  
HETATM    5  H   UNL     1      -9.838   8.569  70.108  1.00  0.00     0.000 HD 
HETATM    6  C   UNL     1      -8.377   6.858  68.802  1.00  0.00    -0.121 A  
HETATM    7  C   UNL     1      -7.666   5.817  68.199  1.00  0.00    -0.096 A  
HETATM    8  C   UNL     1     -10.858   6.069  72.108  1.00  0.00    -0.297 C  
HETATM    9  C   UNL     1      -7.788   4.517  68.707  1.00  0.00    -0.071 A  
HETATM   10  C   UNL     1     -10.168   5.056  71.572  1.00  0.00    -0.273 C  
HETATM   11  C   UNL     1      -8.604   4.255  69.810  1.00  0.00    -0.100 A  
HETATM   12  C   UNL     1      -9.309   5.294  70.414  1.00  0.00    -0.208 A  
ENDROOT
BRANCH   7  13
HETATM   13  O   UNL     1      -6.890   6.188  67.131  1.00  0.00    -0.059 OA 
BRANCH  13  14
HETATM   14  C   UNL     1      -7.423   5.861  65.848  1.00  0.00    -0.085 C  
BRANCH  14  15
HETATM   15  C   UNL     1      -8.752   6.580  65.637  1.00  0.00    -0.102 C  
BRANCH  15  16
HETATM   16  C   UNL     1      -8.569   7.904  64.889  1.00  0.00     0.031 C  
BRANCH  16  17
HETATM   17  C   UNL     1      -8.406   9.146  65.784  1.00  0.00    -0.126 C  
BRANCH  17  18
HETATM   18  N   UNL     1      -8.183  10.399  65.053  1.00  0.00    -0.161 NA 
HETATM   19  C   UNL     1      -9.439  11.037  64.585  1.00  0.00    -0.234 C  
HETATM   20  C   UNL     1     -10.329  11.651  65.694  1.00  0.00    -0.262 C  
HETATM   21  N   UNL     1      -9.545  12.565  66.532  1.00  0.00    -0.238 NA 
HETATM   22  C   UNL     1      -7.461  11.390  65.897  1.00  0.00     0.302 C  
HETATM   23  C   UNL     1      -8.290  12.005  67.057  1.00  0.00    -0.178 C  
BRANCH  21  24
HETATM   24  C   UNL     1     -10.157  13.636  67.192  1.00  0.00    -0.245 A  
HETATM   25  C   UNL     1      -9.492  14.814  67.679  1.00  0.00    -0.204 A  
HETATM   26  C   UNL     1      -8.153  15.319  67.471  1.00  0.00    -0.192 A  
HETATM   27  C   UNL     1      -7.871  16.468  68.169  1.00  0.00    -0.168 A  
HETATM   28  S   UNL     1      -9.217  17.016  69.045  1.00  0.00    -0.083 SA 
HETATM   29  C   UNL     1     -10.203  15.713  68.487  1.00  0.00    -0.211 A  
HETATM   30  C   UNL     1     -11.562  15.532  68.800  1.00  0.00    -0.390 A  
HETATM   31  C   UNL     1     -12.223  14.431  68.277  1.00  0.00    -0.160 A  
HETATM   32  C   UNL     1     -11.534  13.511  67.498  1.00  0.00    -0.361 A  
ENDBRANCH  21  24
ENDBRANCH  17  18
ENDBRANCH  16  17
ENDBRANCH  15  16
ENDBRANCH  14  15
ENDBRANCH  13  14
ENDBRANCH   7  13
TORSDOF 7
ENDMDL
MODEL      283
REMARK 921   NORMALIZED FREE ENERGY PREDICTED BY IDOCK:   -3.10 KCAL/MOL
REMARK 922        TOTAL FREE ENERGY PREDICTED BY IDOCK:   -5.68 KCAL/MOL
REMARK 923 INTER-LIGAND FREE ENERGY PREDICTED BY IDOCK:   -5.99 KCAL/MOL
REMARK 924 INTRA-LIGAND FREE ENERGY PREDICTED BY IDOCK:    0.32 KCAL/MOL
REMARK 927      BINDING AFFINITY PREDICTED BY RF-SCORE:    0.00 PKD
ROOT
HETATM    1  O   UNL     1      -6.449  13.084  67.151  1.00  0.00    -0.224 OA 
HETATM    2  C   UNL     1      -7.285  13.910  67.503  1.00  0.00    -0.161 C  
HETATM    3  N   UNL     1      -8.462  13.555  68.100  1.00  0.00    -0.165 N  
HETATM    4  C   UNL     1      -9.444  14.480  68.482  1.00  0.00    -0.211 A  
HETATM    5  H   UNL     1      -8.636  12.565  68.277  1.00  0.00     0.000 HD 
HETATM    6  C   UNL     1     -10.629  14.038  69.069  1.00  0.00    -0.205 A  
HETATM    7  C   UNL     1     -11.615  14.962  69.423  1.00  0.00    -0.309 A  
HETATM    8  C   UNL     1      -7.049  15.360  67.295  1.00  0.00    -0.206 C  
HETATM    9  C   UNL     1     -11.397  16.325  69.184  1.00  0.00    -0.291 A  
HETATM   10  C   UNL     1      -7.961  16.273  67.650  1.00  0.00    -0.160 C  
HETATM   11  C   UNL     1     -10.206  16.767  68.604  1.00  0.00    -0.298 A  
HETATM   12  C   UNL     1      -9.221  15.845  68.254  1.00  0.00    -0.189 A  
ENDROOT
BRANCH   7  13
HETATM   13  O   UNL     1     -12.739  14.420  69.994  1.00  0.00    -0.301 OA 
BRANCH  13  14
HETATM   14  C   UNL     1     -12.506  13.312  70.863  1.00  0.00    -0.342 C  
BRANCH  14  15
HETATM   15  C   UNL     1     -11.995  12.120  70.061  1.00  0.00    -0.391 C  
BRANCH  15  16
HETATM   16  C   UNL     1     -11.934  10.847  70.911  1.00  0.00    -0.416 C  
BRANCH  16  17
HETATM   17  C   UNL     1     -11.628   9.554  70.134  1.00  0.00    -0.111 C  
BRANCH  17  18
HETATM   18  N   UNL     1     -10.375   9.584  69.369  1.00  0.00    -0.204 NA 
HETATM   19  C   UNL     1      -9.225   8.999  70.101  1.00  0.00    -0.192 C  
HETATM   20  C   UNL     1      -9.265   7.461  70.288  1.00  0.00    -0.154 C  
HETATM   21  N   UNL     1      -9.473   6.795  68.997  1.00  0.00    -0.134 NA 
HETATM   22  C   UNL     1     -10.515   8.846  68.085  1.00  0.00    -0.202 C  
HETATM   23  C   UNL     1     -10.609   7.301  68.211  1.00  0.00    -0.172 C  
BRANCH  21  24
HETATM   24  C   UNL     1      -8.999   5.498  68.776  1.00  0.00    -0.114 A  
HETATM   25  C   UNL     1      -7.903   5.139  67.917  1.00  0.00    -0.091 A  
HETATM   26  C   UNL     1      -6.903   5.940  67.246  1.00  0.00    -0.063 A  
HETATM   27  C   UNL     1      -6.045   5.218  66.452  1.00  0.00    -0.030 A  
HETATM   28  S   UNL     1      -6.367   3.554  66.531  1.00  0.00    -0.037 SA 
HETATM   29  C   UNL     1      -7.665   3.784  67.646  1.00  0.00    -0.074 A  
HETATM   30  C   UNL     1      -8.428   2.755  68.226  1.00  0.00    -0.100 A  
HETATM   31  C   UNL     1      -9.443   3.095  69.106  1.00  0.00    -0.177 A  
HETATM   32  C   UNL     1      -9.718   4.431  69.367  1.00  0.00    -0.267 A  
ENDBRANCH  21  24
ENDBRANCH  17  18
ENDBRANCH  16  17
ENDBRANCH  15  16
ENDBRANCH  14  15
ENDBRANCH  13  14
ENDBRANCH   7  13
TORSDOF 7
ENDMDL
MODEL      284
REMARK 921   NORMALIZED FREE ENERGY PREDICTED BY IDOCK:   -3.09 KCAL/MOL
REMARK 922        TOTAL FREE ENERGY PREDICTED BY IDOCK:   -5.65 KCAL/MOL
REMARK 923 INTER-LIGAND FREE ENERGY PREDICTED BY IDOCK:   -4.43 KCAL/MOL
REMARK 924 INTRA-LIGAND FREE ENERGY PREDICTED BY IDOCK:   -1.22 KCAL/MOL
REMARK 927      BINDING AFFINITY PREDICTED BY RF-SCORE:    0.00 PKD
ROOT
HETATM    1  O   UNL     1      -8.105   6.789  74.221  1.00  0.00    -0.114 OA 
HETATM    2  C   UNL     1      -8.470   6.113  73.266  1.00  0.00    -0.116 C  
HETATM    3  N   UNL     1      -7.618   5.296  72.576  1.00  0.00    -0.096 N  
HETATM    4  C   UNL     1      -8.007   4.539  71.462  1.00  0.00    -0.095 A  
HETATM    5  H   UNL     1      -6.649   5.235  72.888  1.00  0.00     0.000 HD 
HETATM    6  C   UNL     1      -7.074   3.743  70.799  1.00  0.00    -0.033 A  
HETATM    7  C   UNL     1      -7.461   3.010  69.675  1.00  0.00    -0.044 A  
HETATM    8  C   UNL     1      -9.882   6.149  72.808  1.00  0.00    -0.176 C  
HETATM    9  C   UNL     1      -8.787   3.085  69.228  1.00  0.00    -0.155 A  
HETATM   10  C   UNL     1     -10.291   5.437  71.752  1.00  0.00    -0.271 C  
HETATM   11  C   UNL     1      -9.723   3.876  69.900  1.00  0.00    -0.235 A  
HETATM   12  C   UNL     1      -9.337   4.603  71.024  1.00  0.00    -0.209 A  
ENDROOT
BRANCH   7  13
HETATM   13  O   UNL     1      -6.466   2.262  69.100  1.00  0.00    -0.028 OA 
BRANCH  13  14
HETATM   14  C   UNL     1      -5.734   2.914  68.063  1.00  0.00    -0.019 C  
BRANCH  14  15
HETATM   15  C   UNL     1      -5.864   2.130  66.761  1.00  0.00    -0.019 C  
BRANCH  15  16
HETATM   16  C   UNL     1      -6.887   2.765  65.814  1.00  0.00    -0.048 C  
BRANCH  16  17
HETATM   17  C   UNL     1      -6.559   4.199  65.361  1.00  0.00    -0.044 C  
BRANCH  17  18
HETATM   18  N   UNL     1      -7.547   4.791  64.449  1.00  0.00    -0.071 NA 
HETATM   19  C   UNL     1      -8.917   4.835  65.016  1.00  0.00    -0.153 C  
HETATM   20  C   UNL     1      -9.131   5.849  66.168  1.00  0.00    -0.150 C  
HETATM   21  N   UNL     1      -8.675   7.184  65.766  1.00  0.00    -0.140 NA 
HETATM   22  C   UNL     1      -7.167   6.181  64.079  1.00  0.00    -0.061 C  
HETATM   23  C   UNL     1      -7.314   7.235  65.210  1.00  0.00    -0.080 C  
BRANCH  21  24
HETATM   24  C   UNL     1      -9.239   8.334  66.328  1.00  0.00    -0.203 A  
HETATM   25  C   UNL     1      -9.575   8.514  67.714  1.00  0.00    -0.185 A  
HETATM   26  C   UNL     1      -9.267   7.728  68.889  1.00  0.00    -0.140 A  
HETATM   27  C   UNL     1      -9.829   8.206  70.048  1.00  0.00    -0.182 A  
HETATM   28  S   UNL     1     -10.691   9.644  69.781  1.00  0.00    -0.259 SA 
HETATM   29  C   UNL     1     -10.309   9.646  68.097  1.00  0.00    -0.209 A  
HETATM   30  C   UNL     1     -10.687  10.642  67.180  1.00  0.00    -0.327 A  
HETATM   31  C   UNL     1     -10.308  10.505  65.854  1.00  0.00    -0.275 A  
HETATM   32  C   UNL     1      -9.607   9.378  65.445  1.00  0.00    -0.296 A  
ENDBRANCH  21  24
ENDBRANCH  17  18
ENDBRANCH  16  17
ENDBRANCH  15  16
ENDBRANCH  14  15
ENDBRANCH  13  14
ENDBRANCH   7  13
TORSDOF 7
ENDMDL
MODEL      285
REMARK 921   NORMALIZED FREE ENERGY PREDICTED BY IDOCK:   -3.05 KCAL/MOL
REMARK 922        TOTAL FREE ENERGY PREDICTED BY IDOCK:   -5.60 KCAL/MOL
REMARK 923 INTER-LIGAND FREE ENERGY PREDICTED BY IDOCK:   -5.15 KCAL/MOL
REMARK 924 INTRA-LIGAND FREE ENERGY PREDICTED BY IDOCK:   -0.45 KCAL/MOL
REMARK 927      BINDING AFFINITY PREDICTED BY RF-SCORE:    0.00 PKD
ROOT
HETATM    1  O   UNL     1     -12.464  15.731  63.988  1.00  0.00    -0.698 OA 
HETATM    2  C   UNL     1     -12.004  14.663  64.377  1.00  0.00    -0.437 C  
HETATM    3  N   UNL     1     -11.047  14.587  65.351  1.00  0.00    -0.328 N  
HETATM    4  C   UNL     1     -10.484  13.380  65.788  1.00  0.00    -0.290 A  
HETATM    5  H   UNL     1     -10.726  15.454  65.782  1.00  0.00     0.000 HD 
HETATM    6  C   UNL     1      -9.498  13.386  66.774  1.00  0.00    -0.263 A  
HETATM    7  C   UNL     1      -8.923  12.182  67.187  1.00  0.00    -0.189 A  
HETATM    8  C   UNL     1     -12.474  13.380  63.798  1.00  0.00    -0.318 C  
HETATM    9  C   UNL     1      -9.347  10.981  66.603  1.00  0.00    -0.196 A  
HETATM   10  C   UNL     1     -11.964  12.207  64.193  1.00  0.00    -0.497 C  
HETATM   11  C   UNL     1     -10.342  10.976  65.622  1.00  0.00    -0.311 A  
HETATM   12  C   UNL     1     -10.918  12.177  65.213  1.00  0.00    -0.349 A  
ENDROOT
BRANCH   7  13
HETATM   13  O   UNL     1      -7.965  12.302  68.161  1.00  0.00    -0.138 OA 
BRANCH  13  14
HETATM   14  C   UNL     1      -6.657  12.627  67.692  1.00  0.00    -0.143 C  
BRANCH  14  15
HETATM   15  C   UNL     1      -5.630  11.689  68.318  1.00  0.00    -0.045 C  
BRANCH  15  16
HETATM   16  C   UNL     1      -6.282  10.415  68.863  1.00  0.00    -0.043 C  
BRANCH  16  17
HETATM   17  C   UNL     1      -6.448   9.275  67.841  1.00  0.00    -0.059 C  
BRANCH  17  18
HETATM   18  N   UNL     1      -5.590   8.108  68.085  1.00  0.00    -0.033 NA 
HETATM   19  C   UNL     1      -6.212   7.098  68.976  1.00  0.00    -0.031 C  
HETATM   20  C   UNL     1      -7.395   6.306  68.365  1.00  0.00    -0.086 C  
HETATM   21  N   UNL     1      -7.006   5.717  67.079  1.00  0.00    -0.064 NA 
HETATM   22  C   UNL     1      -5.238   7.428  66.809  1.00  0.00    -0.023 C  
HETATM   23  C   UNL     1      -6.398   6.656  66.123  1.00  0.00    -0.042 C  
BRANCH  21  24
HETATM   24  C   UNL     1      -7.618   4.549  66.611  1.00  0.00    -0.086 A  
HETATM   25  C   UNL     1      -7.301   3.867  65.386  1.00  0.00    -0.072 A  
HETATM   26  C   UNL     1      -6.212   4.029  64.448  1.00  0.00    -0.026 A  
HETATM   27  C   UNL     1      -6.294   3.212  63.347  1.00  0.00    -0.022 A  
HETATM   28  S   UNL     1      -7.640   2.182  63.427  1.00  0.00    -0.056 SA 
HETATM   29  C   UNL     1      -8.127   2.819  64.957  1.00  0.00    -0.083 A  
HETATM   30  C   UNL     1      -9.228   2.373  65.707  1.00  0.00    -0.035 A  
HETATM   31  C   UNL     1      -9.498   2.985  66.921  1.00  0.00    -0.076 A  
HETATM   32  C   UNL     1      -8.713   4.045  67.355  1.00  0.00    -0.115 A  
ENDBRANCH  21  24
ENDBRANCH  17  18
ENDBRANCH  16  17
ENDBRANCH  15  16
ENDBRANCH  14  15
ENDBRANCH  13  14
ENDBRANCH   7  13
TORSDOF 7
ENDMDL
MODEL      286
REMARK 921   NORMALIZED FREE ENERGY PREDICTED BY IDOCK:   -3.03 KCAL/MOL
REMARK 922        TOTAL FREE ENERGY PREDICTED BY IDOCK:   -5.57 KCAL/MOL
REMARK 923 INTER-LIGAND FREE ENERGY PREDICTED BY IDOCK:   -5.94 KCAL/MOL
REMARK 924 INTRA-LIGAND FREE ENERGY PREDICTED BY IDOCK:    0.37 KCAL/MOL
REMARK 927      BINDING AFFINITY PREDICTED BY RF-SCORE:    0.00 PKD
ROOT
HETATM    1  O   UNL     1      -9.045   1.493  71.248  1.00  0.00    -0.061 OA 
HETATM    2  C   UNL     1      -9.192   2.472  71.971  1.00  0.00    -0.090 C  
HETATM    3  N   UNL     1      -9.984   3.531  71.622  1.00  0.00    -0.157 N  
HETATM    4  C   UNL     1     -10.141   4.674  72.419  1.00  0.00    -0.182 A  
HETATM    5  H   UNL     1     -10.486   3.487  70.736  1.00  0.00     0.000 HD 
HETATM    6  C   UNL     1     -10.952   5.721  71.985  1.00  0.00    -0.317 A  
HETATM    7  C   UNL     1     -11.085   6.868  72.771  1.00  0.00    -0.269 A  
HETATM    8  C   UNL     1      -8.505   2.554  73.284  1.00  0.00    -0.070 C  
HETATM    9  C   UNL     1     -10.398   6.950  73.990  1.00  0.00    -0.355 A  
HETATM   10  C   UNL     1      -8.634   3.627  74.074  1.00  0.00    -0.089 C  
HETATM   11  C   UNL     1      -9.593   5.895  74.427  1.00  0.00    -0.192 A  
HETATM   12  C   UNL     1      -9.465   4.749  73.644  1.00  0.00    -0.130 A  
ENDROOT
BRANCH   7  13
HETATM   13  O   UNL     1     -11.907   7.836  72.251  1.00  0.00    -0.309 OA 
BRANCH  13  14
HETATM   14  C   UNL     1     -11.243   9.006  71.774  1.00  0.00    -0.378 C  
BRANCH  14  15
HETATM   15  C   UNL     1      -9.906   8.628  71.145  1.00  0.00    -0.285 C  
BRANCH  15  16
HETATM   16  C   UNL     1     -10.088   7.988  69.765  1.00  0.00    -0.196 C  
BRANCH  16  17
HETATM   17  C   UNL     1      -9.778   8.908  68.571  1.00  0.00    -0.161 C  
BRANCH  17  18
HETATM   18  N   UNL     1      -8.667   9.843  68.793  1.00  0.00    -0.126 NA 
HETATM   19  C   UNL     1      -8.038  10.317  67.536  1.00  0.00    -0.110 C  
HETATM   20  C   UNL     1      -8.896  11.283  66.682  1.00  0.00    -0.175 C  
HETATM   21  N   UNL     1      -9.368  12.406  67.500  1.00  0.00    -0.176 NA 
HETATM   22  C   UNL     1      -9.121  11.041  69.550  1.00  0.00     0.377 C  
HETATM   23  C   UNL     1     -10.026  12.025  68.760  1.00  0.00    -0.073 C  
BRANCH  21  24
HETATM   24  C   UNL     1      -9.645  13.649  66.920  1.00  0.00    -0.262 A  
HETATM   25  C   UNL     1     -10.803  13.968  66.130  1.00  0.00    -0.291 A  
HETATM   26  C   UNL     1     -12.033  13.247  65.889  1.00  0.00    -0.466 A  
HETATM   27  C   UNL     1     -12.886  13.869  65.010  1.00  0.00    -0.268 A  
HETATM   28  S   UNL     1     -12.274  15.364  64.493  1.00  0.00     0.031 SA 
HETATM   29  C   UNL     1     -10.851  15.197  65.456  1.00  0.00    -0.364 A  
HETATM   30  C   UNL     1      -9.827  16.155  65.566  1.00  0.00    -0.190 A  
HETATM   31  C   UNL     1      -8.740  15.877  66.379  1.00  0.00    -0.362 A  
HETATM   32  C   UNL     1      -8.656  14.655  67.033  1.00  0.00    -0.249 A  
ENDBRANCH  21  24
ENDBRANCH  17  18
ENDBRANCH  16  17
ENDBRANCH  15  16
ENDBRANCH  14  15
ENDBRANCH  13  14
ENDBRANCH   7  13
TORSDOF 7
ENDMDL
MODEL      287
REMARK 921   NORMALIZED FREE ENERGY PREDICTED BY IDOCK:   -3.01 KCAL/MOL
REMARK 922        TOTAL FREE ENERGY PREDICTED BY IDOCK:   -5.54 KCAL/MOL
REMARK 923 INTER-LIGAND FREE ENERGY PREDICTED BY IDOCK:   -6.12 KCAL/MOL
REMARK 924 INTRA-LIGAND FREE ENERGY PREDICTED BY IDOCK:    0.57 KCAL/MOL
REMARK 927      BINDING AFFINITY PREDICTED BY RF-SCORE:    0.00 PKD
ROOT
HETATM    1  O   UNL     1     -13.826  16.036  71.158  1.00  0.00    -0.171 OA 
HETATM    2  C   UNL     1     -13.489  14.858  71.212  1.00  0.00    -0.430 C  
HETATM    3  N   UNL     1     -12.509  14.337  70.414  1.00  0.00    -0.348 N  
HETATM    4  C   UNL     1     -12.130  12.987  70.437  1.00  0.00    -0.314 A  
HETATM    5  H   UNL     1     -12.029  14.962  69.767  1.00  0.00     0.000 HD 
HETATM    6  C   UNL     1     -11.134  12.527  69.577  1.00  0.00    -0.073 A  
HETATM    7  C   UNL     1     -10.778  11.176  69.587  1.00  0.00    -0.089 A  
HETATM    8  C   UNL     1     -14.140  13.927  72.167  1.00  0.00    -0.630 C  
HETATM    9  C   UNL     1     -11.430  10.300  70.465  1.00  0.00    -0.427 A  
HETATM   10  C   UNL     1     -13.803  12.633  72.222  1.00  0.00    -0.310 C  
HETATM   11  C   UNL     1     -12.422  10.765  71.332  1.00  0.00    -0.478 A  
HETATM   12  C   UNL     1     -12.773  12.113  71.325  1.00  0.00    -0.363 A  
ENDROOT
BRANCH   7  13
HETATM   13  O   UNL     1      -9.788  10.832  68.703  1.00  0.00    -0.169 OA 
BRANCH  13  14
HETATM   14  C   UNL     1      -8.456  11.070  69.158  1.00  0.00    -0.012 C  
BRANCH  14  15
HETATM   15  C   UNL     1      -7.454  10.590  68.113  1.00  0.00    -0.090 C  
BRANCH  15  16
HETATM   16  C   UNL     1      -7.463  11.478  66.866  1.00  0.00    -0.145 C  
BRANCH  16  17
HETATM   17  C   UNL     1      -8.841  11.672  66.208  1.00  0.00    -0.164 C  
BRANCH  17  18
HETATM   18  N   UNL     1      -9.082  10.822  65.035  1.00  0.00    -0.199 NA 
HETATM   19  C   UNL     1      -7.937   9.938  64.705  1.00  0.00    -0.141 C  
HETATM   20  C   UNL     1      -7.683   8.777  65.698  1.00  0.00    -0.091 C  
HETATM   21  N   UNL     1      -8.913   8.004  65.907  1.00  0.00    -0.163 NA 
HETATM   22  C   UNL     1     -10.276   9.958  65.237  1.00  0.00    -0.025 C  
HETATM   23  C   UNL     1     -10.097   8.803  66.259  1.00  0.00    -0.184 C  
BRANCH  21  24
HETATM   24  C   UNL     1      -8.858   6.651  66.258  1.00  0.00    -0.147 A  
HETATM   25  C   UNL     1      -8.766   5.548  65.341  1.00  0.00    -0.148 A  
HETATM   26  C   UNL     1      -8.505   5.497  63.920  1.00  0.00    -0.035 A  
HETATM   27  C   UNL     1      -8.558   4.233  63.384  1.00  0.00    -0.109 A  
HETATM   28  S   UNL     1      -8.859   3.060  64.572  1.00  0.00    -0.112 SA 
HETATM   29  C   UNL     1      -8.913   4.241  65.829  1.00  0.00    -0.129 A  
HETATM   30  C   UNL     1      -9.098   3.965  67.195  1.00  0.00    -0.174 A  
HETATM   31  C   UNL     1      -9.121   5.023  68.091  1.00  0.00    -0.131 A  
HETATM   32  C   UNL     1      -9.007   6.327  67.629  1.00  0.00    -0.115 A  
ENDBRANCH  21  24
ENDBRANCH  17  18
ENDBRANCH  16  17
ENDBRANCH  15  16
ENDBRANCH  14  15
ENDBRANCH  13  14
ENDBRANCH   7  13
TORSDOF 7
ENDMDL
MODEL      288
REMARK 921   NORMALIZED FREE ENERGY PREDICTED BY IDOCK:   -2.99 KCAL/MOL
REMARK 922        TOTAL FREE ENERGY PREDICTED BY IDOCK:   -5.51 KCAL/MOL
REMARK 923 INTER-LIGAND FREE ENERGY PREDICTED BY IDOCK:   -5.04 KCAL/MOL
REMARK 924 INTRA-LIGAND FREE ENERGY PREDICTED BY IDOCK:   -0.47 KCAL/MOL
REMARK 927      BINDING AFFINITY PREDICTED BY RF-SCORE:    0.00 PKD
ROOT
HETATM    1  O   UNL     1      -9.497   4.397  65.454  1.00  0.00    -0.155 OA 
HETATM    2  C   UNL     1      -9.355   5.172  66.393  1.00  0.00    -0.146 C  
HETATM    3  N   UNL     1      -8.306   6.046  66.473  1.00  0.00    -0.111 N  
HETATM    4  C   UNL     1      -8.108   6.919  67.552  1.00  0.00    -0.116 A  
HETATM    5  H   UNL     1      -7.633   6.064  65.707  1.00  0.00     0.000 HD 
HETATM    6  C   UNL     1      -7.002   7.768  67.569  1.00  0.00    -0.078 A  
HETATM    7  C   UNL     1      -6.795   8.617  68.659  1.00  0.00    -0.063 A  
HETATM    8  C   UNL     1     -10.335   5.200  67.507  1.00  0.00    -0.190 C  
HETATM    9  C   UNL     1      -7.707   8.603  69.723  1.00  0.00    -0.088 A  
HETATM   10  C   UNL     1     -10.182   6.022  68.552  1.00  0.00    -0.227 C  
HETATM   11  C   UNL     1      -8.819   7.758  69.700  1.00  0.00    -0.139 A  
HETATM   12  C   UNL     1      -9.027   6.915  68.610  1.00  0.00    -0.129 A  
ENDROOT
BRANCH   7  13
HETATM   13  O   UNL     1      -5.679   9.409  68.573  1.00  0.00    -0.040 OA 
BRANCH  13  14
HETATM   14  C   UNL     1      -5.773  10.495  67.652  1.00  0.00    -0.044 C  
BRANCH  14  15
HETATM   15  C   UNL     1      -6.805  11.506  68.142  1.00  0.00    -0.068 C  
BRANCH  15  16
HETATM   16  C   UNL     1      -7.635  12.076  66.988  1.00  0.00    -0.111 C  
BRANCH  16  17
HETATM   17  C   UNL     1      -8.046  13.552  67.142  1.00  0.00    -0.082 C  
BRANCH  17  18
HETATM   18  N   UNL     1      -7.799  14.117  68.475  1.00  0.00    -0.136 NA 
HETATM   19  C   UNL     1      -6.435  14.681  68.631  1.00  0.00    -0.085 C  
HETATM   20  C   UNL     1      -6.159  15.987  67.846  1.00  0.00    -0.133 C  
HETATM   21  N   UNL     1      -7.189  16.989  68.142  1.00  0.00    -0.180 NA 
HETATM   22  C   UNL     1      -8.773  15.199  68.784  1.00  0.00    -0.194 C  
HETATM   23  C   UNL     1      -8.575  16.520  67.992  1.00  0.00    -0.184 C  
BRANCH  21  24
HETATM   24  C   UNL     1      -6.905  18.356  68.053  1.00  0.00    -0.217 A  
HETATM   25  C   UNL     1      -6.484  19.052  66.868  1.00  0.00    -0.195 A  
HETATM   26  C   UNL     1      -6.436  18.648  65.480  1.00  0.00    -0.321 A  
HETATM   27  C   UNL     1      -5.905  19.595  64.638  1.00  0.00    -0.246 A  
HETATM   28  S   UNL     1      -5.506  21.020  65.467  1.00  0.00    -0.223 SA 
HETATM   29  C   UNL     1      -6.053  20.382  66.975  1.00  0.00    -0.189 A  
HETATM   30  C   UNL     1      -6.064  21.081  68.196  1.00  0.00    -0.385 A  
HETATM   31  C   UNL     1      -6.532  20.433  69.328  1.00  0.00    -0.237 A  
HETATM   32  C   UNL     1      -6.937  19.107  69.254  1.00  0.00    -0.331 A  
ENDBRANCH  21  24
ENDBRANCH  17  18
ENDBRANCH  16  17
ENDBRANCH  15  16
ENDBRANCH  14  15
ENDBRANCH  13  14
ENDBRANCH   7  13
TORSDOF 7
ENDMDL
MODEL      289
REMARK 921   NORMALIZED FREE ENERGY PREDICTED BY IDOCK:   -2.98 KCAL/MOL
REMARK 922        TOTAL FREE ENERGY PREDICTED BY IDOCK:   -5.50 KCAL/MOL
REMARK 923 INTER-LIGAND FREE ENERGY PREDICTED BY IDOCK:   -5.63 KCAL/MOL
REMARK 924 INTRA-LIGAND FREE ENERGY PREDICTED BY IDOCK:    0.13 KCAL/MOL
REMARK 927      BINDING AFFINITY PREDICTED BY RF-SCORE:    0.00 PKD
ROOT
HETATM    1  O   UNL     1      -6.017   8.655  72.038  1.00  0.00    -0.054 OA 
HETATM    2  C   UNL     1      -6.324   8.276  70.913  1.00  0.00    -0.037 C  
HETATM    3  N   UNL     1      -6.941   9.092  70.007  1.00  0.00    -0.048 N  
HETATM    4  C   UNL     1      -7.329   8.672  68.727  1.00  0.00    -0.083 A  
HETATM    5  H   UNL     1      -7.130  10.058  70.276  1.00  0.00     0.000 HD 
HETATM    6  C   UNL     1      -7.973   9.559  67.865  1.00  0.00    -0.098 A  
HETATM    7  C   UNL     1      -8.380   9.126  66.601  1.00  0.00    -0.122 A  
HETATM    8  C   UNL     1      -6.031   6.889  70.475  1.00  0.00    -0.027 C  
HETATM    9  C   UNL     1      -8.134   7.802  66.215  1.00  0.00    -0.114 A  
HETATM   10  C   UNL     1      -6.382   6.452  69.260  1.00  0.00    -0.035 C  
HETATM   11  C   UNL     1      -7.481   6.917  67.077  1.00  0.00    -0.087 A  
HETATM   12  C   UNL     1      -7.071   7.350  68.336  1.00  0.00    -0.085 A  
ENDROOT
BRANCH   7  13
HETATM   13  O   UNL     1      -9.002  10.079  65.835  1.00  0.00    -0.145 OA 
BRANCH  13  14
HETATM   14  C   UNL     1      -8.612  10.106  64.462  1.00  0.00    -0.189 C  
BRANCH  14  15
HETATM   15  C   UNL     1      -9.660  10.846  63.637  1.00  0.00    -0.339 C  
BRANCH  15  16
HETATM   16  C   UNL     1     -11.053  10.744  64.265  1.00  0.00     0.437 C  
BRANCH  16  17
HETATM   17  C   UNL     1     -11.928  12.003  64.127  1.00  0.00    -0.369 C  
BRANCH  17  18
HETATM   18  N   UNL     1     -11.174  13.255  63.981  1.00  0.00    -0.373 NA 
HETATM   19  C   UNL     1     -11.965  14.461  64.331  1.00  0.00    -0.452 C  
HETATM   20  C   UNL     1     -12.282  14.638  65.836  1.00  0.00    -0.156 C  
HETATM   21  N   UNL     1     -11.052  14.555  66.632  1.00  0.00    -0.326 NA 
HETATM   22  C   UNL     1      -9.957  13.250  64.837  1.00  0.00    -0.132 C  
HETATM   23  C   UNL     1     -10.215  13.375  66.363  1.00  0.00    -0.293 C  
BRANCH  21  24
HETATM   24  C   UNL     1     -10.948  15.215  67.861  1.00  0.00    -0.302 A  
HETATM   25  C   UNL     1     -11.481  14.750  69.112  1.00  0.00    -0.323 A  
HETATM   26  C   UNL     1     -12.048  13.479  69.505  1.00  0.00    -0.352 A  
HETATM   27  C   UNL     1     -12.509  13.445  70.798  1.00  0.00    -0.341 A  
HETATM   28  S   UNL     1     -12.224  14.910  71.605  1.00  0.00    -0.364 SA 
HETATM   29  C   UNL     1     -11.465  15.609  70.221  1.00  0.00    -0.349 A  
HETATM   30  C   UNL     1     -10.898  16.894  70.169  1.00  0.00     0.150 A  
HETATM   31  C   UNL     1     -10.324  17.320  68.982  1.00  0.00    -0.330 A  
HETATM   32  C   UNL     1     -10.354  16.500  67.861  1.00  0.00    -0.294 A  
ENDBRANCH  21  24
ENDBRANCH  17  18
ENDBRANCH  16  17
ENDBRANCH  15  16
ENDBRANCH  14  15
ENDBRANCH  13  14
ENDBRANCH   7  13
TORSDOF 7
ENDMDL
MODEL      290
REMARK 921   NORMALIZED FREE ENERGY PREDICTED BY IDOCK:   -2.97 KCAL/MOL
REMARK 922        TOTAL FREE ENERGY PREDICTED BY IDOCK:   -5.49 KCAL/MOL
REMARK 923 INTER-LIGAND FREE ENERGY PREDICTED BY IDOCK:   -4.56 KCAL/MOL
REMARK 924 INTRA-LIGAND FREE ENERGY PREDICTED BY IDOCK:   -0.93 KCAL/MOL
REMARK 927      BINDING AFFINITY PREDICTED BY RF-SCORE:    0.00 PKD
ROOT
HETATM    1  O   UNL     1      -6.901   1.720  70.542  1.00  0.00    -0.031 OA 
HETATM    2  C   UNL     1      -7.556   2.289  71.408  1.00  0.00    -0.040 C  
HETATM    3  N   UNL     1      -8.604   3.116  71.112  1.00  0.00    -0.066 N  
HETATM    4  C   UNL     1      -9.347   3.800  72.084  1.00  0.00    -0.125 A  
HETATM    5  H   UNL     1      -8.858   3.242  70.132  1.00  0.00     0.000 HD 
HETATM    6  C   UNL     1     -10.390   4.642  71.701  1.00  0.00    -0.189 A  
HETATM    7  C   UNL     1     -11.110   5.341  72.672  1.00  0.00    -0.260 A  
HETATM    8  C   UNL     1      -7.238   2.099  72.846  1.00  0.00    -0.032 C  
HETATM    9  C   UNL     1     -10.773   5.185  74.024  1.00  0.00    -0.320 A  
HETATM   10  C   UNL     1      -7.928   2.732  73.803  1.00  0.00    -0.060 C  
HETATM   11  C   UNL     1      -9.733   4.334  74.406  1.00  0.00    -0.153 A  
HETATM   12  C   UNL     1      -9.018   3.633  73.437  1.00  0.00    -0.098 A  
ENDROOT
BRANCH   7  13
HETATM   13  O   UNL     1     -12.115   6.139  72.187  1.00  0.00    -0.327 OA 
BRANCH  13  14
HETATM   14  C   UNL     1     -11.755   6.965  71.080  1.00  0.00    -0.345 C  
BRANCH  14  15
HETATM   15  C   UNL     1     -12.092   8.420  71.383  1.00  0.00    -0.337 C  
BRANCH  15  16
HETATM   16  C   UNL     1     -10.838   9.240  71.703  1.00  0.00    -0.418 C  
BRANCH  16  17
HETATM   17  C   UNL     1      -9.738   9.201  70.627  1.00  0.00    -0.256 C  
BRANCH  17  18
HETATM   18  N   UNL     1     -10.057   9.944  69.401  1.00  0.00    -0.198 NA 
HETATM   19  C   UNL     1      -8.860  10.497  68.721  1.00  0.00    -0.158 C  
HETATM   20  C   UNL     1      -7.935   9.454  68.044  1.00  0.00    -0.092 C  
HETATM   21  N   UNL     1      -8.710   8.591  67.145  1.00  0.00    -0.128 NA 
HETATM   22  C   UNL     1     -10.772   9.080  68.423  1.00  0.00    -0.096 C  
HETATM   23  C   UNL     1      -9.908   7.983  67.746  1.00  0.00    -0.165 C  
BRANCH  21  24
HETATM   24  C   UNL     1      -8.110   7.990  66.034  1.00  0.00    -0.110 A  
HETATM   25  C   UNL     1      -7.146   6.924  66.072  1.00  0.00    -0.073 A  
HETATM   26  C   UNL     1      -6.698   6.070  67.150  1.00  0.00    -0.061 A  
HETATM   27  C   UNL     1      -5.701   5.195  66.796  1.00  0.00    -0.018 A  
HETATM   28  S   UNL     1      -5.310   5.321  65.149  1.00  0.00    -0.013 SA 
HETATM   29  C   UNL     1      -6.490   6.555  64.889  1.00  0.00    -0.041 A  
HETATM   30  C   UNL     1      -6.777   7.156  63.651  1.00  0.00    -0.044 A  
HETATM   31  C   UNL     1      -7.753   8.138  63.599  1.00  0.00    -0.143 A  
HETATM   32  C   UNL     1      -8.396   8.543  64.761  1.00  0.00    -0.163 A  
ENDBRANCH  21  24
ENDBRANCH  17  18
ENDBRANCH  16  17
ENDBRANCH  15  16
ENDBRANCH  14  15
ENDBRANCH  13  14
ENDBRANCH   7  13
TORSDOF 7
ENDMDL
MODEL      291
REMARK 921   NORMALIZED FREE ENERGY PREDICTED BY IDOCK:   -2.95 KCAL/MOL
REMARK 922        TOTAL FREE ENERGY PREDICTED BY IDOCK:   -5.46 KCAL/MOL
REMARK 923 INTER-LIGAND FREE ENERGY PREDICTED BY IDOCK:   -4.42 KCAL/MOL
REMARK 924 INTRA-LIGAND FREE ENERGY PREDICTED BY IDOCK:   -1.05 KCAL/MOL
REMARK 927      BINDING AFFINITY PREDICTED BY RF-SCORE:    0.00 PKD
ROOT
HETATM    1  O   UNL     1      -9.381   3.086  63.314  1.00  0.00    -0.094 OA 
HETATM    2  C   UNL     1      -9.427   3.683  64.384  1.00  0.00    -0.154 C  
HETATM    3  N   UNL     1      -8.304   4.109  65.037  1.00  0.00    -0.108 N  
HETATM    4  C   UNL     1      -8.332   4.765  66.275  1.00  0.00    -0.111 A  
HETATM    5  H   UNL     1      -7.398   3.938  64.601  1.00  0.00     0.000 HD 
HETATM    6  C   UNL     1      -7.141   5.151  66.888  1.00  0.00    -0.073 A  
HETATM    7  C   UNL     1      -7.174   5.783  68.134  1.00  0.00    -0.076 A  
HETATM    8  C   UNL     1     -10.730   3.981  65.029  1.00  0.00    -0.062 C  
HETATM    9  C   UNL     1      -8.409   6.021  68.751  1.00  0.00    -0.106 A  
HETATM   10  C   UNL     1     -10.798   4.609  66.209  1.00  0.00     0.225 C  
HETATM   11  C   UNL     1      -9.602   5.641  68.131  1.00  0.00    -0.135 A  
HETATM   12  C   UNL     1      -9.569   5.015  66.887  1.00  0.00    -0.162 A  
ENDROOT
BRANCH   7  13
HETATM   13  O   UNL     1      -5.947   6.120  68.645  1.00  0.00    -0.018 OA 
BRANCH  13  14
HETATM   14  C   UNL     1      -5.975   6.764  69.919  1.00  0.00    -0.023 C  
BRANCH  14  15
HETATM   15  C   UNL     1      -5.139   8.039  69.876  1.00  0.00    -0.023 C  
BRANCH  15  16
HETATM   16  C   UNL     1      -5.738   9.080  68.926  1.00  0.00    -0.040 C  
BRANCH  16  17
HETATM   17  C   UNL     1      -7.104   9.649  69.353  1.00  0.00    -0.062 C  
BRANCH  17  18
HETATM   18  N   UNL     1      -8.227   9.243  68.498  1.00  0.00    -0.113 NA 
HETATM   19  C   UNL     1      -9.554   9.558  69.082  1.00  0.00    -0.170 C  
HETATM   20  C   UNL     1      -9.922  11.061  69.132  1.00  0.00    -0.121 C  
HETATM   21  N   UNL     1      -9.763  11.671  67.807  1.00  0.00    -0.170 NA 
HETATM   22  C   UNL     1      -8.152   9.905  67.167  1.00  0.00    -0.117 C  
HETATM   23  C   UNL     1      -8.464  11.426  67.161  1.00  0.00    -0.153 C  
BRANCH  21  24
HETATM   24  C   UNL     1     -10.525  12.783  67.433  1.00  0.00    -0.228 A  
HETATM   25  C   UNL     1     -11.159  12.977  66.158  1.00  0.00    -0.311 A  
HETATM   26  C   UNL     1     -11.373  12.081  65.043  1.00  0.00    -0.365 A  
HETATM   27  C   UNL     1     -11.976  12.670  63.957  1.00  0.00    -0.451 A  
HETATM   28  S   UNL     1     -12.362  14.294  64.258  1.00  0.00    -0.267 SA 
HETATM   29  C   UNL     1     -11.729  14.224  65.862  1.00  0.00    -0.372 A  
HETATM   30  C   UNL     1     -11.749  15.281  66.790  1.00  0.00     0.030 A  
HETATM   31  C   UNL     1     -11.197  15.075  68.044  1.00  0.00    -0.324 A  
HETATM   32  C   UNL     1     -10.601  13.859  68.351  1.00  0.00    -0.262 A  
ENDBRANCH  21  24
ENDBRANCH  17  18
ENDBRANCH  16  17
ENDBRANCH  15  16
ENDBRANCH  14  15
ENDBRANCH  13  14
ENDBRANCH   7  13
TORSDOF 7
ENDMDL
MODEL      292
REMARK 921   NORMALIZED FREE ENERGY PREDICTED BY IDOCK:   -2.89 KCAL/MOL
REMARK 922        TOTAL FREE ENERGY PREDICTED BY IDOCK:   -5.38 KCAL/MOL
REMARK 923 INTER-LIGAND FREE ENERGY PREDICTED BY IDOCK:   -5.50 KCAL/MOL
REMARK 924 INTRA-LIGAND FREE ENERGY PREDICTED BY IDOCK:    0.12 KCAL/MOL
REMARK 927      BINDING AFFINITY PREDICTED BY RF-SCORE:    0.00 PKD
ROOT
HETATM    1  O   UNL     1      -9.864  16.207  68.506  1.00  0.00    -0.215 OA 
HETATM    2  C   UNL     1     -10.131  15.031  68.283  1.00  0.00    -0.222 C  
HETATM    3  N   UNL     1     -10.638  14.198  69.241  1.00  0.00    -0.408 N  
HETATM    4  C   UNL     1     -10.920  12.843  69.017  1.00  0.00    -0.197 A  
HETATM    5  H   UNL     1     -10.819  14.582  70.169  1.00  0.00     0.000 HD 
HETATM    6  C   UNL     1     -11.418  12.053  70.052  1.00  0.00    -0.183 A  
HETATM    7  C   UNL     1     -11.673  10.698  69.829  1.00  0.00    -0.310 A  
HETATM    8  C   UNL     1      -9.915  14.448  66.935  1.00  0.00    -0.261 C  
HETATM    9  C   UNL     1     -11.426  10.150  68.563  1.00  0.00    -0.098 A  
HETATM   10  C   UNL     1     -10.177  13.160  66.681  1.00  0.00    -0.259 C  
HETATM   11  C   UNL     1     -10.936  10.946  67.525  1.00  0.00    -0.352 A  
HETATM   12  C   UNL     1     -10.685  12.299  67.746  1.00  0.00    -0.246 A  
ENDROOT
BRANCH   7  13
HETATM   13  O   UNL     1     -12.161  10.014  70.913  1.00  0.00    -0.304 OA 
BRANCH  13  14
HETATM   14  C   UNL     1     -11.742   8.653  71.014  1.00  0.00    -0.278 C  
BRANCH  14  15
HETATM   15  C   UNL     1     -11.730   8.218  72.475  1.00  0.00    -0.451 C  
BRANCH  15  16
HETATM   16  C   UNL     1     -10.468   7.422  72.821  1.00  0.00    -0.323 C  
BRANCH  16  17
HETATM   17  C   UNL     1     -10.684   6.232  73.773  1.00  0.00    -0.162 C  
BRANCH  17  18
HETATM   18  N   UNL     1     -10.046   4.982  73.342  1.00  0.00    -0.157 NA 
HETATM   19  C   UNL     1     -10.245   4.687  71.901  1.00  0.00    -0.184 C  
HETATM   20  C   UNL     1      -9.479   5.609  70.919  1.00  0.00    -0.166 C  
HETATM   21  N   UNL     1      -8.054   5.652  71.264  1.00  0.00    -0.112 NA 
HETATM   22  C   UNL     1      -8.580   5.014  73.597  1.00  0.00    -0.104 C  
HETATM   23  C   UNL     1      -7.764   5.959  72.674  1.00  0.00    -0.101 C  
BRANCH  21  24
HETATM   24  C   UNL     1      -7.087   5.904  70.285  1.00  0.00    -0.074 A  
HETATM   25  C   UNL     1      -6.948   7.122  69.535  1.00  0.00    -0.058 A  
HETATM   26  C   UNL     1      -7.562   8.423  69.688  1.00  0.00    -0.089 A  
HETATM   27  C   UNL     1      -7.211   9.328  68.716  1.00  0.00    -0.074 A  
HETATM   28  S   UNL     1      -6.090   8.673  67.624  1.00  0.00    -0.048 SA 
HETATM   29  C   UNL     1      -6.054   7.160  68.455  1.00  0.00    -0.034 A  
HETATM   30  C   UNL     1      -5.247   6.062  68.108  1.00  0.00    -0.004 A  
HETATM   31  C   UNL     1      -5.331   4.908  68.870  1.00  0.00    -0.004 A  
HETATM   32  C   UNL     1      -6.230   4.836  69.926  1.00  0.00    -0.026 A  
ENDBRANCH  21  24
ENDBRANCH  17  18
ENDBRANCH  16  17
ENDBRANCH  15  16
ENDBRANCH  14  15
ENDBRANCH  13  14
ENDBRANCH   7  13
TORSDOF 7
ENDMDL
MODEL      293
REMARK 921   NORMALIZED FREE ENERGY PREDICTED BY IDOCK:   -2.89 KCAL/MOL
REMARK 922        TOTAL FREE ENERGY PREDICTED BY IDOCK:   -5.38 KCAL/MOL
REMARK 923 INTER-LIGAND FREE ENERGY PREDICTED BY IDOCK:   -3.99 KCAL/MOL
REMARK 924 INTRA-LIGAND FREE ENERGY PREDICTED BY IDOCK:   -1.38 KCAL/MOL
REMARK 927      BINDING AFFINITY PREDICTED BY RF-SCORE:    0.00 PKD
ROOT
HETATM    1  O   UNL     1     -11.453   6.420  66.865  1.00  0.00    -0.188 OA 
HETATM    2  C   UNL     1     -10.305   6.264  67.266  1.00  0.00    -0.216 C  
HETATM    3  N   UNL     1      -9.991   5.400  68.279  1.00  0.00    -0.150 N  
HETATM    4  C   UNL     1      -8.691   5.229  68.774  1.00  0.00    -0.090 A  
HETATM    5  H   UNL     1     -10.743   4.851  68.696  1.00  0.00     0.000 HD 
HETATM    6  C   UNL     1      -8.454   4.341  69.823  1.00  0.00    -0.085 A  
HETATM    7  C   UNL     1      -7.161   4.195  70.329  1.00  0.00    -0.041 A  
HETATM    8  C   UNL     1      -9.181   7.019  66.658  1.00  0.00    -0.189 C  
HETATM    9  C   UNL     1      -6.115   4.944  69.772  1.00  0.00    -0.022 A  
HETATM   10  C   UNL     1      -7.926   6.880  67.101  1.00  0.00    -0.113 C  
HETATM   11  C   UNL     1      -6.353   5.826  68.716  1.00  0.00    -0.037 A  
HETATM   12  C   UNL     1      -7.643   5.969  68.208  1.00  0.00    -0.091 A  
ENDROOT
BRANCH   7  13
HETATM   13  O   UNL     1      -7.040   3.296  71.358  1.00  0.00    -0.031 OA 
BRANCH  13  14
HETATM   14  C   UNL     1      -6.441   3.809  72.547  1.00  0.00    -0.017 C  
BRANCH  14  15
HETATM   15  C   UNL     1      -7.515   4.392  73.461  1.00  0.00    -0.078 C  
BRANCH  15  16
HETATM   16  C   UNL     1      -7.795   5.864  73.142  1.00  0.00    -0.102 C  
BRANCH  16  17
HETATM   17  C   UNL     1      -9.268   6.202  72.850  1.00  0.00    -0.134 C  
BRANCH  17  18
HETATM   18  N   UNL     1      -9.596   7.630  72.948  1.00  0.00    -0.194 NA 
HETATM   19  C   UNL     1      -8.472   8.519  72.567  1.00  0.00    -0.111 C  
HETATM   20  C   UNL     1      -8.116   8.537  71.059  1.00  0.00    -0.130 C  
HETATM   21  N   UNL     1      -9.312   8.812  70.255  1.00  0.00    -0.165 NA 
HETATM   22  C   UNL     1     -10.756   7.973  72.081  1.00  0.00    -0.276 C  
HETATM   23  C   UNL     1     -10.473   7.959  70.554  1.00  0.00    -0.214 C  
BRANCH  21  24
HETATM   24  C   UNL     1      -9.208   9.429  69.004  1.00  0.00    -0.145 A  
HETATM   25  C   UNL     1      -7.998   9.930  68.411  1.00  0.00    -0.096 A  
HETATM   26  C   UNL     1      -6.609   9.775  68.783  1.00  0.00    -0.046 A  
HETATM   27  C   UNL     1      -5.733  10.470  67.984  1.00  0.00    -0.040 A  
HETATM   28  S   UNL     1      -6.536  11.278  66.727  1.00  0.00    -0.133 SA 
HETATM   29  C   UNL     1      -8.078  10.694  67.238  1.00  0.00    -0.116 A  
HETATM   30  C   UNL     1      -9.298  10.947  66.588  1.00  0.00    -0.191 A  
HETATM   31  C   UNL     1     -10.460  10.411  67.120  1.00  0.00    -0.311 A  
HETATM   32  C   UNL     1     -10.411   9.675  68.297  1.00  0.00    -0.240 A  
ENDBRANCH  21  24
ENDBRANCH  17  18
ENDBRANCH  16  17
ENDBRANCH  15  16
ENDBRANCH  14  15
ENDBRANCH  13  14
ENDBRANCH   7  13
TORSDOF 7
ENDMDL
MODEL      294
REMARK 921   NORMALIZED FREE ENERGY PREDICTED BY IDOCK:   -2.89 KCAL/MOL
REMARK 922        TOTAL FREE ENERGY PREDICTED BY IDOCK:   -5.37 KCAL/MOL
REMARK 923 INTER-LIGAND FREE ENERGY PREDICTED BY IDOCK:   -4.15 KCAL/MOL
REMARK 924 INTRA-LIGAND FREE ENERGY PREDICTED BY IDOCK:   -1.23 KCAL/MOL
REMARK 927      BINDING AFFINITY PREDICTED BY RF-SCORE:    0.00 PKD
ROOT
HETATM    1  O   UNL     1      -9.337  10.870  63.471  1.00  0.00    -0.225 OA 
HETATM    2  C   UNL     1      -9.695  10.279  64.484  1.00  0.00    -0.329 C  
HETATM    3  N   UNL     1      -9.277   9.012  64.781  1.00  0.00    -0.440 N  
HETATM    4  C   UNL     1      -9.697   8.306  65.917  1.00  0.00     0.089 A  
HETATM    5  H   UNL     1      -8.625   8.556  64.143  1.00  0.00     0.000 HD 
HETATM    6  C   UNL     1      -9.241   7.007  66.141  1.00  0.00    -0.119 A  
HETATM    7  C   UNL     1      -9.684   6.300  67.261  1.00  0.00    -0.129 A  
HETATM    8  C   UNL     1     -10.614  10.926  65.454  1.00  0.00    -0.243 C  
HETATM    9  C   UNL     1     -10.584   6.907  68.147  1.00  0.00    -0.262 A  
HETATM   10  C   UNL     1     -11.034  10.285  66.551  1.00  0.00     0.026 C  
HETATM   11  C   UNL     1     -11.033   8.211  67.925  1.00  0.00     0.098 A  
HETATM   12  C   UNL     1     -10.587   8.919  66.810  1.00  0.00    -0.212 A  
ENDROOT
BRANCH   7  13
HETATM   13  O   UNL     1      -9.172   5.033  67.386  1.00  0.00    -0.114 OA 
BRANCH  13  14
HETATM   14  C   UNL     1      -8.227   4.860  68.441  1.00  0.00    -0.084 C  
BRANCH  14  15
HETATM   15  C   UNL     1      -7.022   5.767  68.215  1.00  0.00    -0.069 C  
BRANCH  15  16
HETATM   16  C   UNL     1      -6.561   6.435  69.514  1.00  0.00    -0.048 C  
BRANCH  16  17
HETATM   17  C   UNL     1      -6.217   7.931  69.397  1.00  0.00    -0.034 C  
BRANCH  17  18
HETATM   18  N   UNL     1      -7.055   8.814  70.218  1.00  0.00    -0.041 NA 
HETATM   19  C   UNL     1      -6.289   9.896  70.885  1.00  0.00    -0.056 C  
HETATM   20  C   UNL     1      -5.749  11.006  69.949  1.00  0.00    -0.072 C  
HETATM   21  N   UNL     1      -6.832  11.550  69.122  1.00  0.00    -0.104 NA 
HETATM   22  C   UNL     1      -8.120   9.455  69.399  1.00  0.00    -0.105 C  
HETATM   23  C   UNL     1      -7.632  10.544  68.406  1.00  0.00    -0.097 C  
BRANCH  21  24
HETATM   24  C   UNL     1      -6.779  12.863  68.644  1.00  0.00    -0.095 A  
HETATM   25  C   UNL     1      -7.840  13.554  67.964  1.00  0.00    -0.147 A  
HETATM   26  C   UNL     1      -9.235  13.222  67.768  1.00  0.00    -0.209 A  
HETATM   27  C   UNL     1      -9.924  14.125  66.996  1.00  0.00    -0.260 A  
HETATM   28  S   UNL     1      -8.945  15.430  66.532  1.00  0.00    -0.319 SA 
HETATM   29  C   UNL     1      -7.577  14.799  67.375  1.00  0.00    -0.202 A  
HETATM   30  C   UNL     1      -6.321  15.424  67.468  1.00  0.00    -0.148 A  
HETATM   31  C   UNL     1      -5.314  14.792  68.180  1.00  0.00    -0.122 A  
HETATM   32  C   UNL     1      -5.542  13.545  68.748  1.00  0.00    -0.075 A  
ENDBRANCH  21  24
ENDBRANCH  17  18
ENDBRANCH  16  17
ENDBRANCH  15  16
ENDBRANCH  14  15
ENDBRANCH  13  14
ENDBRANCH   7  13
TORSDOF 7
ENDMDL
MODEL      295
REMARK 921   NORMALIZED FREE ENERGY PREDICTED BY IDOCK:   -2.88 KCAL/MOL
REMARK 922        TOTAL FREE ENERGY PREDICTED BY IDOCK:   -5.36 KCAL/MOL
REMARK 923 INTER-LIGAND FREE ENERGY PREDICTED BY IDOCK:   -4.12 KCAL/MOL
REMARK 924 INTRA-LIGAND FREE ENERGY PREDICTED BY IDOCK:   -1.25 KCAL/MOL
REMARK 927      BINDING AFFINITY PREDICTED BY RF-SCORE:    0.00 PKD
ROOT
HETATM    1  O   UNL     1     -11.320  11.706  67.230  1.00  0.00    -0.293 OA 
HETATM    2  C   UNL     1     -10.259  11.163  66.939  1.00  0.00    -0.222 C  
HETATM    3  N   UNL     1     -10.200  10.020  66.192  1.00  0.00    -0.238 N  
HETATM    4  C   UNL     1      -9.001   9.366  65.874  1.00  0.00    -0.178 A  
HETATM    5  H   UNL     1     -11.074   9.622  65.847  1.00  0.00     0.000 HD 
HETATM    6  C   UNL     1      -9.025   8.192  65.122  1.00  0.00     0.113 A  
HETATM    7  C   UNL     1      -7.829   7.531  64.831  1.00  0.00    -0.128 A  
HETATM    8  C   UNL     1      -8.967  11.735  67.391  1.00  0.00    -0.173 C  
HETATM    9  C   UNL     1      -6.619   8.060  65.299  1.00  0.00    -0.051 A  
HETATM   10  C   UNL     1      -7.802  11.142  67.105  1.00  0.00    -0.139 C  
HETATM   11  C   UNL     1      -6.597   9.241  66.044  1.00  0.00    -0.072 A  
HETATM   12  C   UNL     1      -7.790   9.902  66.331  1.00  0.00    -0.107 A  
ENDROOT
BRANCH   7  13
HETATM   13  O   UNL     1      -7.966   6.388  64.085  1.00  0.00    -0.115 OA 
BRANCH  13  14
HETATM   14  C   UNL     1      -7.051   5.340  64.404  1.00  0.00    -0.050 C  
BRANCH  14  15
HETATM   15  C   UNL     1      -7.817   4.080  64.795  1.00  0.00    -0.085 C  
BRANCH  15  16
HETATM   16  C   UNL     1      -7.228   3.421  66.046  1.00  0.00    -0.067 C  
BRANCH  16  17
HETATM   17  C   UNL     1      -8.260   2.962  67.092  1.00  0.00    -0.084 C  
BRANCH  17  18
HETATM   18  N   UNL     1      -7.743   2.883  68.464  1.00  0.00    -0.054 NA 
HETATM   19  C   UNL     1      -6.860   4.020  68.826  1.00  0.00    -0.047 C  
HETATM   20  C   UNL     1      -7.569   5.387  68.997  1.00  0.00    -0.085 C  
HETATM   21  N   UNL     1      -8.695   5.267  69.929  1.00  0.00    -0.104 NA 
HETATM   22  C   UNL     1      -8.855   2.843  69.453  1.00  0.00    -0.094 C  
HETATM   23  C   UNL     1      -9.634   4.173  69.633  1.00  0.00    -0.207 C  
BRANCH  21  24
HETATM   24  C   UNL     1      -9.123   6.365  70.682  1.00  0.00    -0.148 A  
HETATM   25  C   UNL     1      -8.521   6.837  71.898  1.00  0.00    -0.116 A  
HETATM   26  C   UNL     1      -7.275   6.497  72.551  1.00  0.00    -0.082 A  
HETATM   27  C   UNL     1      -7.078   7.134  73.752  1.00  0.00    -0.079 A  
HETATM   28  S   UNL     1      -8.345   8.204  74.110  1.00  0.00    -0.144 SA 
HETATM   29  C   UNL     1      -9.173   7.831  72.642  1.00  0.00    -0.180 A  
HETATM   30  C   UNL     1     -10.375   8.422  72.216  1.00  0.00    -0.403 A  
HETATM   31  C   UNL     1     -10.925   8.016  71.010  1.00  0.00    -0.263 A  
HETATM   32  C   UNL     1     -10.313   7.013  70.270  1.00  0.00    -0.219 A  
ENDBRANCH  21  24
ENDBRANCH  17  18
ENDBRANCH  16  17
ENDBRANCH  15  16
ENDBRANCH  14  15
ENDBRANCH  13  14
ENDBRANCH   7  13
TORSDOF 7
ENDMDL
MODEL      296
REMARK 921   NORMALIZED FREE ENERGY PREDICTED BY IDOCK:   -2.85 KCAL/MOL
REMARK 922        TOTAL FREE ENERGY PREDICTED BY IDOCK:   -5.32 KCAL/MOL
REMARK 923 INTER-LIGAND FREE ENERGY PREDICTED BY IDOCK:   -4.64 KCAL/MOL
REMARK 924 INTRA-LIGAND FREE ENERGY PREDICTED BY IDOCK:   -0.67 KCAL/MOL
REMARK 927      BINDING AFFINITY PREDICTED BY RF-SCORE:    0.00 PKD
ROOT
HETATM    1  O   UNL     1      -7.796   6.868  73.284  1.00  0.00    -0.094 OA 
HETATM    2  C   UNL     1      -7.957   7.124  72.095  1.00  0.00    -0.091 C  
HETATM    3  N   UNL     1      -8.936   7.971  71.652  1.00  0.00    -0.140 N  
HETATM    4  C   UNL     1      -9.158   8.253  70.297  1.00  0.00    -0.150 A  
HETATM    5  H   UNL     1      -9.536   8.420  72.344  1.00  0.00     0.000 HD 
HETATM    6  C   UNL     1     -10.189   9.114  69.923  1.00  0.00    -0.222 A  
HETATM    7  C   UNL     1     -10.422   9.371  68.570  1.00  0.00    -0.208 A  
HETATM    8  C   UNL     1      -7.079   6.517  71.064  1.00  0.00    -0.069 C  
HETATM    9  C   UNL     1      -9.611   8.759  67.604  1.00  0.00    -0.179 A  
HETATM   10  C   UNL     1      -7.258   6.766  69.761  1.00  0.00    -0.077 C  
HETATM   11  C   UNL     1      -8.572   7.905  67.982  1.00  0.00    -0.126 A  
HETATM   12  C   UNL     1      -8.338   7.651  69.332  1.00  0.00    -0.131 A  
ENDROOT
BRANCH   7  13
HETATM   13  O   UNL     1     -11.459  10.231  68.314  1.00  0.00    -0.233 OA 
BRANCH  13  14
HETATM   14  C   UNL     1     -11.661  11.249  69.293  1.00  0.00    -0.334 C  
BRANCH  14  15
HETATM   15  C   UNL     1     -12.519  12.368  68.712  1.00  0.00     0.537 C  
BRANCH  15  16
HETATM   16  C   UNL     1     -12.152  13.732  69.305  1.00  0.00    -0.374 C  
BRANCH  16  17
HETATM   17  C   UNL     1     -11.278  14.625  68.405  1.00  0.00    -0.274 C  
BRANCH  17  18
HETATM   18  N   UNL     1      -9.967  14.054  68.070  1.00  0.00    -0.229 NA 
HETATM   19  C   UNL     1      -9.534  14.354  66.683  1.00  0.00    -0.283 C  
HETATM   20  C   UNL     1      -9.145  15.828  66.408  1.00  0.00    -0.322 C  
HETATM   21  N   UNL     1      -8.155  16.287  67.389  1.00  0.00    -0.148 NA 
HETATM   22  C   UNL     1      -8.913  14.559  68.991  1.00  0.00    -0.044 C  
HETATM   23  C   UNL     1      -8.515  16.047  68.795  1.00  0.00    -0.228 C  
BRANCH  21  24
HETATM   24  C   UNL     1      -7.244  17.299  67.068  1.00  0.00    -0.183 A  
HETATM   25  C   UNL     1      -7.448  18.708  67.268  1.00  0.00    -0.225 A  
HETATM   26  C   UNL     1      -8.463  19.440  67.992  1.00  0.00    -0.355 A  
HETATM   27  C   UNL     1      -8.346  20.806  67.897  1.00  0.00     0.143 A  
HETATM   28  S   UNL     1      -6.984  21.257  66.991  1.00  0.00    -0.024 SA 
HETATM   29  C   UNL     1      -6.527  19.614  66.723  1.00  0.00    -0.191 A  
HETATM   30  C   UNL     1      -5.379  19.194  66.028  1.00  0.00    -0.175 A  
HETATM   31  C   UNL     1      -5.146  17.835  65.890  1.00  0.00    -0.227 A  
HETATM   32  C   UNL     1      -6.058  16.918  66.395  1.00  0.00     0.016 A  
ENDBRANCH  21  24
ENDBRANCH  17  18
ENDBRANCH  16  17
ENDBRANCH  15  16
ENDBRANCH  14  15
ENDBRANCH  13  14
ENDBRANCH   7  13
TORSDOF 7
ENDMDL
MODEL      297
REMARK 921   NORMALIZED FREE ENERGY PREDICTED BY IDOCK:   -2.80 KCAL/MOL
REMARK 922        TOTAL FREE ENERGY PREDICTED BY IDOCK:   -5.25 KCAL/MOL
REMARK 923 INTER-LIGAND FREE ENERGY PREDICTED BY IDOCK:   -5.72 KCAL/MOL
REMARK 924 INTRA-LIGAND FREE ENERGY PREDICTED BY IDOCK:    0.47 KCAL/MOL
REMARK 927      BINDING AFFINITY PREDICTED BY RF-SCORE:    0.00 PKD
ROOT
HETATM    1  O   UNL     1     -11.358  18.092  65.205  1.00  0.00    -0.101 OA 
HETATM    2  C   UNL     1     -10.342  17.629  65.711  1.00  0.00    -0.188 C  
HETATM    3  N   UNL     1     -10.182  16.292  65.947  1.00  0.00    -0.348 N  
HETATM    4  C   UNL     1      -9.043  15.744  66.552  1.00  0.00    -0.293 A  
HETATM    5  H   UNL     1     -10.932  15.659  65.668  1.00  0.00     0.000 HD 
HETATM    6  C   UNL     1      -8.963  14.371  66.777  1.00  0.00    -0.256 A  
HETATM    7  C   UNL     1      -7.835  13.835  67.404  1.00  0.00    -0.153 A  
HETATM    8  C   UNL     1      -9.215  18.516  66.095  1.00  0.00    -0.136 C  
HETATM    9  C   UNL     1      -6.796  14.688  67.799  1.00  0.00    -0.193 A  
HETATM   10  C   UNL     1      -8.110  18.030  66.671  1.00  0.00    -0.285 C  
HETATM   11  C   UNL     1      -6.875  16.063  67.565  1.00  0.00    -0.205 A  
HETATM   12  C   UNL     1      -7.998  16.597  66.935  1.00  0.00    -0.255 A  
ENDROOT
BRANCH   7  13
HETATM   13  O   UNL     1      -7.860  12.474  67.575  1.00  0.00    -0.146 OA 
BRANCH  13  14
HETATM   14  C   UNL     1      -9.115  11.849  67.309  1.00  0.00    -0.178 C  
BRANCH  14  15
HETATM   15  C   UNL     1      -9.572  11.056  68.528  1.00  0.00    -0.187 C  
BRANCH  15  16
HETATM   16  C   UNL     1      -9.246   9.566  68.393  1.00  0.00    -0.130 C  
BRANCH  16  17
HETATM   17  C   UNL     1     -10.170   8.776  67.448  1.00  0.00    -0.252 C  
BRANCH  17  18
HETATM   18  N   UNL     1      -9.949   7.324  67.452  1.00  0.00    -0.158 NA 
HETATM   19  C   UNL     1      -8.665   6.927  68.080  1.00  0.00    -0.126 C  
HETATM   20  C   UNL     1      -8.589   7.108  69.617  1.00  0.00    -0.137 C  
HETATM   21  N   UNL     1      -9.728   6.450  70.266  1.00  0.00    -0.167 NA 
HETATM   22  C   UNL     1     -11.042   6.620  68.176  1.00  0.00    -0.198 C  
HETATM   23  C   UNL     1     -11.047   6.803  69.718  1.00  0.00    -0.316 C  
BRANCH  21  24
HETATM   24  C   UNL     1      -9.627   5.970  71.576  1.00  0.00    -0.156 A  
HETATM   25  C   UNL     1      -8.448   5.410  72.177  1.00  0.00    -0.126 A  
HETATM   26  C   UNL     1      -7.070   5.367  71.738  1.00  0.00    -0.076 A  
HETATM   27  C   UNL     1      -6.233   4.675  72.579  1.00  0.00    -0.021 A  
HETATM   28  S   UNL     1      -7.053   4.107  73.952  1.00  0.00    -0.063 SA 
HETATM   29  C   UNL     1      -8.549   4.796  73.434  1.00  0.00    -0.102 A  
HETATM   30  C   UNL     1      -9.755   4.753  74.155  1.00  0.00    -0.153 A  
HETATM   31  C   UNL     1     -10.879   5.350  73.608  1.00  0.00    -0.321 A  
HETATM   32  C   UNL     1     -10.812   5.938  72.351  1.00  0.00    -0.288 A  
ENDBRANCH  21  24
ENDBRANCH  17  18
ENDBRANCH  16  17
ENDBRANCH  15  16
ENDBRANCH  14  15
ENDBRANCH  13  14
ENDBRANCH   7  13
TORSDOF 7
ENDMDL
MODEL      298
REMARK 921   NORMALIZED FREE ENERGY PREDICTED BY IDOCK:   -2.75 KCAL/MOL
REMARK 922        TOTAL FREE ENERGY PREDICTED BY IDOCK:   -5.17 KCAL/MOL
REMARK 923 INTER-LIGAND FREE ENERGY PREDICTED BY IDOCK:   -4.41 KCAL/MOL
REMARK 924 INTRA-LIGAND FREE ENERGY PREDICTED BY IDOCK:   -0.76 KCAL/MOL
REMARK 927      BINDING AFFINITY PREDICTED BY RF-SCORE:    0.00 PKD
ROOT
HETATM    1  O   UNL     1     -10.616  11.060  66.163  1.00  0.00    -0.257 OA 
HETATM    2  C   UNL     1      -9.613  10.363  66.065  1.00  0.00    -0.201 C  
HETATM    3  N   UNL     1      -9.641   9.106  65.526  1.00  0.00    -0.446 N  
HETATM    4  C   UNL     1      -8.513   8.280  65.432  1.00  0.00    -0.172 A  
HETATM    5  H   UNL     1     -10.531   8.751  65.175  1.00  0.00     0.000 HD 
HETATM    6  C   UNL     1      -8.627   7.002  64.887  1.00  0.00     0.157 A  
HETATM    7  C   UNL     1      -7.504   6.174  64.820  1.00  0.00    -0.084 A  
HETATM    8  C   UNL     1      -8.295  10.862  66.531  1.00  0.00    -0.155 C  
HETATM    9  C   UNL     1      -6.274   6.642  65.302  1.00  0.00    -0.038 A  
HETATM   10  C   UNL     1      -7.195  10.104  66.455  1.00  0.00    -0.108 C  
HETATM   11  C   UNL     1      -6.160   7.926  65.839  1.00  0.00    -0.038 A  
HETATM   12  C   UNL     1      -7.280   8.754  65.903  1.00  0.00    -0.084 A  
ENDROOT
BRANCH   7  13
HETATM   13  O   UNL     1      -7.727   4.939  64.266  1.00  0.00    -0.074 OA 
BRANCH  13  14
HETATM   14  C   UNL     1      -6.861   3.901  64.723  1.00  0.00    -0.049 C  
BRANCH  14  15
HETATM   15  C   UNL     1      -7.679   2.782  65.358  1.00  0.00    -0.077 C  
BRANCH  15  16
HETATM   16  C   UNL     1      -7.238   2.501  66.798  1.00  0.00    -0.053 C  
BRANCH  16  17
HETATM   17  C   UNL     1      -8.383   2.319  67.811  1.00  0.00    -0.067 C  
BRANCH  17  18
HETATM   18  N   UNL     1      -7.966   2.374  69.218  1.00  0.00    -0.045 NA 
HETATM   19  C   UNL     1      -6.935   3.407  69.486  1.00  0.00    -0.041 C  
HETATM   20  C   UNL     1      -7.423   4.874  69.404  1.00  0.00    -0.056 C  
HETATM   21  N   UNL     1      -8.606   5.068  70.249  1.00  0.00    -0.101 NA 
HETATM   22  C   UNL     1      -9.125   2.652  70.108  1.00  0.00    -0.116 C  
HETATM   23  C   UNL     1      -9.690   4.096  70.034  1.00  0.00    -0.212 C  
BRANCH  21  24
HETATM   24  C   UNL     1      -8.896   6.320  70.802  1.00  0.00    -0.144 A  
HETATM   25  C   UNL     1     -10.210   6.867  71.002  1.00  0.00    -0.213 A  
HETATM   26  C   UNL     1     -11.525   6.272  70.910  1.00  0.00    -0.377 A  
HETATM   27  C   UNL     1     -12.557   7.154  71.119  1.00  0.00    -0.341 A  
HETATM   28  S   UNL     1     -11.987   8.708  71.494  1.00  0.00    -0.323 SA 
HETATM   29  C   UNL     1     -10.338   8.209  71.388  1.00  0.00    -0.208 A  
HETATM   30  C   UNL     1      -9.224   9.030  71.638  1.00  0.00    -0.223 A  
HETATM   31  C   UNL     1      -7.956   8.487  71.509  1.00  0.00    -0.169 A  
HETATM   32  C   UNL     1      -7.802   7.169  71.099  1.00  0.00    -0.098 A  
ENDBRANCH  21  24
ENDBRANCH  17  18
ENDBRANCH  16  17
ENDBRANCH  15  16
ENDBRANCH  14  15
ENDBRANCH  13  14
ENDBRANCH   7  13
TORSDOF 7
ENDMDL
MODEL      299
REMARK 921   NORMALIZED FREE ENERGY PREDICTED BY IDOCK:   -2.72 KCAL/MOL
REMARK 922        TOTAL FREE ENERGY PREDICTED BY IDOCK:   -5.13 KCAL/MOL
REMARK 923 INTER-LIGAND FREE ENERGY PREDICTED BY IDOCK:   -4.28 KCAL/MOL
REMARK 924 INTRA-LIGAND FREE ENERGY PREDICTED BY IDOCK:   -0.86 KCAL/MOL
REMARK 927      BINDING AFFINITY PREDICTED BY RF-SCORE:    0.00 PKD
ROOT
HETATM    1  O   UNL     1     -10.601   3.743  64.551  1.00  0.00    -0.224 OA 
HETATM    2  C   UNL     1      -9.726   3.613  65.401  1.00  0.00    -0.130 C  
HETATM    3  N   UNL     1     -10.010   3.473  66.731  1.00  0.00    -0.311 N  
HETATM    4  C   UNL     1      -9.026   3.355  67.723  1.00  0.00    -0.145 A  
HETATM    5  H   UNL     1     -10.989   3.455  67.018  1.00  0.00     0.000 HD 
HETATM    6  C   UNL     1      -9.395   3.235  69.062  1.00  0.00    -0.234 A  
HETATM    7  C   UNL     1      -8.409   3.143  70.048  1.00  0.00    -0.048 A  
HETATM    8  C   UNL     1      -8.293   3.598  65.017  1.00  0.00    -0.097 C  
HETATM    9  C   UNL     1      -7.059   3.171  69.675  1.00  0.00    -0.041 A  
HETATM   10  C   UNL     1      -7.325   3.482  65.934  1.00  0.00    -0.076 C  
HETATM   11  C   UNL     1      -6.691   3.282  68.331  1.00  0.00    -0.045 A  
HETATM   12  C   UNL     1      -7.675   3.370  67.348  1.00  0.00    -0.078 A  
ENDROOT
BRANCH   7  13
HETATM   13  O   UNL     1      -8.882   3.028  71.330  1.00  0.00    -0.074 OA 
BRANCH  13  14
HETATM   14  C   UNL     1     -10.195   3.543  71.544  1.00  0.00     0.117 C  
BRANCH  14  15
HETATM   15  C   UNL     1     -10.252   4.292  72.871  1.00  0.00    -0.227 C  
BRANCH  15  16
HETATM   16  C   UNL     1      -9.642   5.693  72.760  1.00  0.00    -0.164 C  
BRANCH  16  17
HETATM   17  C   UNL     1     -10.481   6.713  71.971  1.00  0.00    -0.204 C  
BRANCH  17  18
HETATM   18  N   UNL     1     -10.324   8.105  72.414  1.00  0.00    -0.285 NA 
HETATM   19  C   UNL     1      -8.907   8.512  72.579  1.00  0.00    -0.175 C  
HETATM   20  C   UNL     1      -8.100   8.667  71.267  1.00  0.00    -0.147 C  
HETATM   21  N   UNL     1      -8.805   9.552  70.333  1.00  0.00    -0.243 NA 
HETATM   22  C   UNL     1     -10.955   9.047  71.450  1.00  0.00    -0.324 C  
HETATM   23  C   UNL     1     -10.216   9.207  70.095  1.00  0.00    -0.205 C  
BRANCH  21  24
HETATM   24  C   UNL     1      -8.102  10.296  69.380  1.00  0.00    -0.163 A  
HETATM   25  C   UNL     1      -8.625  11.399  68.621  1.00  0.00    -0.126 A  
HETATM   26  C   UNL     1      -9.852  12.154  68.742  1.00  0.00    -0.034 A  
HETATM   27  C   UNL     1     -10.021  13.111  67.771  1.00  0.00    -0.227 A  
HETATM   28  S   UNL     1      -8.691  13.180  66.720  1.00  0.00    -0.010 SA 
HETATM   29  C   UNL     1      -7.863  11.924  67.568  1.00  0.00    -0.152 A  
HETATM   30  C   UNL     1      -6.578  11.446  67.257  1.00  0.00    -0.104 A  
HETATM   31  C   UNL     1      -6.043  10.427  68.030  1.00  0.00    -0.047 A  
HETATM   32  C   UNL     1      -6.790   9.869  69.059  1.00  0.00    -0.054 A  
ENDBRANCH  21  24
ENDBRANCH  17  18
ENDBRANCH  16  17
ENDBRANCH  15  16
ENDBRANCH  14  15
ENDBRANCH  13  14
ENDBRANCH   7  13
TORSDOF 7
ENDMDL
MODEL      300
REMARK 921   NORMALIZED FREE ENERGY PREDICTED BY IDOCK:   -2.68 KCAL/MOL
REMARK 922        TOTAL FREE ENERGY PREDICTED BY IDOCK:   -5.09 KCAL/MOL
REMARK 923 INTER-LIGAND FREE ENERGY PREDICTED BY IDOCK:   -5.02 KCAL/MOL
REMARK 924 INTRA-LIGAND FREE ENERGY PREDICTED BY IDOCK:   -0.06 KCAL/MOL
REMARK 927      BINDING AFFINITY PREDICTED BY RF-SCORE:    0.00 PKD
ROOT
HETATM    1  O   UNL     1     -11.655   2.833  62.715  1.00  0.00    -0.092 OA 
HETATM    2  C   UNL     1     -10.490   2.856  63.098  1.00  0.00    -0.186 C  
HETATM    3  N   UNL     1      -9.917   3.972  63.642  1.00  0.00    -0.256 N  
HETATM    4  C   UNL     1      -8.580   4.030  64.057  1.00  0.00    -0.102 A  
HETATM    5  H   UNL     1     -10.493   4.807  63.750  1.00  0.00     0.000 HD 
HETATM    6  C   UNL     1      -8.063   5.212  64.585  1.00  0.00    -0.119 A  
HETATM    7  C   UNL     1      -6.722   5.271  64.973  1.00  0.00    -0.048 A  
HETATM    8  C   UNL     1      -9.634   1.649  62.990  1.00  0.00    -0.092 C  
HETATM    9  C   UNL     1      -5.914   4.136  64.828  1.00  0.00    -0.022 A  
HETATM   10  C   UNL     1      -8.354   1.664  63.379  1.00  0.00    -0.065 C  
HETATM   11  C   UNL     1      -6.436   2.949  64.307  1.00  0.00    -0.031 A  
HETATM   12  C   UNL     1      -7.775   2.890  63.924  1.00  0.00    -0.076 A  
ENDROOT
BRANCH   7  13
HETATM   13  O   UNL     1      -6.318   6.480  65.480  1.00  0.00    -0.036 OA 
BRANCH  13  14
HETATM   14  C   UNL     1      -5.848   6.449  66.827  1.00  0.00    -0.020 C  
BRANCH  14  15
HETATM   15  C   UNL     1      -7.001   6.137  67.774  1.00  0.00    -0.072 C  
BRANCH  15  16
HETATM   16  C   UNL     1      -8.222   7.017  67.493  1.00  0.00    -0.116 C  
BRANCH  16  17
HETATM   17  C   UNL     1      -9.101   7.330  68.718  1.00  0.00    -0.127 C  
BRANCH  17  18
HETATM   18  N   UNL     1      -8.602   8.422  69.564  1.00  0.00    -0.128 NA 
HETATM   19  C   UNL     1      -7.962   9.516  68.794  1.00  0.00    -0.088 C  
HETATM   20  C   UNL     1      -8.923  10.390  67.950  1.00  0.00    -0.128 C  
HETATM   21  N   UNL     1     -10.021  10.893  68.783  1.00  0.00    -0.189 NA 
HETATM   22  C   UNL     1      -9.702   9.020  70.368  1.00  0.00    -0.206 C  
HETATM   23  C   UNL     1     -10.727   9.869  69.568  1.00  0.00    -0.242 C  
BRANCH  21  24
HETATM   24  C   UNL     1     -10.666  12.095  68.470  1.00  0.00    -0.232 A  
HETATM   25  C   UNL     1     -10.547  12.814  67.231  1.00  0.00    -0.245 A  
HETATM   26  C   UNL     1      -9.958  12.453  65.961  1.00  0.00    -0.270 A  
HETATM   27  C   UNL     1      -9.991  13.454  65.021  1.00  0.00    -0.155 A  
HETATM   28  S   UNL     1     -10.783  14.837  65.605  1.00  0.00    -0.360 SA 
HETATM   29  C   UNL     1     -11.101  14.099  67.133  1.00  0.00    -0.307 A  
HETATM   30  C   UNL     1     -11.815  14.693  68.188  1.00  0.00    -0.332 A  
HETATM   31  C   UNL     1     -11.987  13.975  69.361  1.00  0.00    -0.390 A  
HETATM   32  C   UNL     1     -11.424  12.713  69.494  1.00  0.00    -0.294 A  
ENDBRANCH  21  24
ENDBRANCH  17  18
ENDBRANCH  16  17
ENDBRANCH  15  16
ENDBRANCH  14  15
ENDBRANCH  13  14
ENDBRANCH   7  13
TORSDOF 7
ENDMDL
MODEL      301
REMARK 921   NORMALIZED FREE ENERGY PREDICTED BY IDOCK:   -2.68 KCAL/MOL
REMARK 922        TOTAL FREE ENERGY PREDICTED BY IDOCK:   -5.07 KCAL/MOL
REMARK 923 INTER-LIGAND FREE ENERGY PREDICTED BY IDOCK:   -3.97 KCAL/MOL
REMARK 924 INTRA-LIGAND FREE ENERGY PREDICTED BY IDOCK:   -1.11 KCAL/MOL
REMARK 927      BINDING AFFINITY PREDICTED BY RF-SCORE:    0.00 PKD
ROOT
HETATM    1  O   UNL     1      -8.316   3.063  70.605  1.00  0.00    -0.054 OA 
HETATM    2  C   UNL     1      -8.831   3.936  71.295  1.00  0.00    -0.096 C  
HETATM    3  N   UNL     1      -9.682   4.874  70.779  1.00  0.00    -0.183 N  
HETATM    4  C   UNL     1     -10.257   5.898  71.542  1.00  0.00    -0.205 A  
HETATM    5  H   UNL     1      -9.909   4.826  69.785  1.00  0.00     0.000 HD 
HETATM    6  C   UNL     1     -11.101   6.830  70.939  1.00  0.00    -0.322 A  
HETATM    7  C   UNL     1     -11.651   7.864  71.700  1.00  0.00    -0.272 A  
HETATM    8  C   UNL     1      -8.553   4.013  72.750  1.00  0.00    -0.101 C  
HETATM    9  C   UNL     1     -11.347   7.950  73.065  1.00  0.00    -0.298 A  
HETATM   10  C   UNL     1      -9.087   4.975  73.513  1.00  0.00    -0.123 C  
HETATM   11  C   UNL     1     -10.509   7.010  73.670  1.00  0.00    -0.414 A  
HETATM   12  C   UNL     1      -9.964   5.976  72.911  1.00  0.00    -0.187 A  
ENDROOT
BRANCH   7  13
HETATM   13  O   UNL     1     -12.466   8.723  71.007  1.00  0.00    -0.244 OA 
BRANCH  13  14
HETATM   14  C   UNL     1     -12.004   9.085  69.707  1.00  0.00     0.697 C  
BRANCH  14  15
HETATM   15  C   UNL     1     -12.021  10.602  69.552  1.00  0.00    -0.319 C  
BRANCH  15  16
HETATM   16  C   UNL     1     -10.617  11.203  69.672  1.00  0.00    -0.076 C  
BRANCH  16  17
HETATM   17  C   UNL     1      -9.551  10.564  68.764  1.00  0.00    -0.179 C  
BRANCH  17  18
HETATM   18  N   UNL     1      -9.360  11.244  67.476  1.00  0.00    -0.161 NA 
HETATM   19  C   UNL     1      -7.939  11.318  67.055  1.00  0.00    -0.150 C  
HETATM   20  C   UNL     1      -7.300   9.974  66.626  1.00  0.00    -0.103 C  
HETATM   21  N   UNL     1      -8.126   9.317  65.607  1.00  0.00    -0.110 NA 
HETATM   22  C   UNL     1     -10.117  10.559  66.393  1.00  0.00    -0.228 C  
HETATM   23  C   UNL     1      -9.550   9.183  65.953  1.00  0.00    -0.273 C  
BRANCH  21  24
HETATM   24  C   UNL     1      -7.553   8.449  64.671  1.00  0.00    -0.104 A  
HETATM   25  C   UNL     1      -7.078   7.119  64.938  1.00  0.00    -0.064 A  
HETATM   26  C   UNL     1      -7.222   6.258  66.091  1.00  0.00    -0.075 A  
HETATM   27  C   UNL     1      -6.559   5.060  65.985  1.00  0.00    -0.045 A  
HETATM   28  S   UNL     1      -5.794   4.898  64.479  1.00  0.00    -0.018 SA 
HETATM   29  C   UNL     1      -6.355   6.441  63.946  1.00  0.00    -0.030 A  
HETATM   30  C   UNL     1      -6.121   6.995  62.675  1.00  0.00    -0.044 A  
HETATM   31  C   UNL     1      -6.636   8.251  62.391  1.00  0.00    -0.088 A  
HETATM   32  C   UNL     1      -7.329   8.955  63.367  1.00  0.00    -0.098 A  
ENDBRANCH  21  24
ENDBRANCH  17  18
ENDBRANCH  16  17
ENDBRANCH  15  16
ENDBRANCH  14  15
ENDBRANCH  13  14
ENDBRANCH   7  13
TORSDOF 7
ENDMDL
MODEL      302
REMARK 921   NORMALIZED FREE ENERGY PREDICTED BY IDOCK:   -2.66 KCAL/MOL
REMARK 922        TOTAL FREE ENERGY PREDICTED BY IDOCK:   -5.05 KCAL/MOL
REMARK 923 INTER-LIGAND FREE ENERGY PREDICTED BY IDOCK:   -3.64 KCAL/MOL
REMARK 924 INTRA-LIGAND FREE ENERGY PREDICTED BY IDOCK:   -1.42 KCAL/MOL
REMARK 927      BINDING AFFINITY PREDICTED BY RF-SCORE:    0.00 PKD
ROOT
HETATM    1  O   UNL     1      -6.358   9.950  64.739  1.00  0.00    -0.100 OA 
HETATM    2  C   UNL     1      -7.207   9.214  65.230  1.00  0.00    -0.089 C  
HETATM    3  N   UNL     1      -7.157   7.853  65.111  1.00  0.00    -0.059 N  
HETATM    4  C   UNL     1      -8.131   6.995  65.637  1.00  0.00    -0.129 A  
HETATM    5  H   UNL     1      -6.368   7.441  64.612  1.00  0.00     0.000 HD 
HETATM    6  C   UNL     1      -8.019   5.617  65.457  1.00  0.00    -0.113 A  
HETATM    7  C   UNL     1      -9.008   4.768  65.962  1.00  0.00    -0.126 A  
HETATM    8  C   UNL     1      -8.348   9.778  65.994  1.00  0.00    -0.123 C  
HETATM    9  C   UNL     1     -10.101   5.316  66.646  1.00  0.00    -0.259 A  
HETATM   10  C   UNL     1      -9.296   8.990  66.515  1.00  0.00    -0.246 C  
HETATM   11  C   UNL     1     -10.206   6.696  66.834  1.00  0.00    -0.287 A  
HETATM   12  C   UNL     1      -9.218   7.542  66.333  1.00  0.00    -0.212 A  
ENDROOT
BRANCH   7  13
HETATM   13  O   UNL     1      -8.798   3.433  65.730  1.00  0.00    -0.122 OA 
BRANCH  13  14
HETATM   14  C   UNL     1      -7.992   2.765  66.700  1.00  0.00    -0.077 C  
BRANCH  14  15
HETATM   15  C   UNL     1      -8.880   2.081  67.734  1.00  0.00    -0.153 C  
BRANCH  15  16
HETATM   16  C   UNL     1      -8.236   2.078  69.124  1.00  0.00    -0.068 C  
BRANCH  16  17
HETATM   17  C   UNL     1      -6.703   1.937  69.136  1.00  0.00    -0.029 C  
BRANCH  17  18
HETATM   18  N   UNL     1      -6.018   2.804  70.103  1.00  0.00    -0.022 NA 
HETATM   19  C   UNL     1      -5.437   4.024  69.489  1.00  0.00    -0.016 C  
HETATM   20  C   UNL     1      -6.461   5.085  69.014  1.00  0.00    -0.036 C  
HETATM   21  N   UNL     1      -7.389   5.422  70.099  1.00  0.00    -0.066 NA 
HETATM   22  C   UNL     1      -6.947   3.240  71.181  1.00  0.00    -0.032 C  
HETATM   23  C   UNL     1      -8.028   4.269  70.752  1.00  0.00    -0.060 C  
BRANCH  21  24
HETATM   24  C   UNL     1      -8.001   6.679  70.154  1.00  0.00    -0.112 A  
HETATM   25  C   UNL     1      -7.419   7.917  69.715  1.00  0.00    -0.088 A  
HETATM   26  C   UNL     1      -6.224   8.202  68.951  1.00  0.00    -0.040 A  
HETATM   27  C   UNL     1      -5.970   9.542  68.783  1.00  0.00    -0.043 A  
HETATM   28  S   UNL     1      -7.184  10.502  69.478  1.00  0.00    -0.144 SA 
HETATM   29  C   UNL     1      -8.075   9.122  70.008  1.00  0.00    -0.128 A  
HETATM   30  C   UNL     1      -9.312   9.161  70.675  1.00  0.00    -0.312 A  
HETATM   31  C   UNL     1      -9.908   7.965  71.042  1.00  0.00    -0.189 A  
HETATM   32  C   UNL     1      -9.264   6.761  70.789  1.00  0.00    -0.158 A  
ENDBRANCH  21  24
ENDBRANCH  17  18
ENDBRANCH  16  17
ENDBRANCH  15  16
ENDBRANCH  14  15
ENDBRANCH  13  14
ENDBRANCH   7  13
TORSDOF 7
ENDMDL
MODEL      303
REMARK 921   NORMALIZED FREE ENERGY PREDICTED BY IDOCK:   -2.61 KCAL/MOL
REMARK 922        TOTAL FREE ENERGY PREDICTED BY IDOCK:   -4.98 KCAL/MOL
REMARK 923 INTER-LIGAND FREE ENERGY PREDICTED BY IDOCK:   -6.16 KCAL/MOL
REMARK 924 INTRA-LIGAND FREE ENERGY PREDICTED BY IDOCK:    1.18 KCAL/MOL
REMARK 927      BINDING AFFINITY PREDICTED BY RF-SCORE:    0.00 PKD
ROOT
HETATM    1  O   UNL     1      -5.576   9.362  72.796  1.00  0.00    -0.209 OA 
HETATM    2  C   UNL     1      -5.734  10.067  71.806  1.00  0.00     0.135 C  
HETATM    3  N   UNL     1      -6.363   9.620  70.678  1.00  0.00    -0.087 N  
HETATM    4  C   UNL     1      -6.527  10.398  69.524  1.00  0.00    -0.065 A  
HETATM    5  H   UNL     1      -6.732   8.669  70.675  1.00  0.00     0.000 HD 
HETATM    6  C   UNL     1      -7.164   9.863  68.405  1.00  0.00    -0.073 A  
HETATM    7  C   UNL     1      -7.302  10.636  67.249  1.00  0.00    -0.092 A  
HETATM    8  C   UNL     1      -5.243  11.468  71.788  1.00  0.00     0.148 C  
HETATM    9  C   UNL     1      -6.797  11.943  67.231  1.00  0.00    -0.142 A  
HETATM   10  C   UNL     1      -5.385  12.244  70.706  1.00  0.00    -0.161 C  
HETATM   11  C   UNL     1      -6.167  12.480  68.357  1.00  0.00    -0.058 A  
HETATM   12  C   UNL     1      -6.034  11.711  69.511  1.00  0.00    -0.090 A  
ENDROOT
BRANCH   7  13
HETATM   13  O   UNL     1      -7.943  10.013  66.209  1.00  0.00    -0.107 OA 
BRANCH  13  14
HETATM   14  C   UNL     1      -8.340  10.869  65.138  1.00  0.00     0.001 C  
BRANCH  14  15
HETATM   15  C   UNL     1      -9.756  10.523  64.691  1.00  0.00    -0.369 C  
BRANCH  15  16
HETATM   16  C   UNL     1     -10.026  10.977  63.254  1.00  0.00    -0.414 C  
BRANCH  16  17
HETATM   17  C   UNL     1     -10.522  12.427  63.106  1.00  0.00     0.072 C  
BRANCH  17  18
HETATM   18  N   UNL     1     -11.888  12.657  63.594  1.00  0.00    -0.488 NA 
HETATM   19  C   UNL     1     -12.279  11.744  64.697  1.00  0.00     0.049 C  
HETATM   20  C   UNL     1     -11.576  11.997  66.054  1.00  0.00    -0.305 C  
HETATM   21  N   UNL     1     -11.715  13.403  66.448  1.00  0.00    -0.350 NA 
HETATM   22  C   UNL     1     -12.052  14.053  64.084  1.00  0.00    -0.422 C  
HETATM   23  C   UNL     1     -11.328  14.380  65.418  1.00  0.00    -0.339 C  
BRANCH  21  24
HETATM   24  C   UNL     1     -11.701  13.774  67.797  1.00  0.00    -0.358 A  
HETATM   25  C   UNL     1     -11.932  12.898  68.912  1.00  0.00    -0.291 A  
HETATM   26  C   UNL     1     -12.027  11.457  69.001  1.00  0.00    -0.387 A  
HETATM   27  C   UNL     1     -12.321  10.990  70.259  1.00  0.00    -0.328 A  
HETATM   28  S   UNL     1     -12.433  12.252  71.387  1.00  0.00     0.037 SA 
HETATM   29  C   UNL     1     -12.076  13.448  70.194  1.00  0.00    -0.344 A  
HETATM   30  C   UNL     1     -11.952  14.827  70.439  1.00  0.00    -0.368 A  
HETATM   31  C   UNL     1     -11.663  15.668  69.376  1.00  0.00    -0.395 A  
HETATM   32  C   UNL     1     -11.546  15.151  68.092  1.00  0.00    -0.358 A  
ENDBRANCH  21  24
ENDBRANCH  17  18
ENDBRANCH  16  17
ENDBRANCH  15  16
ENDBRANCH  14  15
ENDBRANCH  13  14
ENDBRANCH   7  13
TORSDOF 7
ENDMDL
MODEL      304
REMARK 921   NORMALIZED FREE ENERGY PREDICTED BY IDOCK:   -2.58 KCAL/MOL
REMARK 922        TOTAL FREE ENERGY PREDICTED BY IDOCK:   -4.94 KCAL/MOL
REMARK 923 INTER-LIGAND FREE ENERGY PREDICTED BY IDOCK:   -4.78 KCAL/MOL
REMARK 924 INTRA-LIGAND FREE ENERGY PREDICTED BY IDOCK:   -0.17 KCAL/MOL
REMARK 927      BINDING AFFINITY PREDICTED BY RF-SCORE:    0.00 PKD
ROOT
HETATM    1  O   UNL     1     -11.942  16.501  63.943  1.00  0.00    -0.979 OA 
HETATM    2  C   UNL     1     -11.777  15.309  64.175  1.00  0.00    -0.103 C  
HETATM    3  N   UNL     1     -11.372  14.847  65.397  1.00  0.00    -0.349 N  
HETATM    4  C   UNL     1     -11.147  13.491  65.675  1.00  0.00    -0.289 A  
HETATM    5  H   UNL     1     -11.224  15.524  66.145  1.00  0.00     0.000 HD 
HETATM    6  C   UNL     1     -10.715  13.101  66.942  1.00  0.00    -0.270 A  
HETATM    7  C   UNL     1     -10.468  11.751  67.205  1.00  0.00    -0.220 A  
HETATM    8  C   UNL     1     -12.017  14.292  63.121  1.00  0.00     1.064 C  
HETATM    9  C   UNL     1     -10.660  10.806  66.189  1.00  0.00    -0.241 A  
HETATM   10  C   UNL     1     -11.818  12.988  63.350  1.00  0.00    -0.543 C  
HETATM   11  C   UNL     1     -11.101  11.198  64.923  1.00  0.00    -0.118 A  
HETATM   12  C   UNL     1     -11.351  12.544  64.661  1.00  0.00    -0.363 A  
ENDROOT
BRANCH   7  13
HETATM   13  O   UNL     1     -10.049  11.478  68.482  1.00  0.00    -0.197 OA 
BRANCH  13  14
HETATM   14  C   UNL     1      -8.741  10.916  68.586  1.00  0.00    -0.154 C  
BRANCH  14  15
HETATM   15  C   UNL     1      -8.697   9.904  69.726  1.00  0.00    -0.229 C  
BRANCH  15  16
HETATM   16  C   UNL     1      -9.817   8.866  69.608  1.00  0.00    -0.182 C  
BRANCH  16  17
HETATM   17  C   UNL     1      -9.499   7.657  68.710  1.00  0.00    -0.152 C  
BRANCH  17  18
HETATM   18  N   UNL     1      -8.108   7.192  68.784  1.00  0.00    -0.120 NA 
HETATM   19  C   UNL     1      -7.536   7.264  70.151  1.00  0.00    -0.090 C  
HETATM   20  C   UNL     1      -8.104   6.242  71.167  1.00  0.00    -0.118 C  
HETATM   21  N   UNL     1      -8.022   4.882  70.624  1.00  0.00    -0.077 NA 
HETATM   22  C   UNL     1      -7.991   5.783  68.319  1.00  0.00    -0.104 C  
HETATM   23  C   UNL     1      -8.587   4.715  69.275  1.00  0.00    -0.082 C  
BRANCH  21  24
HETATM   24  C   UNL     1      -7.916   3.776  71.474  1.00  0.00    -0.065 A  
HETATM   25  C   UNL     1      -8.923   3.325  72.396  1.00  0.00    -0.124 A  
HETATM   26  C   UNL     1     -10.309   3.700  72.567  1.00  0.00    -0.199 A  
HETATM   27  C   UNL     1     -10.934   3.074  73.618  1.00  0.00    -0.228 A  
HETATM   28  S   UNL     1      -9.904   1.973  74.396  1.00  0.00    -0.105 SA 
HETATM   29  C   UNL     1      -8.601   2.318  73.318  1.00  0.00    -0.070 A  
HETATM   30  C   UNL     1      -7.341   1.694  73.341  1.00  0.00    -0.028 A  
HETATM   31  C   UNL     1      -6.390   2.081  72.410  1.00  0.00    -0.014 A  
HETATM   32  C   UNL     1      -6.674   3.096  71.506  1.00  0.00    -0.026 A  
ENDBRANCH  21  24
ENDBRANCH  17  18
ENDBRANCH  16  17
ENDBRANCH  15  16
ENDBRANCH  14  15
ENDBRANCH  13  14
ENDBRANCH   7  13
TORSDOF 7
ENDMDL
MODEL      305
REMARK 921   NORMALIZED FREE ENERGY PREDICTED BY IDOCK:   -2.49 KCAL/MOL
REMARK 922        TOTAL FREE ENERGY PREDICTED BY IDOCK:   -4.82 KCAL/MOL
REMARK 923 INTER-LIGAND FREE ENERGY PREDICTED BY IDOCK:   -4.43 KCAL/MOL
REMARK 924 INTRA-LIGAND FREE ENERGY PREDICTED BY IDOCK:   -0.38 KCAL/MOL
REMARK 927      BINDING AFFINITY PREDICTED BY RF-SCORE:    0.00 PKD
ROOT
HETATM    1  O   UNL     1     -11.774   2.026  63.070  1.00  0.00    -0.289 OA 
HETATM    2  C   UNL     1     -10.629   2.383  63.326  1.00  0.00    -0.206 C  
HETATM    3  N   UNL     1     -10.129   3.589  62.920  1.00  0.00    -0.138 N  
HETATM    4  C   UNL     1      -8.815   4.005  63.174  1.00  0.00    -0.110 A  
HETATM    5  H   UNL     1     -10.744   4.219  62.405  1.00  0.00     0.000 HD 
HETATM    6  C   UNL     1      -8.372   5.243  62.710  1.00  0.00    -0.110 A  
HETATM    7  C   UNL     1      -7.054   5.641  62.944  1.00  0.00    -0.045 A  
HETATM    8  C   UNL     1      -9.719   1.508  64.105  1.00  0.00    -0.117 C  
HETATM    9  C   UNL     1      -6.192   4.788  63.646  1.00  0.00    -0.022 A  
HETATM   10  C   UNL     1      -8.458   1.873  64.371  1.00  0.00    -0.080 C  
HETATM   11  C   UNL     1      -6.640   3.552  64.117  1.00  0.00    -0.038 A  
HETATM   12  C   UNL     1      -7.956   3.157  63.887  1.00  0.00    -0.082 A  
ENDROOT
BRANCH   7  13
HETATM   13  O   UNL     1      -6.724   6.876  62.445  1.00  0.00    -0.046 OA 
BRANCH  13  14
HETATM   14  C   UNL     1      -6.514   7.892  63.426  1.00  0.00    -0.067 C  
BRANCH  14  15
HETATM   15  C   UNL     1      -7.851   8.490  63.851  1.00  0.00    -0.149 C  
BRANCH  15  16
HETATM   16  C   UNL     1      -7.905   8.744  65.361  1.00  0.00    -0.100 C  
BRANCH  16  17
HETATM   17  C   UNL     1      -6.767   9.617  65.920  1.00  0.00    -0.084 C  
BRANCH  17  18
HETATM   18  N   UNL     1      -6.878   9.918  67.353  1.00  0.00    -0.081 NA 
HETATM   19  C   UNL     1      -5.976  11.009  67.796  1.00  0.00    -0.046 C  
HETATM   20  C   UNL     1      -6.351  12.428  67.302  1.00  0.00    -0.142 C  
HETATM   21  N   UNL     1      -7.750  12.729  67.624  1.00  0.00    -0.148 NA 
HETATM   22  C   UNL     1      -8.269  10.310  67.711  1.00  0.00    -0.110 C  
HETATM   23  C   UNL     1      -8.719  11.705  67.200  1.00  0.00    -0.164 C  
BRANCH  21  24
HETATM   24  C   UNL     1      -8.174  14.047  67.820  1.00  0.00    -0.168 A  
HETATM   25  C   UNL     1      -9.475  14.453  68.275  1.00  0.00    -0.207 A  
HETATM   26  C   UNL     1     -10.579  13.701  68.830  1.00  0.00    -0.247 A  
HETATM   27  C   UNL     1     -11.697  14.455  69.092  1.00  0.00    -0.317 A  
HETATM   28  S   UNL     1     -11.443  16.096  68.743  1.00  0.00    -0.277 SA 
HETATM   29  C   UNL     1      -9.816  15.813  68.241  1.00  0.00    -0.213 A  
HETATM   30  C   UNL     1      -8.911  16.805  67.823  1.00  0.00    -0.216 A  
HETATM   31  C   UNL     1      -7.633  16.424  67.446  1.00  0.00    -0.186 A  
HETATM   32  C   UNL     1      -7.281  15.080  67.443  1.00  0.00    -0.224 A  
ENDBRANCH  21  24
ENDBRANCH  17  18
ENDBRANCH  16  17
ENDBRANCH  15  16
ENDBRANCH  14  15
ENDBRANCH  13  14
ENDBRANCH   7  13
TORSDOF 7
ENDMDL
MODEL      306
REMARK 921   NORMALIZED FREE ENERGY PREDICTED BY IDOCK:   -2.46 KCAL/MOL
REMARK 922        TOTAL FREE ENERGY PREDICTED BY IDOCK:   -4.77 KCAL/MOL
REMARK 923 INTER-LIGAND FREE ENERGY PREDICTED BY IDOCK:   -5.40 KCAL/MOL
REMARK 924 INTRA-LIGAND FREE ENERGY PREDICTED BY IDOCK:    0.63 KCAL/MOL
REMARK 927      BINDING AFFINITY PREDICTED BY RF-SCORE:    0.00 PKD
ROOT
HETATM    1  O   UNL     1     -10.583   3.937  73.019  1.00  0.00    -0.167 OA 
HETATM    2  C   UNL     1     -10.252   5.011  72.527  1.00  0.00    -0.196 C  
HETATM    3  N   UNL     1     -11.151   6.009  72.269  1.00  0.00    -0.263 N  
HETATM    4  C   UNL     1     -10.800   7.231  71.679  1.00  0.00    -0.220 A  
HETATM    5  H   UNL     1     -12.128   5.855  72.519  1.00  0.00     0.000 HD 
HETATM    6  C   UNL     1     -11.779   8.192  71.430  1.00  0.00    -0.321 A  
HETATM    7  C   UNL     1     -11.428   9.398  70.819  1.00  0.00    -0.300 A  
HETATM    8  C   UNL     1      -8.834   5.282  72.184  1.00  0.00    -0.135 C  
HETATM    9  C   UNL     1     -10.091   9.625  70.463  1.00  0.00    -0.338 A  
HETATM   10  C   UNL     1      -8.460   6.438  71.623  1.00  0.00    -0.128 C  
HETATM   11  C   UNL     1      -9.111   8.664  70.721  1.00  0.00    -0.214 A  
HETATM   12  C   UNL     1      -9.461   7.463  71.335  1.00  0.00    -0.160 A  
ENDROOT
BRANCH   7  13
HETATM   13  O   UNL     1     -12.466  10.272  70.622  1.00  0.00    -0.307 OA 
BRANCH  13  14
HETATM   14  C   UNL     1     -12.084  11.626  70.378  1.00  0.00    -0.373 C  
BRANCH  14  15
HETATM   15  C   UNL     1     -12.254  11.956  68.899  1.00  0.00    -0.065 C  
BRANCH  15  16
HETATM   16  C   UNL     1     -11.319  13.087  68.458  1.00  0.00    -0.323 C  
BRANCH  16  17
HETATM   17  C   UNL     1     -11.172  13.260  66.936  1.00  0.00    -0.305 C  
BRANCH  17  18
HETATM   18  N   UNL     1      -9.786  13.377  66.466  1.00  0.00    -0.276 NA 
HETATM   19  C   UNL     1      -8.785  13.264  67.556  1.00  0.00    -0.202 C  
HETATM   20  C   UNL     1      -8.629  11.854  68.177  1.00  0.00    -0.165 C  
HETATM   21  N   UNL     1      -8.391  10.857  67.127  1.00  0.00    -0.123 NA 
HETATM   22  C   UNL     1      -9.473  12.328  65.457  1.00  0.00    -0.017 C  
HETATM   23  C   UNL     1      -9.352  10.884  66.014  1.00  0.00    -0.190 C  
BRANCH  21  24
HETATM   24  C   UNL     1      -7.677   9.685  67.400  1.00  0.00    -0.095 A  
HETATM   25  C   UNL     1      -6.928   9.417  68.598  1.00  0.00    -0.065 A  
HETATM   26  C   UNL     1      -6.859  10.110  69.865  1.00  0.00    -0.124 A  
HETATM   27  C   UNL     1      -5.964   9.566  70.755  1.00  0.00    -0.071 A  
HETATM   28  S   UNL     1      -5.225   8.173  70.128  1.00  0.00    -0.022 SA 
HETATM   29  C   UNL     1      -6.109   8.280  68.649  1.00  0.00    -0.045 A  
HETATM   30  C   UNL     1      -6.031   7.360  67.589  1.00  0.00    -0.038 A  
HETATM   31  C   UNL     1      -6.802   7.581  66.459  1.00  0.00    -0.062 A  
HETATM   32  C   UNL     1      -7.599   8.715  66.371  1.00  0.00    -0.091 A  
ENDBRANCH  21  24
ENDBRANCH  17  18
ENDBRANCH  16  17
ENDBRANCH  15  16
ENDBRANCH  14  15
ENDBRANCH  13  14
ENDBRANCH   7  13
TORSDOF 7
ENDMDL
MODEL      307
REMARK 921   NORMALIZED FREE ENERGY PREDICTED BY IDOCK:   -2.46 KCAL/MOL
REMARK 922        TOTAL FREE ENERGY PREDICTED BY IDOCK:   -4.77 KCAL/MOL
REMARK 923 INTER-LIGAND FREE ENERGY PREDICTED BY IDOCK:   -4.06 KCAL/MOL
REMARK 924 INTRA-LIGAND FREE ENERGY PREDICTED BY IDOCK:   -0.72 KCAL/MOL
REMARK 927      BINDING AFFINITY PREDICTED BY RF-SCORE:    0.00 PKD
ROOT
HETATM    1  O   UNL     1      -6.819  20.847  71.348  1.00  0.00     0.385 OA 
HETATM    2  C   UNL     1      -6.585  20.211  70.327  1.00  0.00    -0.155 C  
HETATM    3  N   UNL     1      -7.121  18.974  70.093  1.00  0.00     0.410 N  
HETATM    4  C   UNL     1      -6.842  18.216  68.948  1.00  0.00    -0.258 A  
HETATM    5  H   UNL     1      -7.756  18.584  70.789  1.00  0.00     0.000 HD 
HETATM    6  C   UNL     1      -7.413  16.953  68.790  1.00  0.00    -0.237 A  
HETATM    7  C   UNL     1      -7.111  16.191  67.659  1.00  0.00    -0.147 A  
HETATM    8  C   UNL     1      -5.695  20.764  69.276  1.00  0.00    -0.390 C  
HETATM    9  C   UNL     1      -6.237  16.709  66.694  1.00  0.00    -0.036 A  
HETATM   10  C   UNL     1      -5.408  20.071  68.167  1.00  0.00    -0.211 C  
HETATM   11  C   UNL     1      -5.673  17.978  66.850  1.00  0.00    -0.168 A  
HETATM   12  C   UNL     1      -5.977  18.739  67.976  1.00  0.00    -0.201 A  
ENDROOT
BRANCH   7  13
HETATM   13  O   UNL     1      -7.727  14.967  67.604  1.00  0.00    -0.146 OA 
BRANCH  13  14
HETATM   14  C   UNL     1      -8.874  14.825  68.441  1.00  0.00    -0.181 C  
BRANCH  14  15
HETATM   15  C   UNL     1     -10.022  14.203  67.651  1.00  0.00    -0.233 C  
BRANCH  15  16
HETATM   16  C   UNL     1     -10.473  12.871  68.257  1.00  0.00    -0.250 C  
BRANCH  16  17
HETATM   17  C   UNL     1      -9.434  11.737  68.196  1.00  0.00    -0.193 C  
BRANCH  17  18
HETATM   18  N   UNL     1      -9.205  11.193  66.851  1.00  0.00    -0.166 NA 
HETATM   19  C   UNL     1      -8.034  10.285  66.776  1.00  0.00    -0.114 C  
HETATM   20  C   UNL     1      -8.204   8.916  67.480  1.00  0.00    -0.109 C  
HETATM   21  N   UNL     1      -9.427   8.251  67.015  1.00  0.00    -0.164 NA 
HETATM   22  C   UNL     1     -10.394  10.436  66.371  1.00  0.00    -0.213 C  
HETATM   23  C   UNL     1     -10.644   9.075  67.074  1.00  0.00    -0.200 C  
BRANCH  21  24
HETATM   24  C   UNL     1      -9.531   6.855  67.023  1.00  0.00    -0.151 A  
HETATM   25  C   UNL     1      -9.431   6.012  68.183  1.00  0.00    -0.115 A  
HETATM   26  C   UNL     1      -9.411   6.317  69.596  1.00  0.00    -0.150 A  
HETATM   27  C   UNL     1      -9.239   5.220  70.405  1.00  0.00    -0.148 A  
HETATM   28  S   UNL     1      -9.159   3.783  69.506  1.00  0.00    -0.150 SA 
HETATM   29  C   UNL     1      -9.364   4.622  68.011  1.00  0.00    -0.135 A  
HETATM   30  C   UNL     1      -9.444   4.016  66.745  1.00  0.00    -0.219 A  
HETATM   31  C   UNL     1      -9.607   4.823  65.630  1.00  0.00    -0.184 A  
HETATM   32  C   UNL     1      -9.646   6.204  65.771  1.00  0.00     0.173 A  
ENDBRANCH  21  24
ENDBRANCH  17  18
ENDBRANCH  16  17
ENDBRANCH  15  16
ENDBRANCH  14  15
ENDBRANCH  13  14
ENDBRANCH   7  13
TORSDOF 7
ENDMDL
MODEL      308
REMARK 921   NORMALIZED FREE ENERGY PREDICTED BY IDOCK:   -2.37 KCAL/MOL
REMARK 922        TOTAL FREE ENERGY PREDICTED BY IDOCK:   -4.64 KCAL/MOL
REMARK 923 INTER-LIGAND FREE ENERGY PREDICTED BY IDOCK:   -3.67 KCAL/MOL
REMARK 924 INTRA-LIGAND FREE ENERGY PREDICTED BY IDOCK:   -0.97 KCAL/MOL
REMARK 927      BINDING AFFINITY PREDICTED BY RF-SCORE:    0.00 PKD
ROOT
HETATM    1  O   UNL     1      -7.109   4.864  74.516  1.00  0.00    -0.072 OA 
HETATM    2  C   UNL     1      -7.582   4.155  73.634  1.00  0.00    -0.077 C  
HETATM    3  N   UNL     1      -6.866   3.776  72.533  1.00  0.00    -0.040 N  
HETATM    4  C   UNL     1      -7.396   2.992  71.499  1.00  0.00    -0.040 A  
HETATM    5  H   UNL     1      -5.895   4.080  72.460  1.00  0.00     0.000 HD 
HETATM    6  C   UNL     1      -6.607   2.663  70.397  1.00  0.00    -0.032 A  
HETATM    7  C   UNL     1      -7.149   1.903  69.358  1.00  0.00    -0.036 A  
HETATM    8  C   UNL     1      -8.979   3.665  73.726  1.00  0.00    -0.087 C  
HETATM    9  C   UNL     1      -8.483   1.481  69.438  1.00  0.00    -0.074 A  
HETATM   10  C   UNL     1      -9.520   2.911  72.761  1.00  0.00    -0.148 C  
HETATM   11  C   UNL     1      -9.269   1.804  70.546  1.00  0.00    -0.166 A  
HETATM   12  C   UNL     1      -8.726   2.559  71.585  1.00  0.00    -0.108 A  
ENDROOT
BRANCH   7  13
HETATM   13  O   UNL     1      -6.287   1.636  68.325  1.00  0.00    -0.024 OA 
BRANCH  13  14
HETATM   14  C   UNL     1      -6.299   2.586  67.261  1.00  0.00    -0.032 C  
BRANCH  14  15
HETATM   15  C   UNL     1      -6.964   1.981  66.029  1.00  0.00    -0.043 C  
BRANCH  15  16
HETATM   16  C   UNL     1      -8.281   2.685  65.690  1.00  0.00    -0.090 C  
BRANCH  16  17
HETATM   17  C   UNL     1      -8.148   3.931  64.796  1.00  0.00    -0.093 C  
BRANCH  17  18
HETATM   18  N   UNL     1      -9.238   4.904  64.939  1.00  0.00    -0.122 NA 
HETATM   19  C   UNL     1     -10.113   4.638  66.108  1.00  0.00    -0.266 C  
HETATM   20  C   UNL     1      -9.475   4.904  67.494  1.00  0.00    -0.140 C  
HETATM   21  N   UNL     1      -8.909   6.256  67.546  1.00  0.00    -0.105 NA 
HETATM   22  C   UNL     1      -8.706   6.287  65.079  1.00  0.00     0.102 C  
HETATM   23  C   UNL     1      -8.010   6.598  66.432  1.00  0.00    -0.106 C  
BRANCH  21  24
HETATM   24  C   UNL     1      -8.802   6.942  68.760  1.00  0.00    -0.132 A  
HETATM   25  C   UNL     1      -9.797   6.975  69.797  1.00  0.00    -0.171 A  
HETATM   26  C   UNL     1     -11.009   6.211  69.993  1.00  0.00    -0.441 A  
HETATM   27  C   UNL     1     -11.737   6.585  71.097  1.00  0.00    -0.335 A  
HETATM   28  S   UNL     1     -10.965   7.818  71.969  1.00  0.00    -0.275 SA 
HETATM   29  C   UNL     1      -9.631   7.859  70.874  1.00  0.00    -0.161 A  
HETATM   30  C   UNL     1      -8.498   8.681  71.004  1.00  0.00    -0.199 A  
HETATM   31  C   UNL     1      -7.506   8.604  70.040  1.00  0.00    -0.056 A  
HETATM   32  C   UNL     1      -7.661   7.759  68.949  1.00  0.00    -0.101 A  
ENDBRANCH  21  24
ENDBRANCH  17  18
ENDBRANCH  16  17
ENDBRANCH  15  16
ENDBRANCH  14  15
ENDBRANCH  13  14
ENDBRANCH   7  13
TORSDOF 7
ENDMDL
MODEL      309
REMARK 921   NORMALIZED FREE ENERGY PREDICTED BY IDOCK:   -2.19 KCAL/MOL
REMARK 922        TOTAL FREE ENERGY PREDICTED BY IDOCK:   -4.39 KCAL/MOL
REMARK 923 INTER-LIGAND FREE ENERGY PREDICTED BY IDOCK:   -3.12 KCAL/MOL
REMARK 924 INTRA-LIGAND FREE ENERGY PREDICTED BY IDOCK:   -1.27 KCAL/MOL
REMARK 927      BINDING AFFINITY PREDICTED BY RF-SCORE:    0.00 PKD
ROOT
HETATM    1  O   UNL     1     -11.454   2.607  62.760  1.00  0.00    -0.172 OA 
HETATM    2  C   UNL     1     -10.387   3.093  63.119  1.00  0.00    -0.175 C  
HETATM    3  N   UNL     1      -9.947   4.309  62.675  1.00  0.00    -0.297 N  
HETATM    4  C   UNL     1      -8.718   4.869  63.049  1.00  0.00    -0.113 A  
HETATM    5  H   UNL     1     -10.545   4.836  62.038  1.00  0.00     0.000 HD 
HETATM    6  C   UNL     1      -8.330   6.107  62.537  1.00  0.00    -0.034 A  
HETATM    7  C   UNL     1      -7.093   6.648  62.893  1.00  0.00    -0.053 A  
HETATM    8  C   UNL     1      -9.510   2.371  64.074  1.00  0.00    -0.128 C  
HETATM    9  C   UNL     1      -6.256   5.937  63.764  1.00  0.00    -0.025 A  
HETATM   10  C   UNL     1      -8.331   2.875  64.457  1.00  0.00    -0.087 C  
HETATM   11  C   UNL     1      -6.650   4.701  64.282  1.00  0.00    -0.043 A  
HETATM   12  C   UNL     1      -7.886   4.164  63.930  1.00  0.00    -0.084 A  
ENDROOT
BRANCH   7  13
HETATM   13  O   UNL     1      -6.812   7.869  62.335  1.00  0.00    -0.083 OA 
BRANCH  13  14
HETATM   14  C   UNL     1      -6.574   8.924  63.266  1.00  0.00    -0.090 C  
BRANCH  14  15
HETATM   15  C   UNL     1      -7.879   9.325  63.946  1.00  0.00    -0.130 C  
BRANCH  15  16
HETATM   16  C   UNL     1      -7.705   9.491  65.458  1.00  0.00    -0.105 C  
BRANCH  16  17
HETATM   17  C   UNL     1      -8.994   9.815  66.235  1.00  0.00    -0.153 C  
BRANCH  17  18
HETATM   18  N   UNL     1      -8.936   9.504  67.669  1.00  0.00    -0.118 NA 
HETATM   19  C   UNL     1     -10.063   8.658  68.133  1.00  0.00    -0.197 C  
HETATM   20  C   UNL     1     -10.039   7.188  67.647  1.00  0.00    -0.180 C  
HETATM   21  N   UNL     1      -8.744   6.569  67.953  1.00  0.00    -0.117 NA 
HETATM   22  C   UNL     1      -7.671   8.799  68.012  1.00  0.00    -0.101 C  
HETATM   23  C   UNL     1      -7.568   7.334  67.508  1.00  0.00    -0.109 C  
BRANCH  21  24
HETATM   24  C   UNL     1      -8.639   5.189  68.155  1.00  0.00    -0.102 A  
HETATM   25  C   UNL     1      -7.447   4.484  68.540  1.00  0.00    -0.064 A  
HETATM   26  C   UNL     1      -6.160   4.951  69.006  1.00  0.00    -0.029 A  
HETATM   27  C   UNL     1      -5.242   3.951  69.218  1.00  0.00    -0.011 A  
HETATM   28  S   UNL     1      -5.906   2.417  68.925  1.00  0.00    -0.024 SA 
HETATM   29  C   UNL     1      -7.447   3.081  68.518  1.00  0.00    -0.049 A  
HETATM   30  C   UNL     1      -8.590   2.334  68.182  1.00  0.00    -0.109 A  
HETATM   31  C   UNL     1      -9.760   3.011  67.875  1.00  0.00     0.046 A  
HETATM   32  C   UNL     1      -9.777   4.399  67.860  1.00  0.00    -0.186 A  
ENDBRANCH  21  24
ENDBRANCH  17  18
ENDBRANCH  16  17
ENDBRANCH  15  16
ENDBRANCH  14  15
ENDBRANCH  13  14
ENDBRANCH   7  13
TORSDOF 7
ENDMDL
MODEL      310
REMARK 921   NORMALIZED FREE ENERGY PREDICTED BY IDOCK:   -2.13 KCAL/MOL
REMARK 922        TOTAL FREE ENERGY PREDICTED BY IDOCK:   -4.30 KCAL/MOL
REMARK 923 INTER-LIGAND FREE ENERGY PREDICTED BY IDOCK:   -5.75 KCAL/MOL
REMARK 924 INTRA-LIGAND FREE ENERGY PREDICTED BY IDOCK:    1.45 KCAL/MOL
REMARK 927      BINDING AFFINITY PREDICTED BY RF-SCORE:    0.00 PKD
ROOT
HETATM    1  O   UNL     1      -6.601   8.033  72.199  1.00  0.00    -0.057 OA 
HETATM    2  C   UNL     1      -6.880   8.482  71.093  1.00  0.00    -0.064 C  
HETATM    3  N   UNL     1      -8.119   8.977  70.792  1.00  0.00    -0.151 N  
HETATM    4  C   UNL     1      -8.469   9.467  69.526  1.00  0.00    -0.152 A  
HETATM    5  H   UNL     1      -8.825   8.990  71.527  1.00  0.00     0.000 HD 
HETATM    6  C   UNL     1      -9.760   9.938  69.292  1.00  0.00    -0.218 A  
HETATM    7  C   UNL     1     -10.110  10.401  68.021  1.00  0.00    -0.163 A  
HETATM    8  C   UNL     1      -5.866   8.513  70.010  1.00  0.00    -0.024 C  
HETATM    9  C   UNL     1      -9.154  10.386  66.996  1.00  0.00    -0.153 A  
HETATM   10  C   UNL     1      -6.161   8.977  68.789  1.00  0.00    -0.045 C  
HETATM   11  C   UNL     1      -7.859   9.922  67.235  1.00  0.00    -0.102 A  
HETATM   12  C   UNL     1      -7.509   9.464  68.504  1.00  0.00    -0.080 A  
ENDROOT
BRANCH   7  13
HETATM   13  O   UNL     1     -11.404  10.841  67.901  1.00  0.00    -0.323 OA 
BRANCH  13  14
HETATM   14  C   UNL     1     -12.192  10.744  69.087  1.00  0.00    -0.051 C  
BRANCH  14  15
HETATM   15  C   UNL     1     -11.654  11.695  70.151  1.00  0.00    -0.303 C  
BRANCH  15  16
HETATM   16  C   UNL     1     -11.566  13.134  69.634  1.00  0.00    -0.321 C  
BRANCH  16  17
HETATM   17  C   UNL     1     -12.025  13.338  68.179  1.00  0.00    -0.304 C  
BRANCH  17  18
HETATM   18  N   UNL     1     -12.282  14.736  67.811  1.00  0.00    -0.115 NA 
HETATM   19  C   UNL     1     -12.131  15.680  68.946  1.00  0.00    -0.161 C  
HETATM   20  C   UNL     1     -10.680  15.905  69.439  1.00  0.00    -0.272 C  
HETATM   21  N   UNL     1      -9.810  16.275  68.317  1.00  0.00    -0.223 NA 
HETATM   22  C   UNL     1     -11.362  15.182  66.729  1.00  0.00    -0.248 C  
HETATM   23  C   UNL     1      -9.881  15.378  67.153  1.00  0.00    -0.221 C  
BRANCH  21  24
HETATM   24  C   UNL     1      -8.668  17.057  68.523  1.00  0.00    -0.253 A  
HETATM   25  C   UNL     1      -8.561  18.469  68.276  1.00  0.00    -0.341 A  
HETATM   26  C   UNL     1      -9.559  19.472  67.975  1.00  0.00    -0.450 A  
HETATM   27  C   UNL     1      -9.043  20.724  67.742  1.00  0.00    -0.004 A  
HETATM   28  S   UNL     1      -7.358  20.755  67.936  1.00  0.00    -0.049 SA 
HETATM   29  C   UNL     1      -7.301  19.080  68.347  1.00  0.00    -0.295 A  
HETATM   30  C   UNL     1      -6.140  18.370  68.702  1.00  0.00    -0.205 A  
HETATM   31  C   UNL     1      -6.251  17.022  69.005  1.00  0.00    -0.190 A  
HETATM   32  C   UNL     1      -7.483  16.388  68.914  1.00  0.00    -0.214 A  
ENDBRANCH  21  24
ENDBRANCH  17  18
ENDBRANCH  16  17
ENDBRANCH  15  16
ENDBRANCH  14  15
ENDBRANCH  13  14
ENDBRANCH   7  13
TORSDOF 7
ENDMDL
MODEL      311
REMARK 921   NORMALIZED FREE ENERGY PREDICTED BY IDOCK:   -1.98 KCAL/MOL
REMARK 922        TOTAL FREE ENERGY PREDICTED BY IDOCK:   -4.10 KCAL/MOL
REMARK 923 INTER-LIGAND FREE ENERGY PREDICTED BY IDOCK:   -4.19 KCAL/MOL
REMARK 924 INTRA-LIGAND FREE ENERGY PREDICTED BY IDOCK:    0.09 KCAL/MOL
REMARK 927      BINDING AFFINITY PREDICTED BY RF-SCORE:    0.00 PKD
ROOT
HETATM    1  O   UNL     1      -8.687  16.903  68.792  1.00  0.00    -0.255 OA 
HETATM    2  C   UNL     1      -9.564  16.250  69.348  1.00  0.00    -0.173 C  
HETATM    3  N   UNL     1      -9.750  14.917  69.108  1.00  0.00    -0.300 N  
HETATM    4  C   UNL     1     -10.765  14.159  69.708  1.00  0.00     0.134 A  
HETATM    5  H   UNL     1      -9.117  14.450  68.458  1.00  0.00     0.000 HD 
HETATM    6  C   UNL     1     -10.902  12.806  69.397  1.00  0.00     0.053 A  
HETATM    7  C   UNL     1     -11.931  12.062  69.978  1.00  0.00    -0.324 A  
HETATM    8  C   UNL     1     -10.478  16.889  70.327  1.00  0.00     0.416 C  
HETATM    9  C   UNL     1     -12.814  12.687  70.870  1.00  0.00    -0.178 A  
HETATM   10  C   UNL     1     -11.457  16.197  70.923  1.00  0.00    -0.421 C  
HETATM   11  C   UNL     1     -12.669  14.040  71.187  1.00  0.00    -0.436 A  
HETATM   12  C   UNL     1     -11.639  14.781  70.610  1.00  0.00    -0.324 A  
ENDROOT
BRANCH   7  13
HETATM   13  O   UNL     1     -11.975  10.743  69.604  1.00  0.00    -0.300 OA 
BRANCH  13  14
HETATM   14  C   UNL     1     -12.114   9.811  70.676  1.00  0.00    -0.230 C  
BRANCH  14  15
HETATM   15  C   UNL     1     -11.354   8.529  70.354  1.00  0.00    -0.193 C  
BRANCH  15  16
HETATM   16  C   UNL     1     -10.384   8.721  69.184  1.00  0.00    -0.227 C  
BRANCH  16  17
HETATM   17  C   UNL     1      -9.022   9.335  69.555  1.00  0.00    -0.152 C  
BRANCH  17  18
HETATM   18  N   UNL     1      -7.942   9.042  68.605  1.00  0.00    -0.101 NA 
HETATM   19  C   UNL     1      -6.863   8.203  69.183  1.00  0.00    -0.055 C  
HETATM   20  C   UNL     1      -7.241   6.727  69.461  1.00  0.00    -0.081 C  
HETATM   21  N   UNL     1      -7.812   6.110  68.258  1.00  0.00    -0.102 NA 
HETATM   22  C   UNL     1      -8.465   8.339  67.402  1.00  0.00    -0.125 C  
HETATM   23  C   UNL     1      -8.906   6.868  67.630  1.00  0.00    -0.118 C  
BRANCH  21  24
HETATM   24  C   UNL     1      -7.708   4.732  68.041  1.00  0.00    -0.082 A  
HETATM   25  C   UNL     1      -7.929   4.059  66.790  1.00  0.00    -0.097 A  
HETATM   26  C   UNL     1      -8.099   4.561  65.444  1.00  0.00    -0.102 A  
HETATM   27  C   UNL     1      -8.354   3.586  64.510  1.00  0.00    -0.093 A  
HETATM   28  S   UNL     1      -8.336   2.036  65.199  1.00  0.00    -0.089 SA 
HETATM   29  C   UNL     1      -7.975   2.658  66.768  1.00  0.00    -0.076 A  
HETATM   30  C   UNL     1      -7.761   1.880  67.920  1.00  0.00    -0.058 A  
HETATM   31  C   UNL     1      -7.481   2.524  69.115  1.00  0.00    -0.044 A  
HETATM   32  C   UNL     1      -7.460   3.912  69.169  1.00  0.00    -0.054 A  
ENDBRANCH  21  24
ENDBRANCH  17  18
ENDBRANCH  16  17
ENDBRANCH  15  16
ENDBRANCH  14  15
ENDBRANCH  13  14
ENDBRANCH   7  13
TORSDOF 7
ENDMDL
MODEL      312
REMARK 921   NORMALIZED FREE ENERGY PREDICTED BY IDOCK:   -1.91 KCAL/MOL
REMARK 922        TOTAL FREE ENERGY PREDICTED BY IDOCK:   -3.99 KCAL/MOL
REMARK 923 INTER-LIGAND FREE ENERGY PREDICTED BY IDOCK:   -4.52 KCAL/MOL
REMARK 924 INTRA-LIGAND FREE ENERGY PREDICTED BY IDOCK:    0.53 KCAL/MOL
REMARK 927      BINDING AFFINITY PREDICTED BY RF-SCORE:    0.00 PKD
ROOT
HETATM    1  O   UNL     1     -11.547   8.691  73.204  1.00  0.00     0.182 OA 
HETATM    2  C   UNL     1     -11.150   7.614  72.772  1.00  0.00    -0.383 C  
HETATM    3  N   UNL     1     -10.551   7.489  71.549  1.00  0.00    -0.213 N  
HETATM    4  C   UNL     1     -10.118   6.264  71.022  1.00  0.00    -0.185 A  
HETATM    5  H   UNL     1     -10.411   8.331  70.991  1.00  0.00     0.000 HD 
HETATM    6  C   UNL     1      -9.532   6.215  69.758  1.00  0.00    -0.168 A  
HETATM    7  C   UNL     1      -9.127   4.988  69.228  1.00  0.00    -0.103 A  
HETATM    8  C   UNL     1     -11.304   6.374  73.572  1.00  0.00     0.365 C  
HETATM    9  C   UNL     1      -9.315   3.819  69.978  1.00  0.00    -0.250 A  
HETATM   10  C   UNL     1     -10.900   5.186  73.105  1.00  0.00    -0.344 C  
HETATM   11  C   UNL     1      -9.894   3.871  71.248  1.00  0.00    -0.227 A  
HETATM   12  C   UNL     1     -10.295   5.096  71.778  1.00  0.00    -0.274 A  
ENDROOT
BRANCH   7  13
HETATM   13  O   UNL     1      -8.562   5.054  67.980  1.00  0.00    -0.103 OA 
BRANCH  13  14
HETATM   14  C   UNL     1      -9.350   5.715  66.990  1.00  0.00    -0.118 C  
BRANCH  14  15
HETATM   15  C   UNL     1      -9.085   7.216  67.029  1.00  0.00    -0.149 C  
BRANCH  15  16
HETATM   16  C   UNL     1      -9.272   7.863  65.653  1.00  0.00     0.047 C  
BRANCH  16  17
HETATM   17  C   UNL     1      -7.988   8.006  64.816  1.00  0.00    -0.143 C  
BRANCH  17  18
HETATM   18  N   UNL     1      -7.885   9.265  64.068  1.00  0.00    -0.119 NA 
HETATM   19  C   UNL     1      -9.080  10.134  64.212  1.00  0.00    -0.250 C  
HETATM   20  C   UNL     1      -9.267  10.786  65.605  1.00  0.00    -0.199 C  
HETATM   21  N   UNL     1      -8.044  11.487  66.010  1.00  0.00     0.042 NA 
HETATM   22  C   UNL     1      -6.700  10.052  64.507  1.00  0.00    -0.128 C  
HETATM   23  C   UNL     1      -6.810  10.691  65.918  1.00  0.00    -0.115 C  
BRANCH  21  24
HETATM   24  C   UNL     1      -8.100  12.583  66.878  1.00  0.00    -0.036 A  
HETATM   25  C   UNL     1      -8.951  13.731  66.728  1.00  0.00    -0.202 A  
HETATM   26  C   UNL     1     -10.064  13.996  65.843  1.00  0.00    -0.336 A  
HETATM   27  C   UNL     1     -10.591  15.259  65.965  1.00  0.00    -0.319 A  
HETATM   28  S   UNL     1      -9.814  16.148  67.184  1.00  0.00    -0.246 SA 
HETATM   29  C   UNL     1      -8.761  14.836  67.571  1.00  0.00    -0.186 A  
HETATM   30  C   UNL     1      -7.798  14.843  68.596  1.00  0.00    -0.134 A  
HETATM   31  C   UNL     1      -7.021  13.711  68.786  1.00  0.00    -0.106 A  
HETATM   32  C   UNL     1      -7.170  12.616  67.946  1.00  0.00    -0.116 A  
ENDBRANCH  21  24
ENDBRANCH  17  18
ENDBRANCH  16  17
ENDBRANCH  15  16
ENDBRANCH  14  15
ENDBRANCH  13  14
ENDBRANCH   7  13
TORSDOF 7
ENDMDL
MODEL      313
REMARK 921   NORMALIZED FREE ENERGY PREDICTED BY IDOCK:   -1.87 KCAL/MOL
REMARK 922        TOTAL FREE ENERGY PREDICTED BY IDOCK:   -3.94 KCAL/MOL
REMARK 923 INTER-LIGAND FREE ENERGY PREDICTED BY IDOCK:   -4.73 KCAL/MOL
REMARK 924 INTRA-LIGAND FREE ENERGY PREDICTED BY IDOCK:    0.79 KCAL/MOL
REMARK 927      BINDING AFFINITY PREDICTED BY RF-SCORE:    0.00 PKD
ROOT
HETATM    1  O   UNL     1      -6.925  13.174  68.415  1.00  0.00    -0.087 OA 
HETATM    2  C   UNL     1      -6.507  12.555  69.387  1.00  0.00    -0.102 C  
HETATM    3  N   UNL     1      -6.415  11.190  69.404  1.00  0.00    -0.087 N  
HETATM    4  C   UNL     1      -5.969  10.460  70.514  1.00  0.00    -0.113 A  
HETATM    5  H   UNL     1      -6.686  10.677  68.566  1.00  0.00     0.000 HD 
HETATM    6  C   UNL     1      -5.923   9.067  70.461  1.00  0.00    -0.038 A  
HETATM    7  C   UNL     1      -5.502   8.344  71.579  1.00  0.00    -0.035 A  
HETATM    8  C   UNL     1      -6.068  13.270  70.611  1.00  0.00     0.005 C  
HETATM    9  C   UNL     1      -5.130   9.031  72.743  1.00  0.00    -0.067 A  
HETATM   10  C   UNL     1      -5.633  12.608  71.689  1.00  0.00     0.279 C  
HETATM   11  C   UNL     1      -5.169  10.426  72.791  1.00  0.00     0.245 A  
HETATM   12  C   UNL     1      -5.585  11.148  71.674  1.00  0.00     0.353 A  
ENDROOT
BRANCH   7  13
HETATM   13  O   UNL     1      -5.493   6.982  71.419  1.00  0.00    -0.027 OA 
BRANCH  13  14
HETATM   14  C   UNL     1      -5.867   6.520  70.121  1.00  0.00    -0.019 C  
BRANCH  14  15
HETATM   15  C   UNL     1      -7.120   7.250  69.649  1.00  0.00    -0.073 C  
BRANCH  15  16
HETATM   16  C   UNL     1      -8.360   6.353  69.712  1.00  0.00    -0.127 C  
BRANCH  16  17
HETATM   17  C   UNL     1      -9.300   6.616  70.902  1.00  0.00    -0.157 C  
BRANCH  17  18
HETATM   18  N   UNL     1     -10.724   6.687  70.549  1.00  0.00    -0.235 NA 
HETATM   19  C   UNL     1     -11.576   7.210  71.646  1.00  0.00    -0.276 C  
HETATM   20  C   UNL     1     -11.410   8.718  71.958  1.00  0.00    -0.371 C  
HETATM   21  N   UNL     1     -11.564   9.514  70.735  1.00  0.00    -0.291 NA 
HETATM   22  C   UNL     1     -10.937   7.555  69.359  1.00  0.00    -0.083 C  
HETATM   23  C   UNL     1     -10.738   9.075  69.599  1.00  0.00    -0.219 C  
BRANCH  21  24
HETATM   24  C   UNL     1     -12.022  10.835  70.792  1.00  0.00    -0.362 A  
HETATM   25  C   UNL     1     -11.570  11.917  69.961  1.00  0.00    -0.301 A  
HETATM   26  C   UNL     1     -10.742  11.940  68.776  1.00  0.00    -0.257 A  
HETATM   27  C   UNL     1     -10.482  13.201  68.296  1.00  0.00    -0.250 A  
HETATM   28  S   UNL     1     -11.269  14.394  69.210  1.00  0.00    -0.284 SA 
HETATM   29  C   UNL     1     -11.980  13.224  70.262  1.00  0.00    -0.300 A  
HETATM   30  C   UNL     1     -12.862  13.512  71.318  1.00  0.00    -0.420 A  
HETATM   31  C   UNL     1     -13.351  12.463  72.080  1.00  0.00    -0.508 A  
HETATM   32  C   UNL     1     -12.937  11.163  71.822  1.00  0.00    -0.526 A  
ENDBRANCH  21  24
ENDBRANCH  17  18
ENDBRANCH  16  17
ENDBRANCH  15  16
ENDBRANCH  14  15
ENDBRANCH  13  14
ENDBRANCH   7  13
TORSDOF 7
ENDMDL
MODEL      314
REMARK 921   NORMALIZED FREE ENERGY PREDICTED BY IDOCK:   -1.87 KCAL/MOL
REMARK 922        TOTAL FREE ENERGY PREDICTED BY IDOCK:   -3.94 KCAL/MOL
REMARK 923 INTER-LIGAND FREE ENERGY PREDICTED BY IDOCK:   -4.41 KCAL/MOL
REMARK 924 INTRA-LIGAND FREE ENERGY PREDICTED BY IDOCK:    0.47 KCAL/MOL
REMARK 927      BINDING AFFINITY PREDICTED BY RF-SCORE:    0.00 PKD
ROOT
HETATM    1  O   UNL     1      -8.374  13.626  66.139  1.00  0.00     0.698 OA 
HETATM    2  C   UNL     1      -7.770  13.078  67.054  1.00  0.00     0.066 C  
HETATM    3  N   UNL     1      -7.455  11.747  67.033  1.00  0.00    -0.180 N  
HETATM    4  C   UNL     1      -6.793  11.093  68.081  1.00  0.00    -0.067 A  
HETATM    5  H   UNL     1      -7.716  11.202  66.211  1.00  0.00     0.000 HD 
HETATM    6  C   UNL     1      -6.524   9.728  67.993  1.00  0.00    -0.056 A  
HETATM    7  C   UNL     1      -5.887   9.076  69.051  1.00  0.00    -0.040 A  
HETATM    8  C   UNL     1      -7.342  13.848  68.249  1.00  0.00    -0.117 C  
HETATM    9  C   UNL     1      -5.525   9.807  70.191  1.00  0.00    -0.041 A  
HETATM   10  C   UNL     1      -6.705  13.259  69.268  1.00  0.00    -0.066 C  
HETATM   11  C   UNL     1      -5.787  11.176  70.274  1.00  0.00    -0.137 A  
HETATM   12  C   UNL     1      -6.419  11.827  69.215  1.00  0.00    -0.107 A  
ENDROOT
BRANCH   7  13
HETATM   13  O   UNL     1      -5.670   7.735  68.860  1.00  0.00    -0.028 OA 
BRANCH  13  14
HETATM   14  C   UNL     1      -5.916   7.262  67.536  1.00  0.00    -0.034 C  
BRANCH  14  15
HETATM   15  C   UNL     1      -7.412   7.292  67.242  1.00  0.00    -0.099 C  
BRANCH  15  16
HETATM   16  C   UNL     1      -8.162   6.187  67.992  1.00  0.00    -0.114 C  
BRANCH  16  17
HETATM   17  C   UNL     1      -8.987   6.660  69.203  1.00  0.00    -0.131 C  
BRANCH  17  18
HETATM   18  N   UNL     1     -10.410   6.884  68.921  1.00  0.00    -0.181 NA 
HETATM   19  C   UNL     1     -10.980   8.041  69.654  1.00  0.00    -0.101 C  
HETATM   20  C   UNL     1     -10.499   9.435  69.180  1.00  0.00    -0.217 C  
HETATM   21  N   UNL     1     -10.686   9.575  67.732  1.00  0.00    -0.262 NA 
HETATM   22  C   UNL     1     -10.637   7.115  67.468  1.00  0.00    -0.278 C  
HETATM   23  C   UNL     1     -10.131   8.478  66.924  1.00  0.00    -0.294 C  
BRANCH  21  24
HETATM   24  C   UNL     1     -10.883  10.834  67.153  1.00  0.00    -0.277 A  
HETATM   25  C   UNL     1     -11.214  12.041  67.860  1.00  0.00    -0.323 A  
HETATM   26  C   UNL     1     -11.233  12.356  69.271  1.00  0.00    -0.264 A  
HETATM   27  C   UNL     1     -11.672  13.626  69.557  1.00  0.00    -0.322 A  
HETATM   28  S   UNL     1     -12.016  14.504  68.146  1.00  0.00    -0.204 SA 
HETATM   29  C   UNL     1     -11.568  13.184  67.128  1.00  0.00    -0.361 A  
HETATM   30  C   UNL     1     -11.562  13.209  65.722  1.00  0.00    -0.383 A  
HETATM   31  C   UNL     1     -11.179  12.066  65.039  1.00  0.00    -0.374 A  
HETATM   32  C   UNL     1     -10.853  10.912  65.740  1.00  0.00    -0.120 A  
ENDBRANCH  21  24
ENDBRANCH  17  18
ENDBRANCH  16  17
ENDBRANCH  15  16
ENDBRANCH  14  15
ENDBRANCH  13  14
ENDBRANCH   7  13
TORSDOF 7
ENDMDL
MODEL      315
REMARK 921   NORMALIZED FREE ENERGY PREDICTED BY IDOCK:   -1.86 KCAL/MOL
REMARK 922        TOTAL FREE ENERGY PREDICTED BY IDOCK:   -3.92 KCAL/MOL
REMARK 923 INTER-LIGAND FREE ENERGY PREDICTED BY IDOCK:   -4.14 KCAL/MOL
REMARK 924 INTRA-LIGAND FREE ENERGY PREDICTED BY IDOCK:    0.22 KCAL/MOL
REMARK 927      BINDING AFFINITY PREDICTED BY RF-SCORE:    0.00 PKD
ROOT
HETATM    1  O   UNL     1     -12.035  16.989  63.638  1.00  0.00     0.611 OA 
HETATM    2  C   UNL     1     -11.367  16.423  64.496  1.00  0.00    -0.114 C  
HETATM    3  N   UNL     1     -11.210  15.065  64.529  1.00  0.00    -0.640 N  
HETATM    4  C   UNL     1     -10.477  14.395  65.518  1.00  0.00    -0.350 A  
HETATM    5  H   UNL     1     -11.651  14.510  63.795  1.00  0.00     0.000 HD 
HETATM    6  C   UNL     1     -10.379  13.004  65.493  1.00  0.00    -0.304 A  
HETATM    7  C   UNL     1      -9.669  12.341  66.496  1.00  0.00    -0.234 A  
HETATM    8  C   UNL     1     -10.681  17.201  65.558  1.00  0.00    -0.124 C  
HETATM    9  C   UNL     1      -9.060  13.085  67.516  1.00  0.00    -0.191 A  
HETATM   10  C   UNL     1      -9.969  16.598  66.517  1.00  0.00    -0.296 C  
HETATM   11  C   UNL     1      -9.152  14.479  67.534  1.00  0.00    -0.193 A  
HETATM   12  C   UNL     1      -9.857  15.141  66.531  1.00  0.00    -0.278 A  
ENDROOT
BRANCH   7  13
HETATM   13  O   UNL     1      -9.635  10.975  66.375  1.00  0.00    -0.189 OA 
BRANCH  13  14
HETATM   14  C   UNL     1     -10.907  10.329  66.414  1.00  0.00     0.045 C  
BRANCH  14  15
HETATM   15  C   UNL     1     -11.022   9.480  67.676  1.00  0.00    -0.150 C  
BRANCH  15  16
HETATM   16  C   UNL     1     -10.144   8.228  67.601  1.00  0.00    -0.268 C  
BRANCH  16  17
HETATM   17  C   UNL     1      -8.629   8.482  67.705  1.00  0.00    -0.134 C  
BRANCH  17  18
HETATM   18  N   UNL     1      -7.819   7.271  67.887  1.00  0.00    -0.116 NA 
HETATM   19  C   UNL     1      -8.628   6.058  68.161  1.00  0.00    -0.114 C  
HETATM   20  C   UNL     1      -9.455   5.523  66.966  1.00  0.00    -0.131 C  
HETATM   21  N   UNL     1      -8.596   5.338  65.791  1.00  0.00    -0.133 NA 
HETATM   22  C   UNL     1      -6.990   6.997  66.682  1.00  0.00    -0.073 C  
HETATM   23  C   UNL     1      -7.771   6.503  65.434  1.00  0.00    -0.099 C  
BRANCH  21  24
HETATM   24  C   UNL     1      -8.909   4.385  64.816  1.00  0.00    -0.145 A  
HETATM   25  C   UNL     1      -7.978   3.488  64.189  1.00  0.00    -0.086 A  
HETATM   26  C   UNL     1      -6.600   3.165  64.488  1.00  0.00    -0.035 A  
HETATM   27  C   UNL     1      -6.023   2.288  63.603  1.00  0.00    -0.010 A  
HETATM   28  S   UNL     1      -7.126   1.772  62.421  1.00  0.00    -0.027 SA 
HETATM   29  C   UNL     1      -8.402   2.720  63.094  1.00  0.00    -0.085 A  
HETATM   30  C   UNL     1      -9.724   2.757  62.617  1.00  0.00    -0.091 A  
HETATM   31  C   UNL     1     -10.642   3.572  63.262  1.00  0.00    -0.246 A  
HETATM   32  C   UNL     1     -10.239   4.364  64.330  1.00  0.00     0.053 A  
ENDBRANCH  21  24
ENDBRANCH  17  18
ENDBRANCH  16  17
ENDBRANCH  15  16
ENDBRANCH  14  15
ENDBRANCH  13  14
ENDBRANCH   7  13
TORSDOF 7
ENDMDL
MODEL      316
REMARK 921   NORMALIZED FREE ENERGY PREDICTED BY IDOCK:   -1.83 KCAL/MOL
REMARK 922        TOTAL FREE ENERGY PREDICTED BY IDOCK:   -3.88 KCAL/MOL
REMARK 923 INTER-LIGAND FREE ENERGY PREDICTED BY IDOCK:   -4.17 KCAL/MOL
REMARK 924 INTRA-LIGAND FREE ENERGY PREDICTED BY IDOCK:    0.29 KCAL/MOL
REMARK 927      BINDING AFFINITY PREDICTED BY RF-SCORE:    0.00 PKD
ROOT
HETATM    1  O   UNL     1      -6.780  18.471  69.316  1.00  0.00    -0.272 OA 
HETATM    2  C   UNL     1      -6.545  17.326  68.945  1.00  0.00    -0.212 C  
HETATM    3  N   UNL     1      -6.559  16.260  69.801  1.00  0.00    -0.181 N  
HETATM    4  C   UNL     1      -6.263  14.948  69.405  1.00  0.00    -0.114 A  
HETATM    5  H   UNL     1      -6.796  16.428  70.779  1.00  0.00     0.000 HD 
HETATM    6  C   UNL     1      -6.279  13.915  70.342  1.00  0.00    -0.105 A  
HETATM    7  C   UNL     1      -5.958  12.615  69.947  1.00  0.00    -0.141 A  
HETATM    8  C   UNL     1      -6.233  17.039  67.523  1.00  0.00    -0.169 C  
HETATM    9  C   UNL     1      -5.625  12.365  68.609  1.00  0.00    -0.054 A  
HETATM   10  C   UNL     1      -5.949  15.800  67.106  1.00  0.00     0.140 C  
HETATM   11  C   UNL     1      -5.619  13.399  67.670  1.00  0.00    -0.050 A  
HETATM   12  C   UNL     1      -5.943  14.696  68.064  1.00  0.00    -0.158 A  
ENDROOT
BRANCH   7  13
HETATM   13  O   UNL     1      -6.006  11.677  70.947  1.00  0.00    -0.365 OA 
BRANCH  13  14
HETATM   14  C   UNL     1      -6.060  10.320  70.507  1.00  0.00    -0.114 C  
BRANCH  14  15
HETATM   15  C   UNL     1      -7.510   9.861  70.411  1.00  0.00    -0.137 C  
BRANCH  15  16
HETATM   16  C   UNL     1      -7.785   9.112  69.103  1.00  0.00    -0.081 C  
BRANCH  16  17
HETATM   17  C   UNL     1      -9.103   9.482  68.401  1.00  0.00    -0.127 C  
BRANCH  17  18
HETATM   18  N   UNL     1     -10.057   8.372  68.271  1.00  0.00    -0.192 NA 
HETATM   19  C   UNL     1      -9.409   7.076  67.953  1.00  0.00    -0.123 C  
HETATM   20  C   UNL     1      -8.580   6.445  69.100  1.00  0.00    -0.125 C  
HETATM   21  N   UNL     1      -9.384   6.356  70.324  1.00  0.00    -0.158 NA 
HETATM   22  C   UNL     1     -10.839   8.191  69.524  1.00  0.00    -0.121 C  
HETATM   23  C   UNL     1     -10.048   7.606  70.725  1.00  0.00    -0.189 C  
BRANCH  21  24
HETATM   24  C   UNL     1      -9.126   5.369  71.281  1.00  0.00    -0.142 A  
HETATM   25  C   UNL     1      -8.215   5.488  72.386  1.00  0.00    -0.114 A  
HETATM   26  C   UNL     1      -7.509   6.625  72.934  1.00  0.00    -0.088 A  
HETATM   27  C   UNL     1      -6.668   6.316  73.975  1.00  0.00    -0.075 A  
HETATM   28  S   UNL     1      -6.741   4.669  74.373  1.00  0.00    -0.067 SA 
HETATM   29  C   UNL     1      -7.917   4.350  73.150  1.00  0.00    -0.095 A  
HETATM   30  C   UNL     1      -8.518   3.103  72.907  1.00  0.00    -0.080 A  
HETATM   31  C   UNL     1      -9.447   3.000  71.884  1.00  0.00    -0.207 A  
HETATM   32  C   UNL     1      -9.737   4.105  71.094  1.00  0.00    -0.258 A  
ENDBRANCH  21  24
ENDBRANCH  17  18
ENDBRANCH  16  17
ENDBRANCH  15  16
ENDBRANCH  14  15
ENDBRANCH  13  14
ENDBRANCH   7  13
TORSDOF 7
ENDMDL
MODEL      317
REMARK 921   NORMALIZED FREE ENERGY PREDICTED BY IDOCK:   -1.67 KCAL/MOL
REMARK 922        TOTAL FREE ENERGY PREDICTED BY IDOCK:   -3.66 KCAL/MOL
REMARK 923 INTER-LIGAND FREE ENERGY PREDICTED BY IDOCK:   -3.52 KCAL/MOL
REMARK 924 INTRA-LIGAND FREE ENERGY PREDICTED BY IDOCK:   -0.14 KCAL/MOL
REMARK 927      BINDING AFFINITY PREDICTED BY RF-SCORE:    0.00 PKD
ROOT
HETATM    1  O   UNL     1      -9.141   9.306  65.439  1.00  0.00    -0.200 OA 
HETATM    2  C   UNL     1      -9.493   8.576  66.358  1.00  0.00    -0.232 C  
HETATM    3  N   UNL     1      -8.933   7.348  66.577  1.00  0.00    -0.153 N  
HETATM    4  C   UNL     1      -9.342   6.483  67.602  1.00  0.00    -0.118 A  
HETATM    5  H   UNL     1      -8.179   7.044  65.961  1.00  0.00     0.000 HD 
HETATM    6  C   UNL     1      -8.734   5.237  67.749  1.00  0.00    -0.103 A  
HETATM    7  C   UNL     1      -9.164   4.370  68.756  1.00  0.00    -0.136 A  
HETATM    8  C   UNL     1     -10.562   9.001  67.296  1.00  0.00    -0.301 C  
HETATM    9  C   UNL     1     -10.202   4.767  69.609  1.00  0.00    -0.200 A  
HETATM   10  C   UNL     1     -10.977   8.205  68.289  1.00  0.00     0.163 C  
HETATM   11  C   UNL     1     -10.804   6.020  69.466  1.00  0.00    -0.439 A  
HETATM   12  C   UNL     1     -10.372   6.886  68.463  1.00  0.00    -0.204 A  
ENDROOT
BRANCH   7  13
HETATM   13  O   UNL     1      -8.498   3.172  68.812  1.00  0.00    -0.063 OA 
BRANCH  13  14
HETATM   14  C   UNL     1      -7.178   3.234  69.351  1.00  0.00    -0.045 C  
BRANCH  14  15
HETATM   15  C   UNL     1      -6.537   4.575  69.009  1.00  0.00    -0.045 C  
BRANCH  15  16
HETATM   16  C   UNL     1      -5.539   5.019  70.082  1.00  0.00    -0.015 C  
BRANCH  16  17
HETATM   17  C   UNL     1      -5.304   6.538  70.170  1.00  0.00    -0.014 C  
BRANCH  17  18
HETATM   18  N   UNL     1      -6.239   7.249  71.052  1.00  0.00    -0.036 NA 
HETATM   19  C   UNL     1      -5.593   8.316  71.855  1.00  0.00    -0.038 C  
HETATM   20  C   UNL     1      -5.134   9.565  71.062  1.00  0.00    -0.038 C  
HETATM   21  N   UNL     1      -6.242  10.097  70.260  1.00  0.00    -0.089 NA 
HETATM   22  C   UNL     1      -7.338   7.878  70.269  1.00  0.00    -0.065 C  
HETATM   23  C   UNL     1      -6.928   9.107  69.414  1.00  0.00    -0.052 C  
BRANCH  21  24
HETATM   24  C   UNL     1      -6.298  11.454  69.926  1.00  0.00    -0.141 A  
HETATM   25  C   UNL     1      -7.137  12.037  68.915  1.00  0.00    -0.104 A  
HETATM   26  C   UNL     1      -8.237  11.496  68.147  1.00  0.00    -0.149 A  
HETATM   27  C   UNL     1      -8.753  12.365  67.217  1.00  0.00    -0.191 A  
HETATM   28  S   UNL     1      -7.983  13.876  67.274  1.00  0.00    -0.070 SA 
HETATM   29  C   UNL     1      -6.946  13.381  68.562  1.00  0.00    -0.102 A  
HETATM   30  C   UNL     1      -5.996  14.198  69.199  1.00  0.00    -0.093 A  
HETATM   31  C   UNL     1      -5.232  13.657  70.220  1.00  0.00    -0.101 A  
HETATM   32  C   UNL     1      -5.381  12.321  70.568  1.00  0.00    -0.145 A  
ENDBRANCH  21  24
ENDBRANCH  17  18
ENDBRANCH  16  17
ENDBRANCH  15  16
ENDBRANCH  14  15
ENDBRANCH  13  14
ENDBRANCH   7  13
TORSDOF 7
ENDMDL
MODEL      318
REMARK 921   NORMALIZED FREE ENERGY PREDICTED BY IDOCK:   -1.58 KCAL/MOL
REMARK 922        TOTAL FREE ENERGY PREDICTED BY IDOCK:   -3.54 KCAL/MOL
REMARK 923 INTER-LIGAND FREE ENERGY PREDICTED BY IDOCK:   -2.69 KCAL/MOL
REMARK 924 INTRA-LIGAND FREE ENERGY PREDICTED BY IDOCK:   -0.85 KCAL/MOL
REMARK 927      BINDING AFFINITY PREDICTED BY RF-SCORE:    0.00 PKD
ROOT
HETATM    1  O   UNL     1     -10.752   4.687  65.284  1.00  0.00    -0.198 OA 
HETATM    2  C   UNL     1      -9.639   5.164  65.092  1.00  0.00     0.117 C  
HETATM    3  N   UNL     1      -9.337   6.465  65.385  1.00  0.00    -0.277 N  
HETATM    4  C   UNL     1      -8.081   7.040  65.145  1.00  0.00    -0.124 A  
HETATM    5  H   UNL     1     -10.064   7.048  65.799  1.00  0.00     0.000 HD 
HETATM    6  C   UNL     1      -7.857   8.381  65.454  1.00  0.00    -0.108 A  
HETATM    7  C   UNL     1      -6.611   8.955  65.189  1.00  0.00    -0.065 A  
HETATM    8  C   UNL     1      -8.546   4.335  64.526  1.00  0.00    -0.126 C  
HETATM    9  C   UNL     1      -5.600   8.171  64.616  1.00  0.00    -0.044 A  
HETATM   10  C   UNL     1      -7.333   4.847  64.286  1.00  0.00    -0.059 C  
HETATM   11  C   UNL     1      -5.825   6.825  64.316  1.00  0.00    -0.032 A  
HETATM   12  C   UNL     1      -7.066   6.252  64.584  1.00  0.00    -0.057 A  
ENDROOT
BRANCH   7  13
HETATM   13  O   UNL     1      -6.498  10.278  65.532  1.00  0.00    -0.106 OA 
BRANCH  13  14
HETATM   14  C   UNL     1      -6.707  10.569  66.913  1.00  0.00    -0.086 C  
BRANCH  14  15
HETATM   15  C   UNL     1      -7.723  11.697  67.061  1.00  0.00    -0.159 C  
BRANCH  15  16
HETATM   16  C   UNL     1      -9.143  11.160  67.265  1.00  0.00    -0.152 C  
BRANCH  16  17
HETATM   17  C   UNL     1     -10.067  12.056  68.109  1.00  0.00    -0.200 C  
BRANCH  17  18
HETATM   18  N   UNL     1     -10.922  11.328  69.056  1.00  0.00    -0.222 NA 
HETATM   19  C   UNL     1     -11.697  10.232  68.424  1.00  0.00     0.189 C  
HETATM   20  C   UNL     1     -10.869   9.002  67.974  1.00  0.00    -0.041 C  
HETATM   21  N   UNL     1     -10.046   8.506  69.083  1.00  0.00    -0.197 NA 
HETATM   22  C   UNL     1     -10.116  10.734  70.157  1.00  0.00     0.556 C  
HETATM   23  C   UNL     1      -9.227   9.527  69.755  1.00  0.00    -0.208 C  
BRANCH  21  24
HETATM   24  C   UNL     1      -9.672   7.160  69.151  1.00  0.00    -0.158 A  
HETATM   25  C   UNL     1      -8.373   6.631  68.839  1.00  0.00    -0.120 A  
HETATM   26  C   UNL     1      -7.104   7.280  68.592  1.00  0.00    -0.084 A  
HETATM   27  C   UNL     1      -6.087   6.417  68.262  1.00  0.00    -0.027 A  
HETATM   28  S   UNL     1      -6.599   4.800  68.299  1.00  0.00    -0.043 SA 
HETATM   29  C   UNL     1      -8.200   5.241  68.770  1.00  0.00    -0.089 A  
HETATM   30  C   UNL     1      -9.243   4.339  69.044  1.00  0.00    -0.207 A  
HETATM   31  C   UNL     1     -10.480   4.845  69.410  1.00  0.00     0.002 A  
HETATM   32  C   UNL     1     -10.685   6.218  69.458  1.00  0.00    -0.365 A  
ENDBRANCH  21  24
ENDBRANCH  17  18
ENDBRANCH  16  17
ENDBRANCH  15  16
ENDBRANCH  14  15
ENDBRANCH  13  14
ENDBRANCH   7  13
TORSDOF 7
ENDMDL
MODEL      319
REMARK 921   NORMALIZED FREE ENERGY PREDICTED BY IDOCK:   -1.58 KCAL/MOL
REMARK 922        TOTAL FREE ENERGY PREDICTED BY IDOCK:   -3.52 KCAL/MOL
REMARK 923 INTER-LIGAND FREE ENERGY PREDICTED BY IDOCK:   -2.99 KCAL/MOL
REMARK 924 INTRA-LIGAND FREE ENERGY PREDICTED BY IDOCK:   -0.53 KCAL/MOL
REMARK 927      BINDING AFFINITY PREDICTED BY RF-SCORE:    0.00 PKD
ROOT
HETATM    1  O   UNL     1      -7.246   2.500  70.403  1.00  0.00    -0.033 OA 
HETATM    2  C   UNL     1      -7.425   2.641  69.198  1.00  0.00    -0.044 C  
HETATM    3  N   UNL     1      -6.607   3.411  68.419  1.00  0.00    -0.040 N  
HETATM    4  C   UNL     1      -6.811   3.611  67.047  1.00  0.00    -0.050 A  
HETATM    5  H   UNL     1      -5.806   3.864  68.860  1.00  0.00     0.000 HD 
HETATM    6  C   UNL     1      -5.942   4.427  66.323  1.00  0.00    -0.027 A  
HETATM    7  C   UNL     1      -6.165   4.644  64.962  1.00  0.00    -0.034 A  
HETATM    8  C   UNL     1      -8.558   1.967  68.517  1.00  0.00    -0.100 C  
HETATM    9  C   UNL     1      -7.263   4.034  64.339  1.00  0.00    -0.062 A  
HETATM   10  C   UNL     1      -8.783   2.131  67.208  1.00  0.00    -0.137 C  
HETATM   11  C   UNL     1      -8.127   3.210  65.064  1.00  0.00    -0.086 A  
HETATM   12  C   UNL     1      -7.901   2.991  66.422  1.00  0.00    -0.077 A  
ENDROOT
BRANCH   7  13
HETATM   13  O   UNL     1      -5.251   5.461  64.347  1.00  0.00    -0.009 OA 
BRANCH  13  14
HETATM   14  C   UNL     1      -5.585   6.848  64.336  1.00  0.00    -0.032 C  
BRANCH  14  15
HETATM   15  C   UNL     1      -6.345   7.191  63.059  1.00  0.00    -0.052 C  
BRANCH  15  16
HETATM   16  C   UNL     1      -7.360   8.316  63.285  1.00  0.00    -0.105 C  
BRANCH  16  17
HETATM   17  C   UNL     1      -7.392   8.892  64.712  1.00  0.00    -0.097 C  
BRANCH  17  18
HETATM   18  N   UNL     1      -7.636  10.339  64.780  1.00  0.00    -0.136 NA 
HETATM   19  C   UNL     1      -9.064  10.703  64.608  1.00  0.00    -0.211 C  
HETATM   20  C   UNL     1      -9.996  10.325  65.786  1.00  0.00    -0.271 C  
HETATM   21  N   UNL     1      -9.461  10.845  67.049  1.00  0.00    -0.164 NA 
HETATM   22  C   UNL     1      -7.182  10.897  66.083  1.00  0.00    -0.101 C  
HETATM   23  C   UNL     1      -8.051  10.512  67.311  1.00  0.00    -0.115 C  
BRANCH  21  24
HETATM   24  C   UNL     1     -10.312  11.153  68.116  1.00  0.00    -0.187 A  
HETATM   25  C   UNL     1     -10.305  10.519  69.405  1.00  0.00    -0.258 A  
HETATM   26  C   UNL     1      -9.371   9.605  70.025  1.00  0.00    -0.276 A  
HETATM   27  C   UNL     1      -9.754   9.167  71.269  1.00  0.00    -0.281 A  
HETATM   28  S   UNL     1     -11.211   9.881  71.765  1.00  0.00     0.626 SA 
HETATM   29  C   UNL     1     -11.341  10.800  70.309  1.00  0.00    -0.290 A  
HETATM   30  C   UNL     1     -12.362  11.721  70.019  1.00  0.00    -0.233 A  
HETATM   31  C   UNL     1     -12.334  12.384  68.802  1.00  0.00     0.249 A  
HETATM   32  C   UNL     1     -11.336  12.101  67.878  1.00  0.00    -0.361 A  
ENDBRANCH  21  24
ENDBRANCH  17  18
ENDBRANCH  16  17
ENDBRANCH  15  16
ENDBRANCH  14  15
ENDBRANCH  13  14
ENDBRANCH   7  13
TORSDOF 7
ENDMDL
MODEL      320
REMARK 921   NORMALIZED FREE ENERGY PREDICTED BY IDOCK:   -1.41 KCAL/MOL
REMARK 922        TOTAL FREE ENERGY PREDICTED BY IDOCK:   -3.29 KCAL/MOL
REMARK 923 INTER-LIGAND FREE ENERGY PREDICTED BY IDOCK:   -3.18 KCAL/MOL
REMARK 924 INTRA-LIGAND FREE ENERGY PREDICTED BY IDOCK:   -0.11 KCAL/MOL
REMARK 927      BINDING AFFINITY PREDICTED BY RF-SCORE:    0.00 PKD
ROOT
HETATM    1  O   UNL     1     -12.623  13.984  65.105  1.00  0.00    -0.529 OA 
HETATM    2  C   UNL     1     -11.816  13.188  64.638  1.00  0.00    -0.370 C  
HETATM    3  N   UNL     1     -11.101  12.323  65.419  1.00  0.00    -0.302 N  
HETATM    4  C   UNL     1     -10.151  11.427  64.910  1.00  0.00    -0.274 A  
HETATM    5  H   UNL     1     -11.267  12.331  66.426  1.00  0.00     0.000 HD 
HETATM    6  C   UNL     1      -9.448  10.589  65.775  1.00  0.00    -0.249 A  
HETATM    7  C   UNL     1      -8.484   9.716  65.264  1.00  0.00    -0.146 A  
HETATM    8  C   UNL     1     -11.576  13.123  63.175  1.00  0.00     0.068 C  
HETATM    9  C   UNL     1      -8.238   9.694  63.885  1.00  0.00    -0.159 A  
HETATM   10  C   UNL     1     -10.680  12.278  62.651  1.00  0.00     1.378 C  
HETATM   11  C   UNL     1      -8.950  10.528  63.019  1.00  0.00    -0.249 A  
HETATM   12  C   UNL     1      -9.914  11.395  63.529  1.00  0.00    -0.424 A  
ENDROOT
BRANCH   7  13
HETATM   13  O   UNL     1      -7.853   8.937  66.201  1.00  0.00    -0.099 OA 
BRANCH  13  14
HETATM   14  C   UNL     1      -6.711   9.531  66.816  1.00  0.00    -0.072 C  
BRANCH  14  15
HETATM   15  C   UNL     1      -6.687   9.197  68.304  1.00  0.00    -0.060 C  
BRANCH  15  16
HETATM   16  C   UNL     1      -7.968   9.654  69.010  1.00  0.00    -0.088 C  
BRANCH  16  17
HETATM   17  C   UNL     1      -8.221   9.014  70.386  1.00  0.00    -0.151 C  
BRANCH  17  18
HETATM   18  N   UNL     1      -9.330   8.051  70.416  1.00  0.00    -0.158 NA 
HETATM   19  C   UNL     1      -9.678   7.515  69.077  1.00  0.00    -0.162 C  
HETATM   20  C   UNL     1      -8.640   6.550  68.452  1.00  0.00    -0.119 C  
HETATM   21  N   UNL     1      -8.314   5.471  69.391  1.00  0.00    -0.101 NA 
HETATM   22  C   UNL     1      -9.008   6.893  71.295  1.00  0.00    -0.142 C  
HETATM   23  C   UNL     1      -7.936   5.915  70.742  1.00  0.00    -0.114 C  
BRANCH  21  24
HETATM   24  C   UNL     1      -7.893   4.220  68.928  1.00  0.00    -0.069 A  
HETATM   25  C   UNL     1      -8.100   3.702  67.604  1.00  0.00    -0.085 A  
HETATM   26  C   UNL     1      -8.567   4.327  66.387  1.00  0.00    -0.112 A  
HETATM   27  C   UNL     1      -8.687   3.467  65.322  1.00  0.00    -0.121 A  
HETATM   28  S   UNL     1      -8.186   1.897  65.726  1.00  0.00    -0.093 SA 
HETATM   29  C   UNL     1      -7.791   2.359  67.341  1.00  0.00    -0.065 A  
HETATM   30  C   UNL     1      -7.236   1.510  68.316  1.00  0.00    -0.039 A  
HETATM   31  C   UNL     1      -6.975   2.026  69.575  1.00  0.00    -0.033 A  
HETATM   32  C   UNL     1      -7.299   3.344  69.868  1.00  0.00    -0.041 A  
ENDBRANCH  21  24
ENDBRANCH  17  18
ENDBRANCH  16  17
ENDBRANCH  15  16
ENDBRANCH  14  15
ENDBRANCH  13  14
ENDBRANCH   7  13
TORSDOF 7
ENDMDL
MODEL      321
REMARK 921   NORMALIZED FREE ENERGY PREDICTED BY IDOCK:   -1.30 KCAL/MOL
REMARK 922        TOTAL FREE ENERGY PREDICTED BY IDOCK:   -3.14 KCAL/MOL
REMARK 923 INTER-LIGAND FREE ENERGY PREDICTED BY IDOCK:   -5.12 KCAL/MOL
REMARK 924 INTRA-LIGAND FREE ENERGY PREDICTED BY IDOCK:    1.98 KCAL/MOL
REMARK 927      BINDING AFFINITY PREDICTED BY RF-SCORE:    0.00 PKD
ROOT
HETATM    1  O   UNL     1      -7.197  11.398  67.046  1.00  0.00    -0.125 OA 
HETATM    2  C   UNL     1      -6.760  10.977  68.111  1.00  0.00    -0.062 C  
HETATM    3  N   UNL     1      -6.633   9.641  68.376  1.00  0.00    -0.053 N  
HETATM    4  C   UNL     1      -6.165   9.137  69.598  1.00  0.00    -0.039 A  
HETATM    5  H   UNL     1      -6.892   8.977  67.647  1.00  0.00     0.000 HD 
HETATM    6  C   UNL     1      -6.082   7.760  69.799  1.00  0.00    -0.027 A  
HETATM    7  C   UNL     1      -5.640   7.264  71.027  1.00  0.00    -0.027 A  
HETATM    8  C   UNL     1      -6.339  11.915  69.181  1.00  0.00    -0.092 C  
HETATM    9  C   UNL     1      -5.284   8.160  72.044  1.00  0.00    -0.035 A  
HETATM   10  C   UNL     1      -5.884  11.472  70.359  1.00  0.00    -0.155 C  
HETATM   11  C   UNL     1      -5.360   9.540  71.837  1.00  0.00    -0.076 A  
HETATM   12  C   UNL     1      -5.797  10.035  70.610  1.00  0.00    -0.087 A  
ENDROOT
BRANCH   7  13
HETATM   13  O   UNL     1      -5.595   5.896  71.117  1.00  0.00    -0.016 OA 
BRANCH  13  14
HETATM   14  C   UNL     1      -6.059   5.194  69.964  1.00  0.00    -0.021 C  
BRANCH  14  15
HETATM   15  C   UNL     1      -7.047   6.061  69.190  1.00  0.00    -0.070 C  
BRANCH  15  16
HETATM   16  C   UNL     1      -8.478   5.526  69.297  1.00  0.00    -0.101 C  
BRANCH  16  17
HETATM   17  C   UNL     1      -9.275   6.024  70.516  1.00  0.00    -0.156 C  
BRANCH  17  18
HETATM   18  N   UNL     1     -10.705   6.242  70.262  1.00  0.00    -0.255 NA 
HETATM   19  C   UNL     1     -11.298   7.302  71.114  1.00  0.00    -0.267 C  
HETATM   20  C   UNL     1     -10.852   8.749  70.788  1.00  0.00    -0.234 C  
HETATM   21  N   UNL     1     -11.049   9.036  69.362  1.00  0.00    -0.064 NA 
HETATM   22  C   UNL     1     -10.944   6.618  68.842  1.00  0.00    -0.267 C  
HETATM   23  C   UNL     1     -10.473   8.042  68.442  1.00  0.00    -0.163 C  
BRANCH  21  24
HETATM   24  C   UNL     1     -11.277  10.343  68.919  1.00  0.00    -0.235 A  
HETATM   25  C   UNL     1     -10.958  10.856  67.615  1.00  0.00    -0.350 A  
HETATM   26  C   UNL     1     -10.542  10.197  66.396  1.00  0.00    -0.155 A  
HETATM   27  C   UNL     1     -10.269  11.055  65.359  1.00  0.00    -0.274 A  
HETATM   28  S   UNL     1     -10.560  12.671  65.787  1.00  0.00    -0.278 SA 
HETATM   29  C   UNL     1     -11.069  12.234  67.378  1.00  0.00    -0.282 A  
HETATM   30  C   UNL     1     -11.532  13.130  68.357  1.00  0.00    -0.350 A  
HETATM   31  C   UNL     1     -11.904  12.629  69.595  1.00  0.00    -0.379 A  
HETATM   32  C   UNL     1     -11.775  11.273  69.864  1.00  0.00    -0.430 A  
ENDBRANCH  21  24
ENDBRANCH  17  18
ENDBRANCH  16  17
ENDBRANCH  15  16
ENDBRANCH  14  15
ENDBRANCH  13  14
ENDBRANCH   7  13
TORSDOF 7
ENDMDL
MODEL      322
REMARK 921   NORMALIZED FREE ENERGY PREDICTED BY IDOCK:   -1.23 KCAL/MOL
REMARK 922        TOTAL FREE ENERGY PREDICTED BY IDOCK:   -3.04 KCAL/MOL
REMARK 923 INTER-LIGAND FREE ENERGY PREDICTED BY IDOCK:   -2.70 KCAL/MOL
REMARK 924 INTRA-LIGAND FREE ENERGY PREDICTED BY IDOCK:   -0.34 KCAL/MOL
REMARK 927      BINDING AFFINITY PREDICTED BY RF-SCORE:    0.00 PKD
ROOT
HETATM    1  O   UNL     1      -7.283  15.213  67.725  1.00  0.00    -0.133 OA 
HETATM    2  C   UNL     1      -7.671  14.073  67.955  1.00  0.00    -0.159 C  
HETATM    3  N   UNL     1      -7.098  13.281  68.910  1.00  0.00    -0.156 N  
HETATM    4  C   UNL     1      -7.505  11.964  69.169  1.00  0.00     0.066 A  
HETATM    5  H   UNL     1      -6.334  13.668  69.464  1.00  0.00     0.000 HD 
HETATM    6  C   UNL     1      -6.856  11.212  70.148  1.00  0.00     0.132 A  
HETATM    7  C   UNL     1      -7.249   9.893  70.382  1.00  0.00    -0.134 A  
HETATM    8  C   UNL     1      -8.805  13.491  67.194  1.00  0.00    -0.231 C  
HETATM    9  C   UNL     1      -8.295   9.342  69.628  1.00  0.00    -0.140 A  
HETATM   10  C   UNL     1      -9.224  12.239  67.415  1.00  0.00    -0.182 C  
HETATM   11  C   UNL     1      -8.948  10.100  68.654  1.00  0.00    -0.136 A  
HETATM   12  C   UNL     1      -8.559  11.418  68.423  1.00  0.00    -0.156 A  
ENDROOT
BRANCH   7  13
HETATM   13  O   UNL     1      -6.547   9.245  71.367  1.00  0.00    -0.167 OA 
BRANCH  13  14
HETATM   14  C   UNL     1      -5.244   8.799  70.991  1.00  0.00    -0.028 C  
BRANCH  14  15
HETATM   15  C   UNL     1      -5.254   8.321  69.543  1.00  0.00    -0.030 C  
BRANCH  15  16
HETATM   16  C   UNL     1      -5.324   6.794  69.449  1.00  0.00    -0.014 C  
BRANCH  16  17
HETATM   17  C   UNL     1      -6.514   6.240  68.646  1.00  0.00    -0.049 C  
BRANCH  17  18
HETATM   18  N   UNL     1      -6.721   6.882  67.341  1.00  0.00    -0.064 NA 
HETATM   19  C   UNL     1      -5.674   6.541  66.347  1.00  0.00    -0.014 C  
HETATM   20  C   UNL     1      -5.703   5.085  65.819  1.00  0.00    -0.018 C  
HETATM   21  N   UNL     1      -7.041   4.748  65.322  1.00  0.00    -0.062 NA 
HETATM   22  C   UNL     1      -8.036   6.500  66.760  1.00  0.00    -0.109 C  
HETATM   23  C   UNL     1      -8.142   5.035  66.256  1.00  0.00    -0.108 C  
BRANCH  21  24
HETATM   24  C   UNL     1      -7.213   3.786  64.321  1.00  0.00    -0.058 A  
HETATM   25  C   UNL     1      -8.474   3.326  63.806  1.00  0.00    -0.090 A  
HETATM   26  C   UNL     1      -9.823   3.815  63.983  1.00  0.00    -0.179 A  
HETATM   27  C   UNL     1     -10.783   3.053  63.363  1.00  0.00    -0.246 A  
HETATM   28  S   UNL     1     -10.099   1.764  62.498  1.00  0.00    -0.097 SA 
HETATM   29  C   UNL     1      -8.494   2.222  62.941  1.00  0.00    -0.077 A  
HETATM   30  C   UNL     1      -7.319   1.577  62.515  1.00  0.00    -0.032 A  
HETATM   31  C   UNL     1      -6.098   2.061  62.959  1.00  0.00    -0.009 A  
HETATM   32  C   UNL     1      -6.053   3.133  63.839  1.00  0.00    -0.018 A  
ENDBRANCH  21  24
ENDBRANCH  17  18
ENDBRANCH  16  17
ENDBRANCH  15  16
ENDBRANCH  14  15
ENDBRANCH  13  14
ENDBRANCH   7  13
TORSDOF 7
ENDMDL
MODEL      323
REMARK 921   NORMALIZED FREE ENERGY PREDICTED BY IDOCK:   -1.08 KCAL/MOL
REMARK 922        TOTAL FREE ENERGY PREDICTED BY IDOCK:   -2.83 KCAL/MOL
REMARK 923 INTER-LIGAND FREE ENERGY PREDICTED BY IDOCK:   -4.48 KCAL/MOL
REMARK 924 INTRA-LIGAND FREE ENERGY PREDICTED BY IDOCK:    1.66 KCAL/MOL
REMARK 927      BINDING AFFINITY PREDICTED BY RF-SCORE:    0.00 PKD
ROOT
HETATM    1  O   UNL     1      -6.639  18.463  69.371  1.00  0.00    -0.262 OA 
HETATM    2  C   UNL     1      -6.339  17.337  68.990  1.00  0.00    -0.210 C  
HETATM    3  N   UNL     1      -6.540  16.224  69.758  1.00  0.00    -0.181 N  
HETATM    4  C   UNL     1      -6.176  14.931  69.355  1.00  0.00    -0.114 A  
HETATM    5  H   UNL     1      -6.976  16.340  70.672  1.00  0.00     0.000 HD 
HETATM    6  C   UNL     1      -6.396  13.847  70.204  1.00  0.00    -0.083 A  
HETATM    7  C   UNL     1      -6.007  12.566  69.807  1.00  0.00    -0.135 A  
HETATM    8  C   UNL     1      -5.737  17.127  67.650  1.00  0.00    -0.144 C  
HETATM    9  C   UNL     1      -5.402  12.386  68.556  1.00  0.00    -0.055 A  
HETATM   10  C   UNL     1      -5.380  15.908  67.228  1.00  0.00     0.051 C  
HETATM   11  C   UNL     1      -5.191  13.473  67.703  1.00  0.00     0.018 A  
HETATM   12  C   UNL     1      -5.582  14.751  68.098  1.00  0.00    -0.125 A  
ENDROOT
BRANCH   7  13
HETATM   13  O   UNL     1      -6.271  11.573  70.716  1.00  0.00    -0.325 OA 
BRANCH  13  14
HETATM   14  C   UNL     1      -6.557  10.293  70.154  1.00  0.00    -0.138 C  
BRANCH  14  15
HETATM   15  C   UNL     1      -8.045  10.182  69.840  1.00  0.00    -0.139 C  
BRANCH  15  16
HETATM   16  C   UNL     1      -8.404  10.898  68.534  1.00  0.00    -0.142 C  
BRANCH  16  17
HETATM   17  C   UNL     1      -9.658  11.789  68.599  1.00  0.00    -0.115 C  
BRANCH  17  18
HETATM   18  N   UNL     1     -10.907  11.112  68.230  1.00  0.00    -0.196 NA 
HETATM   19  C   UNL     1     -10.878  10.526  66.867  1.00  0.00    -0.187 C  
HETATM   20  C   UNL     1      -9.963   9.289  66.691  1.00  0.00    -0.264 C  
HETATM   21  N   UNL     1     -10.277   8.273  67.702  1.00  0.00    -0.215 NA 
HETATM   22  C   UNL     1     -11.222  10.014  69.185  1.00  0.00    -0.149 C  
HETATM   23  C   UNL     1     -10.307   8.764  69.089  1.00  0.00    -0.217 C  
BRANCH  21  24
HETATM   24  C   UNL     1     -10.047   6.916  67.451  1.00  0.00    -0.183 A  
HETATM   25  C   UNL     1      -8.837   6.200  67.748  1.00  0.00    -0.110 A  
HETATM   26  C   UNL     1      -7.669   6.561  68.521  1.00  0.00    -0.105 A  
HETATM   27  C   UNL     1      -6.678   5.610  68.519  1.00  0.00    -0.057 A  
HETATM   28  S   UNL     1      -7.135   4.229  67.646  1.00  0.00    -0.064 SA 
HETATM   29  C   UNL     1      -8.682   4.892  67.265  1.00  0.00    -0.103 A  
HETATM   30  C   UNL     1      -9.692   4.233  66.542  1.00  0.00    -0.236 A  
HETATM   31  C   UNL     1     -10.886   4.898  66.311  1.00  0.00    -0.068 A  
HETATM   32  C   UNL     1     -11.052   6.204  66.753  1.00  0.00    -0.230 A  
ENDBRANCH  21  24
ENDBRANCH  17  18
ENDBRANCH  16  17
ENDBRANCH  15  16
ENDBRANCH  14  15
ENDBRANCH  13  14
ENDBRANCH   7  13
TORSDOF 7
ENDMDL
MODEL      324
REMARK 921   NORMALIZED FREE ENERGY PREDICTED BY IDOCK:   -0.65 KCAL/MOL
REMARK 922        TOTAL FREE ENERGY PREDICTED BY IDOCK:   -2.21 KCAL/MOL
REMARK 923 INTER-LIGAND FREE ENERGY PREDICTED BY IDOCK:   -4.85 KCAL/MOL
REMARK 924 INTRA-LIGAND FREE ENERGY PREDICTED BY IDOCK:    2.63 KCAL/MOL
REMARK 927      BINDING AFFINITY PREDICTED BY RF-SCORE:    0.00 PKD
ROOT
HETATM    1  O   UNL     1      -6.819   9.312  70.557  1.00  0.00    -0.065 OA 
HETATM    2  C   UNL     1      -7.254   9.713  69.483  1.00  0.00    -0.080 C  
HETATM    3  N   UNL     1      -8.485  10.294  69.360  1.00  0.00    -0.195 N  
HETATM    4  C   UNL     1      -9.014  10.732  68.138  1.00  0.00    -0.140 A  
HETATM    5  H   UNL     1      -9.049  10.415  70.201  1.00  0.00     0.000 HD 
HETATM    6  C   UNL     1     -10.288  11.298  68.090  1.00  0.00    -0.205 A  
HETATM    7  C   UNL     1     -10.819  11.709  66.866  1.00  0.00    -0.278 A  
HETATM    8  C   UNL     1      -6.446   9.587  68.245  1.00  0.00    -0.053 C  
HETATM    9  C   UNL     1     -10.062  11.546  65.698  1.00  0.00    -0.278 A  
HETATM   10  C   UNL     1      -6.915   9.997  67.060  1.00  0.00    -0.088 C  
HETATM   11  C   UNL     1      -8.783  10.987  65.749  1.00  0.00    -0.179 A  
HETATM   12  C   UNL     1      -8.251  10.581  66.971  1.00  0.00    -0.125 A  
ENDROOT
BRANCH   7  13
HETATM   13  O   UNL     1     -12.077  12.252  66.933  1.00  0.00    -0.583 OA 
BRANCH  13  14
HETATM   14  C   UNL     1     -12.531  12.573  68.248  1.00  0.00     0.768 C  
BRANCH  14  15
HETATM   15  C   UNL     1     -11.383  13.151  69.069  1.00  0.00    -0.332 C  
BRANCH  15  16
HETATM   16  C   UNL     1     -10.586  14.192  68.279  1.00  0.00    -0.254 C  
BRANCH  16  17
HETATM   17  C   UNL     1      -9.055  14.065  68.385  1.00  0.00    -0.191 C  
BRANCH  17  18
HETATM   18  N   UNL     1      -8.337  14.273  67.121  1.00  0.00    -0.200 NA 
HETATM   19  C   UNL     1      -9.073  15.134  66.162  1.00  0.00    -0.241 C  
HETATM   20  C   UNL     1      -9.167  16.631  66.545  1.00  0.00    -0.270 C  
HETATM   21  N   UNL     1      -7.833  17.171  66.832  1.00  0.00    -0.197 NA 
HETATM   22  C   UNL     1      -7.007  14.898  67.359  1.00  0.00    -0.130 C  
HETATM   23  C   UNL     1      -7.040  16.388  67.793  1.00  0.00    -0.133 C  
BRANCH  21  24
HETATM   24  C   UNL     1      -7.553  18.528  66.642  1.00  0.00    -0.238 A  
HETATM   25  C   UNL     1      -6.756  19.081  65.581  1.00  0.00    -0.316 A  
HETATM   26  C   UNL     1      -6.225  18.495  64.370  1.00  0.00     0.587 A  
HETATM   27  C   UNL     1      -5.447  19.349  63.627  1.00  0.00    -0.308 A  
HETATM   28  S   UNL     1      -5.376  20.896  64.319  1.00  0.00    -0.220 SA 
HETATM   29  C   UNL     1      -6.404  20.438  65.629  1.00  0.00    -0.235 A  
HETATM   30  C   UNL     1      -6.845  21.294  66.653  1.00  0.00    -0.131 A  
HETATM   31  C   UNL     1      -7.668  20.779  67.642  1.00  0.00    -0.220 A  
HETATM   32  C   UNL     1      -8.007  19.432  67.633  1.00  0.00    -0.318 A  
ENDBRANCH  21  24
ENDBRANCH  17  18
ENDBRANCH  16  17
ENDBRANCH  15  16
ENDBRANCH  14  15
ENDBRANCH  13  14
ENDBRANCH   7  13
TORSDOF 7
ENDMDL
MODEL      325
REMARK 921   NORMALIZED FREE ENERGY PREDICTED BY IDOCK:   -0.48 KCAL/MOL
REMARK 922        TOTAL FREE ENERGY PREDICTED BY IDOCK:   -1.98 KCAL/MOL
REMARK 923 INTER-LIGAND FREE ENERGY PREDICTED BY IDOCK:   -1.52 KCAL/MOL
REMARK 924 INTRA-LIGAND FREE ENERGY PREDICTED BY IDOCK:   -0.46 KCAL/MOL
REMARK 927      BINDING AFFINITY PREDICTED BY RF-SCORE:    0.00 PKD
ROOT
HETATM    1  O   UNL     1      -7.354  19.914  70.899  1.00  0.00     0.521 OA 
HETATM    2  C   UNL     1      -6.889  19.224  69.999  1.00  0.00     0.096 C  
HETATM    3  N   UNL     1      -7.066  17.869  69.945  1.00  0.00     0.443 N  
HETATM    4  C   UNL     1      -6.518  17.058  68.943  1.00  0.00    -0.189 A  
HETATM    5  H   UNL     1      -7.626  17.426  70.674  1.00  0.00     0.000 HD 
HETATM    6  C   UNL     1      -6.727  15.679  68.968  1.00  0.00    -0.131 A  
HETATM    7  C   UNL     1      -6.157  14.873  67.980  1.00  0.00    -0.152 A  
HETATM    8  C   UNL     1      -6.100  19.840  68.903  1.00  0.00    -0.299 C  
HETATM    9  C   UNL     1      -5.381  15.462  66.974  1.00  0.00     0.757 A  
HETATM   10  C   UNL     1      -5.564  19.099  67.926  1.00  0.00    -0.193 C  
HETATM   11  C   UNL     1      -5.179  16.844  66.946  1.00  0.00    -0.162 A  
HETATM   12  C   UNL     1      -5.752  17.649  67.929  1.00  0.00    -0.143 A  
ENDROOT
BRANCH   7  13
HETATM   13  O   UNL     1      -6.427  13.533  68.099  1.00  0.00    -0.094 OA 
BRANCH  13  14
HETATM   14  C   UNL     1      -7.640  13.215  68.782  1.00  0.00    -0.033 C  
BRANCH  14  15
HETATM   15  C   UNL     1      -8.541  12.378  67.881  1.00  0.00    -0.171 C  
BRANCH  15  16
HETATM   16  C   UNL     1      -8.862  11.016  68.503  1.00  0.00    -0.159 C  
BRANCH  16  17
HETATM   17  C   UNL     1      -7.639  10.136  68.820  1.00  0.00    -0.089 C  
BRANCH  17  18
HETATM   18  N   UNL     1      -7.580   8.879  68.062  1.00  0.00    -0.092 NA 
HETATM   19  C   UNL     1      -6.502   7.968  68.519  1.00  0.00    -0.054 C  
HETATM   20  C   UNL     1      -6.724   7.313  69.905  1.00  0.00    -0.051 C  
HETATM   21  N   UNL     1      -8.036   6.658  69.957  1.00  0.00    -0.114 NA 
HETATM   22  C   UNL     1      -8.867   8.138  68.156  1.00  0.00    -0.132 C  
HETATM   23  C   UNL     1      -9.168   7.499  69.538  1.00  0.00    -0.146 C  
BRANCH  21  24
HETATM   24  C   UNL     1      -8.258   5.563  70.799  1.00  0.00    -0.117 A  
HETATM   25  C   UNL     1      -7.732   5.405  72.127  1.00  0.00    -0.101 A  
HETATM   26  C   UNL     1      -7.056   6.328  73.012  1.00  0.00    -0.079 A  
HETATM   27  C   UNL     1      -6.647   5.771  74.199  1.00  0.00    -0.075 A  
HETATM   28  S   UNL     1      -7.113   4.144  74.323  1.00  0.00    -0.067 SA 
HETATM   29  C   UNL     1      -7.882   4.171  72.777  1.00  0.00    -0.081 A  
HETATM   30  C   UNL     1      -8.574   3.094  72.197  1.00  0.00    -0.092 A  
HETATM   31  C   UNL     1      -9.139   3.265  70.943  1.00  0.00    -0.182 A  
HETATM   32  C   UNL     1      -8.980   4.467  70.266  1.00  0.00    -0.141 A  
ENDBRANCH  21  24
ENDBRANCH  17  18
ENDBRANCH  16  17
ENDBRANCH  15  16
ENDBRANCH  14  15
ENDBRANCH  13  14
ENDBRANCH   7  13
TORSDOF 7
ENDMDL
MODEL      326
REMARK 921   NORMALIZED FREE ENERGY PREDICTED BY IDOCK:   -0.42 KCAL/MOL
REMARK 922        TOTAL FREE ENERGY PREDICTED BY IDOCK:   -1.90 KCAL/MOL
REMARK 923 INTER-LIGAND FREE ENERGY PREDICTED BY IDOCK:   -1.30 KCAL/MOL
REMARK 924 INTRA-LIGAND FREE ENERGY PREDICTED BY IDOCK:   -0.60 KCAL/MOL
REMARK 927      BINDING AFFINITY PREDICTED BY RF-SCORE:    0.00 PKD
ROOT
HETATM    1  O   UNL     1     -12.562  14.041  65.058  1.00  0.00    -0.565 OA 
HETATM    2  C   UNL     1     -11.778  13.288  64.491  1.00  0.00    -0.378 C  
HETATM    3  N   UNL     1     -11.069  12.328  65.157  1.00  0.00    -0.308 N  
HETATM    4  C   UNL     1     -10.145  11.477  64.534  1.00  0.00    -0.278 A  
HETATM    5  H   UNL     1     -11.219  12.225  66.161  1.00  0.00     0.000 HD 
HETATM    6  C   UNL     1      -9.445  10.535  65.287  1.00  0.00    -0.281 A  
HETATM    7  C   UNL     1      -8.507   9.708  64.665  1.00  0.00    -0.174 A  
HETATM    8  C   UNL     1     -11.562  13.384  63.026  1.00  0.00     0.645 C  
HETATM    9  C   UNL     1      -8.283   9.836  63.287  1.00  0.00    -0.155 A  
HETATM   10  C   UNL     1     -10.692  12.587  62.395  1.00  0.00     3.348 C  
HETATM   11  C   UNL     1      -8.992  10.775  62.534  1.00  0.00    -0.344 A  
HETATM   12  C   UNL     1      -9.930  11.597  63.154  1.00  0.00    -0.400 A  
ENDROOT
BRANCH   7  13
HETATM   13  O   UNL     1      -7.878   8.817  65.497  1.00  0.00    -0.092 OA 
BRANCH  13  14
HETATM   14  C   UNL     1      -6.651   9.276  66.064  1.00  0.00    -0.072 C  
BRANCH  14  15
HETATM   15  C   UNL     1      -6.650   9.032  67.569  1.00  0.00    -0.065 C  
BRANCH  15  16
HETATM   16  C   UNL     1      -7.719   9.865  68.282  1.00  0.00    -0.085 C  
BRANCH  16  17
HETATM   17  C   UNL     1      -8.114   9.365  69.683  1.00  0.00    -0.123 C  
BRANCH  17  18
HETATM   18  N   UNL     1      -9.463   8.790  69.768  1.00  0.00    -0.165 NA 
HETATM   19  C   UNL     1      -9.587   7.479  69.085  1.00  0.00    -0.157 C  
HETATM   20  C   UNL     1      -8.862   6.296  69.774  1.00  0.00    -0.140 C  
HETATM   21  N   UNL     1      -9.258   6.204  71.183  1.00  0.00    -0.153 NA 
HETATM   22  C   UNL     1      -9.875   8.601  71.186  1.00  0.00    -0.222 C  
HETATM   23  C   UNL     1      -9.146   7.459  71.944  1.00  0.00    -0.129 C  
BRANCH  21  24
HETATM   24  C   UNL     1      -9.231   4.979  71.857  1.00  0.00    -0.137 A  
HETATM   25  C   UNL     1      -8.241   3.950  71.691  1.00  0.00    -0.079 A  
HETATM   26  C   UNL     1      -6.966   3.942  71.008  1.00  0.00    -0.033 A  
HETATM   27  C   UNL     1      -6.327   2.726  71.024  1.00  0.00    -0.019 A  
HETATM   28  S   UNL     1      -7.200   1.571  71.909  1.00  0.00    -0.031 SA 
HETATM   29  C   UNL     1      -8.449   2.700  72.291  1.00  0.00    -0.066 A  
HETATM   30  C   UNL     1      -9.570   2.428  73.095  1.00  0.00    -0.131 A  
HETATM   31  C   UNL     1     -10.494   3.439  73.311  1.00  0.00    -0.260 A  
HETATM   32  C   UNL     1     -10.325   4.677  72.704  1.00  0.00    -0.253 A  
ENDBRANCH  21  24
ENDBRANCH  17  18
ENDBRANCH  16  17
ENDBRANCH  15  16
ENDBRANCH  14  15
ENDBRANCH  13  14
ENDBRANCH   7  13
TORSDOF 7
ENDMDL
MODEL      327
REMARK 921   NORMALIZED FREE ENERGY PREDICTED BY IDOCK:   -0.19 KCAL/MOL
REMARK 922        TOTAL FREE ENERGY PREDICTED BY IDOCK:   -1.58 KCAL/MOL
REMARK 923 INTER-LIGAND FREE ENERGY PREDICTED BY IDOCK:   -2.60 KCAL/MOL
REMARK 924 INTRA-LIGAND FREE ENERGY PREDICTED BY IDOCK:    1.03 KCAL/MOL
REMARK 927      BINDING AFFINITY PREDICTED BY RF-SCORE:    0.00 PKD
ROOT
HETATM    1  O   UNL     1      -8.065   3.391  71.205  1.00  0.00    -0.060 OA 
HETATM    2  C   UNL     1      -8.288   3.705  70.041  1.00  0.00    -0.055 C  
HETATM    3  N   UNL     1      -7.566   4.664  69.387  1.00  0.00    -0.055 N  
HETATM    4  C   UNL     1      -7.823   5.061  68.067  1.00  0.00    -0.087 A  
HETATM    5  H   UNL     1      -6.799   5.116  69.886  1.00  0.00     0.000 HD 
HETATM    6  C   UNL     1      -7.054   6.061  67.476  1.00  0.00    -0.074 A  
HETATM    7  C   UNL     1      -7.332   6.470  66.169  1.00  0.00    -0.080 A  
HETATM    8  C   UNL     1      -9.372   3.043  69.272  1.00  0.00    -0.217 C  
HETATM    9  C   UNL     1      -8.384   5.865  65.469  1.00  0.00    -0.145 A  
HETATM   10  C   UNL     1      -9.645   3.392  68.009  1.00  0.00    -0.160 C  
HETATM   11  C   UNL     1      -9.149   4.857  66.061  1.00  0.00    -0.139 A  
HETATM   12  C   UNL     1      -8.868   4.446  67.362  1.00  0.00    -0.116 A  
ENDROOT
BRANCH   7  13
HETATM   13  O   UNL     1      -6.514   7.459  65.685  1.00  0.00    -0.043 OA 
BRANCH  13  14
HETATM   14  C   UNL     1      -7.095   8.761  65.639  1.00  0.00    -0.083 C  
BRANCH  14  15
HETATM   15  C   UNL     1      -8.289   8.766  64.690  1.00  0.00    -0.175 C  
BRANCH  15  16
HETATM   16  C   UNL     1      -9.566   9.249  65.384  1.00  0.00    -0.237 C  
BRANCH  16  17
HETATM   17  C   UNL     1      -9.343  10.130  66.627  1.00  0.00    -0.162 C  
BRANCH  17  18
HETATM   18  N   UNL     1      -8.060  10.843  66.647  1.00  0.00    -0.141 NA 
HETATM   19  C   UNL     1      -8.018  12.003  65.721  1.00  0.00     0.981 C  
HETATM   20  C   UNL     1      -8.887  13.217  66.134  1.00  0.00     0.374 C  
HETATM   21  N   UNL     1      -8.581  13.621  67.511  1.00  0.00    -0.184 NA 
HETATM   22  C   UNL     1      -7.748  11.345  68.013  1.00  0.00    -0.114 C  
HETATM   23  C   UNL     1      -8.620  12.533  68.501  1.00  0.00    -0.054 C  
BRANCH  21  24
HETATM   24  C   UNL     1      -8.759  14.945  67.926  1.00  0.00    -0.164 A  
HETATM   25  C   UNL     1      -7.710  15.868  68.265  1.00  0.00    -0.137 A  
HETATM   26  C   UNL     1      -6.276  15.800  68.093  1.00  0.00    -0.132 A  
HETATM   27  C   UNL     1      -5.597  16.877  68.610  1.00  0.00    -0.128 A  
HETATM   28  S   UNL     1      -6.655  18.032  69.262  1.00  0.00    -0.194 SA 
HETATM   29  C   UNL     1      -8.046  17.098  68.847  1.00  0.00    -0.203 A  
HETATM   30  C   UNL     1      -9.379  17.488  69.066  1.00  0.00    -0.089 A  
HETATM   31  C   UNL     1     -10.395  16.628  68.679  1.00  0.00    -0.304 A  
HETATM   32  C   UNL     1     -10.088  15.391  68.128  1.00  0.00    -0.222 A  
ENDBRANCH  21  24
ENDBRANCH  17  18
ENDBRANCH  16  17
ENDBRANCH  15  16
ENDBRANCH  14  15
ENDBRANCH  13  14
ENDBRANCH   7  13
TORSDOF 7
ENDMDL
MODEL      328
REMARK 921   NORMALIZED FREE ENERGY PREDICTED BY IDOCK:    0.09 KCAL/MOL
REMARK 922        TOTAL FREE ENERGY PREDICTED BY IDOCK:   -1.17 KCAL/MOL
REMARK 923 INTER-LIGAND FREE ENERGY PREDICTED BY IDOCK:   -4.73 KCAL/MOL
REMARK 924 INTRA-LIGAND FREE ENERGY PREDICTED BY IDOCK:    3.56 KCAL/MOL
REMARK 927      BINDING AFFINITY PREDICTED BY RF-SCORE:    0.00 PKD
ROOT
HETATM    1  O   UNL     1     -10.818  11.746  64.040  1.00  0.00    -0.322 OA 
HETATM    2  C   UNL     1     -10.223  10.738  64.403  1.00  0.00    -0.364 C  
HETATM    3  N   UNL     1     -10.527  10.084  65.564  1.00  0.00    -0.072 N  
HETATM    4  C   UNL     1      -9.840   8.948  66.014  1.00  0.00    -0.207 A  
HETATM    5  H   UNL     1     -11.294  10.441  66.134  1.00  0.00     0.000 HD 
HETATM    6  C   UNL     1     -10.197   8.348  67.221  1.00  0.00    -0.349 A  
HETATM    7  C   UNL     1      -9.491   7.231  67.676  1.00  0.00    -0.131 A  
HETATM    8  C   UNL     1      -9.127  10.168  63.581  1.00  0.00    -0.289 C  
HETATM    9  C   UNL     1      -8.432   6.728  66.910  1.00  0.00    -0.115 A  
HETATM   10  C   UNL     1      -8.450   9.082  63.975  1.00  0.00    -0.175 C  
HETATM   11  C   UNL     1      -8.081   7.325  65.697  1.00  0.00    -0.133 A  
HETATM   12  C   UNL     1      -8.788   8.436  65.241  1.00  0.00    -0.113 A  
ENDROOT
BRANCH   7  13
HETATM   13  O   UNL     1      -9.926   6.720  68.872  1.00  0.00    -0.149 OA 
BRANCH  13  14
HETATM   14  C   UNL     1     -10.717   7.607  69.662  1.00  0.00    -0.228 C  
BRANCH  14  15
HETATM   15  C   UNL     1     -10.702   7.161  71.120  1.00  0.00    -0.252 C  
BRANCH  15  16
HETATM   16  C   UNL     1     -11.923   7.678  71.886  1.00  0.00    -0.331 C  
BRANCH  16  17
HETATM   17  C   UNL     1     -12.214   9.180  71.720  1.00  0.00    -0.372 C  
BRANCH  17  18
HETATM   18  N   UNL     1     -12.760   9.553  70.408  1.00  0.00     0.169 NA 
HETATM   19  C   UNL     1     -13.381  10.901  70.392  1.00  0.00     0.422 C  
HETATM   20  C   UNL     1     -12.396  12.091  70.503  1.00  0.00    -0.282 C  
HETATM   21  N   UNL     1     -11.340  11.977  69.492  1.00  0.00    -0.255 NA 
HETATM   22  C   UNL     1     -11.701   9.532  69.363  1.00  0.00     0.398 C  
HETATM   23  C   UNL     1     -10.655  10.675  69.451  1.00  0.00    -0.239 C  
BRANCH  21  24
HETATM   24  C   UNL     1     -10.697  13.116  68.995  1.00  0.00    -0.107 A  
HETATM   25  C   UNL     1      -9.295  13.227  68.697  1.00  0.00    -0.001 A  
HETATM   26  C   UNL     1      -8.246  12.234  68.616  1.00  0.00    -0.017 A  
HETATM   27  C   UNL     1      -7.000  12.752  68.360  1.00  0.00    -0.095 A  
HETATM   28  S   UNL     1      -7.052  14.435  68.147  1.00  0.00    -0.143 SA 
HETATM   29  C   UNL     1      -8.761  14.486  68.388  1.00  0.00    -0.175 A  
HETATM   30  C   UNL     1      -9.558  15.642  68.308  1.00  0.00    -0.200 A  
HETATM   31  C   UNL     1     -10.921  15.526  68.530  1.00  0.00    -0.288 A  
HETATM   32  C   UNL     1     -11.469  14.296  68.867  1.00  0.00    -0.318 A  
ENDBRANCH  21  24
ENDBRANCH  17  18
ENDBRANCH  16  17
ENDBRANCH  15  16
ENDBRANCH  14  15
ENDBRANCH  13  14
ENDBRANCH   7  13
TORSDOF 7
ENDMDL
MODEL      329
REMARK 921   NORMALIZED FREE ENERGY PREDICTED BY IDOCK:    0.13 KCAL/MOL
REMARK 922        TOTAL FREE ENERGY PREDICTED BY IDOCK:   -1.12 KCAL/MOL
REMARK 923 INTER-LIGAND FREE ENERGY PREDICTED BY IDOCK:   -2.90 KCAL/MOL
REMARK 924 INTRA-LIGAND FREE ENERGY PREDICTED BY IDOCK:    1.78 KCAL/MOL
REMARK 927      BINDING AFFINITY PREDICTED BY RF-SCORE:    0.00 PKD
ROOT
HETATM    1  O   UNL     1     -12.896  15.071  65.442  1.00  0.00     0.180 OA 
HETATM    2  C   UNL     1     -12.163  15.513  66.319  1.00  0.00     0.957 C  
HETATM    3  N   UNL     1     -11.145  16.388  66.054  1.00  0.00     0.048 N  
HETATM    4  C   UNL     1     -10.276  16.882  67.036  1.00  0.00    -0.297 A  
HETATM    5  H   UNL     1     -11.011  16.696  65.091  1.00  0.00     0.000 HD 
HETATM    6  C   UNL     1      -9.249  17.757  66.683  1.00  0.00    -0.280 A  
HETATM    7  C   UNL     1      -8.370  18.226  67.662  1.00  0.00    -0.247 A  
HETATM    8  C   UNL     1     -12.351  15.116  67.736  1.00  0.00     0.498 C  
HETATM    9  C   UNL     1      -8.534  17.810  68.991  1.00  0.00    -0.017 A  
HETATM   10  C   UNL     1     -11.544  15.570  68.703  1.00  0.00    -0.379 C  
HETATM   11  C   UNL     1      -9.569  16.941  69.343  1.00  0.00     0.029 A  
HETATM   12  C   UNL     1     -10.448  16.476  68.367  1.00  0.00    -0.307 A  
ENDROOT
BRANCH   7  13
HETATM   13  O   UNL     1      -7.398  19.080  67.207  1.00  0.00    -0.222 OA 
BRANCH  13  14
HETATM   14  C   UNL     1      -6.908  18.802  65.896  1.00  0.00    -0.271 C  
BRANCH  14  15
HETATM   15  C   UNL     1      -6.240  17.431  65.870  1.00  0.00    -0.013 C  
BRANCH  15  16
HETATM   16  C   UNL     1      -6.312  16.737  67.234  1.00  0.00    -0.213 C  
BRANCH  16  17
HETATM   17  C   UNL     1      -5.149  15.776  67.542  1.00  0.00    -0.021 C  
BRANCH  17  18
HETATM   18  N   UNL     1      -5.358  14.926  68.721  1.00  0.00    -0.086 NA 
HETATM   19  C   UNL     1      -6.718  15.050  69.302  1.00  0.00    -0.141 C  
HETATM   20  C   UNL     1      -7.864  14.441  68.455  1.00  0.00    -0.138 C  
HETATM   21  N   UNL     1      -7.557  13.049  68.105  1.00  0.00    -0.124 NA 
HETATM   22  C   UNL     1      -5.138  13.491  68.390  1.00  0.00    -0.092 C  
HETATM   23  C   UNL     1      -6.231  12.837  67.502  1.00  0.00    -0.159 C  
BRANCH  21  24
HETATM   24  C   UNL     1      -8.582  12.126  67.872  1.00  0.00    -0.167 A  
HETATM   25  C   UNL     1      -8.598  10.759  68.316  1.00  0.00    -0.135 A  
HETATM   26  C   UNL     1      -7.751  10.035  69.237  1.00  0.00    -0.117 A  
HETATM   27  C   UNL     1      -8.058   8.702  69.354  1.00  0.00    -0.111 A  
HETATM   28  S   UNL     1      -9.408   8.284  68.415  1.00  0.00    -0.134 SA 
HETATM   29  C   UNL     1      -9.603   9.901  67.844  1.00  0.00    -0.138 A  
HETATM   30  C   UNL     1     -10.628  10.342  66.989  1.00  0.00    -0.302 A  
HETATM   31  C   UNL     1     -10.653  11.676  66.612  1.00  0.00    -0.281 A  
HETATM   32  C   UNL     1      -9.653  12.538  67.042  1.00  0.00    -0.216 A  
ENDBRANCH  21  24
ENDBRANCH  17  18
ENDBRANCH  16  17
ENDBRANCH  15  16
ENDBRANCH  14  15
ENDBRANCH  13  14
ENDBRANCH   7  13
TORSDOF 7
ENDMDL
MODEL      330
REMARK 921   NORMALIZED FREE ENERGY PREDICTED BY IDOCK:    0.21 KCAL/MOL
REMARK 922        TOTAL FREE ENERGY PREDICTED BY IDOCK:   -1.00 KCAL/MOL
REMARK 923 INTER-LIGAND FREE ENERGY PREDICTED BY IDOCK:   -4.10 KCAL/MOL
REMARK 924 INTRA-LIGAND FREE ENERGY PREDICTED BY IDOCK:    3.10 KCAL/MOL
REMARK 927      BINDING AFFINITY PREDICTED BY RF-SCORE:    0.00 PKD
ROOT
HETATM    1  O   UNL     1      -7.031  11.354  67.252  1.00  0.00    -0.097 OA 
HETATM    2  C   UNL     1      -6.627  10.931  68.329  1.00  0.00    -0.058 C  
HETATM    3  N   UNL     1      -6.451   9.597  68.575  1.00  0.00    -0.051 N  
HETATM    4  C   UNL     1      -6.020   9.089  69.808  1.00  0.00    -0.035 A  
HETATM    5  H   UNL     1      -6.644   8.937  67.821  1.00  0.00     0.000 HD 
HETATM    6  C   UNL     1      -5.883   7.713  69.987  1.00  0.00    -0.023 A  
HETATM    7  C   UNL     1      -5.478   7.211  71.227  1.00  0.00    -0.028 A  
HETATM    8  C   UNL     1      -6.301  11.864  69.436  1.00  0.00    -0.115 C  
HETATM    9  C   UNL     1      -5.213   8.102  72.276  1.00  0.00    -0.036 A  
HETATM   10  C   UNL     1      -5.884  11.417  70.627  1.00  0.00    -0.092 C  
HETATM   11  C   UNL     1      -5.343   9.480  72.092  1.00  0.00    -0.065 A  
HETATM   12  C   UNL     1      -5.743   9.981  70.854  1.00  0.00    -0.088 A  
ENDROOT
BRANCH   7  13
HETATM   13  O   UNL     1      -5.375   5.845  71.293  1.00  0.00    -0.016 OA 
BRANCH  13  14
HETATM   14  C   UNL     1      -5.500   5.164  70.045  1.00  0.00    -0.011 C  
BRANCH  14  15
HETATM   15  C   UNL     1      -5.680   6.174  68.916  1.00  0.00    -0.019 C  
BRANCH  15  16
HETATM   16  C   UNL     1      -6.715   5.701  67.890  1.00  0.00    -0.055 C  
BRANCH  16  17
HETATM   17  C   UNL     1      -8.108   5.385  68.463  1.00  0.00    -0.095 C  
BRANCH  17  18
HETATM   18  N   UNL     1      -9.183   5.341  67.463  1.00  0.00    -0.112 NA 
HETATM   19  C   UNL     1     -10.445   5.965  67.929  1.00  0.00    -0.236 C  
HETATM   20  C   UNL     1     -10.416   7.508  68.070  1.00  0.00    -0.197 C  
HETATM   21  N   UNL     1      -9.941   8.126  66.827  1.00  0.00    -0.257 NA 
HETATM   22  C   UNL     1      -8.774   6.033  66.209  1.00  0.00    -0.138 C  
HETATM   23  C   UNL     1      -8.679   7.579  66.303  1.00  0.00    -0.149 C  
BRANCH  21  24
HETATM   24  C   UNL     1     -10.338   9.420  66.473  1.00  0.00    -0.198 A  
HETATM   25  C   UNL     1      -9.974  10.110  65.266  1.00  0.00    -0.381 A  
HETATM   26  C   UNL     1      -9.328   9.655  64.054  1.00  0.00    -0.119 A  
HETATM   27  C   UNL     1      -9.096  10.648  63.134  1.00  0.00    -0.269 A  
HETATM   28  S   UNL     1      -9.697  12.145  63.661  1.00  0.00     0.030 SA 
HETATM   29  C   UNL     1     -10.289  11.470  65.136  1.00  0.00    -0.278 A  
HETATM   30  C   UNL     1     -10.996  12.176  66.126  1.00  0.00    -0.335 A  
HETATM   31  C   UNL     1     -11.406  11.497  67.262  1.00  0.00    -0.359 A  
HETATM   32  C   UNL     1     -11.080  10.157  67.427  1.00  0.00    -0.219 A  
ENDBRANCH  21  24
ENDBRANCH  17  18
ENDBRANCH  16  17
ENDBRANCH  15  16
ENDBRANCH  14  15
ENDBRANCH  13  14
ENDBRANCH   7  13
TORSDOF 7
ENDMDL
MODEL      331
REMARK 921   NORMALIZED FREE ENERGY PREDICTED BY IDOCK:    0.38 KCAL/MOL
REMARK 922        TOTAL FREE ENERGY PREDICTED BY IDOCK:   -0.77 KCAL/MOL
REMARK 923 INTER-LIGAND FREE ENERGY PREDICTED BY IDOCK:   -0.33 KCAL/MOL
REMARK 924 INTRA-LIGAND FREE ENERGY PREDICTED BY IDOCK:   -0.44 KCAL/MOL
REMARK 927      BINDING AFFINITY PREDICTED BY RF-SCORE:    0.00 PKD
ROOT
HETATM    1  O   UNL     1     -11.488   1.838  63.877  1.00  0.00     0.129 OA 
HETATM    2  C   UNL     1     -10.462   2.154  64.469  1.00  0.00     0.561 C  
HETATM    3  N   UNL     1      -9.623   3.133  64.014  1.00  0.00    -0.133 N  
HETATM    4  C   UNL     1      -8.429   3.489  64.657  1.00  0.00    -0.096 A  
HETATM    5  H   UNL     1      -9.879   3.631  63.161  1.00  0.00     0.000 HD 
HETATM    6  C   UNL     1      -7.617   4.486  64.120  1.00  0.00    -0.071 A  
HETATM    7  C   UNL     1      -6.416   4.818  64.752  1.00  0.00    -0.035 A  
HETATM    8  C   UNL     1     -10.077   1.476  65.732  1.00  0.00     1.170 C  
HETATM    9  C   UNL     1      -6.044   4.141  65.922  1.00  0.00    -0.031 A  
HETATM   10  C   UNL     1      -8.947   1.790  66.377  1.00  0.00    -0.098 C  
HETATM   11  C   UNL     1      -6.864   3.148  66.463  1.00  0.00    -0.053 A  
HETATM   12  C   UNL     1      -8.064   2.821  65.835  1.00  0.00    -0.084 A  
ENDROOT
BRANCH   7  13
HETATM   13  O   UNL     1      -5.695   5.812  64.141  1.00  0.00    -0.020 OA 
BRANCH  13  14
HETATM   14  C   UNL     1      -5.968   7.134  64.603  1.00  0.00    -0.037 C  
BRANCH  14  15
HETATM   15  C   UNL     1      -7.433   7.481  64.356  1.00  0.00    -0.096 C  
BRANCH  15  16
HETATM   16  C   UNL     1      -8.100   8.060  65.607  1.00  0.00    -0.121 C  
BRANCH  16  17
HETATM   17  C   UNL     1      -9.638   8.109  65.566  1.00  0.00     0.489 C  
BRANCH  17  18
HETATM   18  N   UNL     1     -10.278   8.250  66.881  1.00  0.00    -0.296 NA 
HETATM   19  C   UNL     1     -11.042   7.047  67.294  1.00  0.00    -0.232 C  
HETATM   20  C   UNL     1     -10.188   5.807  67.660  1.00  0.00    -0.193 C  
HETATM   21  N   UNL     1      -9.170   6.163  68.655  1.00  0.00    -0.124 NA 
HETATM   22  C   UNL     1      -9.269   8.530  67.939  1.00  0.00    -0.139 C  
HETATM   23  C   UNL     1      -8.350   7.336  68.315  1.00  0.00    -0.125 C  
BRANCH  21  24
HETATM   24  C   UNL     1      -8.677   5.206  69.549  1.00  0.00    -0.099 A  
HETATM   25  C   UNL     1      -7.728   5.449  70.601  1.00  0.00    -0.089 A  
HETATM   26  C   UNL     1      -7.199   6.676  71.156  1.00  0.00    -0.078 A  
HETATM   27  C   UNL     1      -6.248   6.488  72.129  1.00  0.00    -0.042 A  
HETATM   28  S   UNL     1      -6.001   4.841  72.455  1.00  0.00    -0.021 SA 
HETATM   29  C   UNL     1      -7.182   4.358  71.293  1.00  0.00    -0.044 A  
HETATM   30  C   UNL     1      -7.569   3.032  71.031  1.00  0.00    -0.036 A  
HETATM   31  C   UNL     1      -8.532   2.799  70.062  1.00  0.00    -0.095 A  
HETATM   32  C   UNL     1      -9.066   3.860  69.343  1.00  0.00    -0.196 A  
ENDBRANCH  21  24
ENDBRANCH  17  18
ENDBRANCH  16  17
ENDBRANCH  15  16
ENDBRANCH  14  15
ENDBRANCH  13  14
ENDBRANCH   7  13
TORSDOF 7
ENDMDL
MODEL      332
REMARK 921   NORMALIZED FREE ENERGY PREDICTED BY IDOCK:    1.02 KCAL/MOL
REMARK 922        TOTAL FREE ENERGY PREDICTED BY IDOCK:    0.13 KCAL/MOL
REMARK 923 INTER-LIGAND FREE ENERGY PREDICTED BY IDOCK:   -2.27 KCAL/MOL
REMARK 924 INTRA-LIGAND FREE ENERGY PREDICTED BY IDOCK:    2.40 KCAL/MOL
REMARK 927      BINDING AFFINITY PREDICTED BY RF-SCORE:    0.00 PKD
ROOT
HETATM    1  O   UNL     1     -11.026   5.131  69.586  1.00  0.00     0.016 OA 
HETATM    2  C   UNL     1     -10.679   5.937  68.730  1.00  0.00    -0.284 C  
HETATM    3  N   UNL     1      -9.368   6.256  68.510  1.00  0.00    -0.122 N  
HETATM    4  C   UNL     1      -8.951   7.197  67.557  1.00  0.00    -0.121 A  
HETATM    5  H   UNL     1      -8.656   5.786  69.068  1.00  0.00     0.000 HD 
HETATM    6  C   UNL     1      -7.595   7.483  67.405  1.00  0.00    -0.109 A  
HETATM    7  C   UNL     1      -7.188   8.440  66.473  1.00  0.00    -0.076 A  
HETATM    8  C   UNL     1     -11.686   6.613  67.874  1.00  0.00     0.902 C  
HETATM    9  C   UNL     1      -8.152   9.101  65.700  1.00  0.00    -0.113 A  
HETATM   10  C   UNL     1     -11.326   7.514  66.952  1.00  0.00     0.927 C  
HETATM   11  C   UNL     1      -9.509   8.806  65.847  1.00  0.00    -0.278 A  
HETATM   12  C   UNL     1      -9.915   7.849  66.775  1.00  0.00    -0.333 A  
ENDROOT
BRANCH   7  13
HETATM   13  O   UNL     1      -5.833   8.642  66.404  1.00  0.00    -0.046 OA 
BRANCH  13  14
HETATM   14  C   UNL     1      -5.432   9.889  65.836  1.00  0.00    -0.046 C  
BRANCH  14  15
HETATM   15  C   UNL     1      -5.177  10.907  66.942  1.00  0.00    -0.056 C  
BRANCH  15  16
HETATM   16  C   UNL     1      -5.684  10.411  68.300  1.00  0.00    -0.040 C  
BRANCH  16  17
HETATM   17  C   UNL     1      -5.409  11.353  69.486  1.00  0.00    -0.049 C  
BRANCH  17  18
HETATM   18  N   UNL     1      -5.159  12.751  69.110  1.00  0.00    -0.068 NA 
HETATM   19  C   UNL     1      -5.385  13.020  67.668  1.00  0.00    -0.081 C  
HETATM   20  C   UNL     1      -6.863  12.988  67.206  1.00  0.00    -0.026 C  
HETATM   21  N   UNL     1      -7.682  13.866  68.048  1.00  0.00    -0.134 NA 
HETATM   22  C   UNL     1      -6.032  13.676  69.883  1.00  0.00    -0.131 C  
HETATM   23  C   UNL     1      -7.535  13.653  69.497  1.00  0.00     0.402 C  
BRANCH  21  24
HETATM   24  C   UNL     1      -8.847  14.458  67.548  1.00  0.00    -0.193 A  
HETATM   25  C   UNL     1      -9.994  13.756  67.041  1.00  0.00    -0.251 A  
HETATM   26  C   UNL     1     -10.365  12.359  67.084  1.00  0.00    -0.232 A  
HETATM   27  C   UNL     1     -11.533  12.067  66.422  1.00  0.00    -0.353 A  
HETATM   28  S   UNL     1     -12.256  13.462  65.781  1.00  0.00    -0.463 SA 
HETATM   29  C   UNL     1     -11.007  14.482  66.397  1.00  0.00    -0.324 A  
HETATM   30  C   UNL     1     -10.967  15.881  66.272  1.00  0.00    -0.112 A  
HETATM   31  C   UNL     1      -9.893  16.567  66.819  1.00  0.00    -0.274 A  
HETATM   32  C   UNL     1      -8.863  15.869  67.435  1.00  0.00    -0.201 A  
ENDBRANCH  21  24
ENDBRANCH  17  18
ENDBRANCH  16  17
ENDBRANCH  15  16
ENDBRANCH  14  15
ENDBRANCH  13  14
ENDBRANCH   7  13
TORSDOF 7
ENDMDL
MODEL      333
REMARK 921   NORMALIZED FREE ENERGY PREDICTED BY IDOCK:    1.67 KCAL/MOL
REMARK 922        TOTAL FREE ENERGY PREDICTED BY IDOCK:    1.06 KCAL/MOL
REMARK 923 INTER-LIGAND FREE ENERGY PREDICTED BY IDOCK:   -2.39 KCAL/MOL
REMARK 924 INTRA-LIGAND FREE ENERGY PREDICTED BY IDOCK:    3.44 KCAL/MOL
REMARK 927      BINDING AFFINITY PREDICTED BY RF-SCORE:    0.00 PKD
ROOT
HETATM    1  O   UNL     1     -11.314  11.306  65.344  1.00  0.00    -0.081 OA 
HETATM    2  C   UNL     1     -10.266  10.799  64.962  1.00  0.00    -0.306 C  
HETATM    3  N   UNL     1      -9.389  10.190  65.817  1.00  0.00    -0.175 N  
HETATM    4  C   UNL     1      -8.172   9.630  65.406  1.00  0.00    -0.128 A  
HETATM    5  H   UNL     1      -9.635  10.140  66.806  1.00  0.00     0.000 HD 
HETATM    6  C   UNL     1      -7.322   9.043  66.342  1.00  0.00    -0.088 A  
HETATM    7  C   UNL     1      -6.098   8.510  65.930  1.00  0.00    -0.048 A  
HETATM    8  C   UNL     1      -9.894  10.820  63.525  1.00  0.00    -0.401 C  
HETATM    9  C   UNL     1      -5.741   8.573  64.577  1.00  0.00    -0.063 A  
HETATM   10  C   UNL     1      -8.742  10.293  63.094  1.00  0.00    -0.207 C  
HETATM   11  C   UNL     1      -6.597   9.154  63.639  1.00  0.00    -0.090 A  
HETATM   12  C   UNL     1      -7.820   9.682  64.050  1.00  0.00    -0.137 A  
ENDROOT
BRANCH   7  13
HETATM   13  O   UNL     1      -5.341   7.957  66.931  1.00  0.00    -0.030 OA 
BRANCH  13  14
HETATM   14  C   UNL     1      -6.062   7.157  67.868  1.00  0.00    -0.034 C  
BRANCH  14  15
HETATM   15  C   UNL     1      -5.169   6.813  69.055  1.00  0.00    -0.013 C  
BRANCH  15  16
HETATM   16  C   UNL     1      -5.988   6.490  70.309  1.00  0.00    -0.023 C  
BRANCH  16  17
HETATM   17  C   UNL     1      -7.325   7.244  70.430  1.00  0.00    -0.078 C  
BRANCH  17  18
HETATM   18  N   UNL     1      -7.848   7.765  69.160  1.00  0.00    -0.111 NA 
HETATM   19  C   UNL     1      -9.322   7.650  69.040  1.00  0.00    -0.146 C  
HETATM   20  C   UNL     1     -10.143   8.593  69.955  1.00  0.00    -0.194 C  
HETATM   21  N   UNL     1      -9.700   9.982  69.786  1.00  0.00    -0.234 NA 
HETATM   22  C   UNL     1      -7.492   9.200  68.985  1.00  0.00    -0.074 C  
HETATM   23  C   UNL     1      -8.249  10.191  69.910  1.00  0.00    -0.109 C  
BRANCH  21  24
HETATM   24  C   UNL     1     -10.578  11.047  70.014  1.00  0.00     0.229 A  
HETATM   25  C   UNL     1     -11.754  11.005  70.840  1.00  0.00    -0.185 A  
HETATM   26  C   UNL     1     -12.237  10.015  71.777  1.00  0.00    -0.383 A  
HETATM   27  C   UNL     1     -13.455  10.318  72.336  1.00  0.00     0.007 A  
HETATM   28  S   UNL     1     -14.032  11.823  71.806  1.00  0.00     1.229 SA 
HETATM   29  C   UNL     1     -12.639  12.092  70.821  1.00  0.00    -0.222 A  
HETATM   30  C   UNL     1     -12.394  13.248  70.061  1.00  0.00    -0.269 A  
HETATM   31  C   UNL     1     -11.228  13.319  69.315  1.00  0.00    -0.266 A  
HETATM   32  C   UNL     1     -10.350  12.244  69.293  1.00  0.00     0.239 A  
ENDBRANCH  21  24
ENDBRANCH  17  18
ENDBRANCH  16  17
ENDBRANCH  15  16
ENDBRANCH  14  15
ENDBRANCH  13  14
ENDBRANCH   7  13
TORSDOF 7
ENDMDL
MODEL      334
REMARK 921   NORMALIZED FREE ENERGY PREDICTED BY IDOCK:    2.82 KCAL/MOL
REMARK 922        TOTAL FREE ENERGY PREDICTED BY IDOCK:    2.68 KCAL/MOL
REMARK 923 INTER-LIGAND FREE ENERGY PREDICTED BY IDOCK:   -0.05 KCAL/MOL
REMARK 924 INTRA-LIGAND FREE ENERGY PREDICTED BY IDOCK:    2.72 KCAL/MOL
REMARK 927      BINDING AFFINITY PREDICTED BY RF-SCORE:    0.00 PKD
ROOT
HETATM    1  O   UNL     1     -10.169   5.268  68.617  1.00  0.00    -0.179 OA 
HETATM    2  C   UNL     1      -9.885   6.034  67.703  1.00  0.00    -0.123 C  
HETATM    3  N   UNL     1      -8.624   6.531  67.525  1.00  0.00    -0.119 N  
HETATM    4  C   UNL     1      -8.284   7.431  66.507  1.00  0.00    -0.120 A  
HETATM    5  H   UNL     1      -7.891   6.231  68.169  1.00  0.00     0.000 HD 
HETATM    6  C   UNL     1      -6.977   7.908  66.403  1.00  0.00    -0.067 A  
HETATM    7  C   UNL     1      -6.651   8.825  65.401  1.00  0.00    -0.067 A  
HETATM    8  C   UNL     1     -10.917   6.463  66.726  1.00  0.00    -0.321 C  
HETATM    9  C   UNL     1      -7.644   9.254  64.511  1.00  0.00    -0.107 A  
HETATM   10  C   UNL     1     -10.630   7.318  65.737  1.00  0.00     2.248 C  
HETATM   11  C   UNL     1      -8.950   8.768  64.610  1.00  0.00     0.032 A  
HETATM   12  C   UNL     1      -9.275   7.850  65.607  1.00  0.00     0.047 A  
ENDROOT
BRANCH   7  13
HETATM   13  O   UNL     1      -5.340   9.228  65.390  1.00  0.00    -0.036 OA 
BRANCH  13  14
HETATM   14  C   UNL     1      -5.125  10.592  65.028  1.00  0.00    -0.131 C  
BRANCH  14  15
HETATM   15  C   UNL     1      -5.279  11.486  66.254  1.00  0.00    -0.034 C  
BRANCH  15  16
HETATM   16  C   UNL     1      -5.368  10.669  67.546  1.00  0.00    -0.040 C  
BRANCH  16  17
HETATM   17  C   UNL     1      -5.241  11.483  68.846  1.00  0.00    -0.043 C  
BRANCH  17  18
HETATM   18  N   UNL     1      -5.468  12.926  68.687  1.00  0.00    -0.063 NA 
HETATM   19  C   UNL     1      -6.026  13.290  67.362  1.00  0.00     0.046 C  
HETATM   20  C   UNL     1      -7.496  12.865  67.117  1.00  0.00    -0.006 C  
HETATM   21  N   UNL     1      -8.354  13.341  68.208  1.00  0.00    -0.156 NA 
HETATM   22  C   UNL     1      -6.402  13.437  69.727  1.00  0.00    -0.083 C  
HETATM   23  C   UNL     1      -7.884  13.004  69.561  1.00  0.00     0.949 C  
BRANCH  21  24
HETATM   24  C   UNL     1      -9.710  13.606  67.990  1.00  0.00    -0.226 A  
HETATM   25  C   UNL     1     -10.573  14.349  68.866  1.00  0.00    -0.250 A  
HETATM   26  C   UNL     1     -10.294  15.164  70.028  1.00  0.00    -0.180 A  
HETATM   27  C   UNL     1     -11.415  15.669  70.642  1.00  0.00    -0.375 A  
HETATM   28  S   UNL     1     -12.832  15.237  69.815  1.00  0.00     0.233 SA 
HETATM   29  C   UNL     1     -11.952  14.370  68.610  1.00  0.00    -0.297 A  
HETATM   30  C   UNL     1     -12.519  13.730  67.494  1.00  0.00     0.104 A  
HETATM   31  C   UNL     1     -11.682  13.068  66.610  1.00  0.00    -0.438 A  
HETATM   32  C   UNL     1     -10.317  13.008  66.858  1.00  0.00    -0.246 A  
ENDBRANCH  21  24
ENDBRANCH  17  18
ENDBRANCH  16  17
ENDBRANCH  15  16
ENDBRANCH  14  15
ENDBRANCH  13  14
ENDBRANCH   7  13
TORSDOF 7
ENDMDL
MODEL      335
REMARK 921   NORMALIZED FREE ENERGY PREDICTED BY IDOCK:    3.74 KCAL/MOL
REMARK 922        TOTAL FREE ENERGY PREDICTED BY IDOCK:    3.96 KCAL/MOL
REMARK 923 INTER-LIGAND FREE ENERGY PREDICTED BY IDOCK:   -2.47 KCAL/MOL
REMARK 924 INTRA-LIGAND FREE ENERGY PREDICTED BY IDOCK:    6.43 KCAL/MOL
REMARK 927      BINDING AFFINITY PREDICTED BY RF-SCORE:    0.00 PKD
ROOT
HETATM    1  O   UNL     1      -5.850  18.636  68.519  1.00  0.00    -0.199 OA 
HETATM    2  C   UNL     1      -5.714  17.432  68.333  1.00  0.00    -0.154 C  
HETATM    3  N   UNL     1      -5.893  16.510  69.328  1.00  0.00    -0.145 N  
HETATM    4  C   UNL     1      -5.713  15.132  69.146  1.00  0.00    -0.098 A  
HETATM    5  H   UNL     1      -6.172  16.844  70.250  1.00  0.00     0.000 HD 
HETATM    6  C   UNL     1      -5.896  14.257  70.215  1.00  0.00    -0.146 A  
HETATM    7  C   UNL     1      -5.690  12.887  70.034  1.00  0.00    -0.137 A  
HETATM    8  C   UNL     1      -5.344  16.909  66.995  1.00  0.00    -0.185 C  
HETATM    9  C   UNL     1      -5.301  12.411  68.775  1.00  0.00    -0.054 A  
HETATM   10  C   UNL     1      -5.167  15.599  66.781  1.00  0.00     1.074 C  
HETATM   11  C   UNL     1      -5.127  13.289  67.702  1.00  0.00    -0.017 A  
HETATM   12  C   UNL     1      -5.337  14.655  67.882  1.00  0.00    -0.086 A  
ENDROOT
BRANCH   7  13
HETATM   13  O   UNL     1      -5.899  12.117  71.150  1.00  0.00    -0.371 OA 
BRANCH  13  14
HETATM   14  C   UNL     1      -6.133  10.732  70.898  1.00  0.00     0.074 C  
BRANCH  14  15
HETATM   15  C   UNL     1      -7.534  10.536  70.328  1.00  0.00     0.278 C  
BRANCH  15  16
HETATM   16  C   UNL     1      -7.723  11.292  69.010  1.00  0.00    -0.095 C  
BRANCH  16  17
HETATM   17  C   UNL     1      -9.121  11.900  68.797  1.00  0.00     0.051 C  
BRANCH  17  18
HETATM   18  N   UNL     1     -10.217  10.923  68.795  1.00  0.00    -0.188 NA 
HETATM   19  C   UNL     1     -10.064   9.871  67.759  1.00  0.00    -0.180 C  
HETATM   20  C   UNL     1      -8.930   8.845  68.011  1.00  0.00    -0.140 C  
HETATM   21  N   UNL     1      -9.057   8.262  69.351  1.00  0.00    -0.153 NA 
HETATM   22  C   UNL     1     -10.329  10.243  70.114  1.00  0.00    -0.153 C  
HETATM   23  C   UNL     1      -9.194   9.237  70.445  1.00  0.00    -0.247 C  
BRANCH  21  24
HETATM   24  C   UNL     1      -8.573   6.978  69.623  1.00  0.00    -0.134 A  
HETATM   25  C   UNL     1      -9.126   6.056  70.577  1.00  0.00    -0.157 A  
HETATM   26  C   UNL     1     -10.361   6.073  71.328  1.00  0.00    -0.266 A  
HETATM   27  C   UNL     1     -10.503   5.021  72.200  1.00  0.00    -0.210 A  
HETATM   28  S   UNL     1      -9.194   3.946  72.105  1.00  0.00    -0.124 SA 
HETATM   29  C   UNL     1      -8.421   4.881  70.878  1.00  0.00    -0.111 A  
HETATM   30  C   UNL     1      -7.214   4.544  70.240  1.00  0.00    -0.049 A  
HETATM   31  C   UNL     1      -6.712   5.399  69.271  1.00  0.00    -0.052 A  
HETATM   32  C   UNL     1      -7.376   6.583  68.977  1.00  0.00    -0.093 A  
ENDBRANCH  21  24
ENDBRANCH  17  18
ENDBRANCH  16  17
ENDBRANCH  15  16
ENDBRANCH  14  15
ENDBRANCH  13  14
ENDBRANCH   7  13
TORSDOF 7
ENDMDL
MODEL      336
REMARK 921   NORMALIZED FREE ENERGY PREDICTED BY IDOCK:    4.09 KCAL/MOL
REMARK 922        TOTAL FREE ENERGY PREDICTED BY IDOCK:    4.46 KCAL/MOL
REMARK 923 INTER-LIGAND FREE ENERGY PREDICTED BY IDOCK:    3.36 KCAL/MOL
REMARK 924 INTRA-LIGAND FREE ENERGY PREDICTED BY IDOCK:    1.11 KCAL/MOL
REMARK 927      BINDING AFFINITY PREDICTED BY RF-SCORE:    0.00 PKD
ROOT
HETATM    1  O   UNL     1     -12.224   4.413  65.763  1.00  0.00     3.019 OA 
HETATM    2  C   UNL     1     -11.203   5.009  66.086  1.00  0.00     0.544 C  
HETATM    3  N   UNL     1     -10.718   4.997  67.365  1.00  0.00    -0.056 N  
HETATM    4  C   UNL     1      -9.571   5.696  67.763  1.00  0.00    -0.119 A  
HETATM    5  H   UNL     1     -11.218   4.450  68.066  1.00  0.00     0.000 HD 
HETATM    6  C   UNL     1      -9.151   5.649  69.092  1.00  0.00    -0.126 A  
HETATM    7  C   UNL     1      -8.021   6.370  69.488  1.00  0.00    -0.113 A  
HETATM    8  C   UNL     1     -10.430   5.785  65.085  1.00  0.00     1.603 C  
HETATM    9  C   UNL     1      -7.323   7.131  68.540  1.00  0.00    -0.100 A  
HETATM   10  C   UNL     1      -9.327   6.463  65.426  1.00  0.00     0.398 C  
HETATM   11  C   UNL     1      -7.741   7.170  67.208  1.00  0.00    -0.109 A  
HETATM   12  C   UNL     1      -8.866   6.448  66.812  1.00  0.00    -0.124 A  
ENDROOT
BRANCH   7  13
HETATM   13  O   UNL     1      -7.695   6.252  70.815  1.00  0.00    -0.097 OA 
BRANCH  13  14
HETATM   14  C   UNL     1      -8.577   5.438  71.588  1.00  0.00    -0.131 C  
BRANCH  14  15
HETATM   15  C   UNL     1      -9.420   6.313  72.510  1.00  0.00    -0.143 C  
BRANCH  15  16
HETATM   16  C   UNL     1     -10.173   7.397  71.733  1.00  0.00    -0.212 C  
BRANCH  16  17
HETATM   17  C   UNL     1     -11.191   6.877  70.702  1.00  0.00    -0.301 C  
BRANCH  17  18
HETATM   18  N   UNL     1     -12.051   7.915  70.118  1.00  0.00     0.361 NA 
HETATM   19  C   UNL     1     -11.957   9.219  70.819  1.00  0.00    -0.210 C  
HETATM   20  C   UNL     1     -10.625   9.985  70.629  1.00  0.00    -0.202 C  
HETATM   21  N   UNL     1     -10.312  10.121  69.202  1.00  0.00    -0.205 NA 
HETATM   22  C   UNL     1     -11.711   8.146  68.687  1.00  0.00     1.756 C  
HETATM   23  C   UNL     1     -10.361   8.869  68.432  1.00  0.00    -0.200 C  
BRANCH  21  24
HETATM   24  C   UNL     1      -9.543  11.194  68.736  1.00  0.00    -0.172 A  
HETATM   25  C   UNL     1     -10.042  12.496  68.388  1.00  0.00    -0.216 A  
HETATM   26  C   UNL     1     -11.330  13.120  68.593  1.00  0.00    -0.327 A  
HETATM   27  C   UNL     1     -11.437  14.379  68.053  1.00  0.00    -0.310 A  
HETATM   28  S   UNL     1      -9.983  14.880  67.337  1.00  0.00    -0.223 SA 
HETATM   29  C   UNL     1      -9.185  13.407  67.755  1.00  0.00    -0.211 A  
HETATM   30  C   UNL     1      -7.835  13.113  67.492  1.00  0.00    -0.173 A  
HETATM   31  C   UNL     1      -7.334  11.883  67.887  1.00  0.00    -0.104 A  
HETATM   32  C   UNL     1      -8.170  10.952  68.488  1.00  0.00    -0.140 A  
ENDBRANCH  21  24
ENDBRANCH  17  18
ENDBRANCH  16  17
ENDBRANCH  15  16
ENDBRANCH  14  15
ENDBRANCH  13  14
ENDBRANCH   7  13
TORSDOF 7
ENDMDL
MODEL      337
REMARK 921   NORMALIZED FREE ENERGY PREDICTED BY IDOCK:    4.78 KCAL/MOL
REMARK 922        TOTAL FREE ENERGY PREDICTED BY IDOCK:    5.43 KCAL/MOL
REMARK 923 INTER-LIGAND FREE ENERGY PREDICTED BY IDOCK:    4.37 KCAL/MOL
REMARK 924 INTRA-LIGAND FREE ENERGY PREDICTED BY IDOCK:    1.06 KCAL/MOL
REMARK 927      BINDING AFFINITY PREDICTED BY RF-SCORE:    0.00 PKD
ROOT
HETATM    1  O   UNL     1     -13.408  16.947  64.989  1.00  0.00     5.445 OA 
HETATM    2  C   UNL     1     -13.003  15.790  64.983  1.00  0.00     1.655 C  
HETATM    3  N   UNL     1     -12.644  15.132  66.126  1.00  0.00     0.408 N  
HETATM    4  C   UNL     1     -12.149  13.821  66.140  1.00  0.00    -0.441 A  
HETATM    5  H   UNL     1     -12.742  15.620  67.016  1.00  0.00     0.000 HD 
HETATM    6  C   UNL     1     -11.786  13.223  67.346  1.00  0.00    -0.419 A  
HETATM    7  C   UNL     1     -11.269  11.926  67.350  1.00  0.00    -0.305 A  
HETATM    8  C   UNL     1     -12.883  15.037  63.710  1.00  0.00     1.070 C  
HETATM    9  C   UNL     1     -11.122  11.240  66.137  1.00  0.00    -0.207 A  
HETATM   10  C   UNL     1     -12.418  13.782  63.683  1.00  0.00    -0.150 C  
HETATM   11  C   UNL     1     -11.495  11.837  64.930  1.00  0.00    -0.269 A  
HETATM   12  C   UNL     1     -12.015  13.130  64.927  1.00  0.00    -0.431 A  
ENDROOT
BRANCH   7  13
HETATM   13  O   UNL     1     -10.946  11.435  68.590  1.00  0.00    -0.190 OA 
BRANCH  13  14
HETATM   14  C   UNL     1      -9.548  11.298  68.845  1.00  0.00    -0.105 C  
BRANCH  14  15
HETATM   15  C   UNL     1      -9.250   9.901  69.380  1.00  0.00    -0.225 C  
BRANCH  15  16
HETATM   16  C   UNL     1      -7.887   9.389  68.905  1.00  0.00    -0.083 C  
BRANCH  16  17
HETATM   17  C   UNL     1      -6.718   9.641  69.874  1.00  0.00    -0.069 C  
BRANCH  17  18
HETATM   18  N   UNL     1      -7.067   9.515  71.295  1.00  0.00    -0.329 NA 
HETATM   19  C   UNL     1      -8.332   8.775  71.527  1.00  0.00    -0.152 C  
HETATM   20  C   UNL     1      -8.280   7.255  71.236  1.00  0.00    -0.106 C  
HETATM   21  N   UNL     1      -7.160   6.635  71.953  1.00  0.00    -0.079 NA 
HETATM   22  C   UNL     1      -5.991   8.814  72.049  1.00  0.00    -0.071 C  
HETATM   23  C   UNL     1      -5.859   7.294  71.763  1.00  0.00    -0.037 C  
BRANCH  21  24
HETATM   24  C   UNL     1      -7.209   5.289  72.332  1.00  0.00    -0.092 A  
HETATM   25  C   UNL     1      -7.592   4.192  71.487  1.00  0.00    -0.064 A  
HETATM   26  C   UNL     1      -7.816   4.107  70.060  1.00  0.00    -0.052 A  
HETATM   27  C   UNL     1      -8.238   2.872  69.630  1.00  0.00    -0.047 A  
HETATM   28  S   UNL     1      -8.319   1.757  70.906  1.00  0.00    -0.050 SA 
HETATM   29  C   UNL     1      -7.777   2.924  72.057  1.00  0.00    -0.053 A  
HETATM   30  C   UNL     1      -7.551   2.673  73.422  1.00  0.00    -0.046 A  
HETATM   31  C   UNL     1      -7.117   3.715  74.227  1.00  0.00    -0.052 A  
HETATM   32  C   UNL     1      -6.956   4.986  73.692  1.00  0.00    -0.080 A  
ENDBRANCH  21  24
ENDBRANCH  17  18
ENDBRANCH  16  17
ENDBRANCH  15  16
ENDBRANCH  14  15
ENDBRANCH  13  14
ENDBRANCH   7  13
TORSDOF 7
ENDMDL
MODEL      338
REMARK 921   NORMALIZED FREE ENERGY PREDICTED BY IDOCK:    5.07 KCAL/MOL
REMARK 922        TOTAL FREE ENERGY PREDICTED BY IDOCK:    5.84 KCAL/MOL
REMARK 923 INTER-LIGAND FREE ENERGY PREDICTED BY IDOCK:    4.85 KCAL/MOL
REMARK 924 INTRA-LIGAND FREE ENERGY PREDICTED BY IDOCK:    0.99 KCAL/MOL
REMARK 927      BINDING AFFINITY PREDICTED BY RF-SCORE:    0.00 PKD
ROOT
HETATM    1  O   UNL     1     -11.601   1.761  63.930  1.00  0.00     0.191 OA 
HETATM    2  C   UNL     1     -10.667   1.961  64.698  1.00  0.00     1.094 C  
HETATM    3  N   UNL     1      -9.523   2.603  64.313  1.00  0.00    -0.132 N  
HETATM    4  C   UNL     1      -8.431   2.815  65.166  1.00  0.00    -0.097 A  
HETATM    5  H   UNL     1      -9.461   2.946  63.355  1.00  0.00     0.000 HD 
HETATM    6  C   UNL     1      -7.291   3.462  64.693  1.00  0.00    -0.071 A  
HETATM    7  C   UNL     1      -6.196   3.648  65.541  1.00  0.00    -0.031 A  
HETATM    8  C   UNL     1     -10.738   1.508  66.110  1.00  0.00     3.672 C  
HETATM    9  C   UNL     1      -6.260   3.179  66.860  1.00  0.00    -0.025 A  
HETATM   10  C   UNL     1      -9.718   1.696  66.956  1.00  0.00     0.433 C  
HETATM   11  C   UNL     1      -7.407   2.539  67.335  1.00  0.00    -0.057 A  
HETATM   12  C   UNL     1      -8.501   2.358  66.490  1.00  0.00    -0.100 A  
ENDROOT
BRANCH   7  13
HETATM   13  O   UNL     1      -5.128   4.296  64.975  1.00  0.00    -0.008 OA 
BRANCH  13  14
HETATM   14  C   UNL     1      -5.281   5.708  64.828  1.00  0.00    -0.010 C  
BRANCH  14  15
HETATM   15  C   UNL     1      -6.404   6.010  63.841  1.00  0.00    -0.029 C  
BRANCH  15  16
HETATM   16  C   UNL     1      -7.510   6.856  64.480  1.00  0.00    -0.099 C  
BRANCH  16  17
HETATM   17  C   UNL     1      -8.902   6.199  64.512  1.00  0.00     0.393 C  
BRANCH  17  18
HETATM   18  N   UNL     1      -9.788   6.700  65.570  1.00  0.00     0.792 NA 
HETATM   19  C   UNL     1      -9.936   5.758  66.707  1.00  0.00    -0.175 C  
HETATM   20  C   UNL     1      -8.685   5.595  67.606  1.00  0.00    -0.107 C  
HETATM   21  N   UNL     1      -8.204   6.906  68.056  1.00  0.00    -0.114 NA 
HETATM   22  C   UNL     1      -9.291   7.992  66.116  1.00  0.00    -0.147 C  
HETATM   23  C   UNL     1      -8.009   7.898  66.987  1.00  0.00    -0.112 C  
BRANCH  21  24
HETATM   24  C   UNL     1      -7.507   7.038  69.262  1.00  0.00    -0.094 A  
HETATM   25  C   UNL     1      -7.096   8.277  69.863  1.00  0.00    -0.055 A  
HETATM   26  C   UNL     1      -7.427   9.652  69.559  1.00  0.00    -0.096 A  
HETATM   27  C   UNL     1      -6.772  10.573  70.339  1.00  0.00    -0.062 A  
HETATM   28  S   UNL     1      -5.788   9.826  71.501  1.00  0.00     0.069 SA 
HETATM   29  C   UNL     1      -6.240   8.245  70.973  1.00  0.00    -0.034 A  
HETATM   30  C   UNL     1      -5.807   7.041  71.555  1.00  0.00    -0.037 A  
HETATM   31  C   UNL     1      -6.255   5.844  71.018  1.00  0.00    -0.039 A  
HETATM   32  C   UNL     1      -7.079   5.849  69.901  1.00  0.00    -0.068 A  
ENDBRANCH  21  24
ENDBRANCH  17  18
ENDBRANCH  16  17
ENDBRANCH  15  16
ENDBRANCH  14  15
ENDBRANCH  13  14
ENDBRANCH   7  13
TORSDOF 7
ENDMDL
MODEL      339
REMARK 921   NORMALIZED FREE ENERGY PREDICTED BY IDOCK:    5.34 KCAL/MOL
REMARK 922        TOTAL FREE ENERGY PREDICTED BY IDOCK:    6.23 KCAL/MOL
REMARK 923 INTER-LIGAND FREE ENERGY PREDICTED BY IDOCK:    6.39 KCAL/MOL
REMARK 924 INTRA-LIGAND FREE ENERGY PREDICTED BY IDOCK:   -0.16 KCAL/MOL
REMARK 927      BINDING AFFINITY PREDICTED BY RF-SCORE:    0.00 PKD
ROOT
HETATM    1  O   UNL     1     -11.518   2.888  63.657  1.00  0.00    -0.130 OA 
HETATM    2  C   UNL     1     -10.668   3.134  64.506  1.00  0.00     0.295 C  
HETATM    3  N   UNL     1      -9.475   3.728  64.200  1.00  0.00    -0.146 N  
HETATM    4  C   UNL     1      -8.477   3.991  65.149  1.00  0.00    -0.113 A  
HETATM    5  H   UNL     1      -9.302   3.995  63.231  1.00  0.00     0.000 HD 
HETATM    6  C   UNL     1      -7.278   4.583  64.755  1.00  0.00    -0.063 A  
HETATM    7  C   UNL     1      -6.277   4.818  65.701  1.00  0.00    -0.034 A  
HETATM    8  C   UNL     1     -10.900   2.793  65.932  1.00  0.00     3.533 C  
HETATM    9  C   UNL     1      -6.493   4.455  67.037  1.00  0.00    -0.042 A  
HETATM   10  C   UNL     1      -9.973   3.032  66.867  1.00  0.00     0.746 C  
HETATM   11  C   UNL     1      -7.699   3.869  67.431  1.00  0.00    -0.079 A  
HETATM   12  C   UNL     1      -8.699   3.638  66.488  1.00  0.00    -0.121 A  
ENDROOT
BRANCH   7  13
HETATM   13  O   UNL     1      -5.140   5.406  65.207  1.00  0.00    -0.009 OA 
BRANCH  13  14
HETATM   14  C   UNL     1      -5.265   6.788  64.873  1.00  0.00    -0.026 C  
BRANCH  14  15
HETATM   15  C   UNL     1      -6.213   6.954  63.690  1.00  0.00    -0.043 C  
BRANCH  15  16
HETATM   16  C   UNL     1      -7.007   8.261  63.777  1.00  0.00    -0.080 C  
BRANCH  16  17
HETATM   17  C   UNL     1      -8.528   8.117  63.587  1.00  0.00     0.114 C  
BRANCH  17  18
HETATM   18  N   UNL     1      -9.326   9.161  64.244  1.00  0.00     0.191 NA 
HETATM   19  C   UNL     1     -10.403   8.620  65.109  1.00  0.00     2.688 C  
HETATM   20  C   UNL     1      -9.930   7.932  66.413  1.00  0.00    -0.122 C  
HETATM   21  N   UNL     1      -9.035   8.819  67.165  1.00  0.00    -0.130 NA 
HETATM   22  C   UNL     1      -8.468  10.038  65.087  1.00  0.00    -0.153 C  
HETATM   23  C   UNL     1      -7.923   9.386  66.386  1.00  0.00    -0.108 C  
BRANCH  21  24
HETATM   24  C   UNL     1      -8.929   8.719  68.556  1.00  0.00    -0.138 A  
HETATM   25  C   UNL     1      -9.885   9.213  69.510  1.00  0.00    -0.182 A  
HETATM   26  C   UNL     1     -11.228   9.724  69.350  1.00  0.00    -0.154 A  
HETATM   27  C   UNL     1     -11.805  10.161  70.517  1.00  0.00    -0.321 A  
HETATM   28  S   UNL     1     -10.785   9.919  71.851  1.00  0.00     1.676 SA 
HETATM   29  C   UNL     1      -9.552   9.210  70.872  1.00  0.00    -0.279 A  
HETATM   30  C   UNL     1      -8.335   8.694  71.348  1.00  0.00    -0.217 A  
HETATM   31  C   UNL     1      -7.439   8.156  70.438  1.00  0.00    -0.067 A  
HETATM   32  C   UNL     1      -7.732   8.174  69.080  1.00  0.00    -0.098 A  
ENDBRANCH  21  24
ENDBRANCH  17  18
ENDBRANCH  16  17
ENDBRANCH  15  16
ENDBRANCH  14  15
ENDBRANCH  13  14
ENDBRANCH   7  13
TORSDOF 7
ENDMDL
MODEL      340
REMARK 921   NORMALIZED FREE ENERGY PREDICTED BY IDOCK:    6.62 KCAL/MOL
REMARK 922        TOTAL FREE ENERGY PREDICTED BY IDOCK:    8.03 KCAL/MOL
REMARK 923 INTER-LIGAND FREE ENERGY PREDICTED BY IDOCK:    7.04 KCAL/MOL
REMARK 924 INTRA-LIGAND FREE ENERGY PREDICTED BY IDOCK:    0.99 KCAL/MOL
REMARK 927      BINDING AFFINITY PREDICTED BY RF-SCORE:    0.00 PKD
ROOT
HETATM    1  O   UNL     1     -13.424  16.967  64.991  1.00  0.00     5.801 OA 
HETATM    2  C   UNL     1     -13.022  15.809  64.976  1.00  0.00     1.655 C  
HETATM    3  N   UNL     1     -12.652  15.145  66.113  1.00  0.00     0.408 N  
HETATM    4  C   UNL     1     -12.161  13.832  66.116  1.00  0.00    -0.441 A  
HETATM    5  H   UNL     1     -12.738  15.631  67.006  1.00  0.00     0.000 HD 
HETATM    6  C   UNL     1     -11.786  13.229  67.316  1.00  0.00    -0.424 A  
HETATM    7  C   UNL     1     -11.273  11.930  67.309  1.00  0.00    -0.317 A  
HETATM    8  C   UNL     1     -12.919  15.059  63.699  1.00  0.00     1.582 C  
HETATM    9  C   UNL     1     -11.142  11.248  66.092  1.00  0.00    -0.207 A  
HETATM   10  C   UNL     1     -12.458  13.803  63.662  1.00  0.00    -0.150 C  
HETATM   11  C   UNL     1     -11.527  11.851  64.892  1.00  0.00    -0.315 A  
HETATM   12  C   UNL     1     -12.043  13.145  64.899  1.00  0.00    -0.448 A  
ENDROOT
BRANCH   7  13
HETATM   13  O   UNL     1     -10.937  11.434  68.543  1.00  0.00    -0.191 OA 
BRANCH  13  14
HETATM   14  C   UNL     1      -9.537  11.296  68.784  1.00  0.00    -0.151 C  
BRANCH  14  15
HETATM   15  C   UNL     1      -9.186   9.827  68.993  1.00  0.00    -0.165 C  
BRANCH  15  16
HETATM   16  C   UNL     1     -10.218   9.115  69.872  1.00  0.00    -0.222 C  
BRANCH  16  17
HETATM   17  C   UNL     1     -11.340   8.389  69.108  1.00  0.00     0.521 C  
BRANCH  17  18
HETATM   18  N   UNL     1     -10.911   7.750  67.857  1.00  0.00     0.014 NA 
HETATM   19  C   UNL     1      -9.442   7.563  67.766  1.00  0.00    -0.141 C  
HETATM   20  C   UNL     1      -8.846   6.489  68.711  1.00  0.00    -0.125 C  
HETATM   21  N   UNL     1      -9.558   5.216  68.552  1.00  0.00    -0.133 NA 
HETATM   22  C   UNL     1     -11.547   6.414  67.695  1.00  0.00     0.698 C  
HETATM   23  C   UNL     1     -11.023   5.307  68.649  1.00  0.00     0.456 C  
BRANCH  21  24
HETATM   24  C   UNL     1      -8.918   4.000  68.814  1.00  0.00    -0.117 A  
HETATM   25  C   UNL     1      -8.135   3.696  69.980  1.00  0.00    -0.059 A  
HETATM   26  C   UNL     1      -7.957   4.401  71.230  1.00  0.00    -0.082 A  
HETATM   27  C   UNL     1      -7.063   3.806  72.088  1.00  0.00    -0.046 A  
HETATM   28  S   UNL     1      -6.455   2.355  71.453  1.00  0.00    -0.019 SA 
HETATM   29  C   UNL     1      -7.398   2.504  70.015  1.00  0.00    -0.043 A  
HETATM   30  C   UNL     1      -7.436   1.565  68.968  1.00  0.00    -0.042 A  
HETATM   31  C   UNL     1      -8.242   1.825  67.871  1.00  0.00    -0.070 A  
HETATM   32  C   UNL     1      -8.958   3.012  67.800  1.00  0.00    -0.192 A  
ENDBRANCH  21  24
ENDBRANCH  17  18
ENDBRANCH  16  17
ENDBRANCH  15  16
ENDBRANCH  14  15
ENDBRANCH  13  14
ENDBRANCH   7  13
TORSDOF 7
ENDMDL
MODEL      341
REMARK 921   NORMALIZED FREE ENERGY PREDICTED BY IDOCK:   12.71 KCAL/MOL
REMARK 922        TOTAL FREE ENERGY PREDICTED BY IDOCK:   16.60 KCAL/MOL
REMARK 923 INTER-LIGAND FREE ENERGY PREDICTED BY IDOCK:   -2.55 KCAL/MOL
REMARK 924 INTRA-LIGAND FREE ENERGY PREDICTED BY IDOCK:   19.15 KCAL/MOL
REMARK 927      BINDING AFFINITY PREDICTED BY RF-SCORE:    0.00 PKD
ROOT
HETATM    1  O   UNL     1     -12.726   7.585  72.991  1.00  0.00     0.597 OA 
HETATM    2  C   UNL     1     -12.191   8.076  72.004  1.00  0.00    -0.331 C  
HETATM    3  N   UNL     1     -12.485   9.335  71.558  1.00  0.00    -0.336 N  
HETATM    4  C   UNL     1     -11.908   9.905  70.415  1.00  0.00    -0.234 A  
HETATM    5  H   UNL     1     -13.160   9.888  72.086  1.00  0.00     0.000 HD 
HETATM    6  C   UNL     1     -12.275  11.188  70.014  1.00  0.00    -0.402 A  
HETATM    7  C   UNL     1     -11.715  11.741  68.859  1.00  0.00    -0.323 A  
HETATM    8  C   UNL     1     -11.176   7.314  71.234  1.00  0.00    -0.281 C  
HETATM    9  C   UNL     1     -10.789  10.994  68.118  1.00  0.00    -0.274 A  
HETATM   10  C   UNL     1     -10.600   7.825  70.140  1.00  0.00    -0.237 C  
HETATM   11  C   UNL     1     -10.416   9.711  68.527  1.00  0.00    -0.241 A  
HETATM   12  C   UNL     1     -10.972   9.162  69.682  1.00  0.00    -0.168 A  
ENDROOT
BRANCH   7  13
HETATM   13  O   UNL     1     -12.144  13.008  68.556  1.00  0.00    -0.297 OA 
BRANCH  13  14
HETATM   14  C   UNL     1     -11.109  13.973  68.370  1.00  0.00    -0.253 C  
BRANCH  14  15
HETATM   15  C   UNL     1     -10.228  14.038  69.613  1.00  0.00     0.425 C  
BRANCH  15  16
HETATM   16  C   UNL     1     -10.367  15.379  70.339  1.00  0.00    -0.121 C  
BRANCH  16  17
HETATM   17  C   UNL     1     -10.059  16.622  69.485  1.00  0.00    -0.133 C  
BRANCH  17  18
HETATM   18  N   UNL     1     -10.273  16.439  68.043  1.00  0.00    -0.255 NA 
HETATM   19  C   UNL     1      -9.047  16.655  67.235  1.00  0.00    -0.215 C  
HETATM   20  C   UNL     1      -7.954  15.568  67.377  1.00  0.00    -0.185 C  
HETATM   21  N   UNL     1      -8.522  14.236  67.140  1.00  0.00    -0.210 NA 
HETATM   22  C   UNL     1     -10.772  15.068  67.747  1.00  0.00    -0.278 C  
HETATM   23  C   UNL     1      -9.732  13.929  67.919  1.00  0.00    -0.231 C  
BRANCH  21  24
HETATM   24  C   UNL     1      -7.727  13.194  66.652  1.00  0.00     0.693 A  
HETATM   25  C   UNL     1      -8.191  12.075  65.877  1.00  0.00     0.563 A  
HETATM   26  C   UNL     1      -9.458  11.809  65.233  1.00  0.00    -0.132 A  
HETATM   27  C   UNL     1      -9.533  10.579  64.627  1.00  0.00    -0.263 A  
HETATM   28  S   UNL     1      -8.072   9.726  64.754  1.00  0.00    -0.156 SA 
HETATM   29  C   UNL     1      -7.313  11.012  65.621  1.00  0.00     0.144 A  
HETATM   30  C   UNL     1      -5.975  11.021  66.053  1.00  0.00    -0.109 A  
HETATM   31  C   UNL     1      -5.506  12.127  66.744  1.00  0.00     0.099 A  
HETATM   32  C   UNL     1      -6.364  13.180  67.035  1.00  0.00     0.591 A  
ENDBRANCH  21  24
ENDBRANCH  17  18
ENDBRANCH  16  17
ENDBRANCH  15  16
ENDBRANCH  14  15
ENDBRANCH  13  14
ENDBRANCH   7  13
TORSDOF 7
ENDMDL
MODEL      342
REMARK 921   NORMALIZED FREE ENERGY PREDICTED BY IDOCK:   17.49 KCAL/MOL
REMARK 922        TOTAL FREE ENERGY PREDICTED BY IDOCK:   23.34 KCAL/MOL
REMARK 923 INTER-LIGAND FREE ENERGY PREDICTED BY IDOCK:    3.25 KCAL/MOL
REMARK 924 INTRA-LIGAND FREE ENERGY PREDICTED BY IDOCK:   20.08 KCAL/MOL
REMARK 927      BINDING AFFINITY PREDICTED BY RF-SCORE:    0.00 PKD
ROOT
HETATM    1  O   UNL     1      -9.067   8.676  67.692  1.00  0.00    -0.134 OA 
HETATM    2  C   UNL     1      -9.487   7.862  68.507  1.00  0.00    -0.148 C  
HETATM    3  N   UNL     1      -8.909   6.635  68.685  1.00  0.00    -0.123 N  
HETATM    4  C   UNL     1      -9.391   5.678  69.589  1.00  0.00    -0.138 A  
HETATM    5  H   UNL     1      -8.084   6.405  68.132  1.00  0.00     0.000 HD 
HETATM    6  C   UNL     1      -8.757   4.441  69.700  1.00  0.00    -0.114 A  
HETATM    7  C   UNL     1      -9.258   3.482  70.583  1.00  0.00    -0.137 A  
HETATM    8  C   UNL     1     -10.663   8.178  69.355  1.00  0.00    -0.164 C  
HETATM    9  C   UNL     1     -10.394   3.778  71.349  1.00  0.00     0.185 A  
HETATM   10  C   UNL     1     -11.150   7.291  70.232  1.00  0.00    -0.289 C  
HETATM   11  C   UNL     1     -11.022   5.021  71.243  1.00  0.00     0.120 A  
HETATM   12  C   UNL     1     -10.520   5.980  70.364  1.00  0.00    -0.307 A  
ENDROOT
BRANCH   7  13
HETATM   13  O   UNL     1      -8.559   2.302  70.614  1.00  0.00    -0.049 OA 
BRANCH  13  14
HETATM   14  C   UNL     1      -7.140   2.434  70.541  1.00  0.00    -0.033 C  
BRANCH  14  15
HETATM   15  C   UNL     1      -6.771   3.607  69.639  1.00  0.00    -0.034 C  
BRANCH  15  16
HETATM   16  C   UNL     1      -5.566   4.383  70.180  1.00  0.00    -0.012 C  
BRANCH  16  17
HETATM   17  C   UNL     1      -5.539   5.881  69.825  1.00  0.00    -0.012 C  
BRANCH  17  18
HETATM   18  N   UNL     1      -6.704   6.640  70.299  1.00  0.00    -0.051 NA 
HETATM   19  C   UNL     1      -6.341   7.906  70.983  1.00  0.00    -0.037 C  
HETATM   20  C   UNL     1      -5.780   9.023  70.068  1.00  0.00    -0.031 C  
HETATM   21  N   UNL     1      -6.687   9.265  68.941  1.00  0.00    -0.051 NA 
HETATM   22  C   UNL     1      -7.614   6.982  69.171  1.00  0.00    -0.100 C  
HETATM   23  C   UNL     1      -7.083   8.062  68.191  1.00  0.00    -0.089 C  
BRANCH  21  24
HETATM   24  C   UNL     1      -6.743  10.519  68.323  1.00  0.00    -0.060 A  
HETATM   25  C   UNL     1      -7.152  10.770  66.968  1.00  0.00    -0.104 A  
HETATM   26  C   UNL     1      -7.782   9.923  65.979  1.00  0.00    -0.108 A  
HETATM   27  C   UNL     1      -7.962  10.524  64.757  1.00  0.00    -0.046 A  
HETATM   28  S   UNL     1      -7.443  12.139  64.769  1.00  0.00     4.692 SA 
HETATM   29  C   UNL     1      -6.975  12.053  66.429  1.00  0.00     0.486 A  
HETATM   30  C   UNL     1      -6.457  13.120  67.183  1.00  0.00     0.280 A  
HETATM   31  C   UNL     1      -6.122  12.897  68.509  1.00  0.00    -0.071 A  
HETATM   32  C   UNL     1      -6.261  11.629  69.058  1.00  0.00    -0.066 A  
ENDBRANCH  21  24
ENDBRANCH  17  18
ENDBRANCH  16  17
ENDBRANCH  15  16
ENDBRANCH  14  15
ENDBRANCH  13  14
ENDBRANCH   7  13
TORSDOF 7
ENDMDL
MODEL      343
REMARK 921   NORMALIZED FREE ENERGY PREDICTED BY IDOCK:   17.77 KCAL/MOL
REMARK 922        TOTAL FREE ENERGY PREDICTED BY IDOCK:   23.74 KCAL/MOL
REMARK 923 INTER-LIGAND FREE ENERGY PREDICTED BY IDOCK:   18.55 KCAL/MOL
REMARK 924 INTRA-LIGAND FREE ENERGY PREDICTED BY IDOCK:    5.19 KCAL/MOL
REMARK 927      BINDING AFFINITY PREDICTED BY RF-SCORE:    0.00 PKD
ROOT
HETATM    1  O   UNL     1      -6.835   9.405  70.452  1.00  0.00    -0.065 OA 
HETATM    2  C   UNL     1      -7.150   9.669  69.296  1.00  0.00    -0.063 C  
HETATM    3  N   UNL     1      -8.454   9.753  68.892  1.00  0.00    -0.123 N  
HETATM    4  C   UNL     1      -8.836  10.022  67.570  1.00  0.00    -0.128 A  
HETATM    5  H   UNL     1      -9.186   9.612  69.588  1.00  0.00     0.000 HD 
HETATM    6  C   UNL     1     -10.188  10.074  67.231  1.00  0.00    -0.275 A  
HETATM    7  C   UNL     1     -10.563  10.317  65.908  1.00  0.00    -0.013 A  
HETATM    8  C   UNL     1      -6.112   9.916  68.266  1.00  0.00    -0.046 C  
HETATM    9  C   UNL     1      -9.571  10.508  64.936  1.00  0.00    -0.334 A  
HETATM   10  C   UNL     1      -6.438  10.179  66.995  1.00  0.00    -0.069 C  
HETATM   11  C   UNL     1      -8.218  10.465  65.280  1.00  0.00    -0.162 A  
HETATM   12  C   UNL     1      -7.844  10.226  66.601  1.00  0.00    -0.116 A  
ENDROOT
BRANCH   7  13
HETATM   13  O   UNL     1     -11.916  10.347  65.685  1.00  0.00     1.953 OA 
BRANCH  13  14
HETATM   14  C   UNL     1     -12.727  10.284  66.858  1.00  0.00     8.296 C  
BRANCH  14  15
HETATM   15  C   UNL     1     -12.037  11.009  68.008  1.00  0.00     0.229 C  
BRANCH  15  16
HETATM   16  C   UNL     1     -11.518  12.386  67.584  1.00  0.00    -0.399 C  
BRANCH  16  17
HETATM   17  C   UNL     1     -10.033  12.650  67.890  1.00  0.00    -0.228 C  
BRANCH  17  18
HETATM   18  N   UNL     1      -9.351  13.506  66.911  1.00  0.00    -0.246 NA 
HETATM   19  C   UNL     1     -10.284  14.214  66.000  1.00  0.00    -0.308 C  
HETATM   20  C   UNL     1     -11.123  15.343  66.649  1.00  0.00    -0.236 C  
HETATM   21  N   UNL     1     -10.251  16.286  67.358  1.00  0.00    -0.269 NA 
HETATM   22  C   UNL     1      -8.517  14.535  67.590  1.00  0.00    -0.182 C  
HETATM   23  C   UNL     1      -9.304  15.668  68.301  1.00  0.00    -0.192 C  
BRANCH  21  24
HETATM   24  C   UNL     1     -10.626  17.623  67.527  1.00  0.00    -0.343 A  
HETATM   25  C   UNL     1     -10.141  18.735  66.757  1.00  0.00    -0.409 A  
HETATM   26  C   UNL     1      -9.357  18.797  65.543  1.00  0.00     0.973 A  
HETATM   27  C   UNL     1      -9.040  20.073  65.144  1.00  0.00     1.308 A  
HETATM   28  S   UNL     1      -9.721  21.240  66.171  1.00  0.00     2.709 SA 
HETATM   29  C   UNL     1     -10.462  20.038  67.165  1.00  0.00    -0.377 A  
HETATM   30  C   UNL     1     -11.285  20.298  68.274  1.00  0.00     1.098 A  
HETATM   31  C   UNL     1     -11.808  19.226  68.980  1.00  0.00     5.080 A  
HETATM   32  C   UNL     1     -11.482  17.927  68.613  1.00  0.00     1.485 A  
ENDBRANCH  21  24
ENDBRANCH  17  18
ENDBRANCH  16  17
ENDBRANCH  15  16
ENDBRANCH  14  15
ENDBRANCH  13  14
ENDBRANCH   7  13
TORSDOF 7
ENDMDL
MODEL      344
REMARK 921   NORMALIZED FREE ENERGY PREDICTED BY IDOCK:   26.60 KCAL/MOL
REMARK 922        TOTAL FREE ENERGY PREDICTED BY IDOCK:   36.18 KCAL/MOL
REMARK 923 INTER-LIGAND FREE ENERGY PREDICTED BY IDOCK:    0.45 KCAL/MOL
REMARK 924 INTRA-LIGAND FREE ENERGY PREDICTED BY IDOCK:   35.72 KCAL/MOL
REMARK 927      BINDING AFFINITY PREDICTED BY RF-SCORE:    0.00 PKD
ROOT
HETATM    1  O   UNL     1     -13.299  16.366  71.369  1.00  0.00     0.564 OA 
HETATM    2  C   UNL     1     -12.905  15.210  71.259  1.00  0.00    -0.391 C  
HETATM    3  N   UNL     1     -12.380  14.720  70.095  1.00  0.00    -0.369 N  
HETATM    4  C   UNL     1     -11.953  13.394  69.938  1.00  0.00    -0.338 A  
HETATM    5  H   UNL     1     -12.296  15.352  69.299  1.00  0.00     0.000 HD 
HETATM    6  C   UNL     1     -11.447  12.964  68.712  1.00  0.00    -0.345 A  
HETATM    7  C   UNL     1     -11.047  11.635  68.555  1.00  0.00    -0.235 A  
HETATM    8  C   UNL     1     -12.979  14.273  72.407  1.00  0.00    -0.478 C  
HETATM    9  C   UNL     1     -11.160  10.750  69.635  1.00  0.00    -0.339 A  
HETATM   10  C   UNL     1     -12.577  13.001  72.297  1.00  0.00     0.125 C  
HETATM   11  C   UNL     1     -11.659  11.185  70.865  1.00  0.00     0.086 A  
HETATM   12  C   UNL     1     -12.054  12.512  71.023  1.00  0.00    -0.017 A  
ENDROOT
BRANCH   7  13
HETATM   13  O   UNL     1     -10.563  11.319  67.310  1.00  0.00    -0.210 OA 
BRANCH  13  14
HETATM   14  C   UNL     1      -9.781  12.337  66.685  1.00  0.00    -0.222 C  
BRANCH  14  15
HETATM   15  C   UNL     1      -9.165  11.802  65.397  1.00  0.00    -0.023 C  
BRANCH  15  16
HETATM   16  C   UNL     1     -10.212  11.136  64.499  1.00  0.00    -0.383 C  
BRANCH  16  17
HETATM   17  C   UNL     1     -11.594  10.931  65.145  1.00  0.00     0.885 C  
BRANCH  17  18
HETATM   18  N   UNL     1     -11.637   9.884  66.173  1.00  0.00     1.697 NA 
HETATM   19  C   UNL     1     -10.765   8.723  65.867  1.00  0.00     1.662 C  
HETATM   20  C   UNL     1      -9.242   8.988  65.967  1.00  0.00    -0.226 C  
HETATM   21  N   UNL     1      -8.910   9.577  67.269  1.00  0.00    -0.128 NA 
HETATM   22  C   UNL     1     -11.226  10.420  67.499  1.00  0.00    -0.179 C  
HETATM   23  C   UNL     1      -9.716  10.750  67.644  1.00  0.00    -0.166 C  
BRANCH  21  24
HETATM   24  C   UNL     1      -7.645   9.392  67.838  1.00  0.00    -0.087 A  
HETATM   25  C   UNL     1      -7.037   8.126  68.140  1.00  0.00    -0.082 A  
HETATM   26  C   UNL     1      -7.405   6.772  67.787  1.00  0.00    -0.096 A  
HETATM   27  C   UNL     1      -6.588   5.809  68.326  1.00  0.00    -0.052 A  
HETATM   28  S   UNL     1      -5.317   6.492  69.219  1.00  0.00    -0.014 SA 
HETATM   29  C   UNL     1      -5.848   8.100  68.883  1.00  0.00    -0.035 A  
HETATM   30  C   UNL     1      -5.198   9.274  69.303  1.00  0.00    -0.036 A  
HETATM   31  C   UNL     1      -5.747  10.498  68.957  1.00  0.00    -0.040 A  
HETATM   32  C   UNL     1      -6.940  10.550  68.247  1.00  0.00    -0.073 A  
ENDBRANCH  21  24
ENDBRANCH  17  18
ENDBRANCH  16  17
ENDBRANCH  15  16
ENDBRANCH  14  15
ENDBRANCH  13  14
ENDBRANCH   7  13
TORSDOF 7
ENDMDL
