MODEL        1
REMARK 921   NORMALIZED FREE ENERGY PREDICTED BY IDOCK:   -7.41 KCAL/MOL
REMARK 922        TOTAL FREE ENERGY PREDICTED BY IDOCK:  -11.75 KCAL/MOL
REMARK 923 INTER-LIGAND FREE ENERGY PREDICTED BY IDOCK:  -10.44 KCAL/MOL
REMARK 924 INTRA-LIGAND FREE ENERGY PREDICTED BY IDOCK:   -1.31 KCAL/MOL
REMARK 927      BINDING AFFINITY PREDICTED BY RF-SCORE:    0.00 PKD
ROOT
HETATM    1  C   UNL     1     -14.340  14.607  71.942  1.00  0.00    -0.571 C  
HETATM    2  O   UNL     1     -13.147  13.835  71.968  1.00  0.00    -0.360 OA 
ENDROOT
BRANCH   2   3
HETATM    3  C   UNL     1     -12.394  13.721  70.814  1.00  0.00    -0.379 A  
HETATM    4  C   UNL     1     -11.774  14.808  70.143  1.00  0.00    -0.352 A  
HETATM    5  C   UNL     1     -11.031  14.650  68.954  1.00  0.00    -0.253 A  
HETATM    6  C   UNL     1     -10.940  13.317  68.492  1.00  0.00    -0.291 A  
HETATM    7  C   UNL     1     -12.276  12.383  70.340  1.00  0.00    -0.287 A  
HETATM    8  C   UNL     1     -11.545  12.213  69.171  1.00  0.00    -0.374 A  
BRANCH   5   9
HETATM    9  N   UNL     1     -10.392  15.736  68.339  1.00  0.00    -0.229 NA 
HETATM   10  C   UNL     1      -9.376  15.439  67.309  1.00  0.00    -0.210 C  
HETATM   11  C   UNL     1      -9.350  16.580  66.288  1.00  0.00    -0.334 C  
HETATM   12  C   UNL     1      -9.024  17.963  66.900  1.00  0.00    -0.257 C  
HETATM   13  C   UNL     1      -9.991  18.169  68.096  1.00  0.00    -0.368 C  
HETATM   14  C   UNL     1     -10.051  16.975  69.073  1.00  0.00    -0.290 C  
BRANCH  12  15
HETATM   15  N   UNL     1      -7.617  18.242  67.310  1.00  0.00    -0.216 NA 
HETATM   16  C   UNL     1      -6.631  18.357  66.214  1.00  0.00    -0.220 C  
HETATM   17  C   UNL     1      -5.328  21.239  66.524  1.00  0.00    -0.250 C  
HETATM   18  C   UNL     1      -7.520  19.507  68.101  1.00  0.00    -0.300 C  
HETATM   19  C   UNL     1      -6.738  19.642  65.355  1.00  0.00    -0.288 C  
HETATM   20  C   UNL     1      -7.603  20.823  67.271  1.00  0.00    -0.305 C  
HETATM   21  N   UNL     1      -6.691  20.904  66.116  1.00  0.00    -0.190 NA 
ENDBRANCH  12  15
ENDBRANCH   5   9
BRANCH   7  22
HETATM   22  N   UNL     1     -12.878  11.351  71.116  1.00  0.00    -0.371 NA 
HETATM   23  H   UNL     1     -13.675  11.725  71.631  1.00  0.00     0.000 HD 
BRANCH  22  24
HETATM   24  C   UNL     1     -12.725   9.984  71.399  1.00  0.00    -0.415 A  
HETATM   25 CL   UNL     1     -11.998   5.683  72.306  1.00  0.00    -0.183 Cl 
HETATM   26  C   UNL     1     -11.137   8.212  71.652  1.00  0.00    -0.255 A  
HETATM   27  C   UNL     1     -13.484   7.887  71.915  1.00  0.00    -0.286 A  
HETATM   28  N   UNL     1     -13.766   9.185  71.662  1.00  0.00    -0.387 NA 
HETATM   29  C   UNL     1     -12.203   7.343  71.913  1.00  0.00    -0.310 A  
HETATM   30  N   UNL     1     -11.425   9.526  71.392  1.00  0.00    -0.370 NA 
BRANCH  26  31
HETATM   31  N   UNL     1      -9.731   7.665  71.580  1.00  0.00    -0.160 NA 
HETATM   32  H   UNL     1      -9.455   7.065  72.356  1.00  0.00     0.000 HD 
BRANCH  31  33
HETATM   33  C   UNL     1      -8.689   7.879  70.538  1.00  0.00    -0.136 A  
HETATM   34  C   UNL     1      -8.040   9.119  70.622  1.00  0.00    -0.198 A  
HETATM   35  C   UNL     1      -7.011   9.448  69.756  1.00  0.00    -0.065 A  
HETATM   36  C   UNL     1      -6.579   8.522  68.799  1.00  0.00    -0.054 A  
HETATM   37  C   UNL     1      -7.165   7.249  68.656  1.00  0.00    -0.090 A  
HETATM   38  C   UNL     1      -8.223   6.867  69.484  1.00  0.00    -0.131 A  
HETATM   39  P   UNL     1      -9.029   5.243  69.233  1.00  0.00    -0.108 P  
HETATM   40  C   UNL     1      -8.831   4.801  71.057  1.00  0.00    -0.117 C  
HETATM   41  O   UNL     1      -9.710   3.869  69.021  1.00  0.00    -0.164 OA 
HETATM   42  C   UNL     1     -10.682   6.122  68.933  1.00  0.00    -0.312 C  
ENDBRANCH  31  33
ENDBRANCH  26  31
ENDBRANCH  22  24
ENDBRANCH   7  22
ENDBRANCH   2   3
TORSDOF 7
ENDMDL
MODEL        2
REMARK 921   NORMALIZED FREE ENERGY PREDICTED BY IDOCK:   -7.35 KCAL/MOL
REMARK 922        TOTAL FREE ENERGY PREDICTED BY IDOCK:  -11.66 KCAL/MOL
REMARK 923 INTER-LIGAND FREE ENERGY PREDICTED BY IDOCK:  -10.16 KCAL/MOL
REMARK 924 INTRA-LIGAND FREE ENERGY PREDICTED BY IDOCK:   -1.51 KCAL/MOL
REMARK 927      BINDING AFFINITY PREDICTED BY RF-SCORE:    0.00 PKD
ROOT
HETATM    1  C   UNL     1     -13.630  13.095  72.299  1.00  0.00    -0.581 C  
HETATM    2  O   UNL     1     -12.976  11.954  71.757  1.00  0.00    -0.414 OA 
ENDROOT
BRANCH   2   3
HETATM    3  C   UNL     1     -12.306  12.073  70.553  1.00  0.00    -0.282 A  
HETATM    4  C   UNL     1     -11.834  13.296  70.007  1.00  0.00    -0.365 A  
HETATM    5  C   UNL     1     -11.172  13.375  68.765  1.00  0.00    -0.275 A  
HETATM    6  C   UNL     1     -11.002  12.133  68.111  1.00  0.00    -0.271 A  
HETATM    7  C   UNL     1     -12.110  10.830  69.885  1.00  0.00    -0.337 A  
HETATM    8  C   UNL     1     -11.457  10.893  68.660  1.00  0.00    -0.380 A  
BRANCH   5   9
HETATM    9  N   UNL     1     -10.676  14.591  68.273  1.00  0.00    -0.236 NA 
HETATM   10  C   UNL     1      -9.443  14.550  67.462  1.00  0.00    -0.203 C  
HETATM   11  C   UNL     1      -9.469  15.702  66.453  1.00  0.00    -0.321 C  
HETATM   12  C   UNL     1      -9.571  17.103  67.102  1.00  0.00    -0.255 C  
HETATM   13  C   UNL     1     -10.770  17.060  68.087  1.00  0.00    -0.374 C  
HETATM   14  C   UNL     1     -10.756  15.851  69.047  1.00  0.00    -0.251 C  
BRANCH  12  15
HETATM   15  N   UNL     1      -8.362  17.663  67.773  1.00  0.00    -0.222 NA 
HETATM   16  C   UNL     1      -7.140  17.747  66.944  1.00  0.00    -0.185 C  
HETATM   17  C   UNL     1      -6.287  20.809  66.977  1.00  0.00    -0.272 C  
HETATM   18  C   UNL     1      -8.615  19.040  68.296  1.00  0.00    -0.331 C  
HETATM   19  C   UNL     1      -7.156  18.841  65.847  1.00  0.00    -0.255 C  
HETATM   20  C   UNL     1      -8.619  20.171  67.225  1.00  0.00    -0.343 C  
HETATM   21  N   UNL     1      -7.448  20.202  66.329  1.00  0.00    -0.283 NA 
ENDBRANCH  12  15
ENDBRANCH   5   9
BRANCH   7  22
HETATM   22  N   UNL     1     -12.561   9.648  70.540  1.00  0.00    -0.503 NA 
HETATM   23  H   UNL     1     -13.559   9.722  70.739  1.00  0.00     0.000 HD 
BRANCH  22  24
HETATM   24  C   UNL     1     -12.073   8.415  71.000  1.00  0.00    -0.198 A  
HETATM   25 CL   UNL     1     -10.346   4.515  72.288  1.00  0.00    -0.255 Cl 
HETATM   26  C   UNL     1     -10.517   6.650  70.563  1.00  0.00    -0.203 A  
HETATM   27  C   UNL     1     -11.981   6.641  72.444  1.00  0.00    -0.146 A  
HETATM   28  N   UNL     1     -12.533   7.831  72.112  1.00  0.00    -0.275 NA 
HETATM   29  C   UNL     1     -10.988   6.000  71.710  1.00  0.00    -0.269 A  
HETATM   30  N   UNL     1     -11.080   7.853  70.226  1.00  0.00    -0.252 NA 
BRANCH  26  31
HETATM   31  N   UNL     1      -9.481   5.974  69.696  1.00  0.00    -0.143 NA 
HETATM   32  H   UNL     1      -9.471   4.956  69.740  1.00  0.00     0.000 HD 
BRANCH  31  33
HETATM   33  C   UNL     1      -8.471   6.583  68.787  1.00  0.00    -0.122 A  
HETATM   34  C   UNL     1      -7.562   7.436  69.429  1.00  0.00    -0.096 A  
HETATM   35  C   UNL     1      -6.530   8.039  68.729  1.00  0.00    -0.049 A  
HETATM   36  C   UNL     1      -6.361   7.773  67.365  1.00  0.00    -0.055 A  
HETATM   37  C   UNL     1      -7.221   6.919  66.646  1.00  0.00    -0.076 A  
HETATM   38  C   UNL     1      -8.294   6.299  67.290  1.00  0.00    -0.109 A  
HETATM   39  P   UNL     1      -9.448   5.257  66.326  1.00  0.00    -0.164 P  
HETATM   40  C   UNL     1      -9.262   3.827  67.544  1.00  0.00    -0.182 C  
HETATM   41  O   UNL     1     -10.425   4.375  65.511  1.00  0.00    -0.265 OA 
HETATM   42  C   UNL     1     -10.880   6.390  66.839  1.00  0.00    -0.357 C  
ENDBRANCH  31  33
ENDBRANCH  26  31
ENDBRANCH  22  24
ENDBRANCH   7  22
ENDBRANCH   2   3
TORSDOF 7
ENDMDL
MODEL        3
REMARK 921   NORMALIZED FREE ENERGY PREDICTED BY IDOCK:   -7.33 KCAL/MOL
REMARK 922        TOTAL FREE ENERGY PREDICTED BY IDOCK:  -11.65 KCAL/MOL
REMARK 923 INTER-LIGAND FREE ENERGY PREDICTED BY IDOCK:  -10.40 KCAL/MOL
REMARK 924 INTRA-LIGAND FREE ENERGY PREDICTED BY IDOCK:   -1.24 KCAL/MOL
REMARK 927      BINDING AFFINITY PREDICTED BY RF-SCORE:    0.00 PKD
ROOT
HETATM    1  C   UNL     1     -13.967  15.208  72.404  1.00  0.00    -0.516 C  
HETATM    2  O   UNL     1     -12.966  14.204  72.294  1.00  0.00    -0.358 OA 
ENDROOT
BRANCH   2   3
HETATM    3  C   UNL     1     -12.195  14.147  71.148  1.00  0.00    -0.358 A  
HETATM    4  C   UNL     1     -11.415  15.221  70.644  1.00  0.00    -0.353 A  
HETATM    5  C   UNL     1     -10.657  15.128  69.459  1.00  0.00    -0.270 A  
HETATM    6  C   UNL     1     -10.724  13.868  68.819  1.00  0.00    -0.278 A  
HETATM    7  C   UNL     1     -12.235  12.881  70.496  1.00  0.00    -0.314 A  
HETATM    8  C   UNL     1     -11.491  12.774  69.327  1.00  0.00    -0.349 A  
BRANCH   5   9
HETATM    9  N   UNL     1      -9.860  16.191  69.010  1.00  0.00    -0.233 NA 
HETATM   10  C   UNL     1     -10.542  17.349  68.400  1.00  0.00    -0.355 C  
HETATM   11  C   UNL     1      -9.715  18.611  68.661  1.00  0.00    -0.418 C  
HETATM   12  C   UNL     1      -8.277  18.547  68.095  1.00  0.00    -0.295 C  
HETATM   13  C   UNL     1      -7.645  17.226  68.609  1.00  0.00    -0.260 C  
HETATM   14  C   UNL     1      -8.530  15.979  68.396  1.00  0.00    -0.180 C  
BRANCH  12  15
HETATM   15  N   UNL     1      -8.089  18.679  66.621  1.00  0.00    -0.262 NA 
HETATM   16  C   UNL     1      -8.074  20.059  66.088  1.00  0.00    -0.279 C  
HETATM   17  C   UNL     1      -5.287  20.376  64.595  1.00  0.00    -0.177 C  
HETATM   18  C   UNL     1      -6.814  18.039  66.173  1.00  0.00    -0.277 C  
HETATM   19  C   UNL     1      -6.807  20.886  66.421  1.00  0.00    -0.172 C  
HETATM   20  C   UNL     1      -5.518  18.849  66.471  1.00  0.00    -0.153 C  
HETATM   21  N   UNL     1      -5.533  20.256  66.030  1.00  0.00    -0.171 NA 
ENDBRANCH  12  15
ENDBRANCH   5   9
BRANCH   7  22
HETATM   22  N   UNL     1     -12.993  11.844  71.111  1.00  0.00    -0.250 NA 
HETATM   23  H   UNL     1     -13.886  12.215  71.439  1.00  0.00     0.000 HD 
BRANCH  22  24
HETATM   24  C   UNL     1     -12.907  10.476  71.412  1.00  0.00    -0.447 A  
HETATM   25 CL   UNL     1     -12.395   6.138  72.291  1.00  0.00    -0.237 Cl 
HETATM   26  C   UNL     1     -11.524   8.528  71.247  1.00  0.00    -0.277 A  
HETATM   27  C   UNL     1     -13.679   8.497  72.267  1.00  0.00    -0.336 A  
HETATM   28  N   UNL     1     -13.885   9.815  72.041  1.00  0.00    -0.254 NA 
HETATM   29  C   UNL     1     -12.535   7.802  71.887  1.00  0.00    -0.314 A  
HETATM   30  N   UNL     1     -11.737   9.862  71.015  1.00  0.00    -0.351 NA 
BRANCH  26  31
HETATM   31  N   UNL     1     -10.286   7.813  70.761  1.00  0.00    -0.202 NA 
HETATM   32  H   UNL     1      -9.572   7.645  71.468  1.00  0.00     0.000 HD 
BRANCH  31  33
HETATM   33  C   UNL     1      -9.959   7.317  69.395  1.00  0.00    -0.170 A  
HETATM   34  C   UNL     1     -11.022   6.669  68.751  1.00  0.00    -0.322 A  
HETATM   35  C   UNL     1     -10.893   6.197  67.455  1.00  0.00    -0.422 A  
HETATM   36  C   UNL     1      -9.696   6.395  66.755  1.00  0.00    -0.199 A  
HETATM   37  C   UNL     1      -8.584   7.047  67.322  1.00  0.00    -0.121 A  
HETATM   38  C   UNL     1      -8.644   7.526  68.633  1.00  0.00    -0.129 A  
HETATM   39  P   UNL     1      -7.166   8.299  69.384  1.00  0.00    -0.061 P  
HETATM   40  C   UNL     1      -8.157   9.819  69.905  1.00  0.00    -0.182 C  
HETATM   41  O   UNL     1      -5.914   8.954  70.018  1.00  0.00    -0.030 OA 
HETATM   42  C   UNL     1      -7.187   6.985  70.751  1.00  0.00    -0.071 C  
ENDBRANCH  31  33
ENDBRANCH  26  31
ENDBRANCH  22  24
ENDBRANCH   7  22
ENDBRANCH   2   3
TORSDOF 7
ENDMDL
MODEL        4
REMARK 921   NORMALIZED FREE ENERGY PREDICTED BY IDOCK:   -7.26 KCAL/MOL
REMARK 922        TOTAL FREE ENERGY PREDICTED BY IDOCK:  -11.54 KCAL/MOL
REMARK 923 INTER-LIGAND FREE ENERGY PREDICTED BY IDOCK:  -10.10 KCAL/MOL
REMARK 924 INTRA-LIGAND FREE ENERGY PREDICTED BY IDOCK:   -1.44 KCAL/MOL
REMARK 927      BINDING AFFINITY PREDICTED BY RF-SCORE:    0.00 PKD
ROOT
HETATM    1  C   UNL     1     -12.771  14.992  73.415  1.00  0.00    -0.530 C  
HETATM    2  O   UNL     1     -13.069  14.036  72.405  1.00  0.00    -0.405 OA 
ENDROOT
BRANCH   2   3
HETATM    3  C   UNL     1     -12.288  13.998  71.264  1.00  0.00    -0.355 A  
HETATM    4  C   UNL     1     -11.531  15.092  70.766  1.00  0.00    -0.350 A  
HETATM    5  C   UNL     1     -10.763  15.018  69.586  1.00  0.00    -0.257 A  
HETATM    6  C   UNL     1     -10.796  13.758  68.944  1.00  0.00    -0.268 A  
HETATM    7  C   UNL     1     -12.294  12.733  70.610  1.00  0.00    -0.297 A  
HETATM    8  C   UNL     1     -11.540  12.645  69.446  1.00  0.00    -0.369 A  
BRANCH   5   9
HETATM    9  N   UNL     1      -9.989  16.100  69.144  1.00  0.00    -0.238 NA 
HETATM   10  C   UNL     1     -10.666  17.155  68.365  1.00  0.00    -0.347 C  
HETATM   11  C   UNL     1      -9.960  18.491  68.612  1.00  0.00    -0.419 C  
HETATM   12  C   UNL     1      -8.463  18.492  68.221  1.00  0.00    -0.318 C  
HETATM   13  C   UNL     1      -7.814  17.264  68.913  1.00  0.00    -0.206 C  
HETATM   14  C   UNL     1      -8.584  15.942  68.706  1.00  0.00    -0.212 C  
BRANCH  12  15
HETATM   15  N   UNL     1      -8.109  18.525  66.772  1.00  0.00    -0.246 NA 
HETATM   16  C   UNL     1      -8.305  19.820  66.085  1.00  0.00    -0.345 C  
HETATM   17  C   UNL     1      -5.466  20.599  64.887  1.00  0.00    -0.194 C  
HETATM   18  C   UNL     1      -6.682  18.140  66.549  1.00  0.00    -0.212 C  
HETATM   19  C   UNL     1      -7.291  20.931  66.458  1.00  0.00    -0.016 C  
HETATM   20  C   UNL     1      -5.632  19.237  66.894  1.00  0.00    -0.166 C  
HETATM   21  N   UNL     1      -5.874  20.560  66.290  1.00  0.00    -0.181 NA 
ENDBRANCH  12  15
ENDBRANCH   5   9
BRANCH   7  22
HETATM   22  N   UNL     1     -13.032  11.678  71.219  1.00  0.00    -0.338 NA 
HETATM   23  H   UNL     1     -13.919  12.035  71.574  1.00  0.00     0.000 HD 
BRANCH  22  24
HETATM   24  C   UNL     1     -12.929  10.304  71.487  1.00  0.00    -0.453 A  
HETATM   25 CL   UNL     1     -12.358   5.964  72.324  1.00  0.00    -0.132 Cl 
HETATM   26  C   UNL     1     -11.424   8.446  71.593  1.00  0.00    -0.287 A  
HETATM   27  C   UNL     1     -13.751   8.248  72.071  1.00  0.00    -0.337 A  
HETATM   28  N   UNL     1     -13.984   9.561  71.845  1.00  0.00    -0.235 NA 
HETATM   29  C   UNL     1     -12.507   7.635  71.951  1.00  0.00    -0.308 A  
HETATM   30  N   UNL     1     -11.662   9.775  71.361  1.00  0.00    -0.390 NA 
BRANCH  26  31
HETATM   31  N   UNL     1     -10.062   7.824  71.392  1.00  0.00    -0.181 NA 
HETATM   32  H   UNL     1      -9.987   7.183  70.603  1.00  0.00     0.000 HD 
BRANCH  31  33
HETATM   33  C   UNL     1      -8.814   8.013  72.182  1.00  0.00    -0.159 A  
HETATM   34  C   UNL     1      -9.001   7.960  73.571  1.00  0.00    -0.343 A  
HETATM   35  C   UNL     1      -7.930   8.066  74.442  1.00  0.00    -0.299 A  
HETATM   36  C   UNL     1      -6.630   8.195  73.938  1.00  0.00    -0.138 A  
HETATM   37  C   UNL     1      -6.351   8.243  72.558  1.00  0.00    -0.079 A  
HETATM   38  C   UNL     1      -7.391   8.164  71.630  1.00  0.00    -0.083 A  
HETATM   39  P   UNL     1      -7.023   8.309  69.843  1.00  0.00    -0.044 P  
HETATM   40  C   UNL     1      -7.976   6.724  69.461  1.00  0.00    -0.125 C  
HETATM   41  O   UNL     1      -6.711   8.431  68.331  1.00  0.00    -0.061 OA 
HETATM   42  C   UNL     1      -8.167   9.818  69.742  1.00  0.00    -0.173 C  
ENDBRANCH  31  33
ENDBRANCH  26  31
ENDBRANCH  22  24
ENDBRANCH   7  22
ENDBRANCH   2   3
TORSDOF 7
ENDMDL
MODEL        5
REMARK 921   NORMALIZED FREE ENERGY PREDICTED BY IDOCK:   -7.25 KCAL/MOL
REMARK 922        TOTAL FREE ENERGY PREDICTED BY IDOCK:  -11.53 KCAL/MOL
REMARK 923 INTER-LIGAND FREE ENERGY PREDICTED BY IDOCK:  -10.33 KCAL/MOL
REMARK 924 INTRA-LIGAND FREE ENERGY PREDICTED BY IDOCK:   -1.20 KCAL/MOL
REMARK 927      BINDING AFFINITY PREDICTED BY RF-SCORE:    0.00 PKD
ROOT
HETATM    1  C   UNL     1     -13.721  13.225  72.252  1.00  0.00    -0.589 C  
HETATM    2  O   UNL     1     -13.108  12.075  71.683  1.00  0.00    -0.427 OA 
ENDROOT
BRANCH   2   3
HETATM    3  C   UNL     1     -12.392  12.208  70.507  1.00  0.00    -0.272 A  
HETATM    4  C   UNL     1     -11.928  13.442  69.978  1.00  0.00    -0.407 A  
HETATM    5  C   UNL     1     -11.218  13.536  68.763  1.00  0.00    -0.274 A  
HETATM    6  C   UNL     1     -10.990  12.296  68.120  1.00  0.00    -0.269 A  
HETATM    7  C   UNL     1     -12.137  10.970  69.851  1.00  0.00    -0.361 A  
HETATM    8  C   UNL     1     -11.437  11.047  68.654  1.00  0.00    -0.375 A  
BRANCH   5   9
HETATM    9  N   UNL     1     -10.733  14.763  68.289  1.00  0.00    -0.238 NA 
HETATM   10  C   UNL     1      -9.581  14.734  67.366  1.00  0.00    -0.210 C  
HETATM   11  C   UNL     1      -9.664  15.937  66.423  1.00  0.00    -0.310 C  
HETATM   12  C   UNL     1      -9.665  17.304  67.147  1.00  0.00    -0.259 C  
HETATM   13  C   UNL     1     -10.770  17.240  68.236  1.00  0.00    -0.349 C  
HETATM   14  C   UNL     1     -10.704  15.982  69.129  1.00  0.00    -0.272 C  
BRANCH  12  15
HETATM   15  N   UNL     1      -8.383  17.797  67.730  1.00  0.00    -0.231 NA 
HETATM   16  C   UNL     1      -7.276  18.014  66.774  1.00  0.00    -0.208 C  
HETATM   17  C   UNL     1      -6.440  21.063  67.102  1.00  0.00    -0.342 C  
HETATM   18  C   UNL     1      -8.575  19.090  68.457  1.00  0.00    -0.358 C  
HETATM   19  C   UNL     1      -7.435  19.240  65.840  1.00  0.00    -0.260 C  
HETATM   20  C   UNL     1      -8.720  20.350  67.552  1.00  0.00    -0.278 C  
HETATM   21  N   UNL     1      -7.671  20.521  66.530  1.00  0.00    -0.186 NA 
ENDBRANCH  12  15
ENDBRANCH   5   9
BRANCH   7  22
HETATM   22  N   UNL     1     -12.585   9.778  70.491  1.00  0.00    -0.512 NA 
HETATM   23  H   UNL     1     -13.603   9.724  70.447  1.00  0.00     0.000 HD 
BRANCH  22  24
HETATM   24  C   UNL     1     -12.075   8.656  71.162  1.00  0.00    -0.260 A  
HETATM   25 CL   UNL     1     -10.377   5.007  73.074  1.00  0.00    -0.215 Cl 
HETATM   26  C   UNL     1     -11.082   6.497  70.873  1.00  0.00    -0.292 A  
HETATM   27  C   UNL     1     -11.529   7.433  73.019  1.00  0.00    -0.162 A  
HETATM   28  N   UNL     1     -12.042   8.571  72.497  1.00  0.00    -0.375 NA 
HETATM   29  C   UNL     1     -11.049   6.366  72.266  1.00  0.00    -0.265 A  
HETATM   30  N   UNL     1     -11.605   7.649  70.345  1.00  0.00    -0.182 NA 
BRANCH  26  31
HETATM   31  N   UNL     1     -10.627   5.348  70.005  1.00  0.00    -0.309 NA 
HETATM   32  H   UNL     1     -10.737   4.421  70.415  1.00  0.00     0.000 HD 
BRANCH  31  33
HETATM   33  C   UNL     1     -10.041   5.374  68.637  1.00  0.00    -0.179 A  
HETATM   34  C   UNL     1     -10.774   6.134  67.714  1.00  0.00    -0.382 A  
HETATM   35  C   UNL     1     -10.332   6.300  66.412  1.00  0.00    -0.072 A  
HETATM   36  C   UNL     1      -9.118   5.731  66.008  1.00  0.00    -0.163 A  
HETATM   37  C   UNL     1      -8.313   4.965  66.874  1.00  0.00    -0.106 A  
HETATM   38  C   UNL     1      -8.716   4.743  68.192  1.00  0.00    -0.102 A  
HETATM   39  P   UNL     1      -7.701   3.679  69.282  1.00  0.00    -0.051 P  
HETATM   40  C   UNL     1      -7.664   4.999  70.631  1.00  0.00    -0.074 C  
HETATM   41  O   UNL     1      -6.842   2.779  70.204  1.00  0.00    -0.033 OA 
HETATM   42  C   UNL     1      -9.186   2.523  69.517  1.00  0.00    -0.123 C  
ENDBRANCH  31  33
ENDBRANCH  26  31
ENDBRANCH  22  24
ENDBRANCH   7  22
ENDBRANCH   2   3
TORSDOF 7
ENDMDL
MODEL        6
REMARK 921   NORMALIZED FREE ENERGY PREDICTED BY IDOCK:   -7.19 KCAL/MOL
REMARK 922        TOTAL FREE ENERGY PREDICTED BY IDOCK:  -11.44 KCAL/MOL
REMARK 923 INTER-LIGAND FREE ENERGY PREDICTED BY IDOCK:  -10.23 KCAL/MOL
REMARK 924 INTRA-LIGAND FREE ENERGY PREDICTED BY IDOCK:   -1.21 KCAL/MOL
REMARK 927      BINDING AFFINITY PREDICTED BY RF-SCORE:    0.00 PKD
ROOT
HETATM    1  C   UNL     1     -13.527  13.149  72.403  1.00  0.00    -0.543 C  
HETATM    2  O   UNL     1     -13.086  11.983  71.719  1.00  0.00    -0.445 OA 
ENDROOT
BRANCH   2   3
HETATM    3  C   UNL     1     -12.406  12.121  70.522  1.00  0.00    -0.272 A  
HETATM    4  C   UNL     1     -11.974  13.360  69.977  1.00  0.00    -0.407 A  
HETATM    5  C   UNL     1     -11.302  13.459  68.742  1.00  0.00    -0.292 A  
HETATM    6  C   UNL     1     -11.078  12.222  68.095  1.00  0.00    -0.285 A  
HETATM    7  C   UNL     1     -12.157  10.885  69.862  1.00  0.00    -0.354 A  
HETATM    8  C   UNL     1     -11.493  10.968  68.643  1.00  0.00    -0.375 A  
BRANCH   5   9
HETATM    9  N   UNL     1     -10.845  14.691  68.251  1.00  0.00    -0.239 NA 
HETATM   10  C   UNL     1     -10.071  14.684  66.995  1.00  0.00    -0.249 C  
HETATM   11  C   UNL     1     -10.303  16.004  66.255  1.00  0.00    -0.330 C  
HETATM   12  C   UNL     1      -9.894  17.258  67.065  1.00  0.00    -0.281 C  
HETATM   13  C   UNL     1     -10.582  17.147  68.451  1.00  0.00    -0.371 C  
HETATM   14  C   UNL     1     -10.390  15.781  69.144  1.00  0.00    -0.240 C  
BRANCH  12  15
HETATM   15  N   UNL     1      -8.440  17.555  67.224  1.00  0.00    -0.211 NA 
HETATM   16  C   UNL     1      -7.807  18.311  66.121  1.00  0.00    -0.204 C  
HETATM   17  C   UNL     1      -6.584  20.921  67.459  1.00  0.00    -0.356 C  
HETATM   18  C   UNL     1      -8.174  18.328  68.475  1.00  0.00    -0.312 C  
HETATM   19  C   UNL     1      -8.202  19.806  66.029  1.00  0.00    -0.311 C  
HETATM   20  C   UNL     1      -8.539  19.841  68.416  1.00  0.00    -0.251 C  
HETATM   21  N   UNL     1      -7.992  20.582  67.264  1.00  0.00    -0.334 NA 
ENDBRANCH  12  15
ENDBRANCH   5   9
BRANCH   7  22
HETATM   22  N   UNL     1     -12.571   9.690  70.516  1.00  0.00    -0.503 NA 
HETATM   23  H   UNL     1     -13.552   9.765  70.787  1.00  0.00     0.000 HD 
BRANCH  22  24
HETATM   24  C   UNL     1     -12.062   8.441  70.908  1.00  0.00    -0.138 A  
HETATM   25 CL   UNL     1     -10.253   4.521  72.008  1.00  0.00    -0.261 Cl 
HETATM   26  C   UNL     1     -10.347   6.821  70.503  1.00  0.00    -0.201 A  
HETATM   27  C   UNL     1     -12.035   6.525  72.161  1.00  0.00    -0.290 A  
HETATM   28  N   UNL     1     -12.620   7.713  71.883  1.00  0.00    -0.314 NA 
HETATM   29  C   UNL     1     -10.915   6.025  71.504  1.00  0.00    -0.277 A  
HETATM   30  N   UNL     1     -10.943   8.023  70.220  1.00  0.00    -0.249 NA 
BRANCH  26  31
HETATM   31  N   UNL     1      -9.166   6.303  69.719  1.00  0.00    -0.145 NA 
HETATM   32  H   UNL     1      -8.296   6.218  70.243  1.00  0.00     0.000 HD 
BRANCH  31  33
HETATM   33  C   UNL     1      -9.089   5.898  68.288  1.00  0.00    -0.118 A  
HETATM   34  C   UNL     1     -10.125   5.048  67.876  1.00  0.00    -0.173 A  
HETATM   35  C   UNL     1     -10.224   4.624  66.561  1.00  0.00    -0.273 A  
HETATM   36  C   UNL     1      -9.299   5.073  65.611  1.00  0.00    -0.163 A  
HETATM   37  C   UNL     1      -8.236   5.938  65.936  1.00  0.00    -0.127 A  
HETATM   38  C   UNL     1      -8.069   6.382  67.249  1.00  0.00    -0.113 A  
HETATM   39  P   UNL     1      -6.638   7.441  67.673  1.00  0.00    -0.065 P  
HETATM   40  C   UNL     1      -7.755   8.716  68.503  1.00  0.00    -0.100 C  
HETATM   41  O   UNL     1      -5.427   8.337  68.031  1.00  0.00    -0.033 OA 
HETATM   42  C   UNL     1      -6.061   6.140  68.926  1.00  0.00    -0.028 C  
ENDBRANCH  31  33
ENDBRANCH  26  31
ENDBRANCH  22  24
ENDBRANCH   7  22
ENDBRANCH   2   3
TORSDOF 7
ENDMDL
MODEL        7
REMARK 921   NORMALIZED FREE ENERGY PREDICTED BY IDOCK:   -7.14 KCAL/MOL
REMARK 922        TOTAL FREE ENERGY PREDICTED BY IDOCK:  -11.37 KCAL/MOL
REMARK 923 INTER-LIGAND FREE ENERGY PREDICTED BY IDOCK:   -9.83 KCAL/MOL
REMARK 924 INTRA-LIGAND FREE ENERGY PREDICTED BY IDOCK:   -1.55 KCAL/MOL
REMARK 927      BINDING AFFINITY PREDICTED BY RF-SCORE:    0.00 PKD
ROOT
HETATM    1  C   UNL     1     -12.487  10.919  70.689  1.00  0.00    -0.369 C  
HETATM    2  O   UNL     1     -12.574  10.670  69.292  1.00  0.00    -0.270 OA 
ENDROOT
BRANCH   2   3
HETATM    3  C   UNL     1     -11.642  11.245  68.447  1.00  0.00    -0.308 A  
HETATM    4  C   UNL     1     -11.413  12.641  68.329  1.00  0.00    -0.356 A  
HETATM    5  C   UNL     1     -10.466  13.189  67.438  1.00  0.00    -0.242 A  
HETATM    6  C   UNL     1      -9.751  12.232  66.681  1.00  0.00    -0.229 A  
HETATM    7  C   UNL     1     -10.899  10.298  67.687  1.00  0.00    -0.307 A  
HETATM    8  C   UNL     1      -9.962  10.823  66.806  1.00  0.00    -0.249 A  
BRANCH   5   9
HETATM    9  N   UNL     1     -10.228  14.570  67.376  1.00  0.00    -0.240 NA 
HETATM   10  C   UNL     1      -9.133  15.038  66.505  1.00  0.00    -0.286 C  
HETATM   11  C   UNL     1      -9.471  16.437  65.983  1.00  0.00    -0.345 C  
HETATM   12  C   UNL     1      -9.682  17.489  67.098  1.00  0.00    -0.279 C  
HETATM   13  C   UNL     1     -10.706  16.891  68.099  1.00  0.00    -0.375 C  
HETATM   14  C   UNL     1     -10.379  15.453  68.555  1.00  0.00    -0.226 C  
BRANCH  12  15
HETATM   15  N   UNL     1      -8.483  18.004  67.822  1.00  0.00    -0.243 NA 
HETATM   16  C   UNL     1      -7.268  18.207  67.004  1.00  0.00    -0.201 C  
HETATM   17  C   UNL     1      -6.489  21.267  67.361  1.00  0.00    -0.346 C  
HETATM   18  C   UNL     1      -8.767  19.311  68.489  1.00  0.00    -0.367 C  
HETATM   19  C   UNL     1      -7.316  19.410  66.029  1.00  0.00    -0.290 C  
HETATM   20  C   UNL     1      -8.804  20.550  67.546  1.00  0.00    -0.242 C  
HETATM   21  N   UNL     1      -7.639  20.705  66.655  1.00  0.00    -0.192 NA 
ENDBRANCH  12  15
ENDBRANCH   5   9
BRANCH   7  22
HETATM   22  N   UNL     1     -11.155   8.916  67.921  1.00  0.00    -0.464 NA 
HETATM   23  H   UNL     1     -12.155   8.767  68.059  1.00  0.00     0.000 HD 
BRANCH  22  24
HETATM   24  C   UNL     1     -10.472   7.693  68.022  1.00  0.00    -0.189 A  
HETATM   25 CL   UNL     1      -8.295   3.847  68.588  1.00  0.00    -0.086 Cl 
HETATM   26  C   UNL     1      -9.273   6.248  69.506  1.00  0.00    -0.139 A  
HETATM   27  C   UNL     1      -9.647   5.717  67.212  1.00  0.00    -0.119 A  
HETATM   28  N   UNL     1     -10.331   6.862  66.983  1.00  0.00    -0.250 NA 
HETATM   29  C   UNL     1      -9.090   5.363  68.437  1.00  0.00    -0.109 A  
HETATM   30  N   UNL     1      -9.963   7.409  69.271  1.00  0.00    -0.169 NA 
BRANCH  26  31
HETATM   31  N   UNL     1      -8.642   5.942  70.844  1.00  0.00    -0.129 NA 
HETATM   32  H   UNL     1      -7.644   6.141  70.911  1.00  0.00     0.000 HD 
BRANCH  31  33
HETATM   33  C   UNL     1      -9.267   5.392  72.078  1.00  0.00    -0.137 A  
HETATM   34  C   UNL     1      -9.935   4.174  71.888  1.00  0.00    -0.253 A  
HETATM   35  C   UNL     1     -10.525   3.508  72.949  1.00  0.00    -0.239 A  
HETATM   36  C   UNL     1     -10.430   4.033  74.244  1.00  0.00    -0.283 A  
HETATM   37  C   UNL     1      -9.767   5.244  74.525  1.00  0.00    -0.193 A  
HETATM   38  C   UNL     1      -9.172   5.974  73.494  1.00  0.00    -0.131 A  
HETATM   39  P   UNL     1      -8.384   7.584  73.862  1.00  0.00    -0.233 P  
HETATM   40  C   UNL     1      -6.792   7.068  72.989  1.00  0.00    -0.069 C  
HETATM   41  O   UNL     1      -7.717   8.946  74.173  1.00  0.00    -0.404 OA 
HETATM   42  C   UNL     1      -9.570   8.428  72.646  1.00  0.00    -0.267 C  
ENDBRANCH  31  33
ENDBRANCH  26  31
ENDBRANCH  22  24
ENDBRANCH   7  22
ENDBRANCH   2   3
TORSDOF 7
ENDMDL
MODEL        8
REMARK 921   NORMALIZED FREE ENERGY PREDICTED BY IDOCK:   -7.11 KCAL/MOL
REMARK 922        TOTAL FREE ENERGY PREDICTED BY IDOCK:  -11.33 KCAL/MOL
REMARK 923 INTER-LIGAND FREE ENERGY PREDICTED BY IDOCK:  -10.09 KCAL/MOL
REMARK 924 INTRA-LIGAND FREE ENERGY PREDICTED BY IDOCK:   -1.23 KCAL/MOL
REMARK 927      BINDING AFFINITY PREDICTED BY RF-SCORE:    0.00 PKD
ROOT
HETATM    1  C   UNL     1      -8.966  10.008  63.033  1.00  0.00    -0.260 C  
HETATM    2  O   UNL     1      -8.932   9.245  64.233  1.00  0.00    -0.193 OA 
ENDROOT
BRANCH   2   3
HETATM    3  C   UNL     1      -9.474   9.782  65.386  1.00  0.00    -0.269 A  
HETATM    4  C   UNL     1      -9.622  11.172  65.639  1.00  0.00    -0.259 A  
HETATM    5  C   UNL     1     -10.162  11.679  66.839  1.00  0.00    -0.214 A  
HETATM    6  C   UNL     1     -10.560  10.688  67.767  1.00  0.00    -0.275 A  
HETATM    7  C   UNL     1      -9.896   8.801  66.328  1.00  0.00    -0.272 A  
HETATM    8  C   UNL     1     -10.432   9.287  67.515  1.00  0.00    -0.338 A  
BRANCH   5   9
HETATM    9  N   UNL     1     -10.339  13.055  67.041  1.00  0.00    -0.246 NA 
HETATM   10  C   UNL     1     -10.259  13.937  65.861  1.00  0.00    -0.315 C  
HETATM   11  C   UNL     1     -11.157  15.158  66.086  1.00  0.00    -0.311 C  
HETATM   12  C   UNL     1     -10.782  15.990  67.335  1.00  0.00    -0.306 C  
HETATM   13  C   UNL     1     -10.697  15.004  68.530  1.00  0.00    -0.244 C  
HETATM   14  C   UNL     1      -9.843  13.748  68.252  1.00  0.00    -0.232 C  
BRANCH  12  15
HETATM   15  N   UNL     1      -9.562  16.847  67.275  1.00  0.00    -0.242 NA 
HETATM   16  C   UNL     1      -9.443  17.727  66.093  1.00  0.00    -0.159 C  
HETATM   17  C   UNL     1      -9.194  20.681  67.237  1.00  0.00    -0.308 C  
HETATM   18  C   UNL     1      -9.458  17.734  68.475  1.00  0.00    -0.304 C  
HETATM   19  C   UNL     1     -10.411  18.936  66.063  1.00  0.00    -0.446 C  
HETATM   20  C   UNL     1     -10.402  18.973  68.474  1.00  0.00    -0.264 C  
HETATM   21  N   UNL     1     -10.362  19.802  67.255  1.00  0.00    -0.430 NA 
ENDBRANCH  12  15
ENDBRANCH   5   9
BRANCH   7  22
HETATM   22  N   UNL     1      -9.766   7.431  65.959  1.00  0.00    -0.419 NA 
HETATM   23  H   UNL     1      -9.734   7.348  64.943  1.00  0.00     0.000 HD 
BRANCH  22  24
HETATM   24  C   UNL     1      -9.669   6.160  66.546  1.00  0.00    -0.145 A  
HETATM   25 CL   UNL     1      -9.468   2.216  68.610  1.00  0.00    -0.234 Cl 
HETATM   26  C   UNL     1      -9.954   4.923  68.575  1.00  0.00    -0.115 A  
HETATM   27  C   UNL     1      -9.226   3.913  66.542  1.00  0.00    -0.166 A  
HETATM   28  N   UNL     1      -9.282   5.079  65.858  1.00  0.00    -0.152 NA 
HETATM   29  C   UNL     1      -9.535   3.775  67.892  1.00  0.00    -0.170 A  
HETATM   30  N   UNL     1     -10.007   6.103  67.882  1.00  0.00    -0.126 NA 
BRANCH  26  31
HETATM   31  N   UNL     1     -10.248   4.843  70.055  1.00  0.00    -0.268 NA 
HETATM   32  H   UNL     1     -10.166   3.914  70.467  1.00  0.00     0.000 HD 
BRANCH  31  33
HETATM   33  C   UNL     1     -10.639   5.927  70.997  1.00  0.00    -0.250 A  
HETATM   34  C   UNL     1     -11.788   6.633  70.613  1.00  0.00    -0.443 A  
HETATM   35  C   UNL     1     -12.310   7.638  71.411  1.00  0.00    -0.358 A  
HETATM   36  C   UNL     1     -11.709   7.939  72.639  1.00  0.00    -0.398 A  
HETATM   37  C   UNL     1     -10.561   7.270  73.107  1.00  0.00    -0.400 A  
HETATM   38  C   UNL     1      -9.974   6.263  72.338  1.00  0.00    -0.172 A  
HETATM   39  P   UNL     1      -8.437   5.459  72.921  1.00  0.00    -0.118 P  
HETATM   40  C   UNL     1      -9.182   3.740  72.689  1.00  0.00    -0.105 C  
HETATM   41  O   UNL     1      -7.136   4.778  73.414  1.00  0.00    -0.072 OA 
HETATM   42  C   UNL     1      -7.556   6.024  71.339  1.00  0.00    -0.099 C  
ENDBRANCH  31  33
ENDBRANCH  26  31
ENDBRANCH  22  24
ENDBRANCH   7  22
ENDBRANCH   2   3
TORSDOF 7
ENDMDL
MODEL        9
REMARK 921   NORMALIZED FREE ENERGY PREDICTED BY IDOCK:   -7.05 KCAL/MOL
REMARK 922        TOTAL FREE ENERGY PREDICTED BY IDOCK:  -11.25 KCAL/MOL
REMARK 923 INTER-LIGAND FREE ENERGY PREDICTED BY IDOCK:   -9.77 KCAL/MOL
REMARK 924 INTRA-LIGAND FREE ENERGY PREDICTED BY IDOCK:   -1.48 KCAL/MOL
REMARK 927      BINDING AFFINITY PREDICTED BY RF-SCORE:    0.00 PKD
ROOT
HETATM    1  C   UNL     1      -9.526  10.111  64.093  1.00  0.00    -0.293 C  
HETATM    2  O   UNL     1      -9.818   9.565  65.373  1.00  0.00    -0.302 OA 
ENDROOT
BRANCH   2   3
HETATM    3  C   UNL     1     -10.222  10.412  66.389  1.00  0.00    -0.230 A  
HETATM    4  C   UNL     1     -10.068  11.824  66.373  1.00  0.00    -0.239 A  
HETATM    5  C   UNL     1     -10.475  12.650  67.441  1.00  0.00    -0.224 A  
HETATM    6  C   UNL     1     -11.066  11.959  68.525  1.00  0.00    -0.290 A  
HETATM    7  C   UNL     1     -10.834   9.738  67.483  1.00  0.00    -0.220 A  
HETATM    8  C   UNL     1     -11.242  10.541  68.542  1.00  0.00    -0.332 A  
BRANCH   5   9
HETATM    9  N   UNL     1     -10.352  14.046  67.378  1.00  0.00    -0.258 NA 
HETATM   10  C   UNL     1      -9.293  14.602  66.514  1.00  0.00    -0.288 C  
HETATM   11  C   UNL     1      -9.742  15.968  65.987  1.00  0.00    -0.376 C  
HETATM   12  C   UNL     1     -10.047  17.000  67.099  1.00  0.00    -0.292 C  
HETATM   13  C   UNL     1     -11.027  16.321  68.092  1.00  0.00    -0.343 C  
HETATM   14  C   UNL     1     -10.584  14.915  68.554  1.00  0.00    -0.245 C  
BRANCH  12  15
HETATM   15  N   UNL     1      -8.901  17.613  67.830  1.00  0.00    -0.241 NA 
HETATM   16  C   UNL     1      -7.682  17.868  67.032  1.00  0.00    -0.211 C  
HETATM   17  C   UNL     1      -7.109  20.982  67.304  1.00  0.00    -0.336 C  
HETATM   18  C   UNL     1      -9.283  18.920  68.448  1.00  0.00    -0.347 C  
HETATM   19  C   UNL     1      -7.784  19.034  66.017  1.00  0.00    -0.229 C  
HETATM   20  C   UNL     1      -9.377  20.123  67.463  1.00  0.00    -0.382 C  
HETATM   21  N   UNL     1      -8.203  20.325  66.593  1.00  0.00    -0.274 NA 
ENDBRANCH  12  15
ENDBRANCH   5   9
BRANCH   7  22
HETATM   22  N   UNL     1     -11.004   8.327  67.380  1.00  0.00    -0.466 NA 
HETATM   23  H   UNL     1     -11.923   8.117  66.989  1.00  0.00     0.000 HD 
BRANCH  22  24
HETATM   24  C   UNL     1     -10.313   7.134  67.644  1.00  0.00    -0.215 A  
HETATM   25 CL   UNL     1      -8.125   3.406  68.723  1.00  0.00    -0.067 Cl 
HETATM   26  C   UNL     1      -9.193   5.865  69.337  1.00  0.00    -0.130 A  
HETATM   27  C   UNL     1      -9.411   5.105  67.087  1.00  0.00    -0.124 A  
HETATM   28  N   UNL     1     -10.093   6.208  66.704  1.00  0.00    -0.173 NA 
HETATM   29  C   UNL     1      -8.929   4.884  68.374  1.00  0.00    -0.109 A  
HETATM   30  N   UNL     1      -9.882   6.983  68.945  1.00  0.00    -0.148 NA 
BRANCH  26  31
HETATM   31  N   UNL     1      -8.645   5.704  70.735  1.00  0.00    -0.126 NA 
HETATM   32  H   UNL     1      -7.665   5.958  70.852  1.00  0.00     0.000 HD 
BRANCH  31  33
HETATM   33  C   UNL     1      -9.332   5.226  71.967  1.00  0.00    -0.137 A  
HETATM   34  C   UNL     1      -9.986   3.995  71.818  1.00  0.00    -0.240 A  
HETATM   35  C   UNL     1     -10.627   3.391  72.887  1.00  0.00    -0.213 A  
HETATM   36  C   UNL     1     -10.600   3.995  74.150  1.00  0.00    -0.289 A  
HETATM   37  C   UNL     1      -9.955   5.224  74.390  1.00  0.00    -0.244 A  
HETATM   38  C   UNL     1      -9.310   5.893  73.348  1.00  0.00    -0.134 A  
HETATM   39  P   UNL     1      -8.546   7.528  73.656  1.00  0.00    -0.247 P  
HETATM   40  C   UNL     1      -6.910   6.968  72.898  1.00  0.00    -0.069 C  
HETATM   41  O   UNL     1      -7.899   8.910  73.918  1.00  0.00    -0.377 OA 
HETATM   42  C   UNL     1      -9.670   8.290  72.333  1.00  0.00    -0.303 C  
ENDBRANCH  31  33
ENDBRANCH  26  31
ENDBRANCH  22  24
ENDBRANCH   7  22
ENDBRANCH   2   3
TORSDOF 7
ENDMDL
MODEL       10
REMARK 921   NORMALIZED FREE ENERGY PREDICTED BY IDOCK:   -7.01 KCAL/MOL
REMARK 922        TOTAL FREE ENERGY PREDICTED BY IDOCK:  -11.19 KCAL/MOL
REMARK 923 INTER-LIGAND FREE ENERGY PREDICTED BY IDOCK:   -9.59 KCAL/MOL
REMARK 924 INTRA-LIGAND FREE ENERGY PREDICTED BY IDOCK:   -1.60 KCAL/MOL
REMARK 927      BINDING AFFINITY PREDICTED BY RF-SCORE:    0.00 PKD
ROOT
HETATM    1  C   UNL     1     -10.767  10.650  67.080  1.00  0.00    -0.259 C  
HETATM    2  O   UNL     1     -11.855  11.143  67.851  1.00  0.00    -0.601 OA 
ENDROOT
BRANCH   2   3
HETATM    3  C   UNL     1     -11.700  12.322  68.556  1.00  0.00    -0.331 A  
HETATM    4  C   UNL     1     -11.053  13.483  68.057  1.00  0.00    -0.283 A  
HETATM    5  C   UNL     1     -10.897  14.660  68.818  1.00  0.00    -0.255 A  
HETATM    6  C   UNL     1     -11.454  14.596  70.117  1.00  0.00    -0.310 A  
HETATM    7  C   UNL     1     -12.268  12.284  69.862  1.00  0.00    -0.163 A  
HETATM    8  C   UNL     1     -12.124  13.438  70.623  1.00  0.00    -0.374 A  
BRANCH   5   9
HETATM    9  N   UNL     1     -10.294  15.807  68.283  1.00  0.00    -0.235 NA 
HETATM   10  C   UNL     1      -9.517  15.655  67.037  1.00  0.00    -0.224 C  
HETATM   11  C   UNL     1      -9.585  16.961  66.242  1.00  0.00    -0.300 C  
HETATM   12  C   UNL     1      -9.035  18.190  67.004  1.00  0.00    -0.263 C  
HETATM   13  C   UNL     1      -9.741  18.220  68.386  1.00  0.00    -0.373 C  
HETATM   14  C   UNL     1      -9.718  16.871  69.136  1.00  0.00    -0.177 C  
BRANCH  12  15
HETATM   15  N   UNL     1      -7.558  18.319  67.168  1.00  0.00    -0.213 NA 
HETATM   16  C   UNL     1      -6.780  18.511  65.925  1.00  0.00    -0.275 C  
HETATM   17  C   UNL     1      -5.188  21.233  66.316  1.00  0.00    -0.227 C  
HETATM   18  C   UNL     1      -7.205  19.459  68.068  1.00  0.00    -0.273 C  
HETATM   19  C   UNL     1      -6.925  19.903  65.259  1.00  0.00    -0.241 C  
HETATM   20  C   UNL     1      -7.319  20.875  67.430  1.00  0.00    -0.314 C  
HETATM   21  N   UNL     1      -6.627  21.047  66.139  1.00  0.00    -0.196 NA 
ENDBRANCH  12  15
ENDBRANCH   5   9
BRANCH   7  22
HETATM   22  N   UNL     1     -12.954  11.098  70.251  1.00  0.00    -0.043 NA 
HETATM   23  H   UNL     1     -13.948  11.186  70.034  1.00  0.00     0.000 HD 
BRANCH  22  24
HETATM   24  C   UNL     1     -12.702   9.847  70.836  1.00  0.00    -0.290 A  
HETATM   25 CL   UNL     1     -11.683   5.874  72.577  1.00  0.00    -0.335 Cl 
HETATM   26  C   UNL     1     -11.212   7.974  70.864  1.00  0.00    -0.266 A  
HETATM   27  C   UNL     1     -13.144   8.106  72.255  1.00  0.00    -0.180 A  
HETATM   28  N   UNL     1     -13.497   9.320  71.775  1.00  0.00    -0.394 NA 
HETATM   29  C   UNL     1     -12.031   7.384  71.834  1.00  0.00    -0.302 A  
HETATM   30  N   UNL     1     -11.573   9.203  70.376  1.00  0.00    -0.202 NA 
BRANCH  26  31
HETATM   31  N   UNL     1     -10.023   7.212  70.330  1.00  0.00    -0.186 NA 
HETATM   32  H   UNL     1      -9.318   6.960  71.022  1.00  0.00     0.000 HD 
BRANCH  31  33
HETATM   33  C   UNL     1      -9.732   6.775  68.936  1.00  0.00    -0.137 A  
HETATM   34  C   UNL     1     -10.792   6.100  68.315  1.00  0.00    -0.387 A  
HETATM   35  C   UNL     1     -10.697   5.675  67.000  1.00  0.00    -0.332 A  
HETATM   36  C   UNL     1      -9.541   5.949  66.258  1.00  0.00    -0.148 A  
HETATM   37  C   UNL     1      -8.435   6.633  66.801  1.00  0.00    -0.117 A  
HETATM   38  C   UNL     1      -8.461   7.066  68.128  1.00  0.00    -0.129 A  
HETATM   39  P   UNL     1      -6.987   7.882  68.843  1.00  0.00    -0.068 P  
HETATM   40  C   UNL     1      -8.021   9.338  69.455  1.00  0.00    -0.098 C  
HETATM   41  O   UNL     1      -5.740   8.572  69.448  1.00  0.00    -0.030 OA 
HETATM   42  C   UNL     1      -6.893   6.526  70.165  1.00  0.00    -0.058 C  
ENDBRANCH  31  33
ENDBRANCH  26  31
ENDBRANCH  22  24
ENDBRANCH   7  22
ENDBRANCH   2   3
TORSDOF 7
ENDMDL
MODEL       11
REMARK 921   NORMALIZED FREE ENERGY PREDICTED BY IDOCK:   -6.99 KCAL/MOL
REMARK 922        TOTAL FREE ENERGY PREDICTED BY IDOCK:  -11.16 KCAL/MOL
REMARK 923 INTER-LIGAND FREE ENERGY PREDICTED BY IDOCK:  -10.12 KCAL/MOL
REMARK 924 INTRA-LIGAND FREE ENERGY PREDICTED BY IDOCK:   -1.05 KCAL/MOL
REMARK 927      BINDING AFFINITY PREDICTED BY RF-SCORE:    0.00 PKD
ROOT
HETATM    1  C   UNL     1     -13.113  13.219  72.278  1.00  0.00    -0.371 C  
HETATM    2  O   UNL     1     -13.286  12.411  71.121  1.00  0.00    -0.125 OA 
ENDROOT
BRANCH   2   3
HETATM    3  C   UNL     1     -12.325  11.465  70.812  1.00  0.00    -0.386 A  
HETATM    4  C   UNL     1     -12.221  10.188  71.426  1.00  0.00    -0.492 A  
HETATM    5  C   UNL     1     -11.213   9.260  71.096  1.00  0.00    -0.343 A  
HETATM    6  C   UNL     1     -10.319   9.698  70.091  1.00  0.00    -0.315 A  
HETATM    7  C   UNL     1     -11.425  11.879  69.790  1.00  0.00    -0.229 A  
HETATM    8  C   UNL     1     -10.426  10.973  69.454  1.00  0.00    -0.177 A  
BRANCH   5   9
HETATM    9  N   UNL     1     -11.163   7.989  71.686  1.00  0.00    -0.247 NA 
HETATM   10  C   UNL     1      -9.957   7.641  72.464  1.00  0.00    -0.208 C  
HETATM   11  C   UNL     1     -10.343   6.659  73.574  1.00  0.00    -0.318 C  
HETATM   12  C   UNL     1     -10.977   5.346  73.057  1.00  0.00    -0.297 C  
HETATM   13  C   UNL     1     -12.130   5.745  72.098  1.00  0.00    -0.007 C  
HETATM   14  C   UNL     1     -11.732   6.789  71.032  1.00  0.00    -0.355 C  
BRANCH  12  15
HETATM   15  N   UNL     1     -10.088   4.334  72.415  1.00  0.00    -0.171 NA 
HETATM   16  C   UNL     1      -8.656   4.404  72.779  1.00  0.00    -0.109 C  
HETATM   17  C   UNL     1      -7.932   1.547  73.970  1.00  0.00    -0.041 C  
HETATM   18  C   UNL     1     -10.535   2.941  72.719  1.00  0.00    -0.128 C  
HETATM   19  C   UNL     1      -8.313   3.935  74.215  1.00  0.00    -0.090 C  
HETATM   20  C   UNL     1     -10.191   2.425  74.148  1.00  0.00    -0.122 C  
HETATM   21  N   UNL     1      -8.783   2.580  74.557  1.00  0.00    -0.070 NA 
ENDBRANCH  12  15
ENDBRANCH   5   9
BRANCH   7  22
HETATM   22  N   UNL     1     -11.647  13.151  69.188  1.00  0.00    -0.297 NA 
HETATM   23  H   UNL     1     -11.901  13.833  69.903  1.00  0.00     0.000 HD 
BRANCH  22  24
HETATM   24  C   UNL     1     -11.630  13.766  67.927  1.00  0.00    -0.341 A  
HETATM   25 CL   UNL     1     -11.353  15.817  63.980  1.00  0.00    -0.037 Cl 
HETATM   26  C   UNL     1     -10.469  15.334  66.539  1.00  0.00    -0.298 A  
HETATM   27  C   UNL     1     -12.414  14.163  65.813  1.00  0.00    -0.466 A  
HETATM   28  N   UNL     1     -12.541  13.499  66.984  1.00  0.00    -0.036 NA 
HETATM   29  C   UNL     1     -11.416  15.093  65.537  1.00  0.00    -0.213 A  
HETATM   30  N   UNL     1     -10.601  14.663  67.727  1.00  0.00    -0.249 NA 
BRANCH  26  31
HETATM   31  N   UNL     1      -9.397  16.374  66.316  1.00  0.00    -0.293 NA 
HETATM   32  H   UNL     1      -8.554  16.040  65.851  1.00  0.00     0.000 HD 
BRANCH  31  33
HETATM   33  C   UNL     1      -9.395  17.818  66.679  1.00  0.00    -0.287 A  
HETATM   34  C   UNL     1     -10.489  18.536  66.176  1.00  0.00    -0.447 A  
HETATM   35  C   UNL     1     -10.660  19.879  66.469  1.00  0.00    -0.531 A  
HETATM   36  C   UNL     1      -9.748  20.533  67.307  1.00  0.00    -0.600 A  
HETATM   37  C   UNL     1      -8.629  19.884  67.865  1.00  0.00    -0.341 A  
HETATM   38  C   UNL     1      -8.390  18.536  67.589  1.00  0.00    -0.255 A  
HETATM   39  P   UNL     1      -6.890  17.727  68.255  1.00  0.00    -0.228 P  
HETATM   40  C   UNL     1      -7.906  16.309  68.974  1.00  0.00    -0.235 C  
HETATM   41  O   UNL     1      -5.621  17.043  68.818  1.00  0.00    -0.134 OA 
HETATM   42  C   UNL     1      -6.337  17.324  66.486  1.00  0.00    -0.227 C  
ENDBRANCH  31  33
ENDBRANCH  26  31
ENDBRANCH  22  24
ENDBRANCH   7  22
ENDBRANCH   2   3
TORSDOF 7
ENDMDL
MODEL       12
REMARK 921   NORMALIZED FREE ENERGY PREDICTED BY IDOCK:   -6.94 KCAL/MOL
REMARK 922        TOTAL FREE ENERGY PREDICTED BY IDOCK:  -11.09 KCAL/MOL
REMARK 923 INTER-LIGAND FREE ENERGY PREDICTED BY IDOCK:  -10.67 KCAL/MOL
REMARK 924 INTRA-LIGAND FREE ENERGY PREDICTED BY IDOCK:   -0.42 KCAL/MOL
REMARK 927      BINDING AFFINITY PREDICTED BY RF-SCORE:    0.00 PKD
ROOT
HETATM    1  C   UNL     1      -9.978  11.346  63.013  1.00  0.00    -0.322 C  
HETATM    2  O   UNL     1     -10.217  10.550  64.168  1.00  0.00    -0.342 OA 
ENDROOT
BRANCH   2   3
HETATM    3  C   UNL     1     -10.117  11.133  65.418  1.00  0.00    -0.264 A  
HETATM    4  C   UNL     1     -10.186  12.529  65.667  1.00  0.00    -0.287 A  
HETATM    5  C   UNL     1     -10.059  13.085  66.957  1.00  0.00    -0.243 A  
HETATM    6  C   UNL     1      -9.872  12.135  67.988  1.00  0.00    -0.202 A  
HETATM    7  C   UNL     1      -9.944  10.193  66.473  1.00  0.00    -0.224 A  
HETATM    8  C   UNL     1      -9.819  10.726  67.751  1.00  0.00    -0.186 A  
BRANCH   5   9
HETATM    9  N   UNL     1     -10.177  14.465  67.178  1.00  0.00    -0.256 NA 
HETATM   10  C   UNL     1      -9.363  15.366  66.339  1.00  0.00    -0.299 C  
HETATM   11  C   UNL     1     -10.103  16.695  66.167  1.00  0.00    -0.361 C  
HETATM   12  C   UNL     1     -10.407  17.422  67.499  1.00  0.00    -0.351 C  
HETATM   13  C   UNL     1     -11.104  16.393  68.428  1.00  0.00    -0.351 C  
HETATM   14  C   UNL     1     -10.374  15.036  68.529  1.00  0.00    -0.230 C  
BRANCH  12  15
HETATM   15  N   UNL     1      -9.282  18.093  68.212  1.00  0.00    -0.290 NA 
HETATM   16  C   UNL     1      -7.946  17.957  67.592  1.00  0.00    -0.219 C  
HETATM   17  C   UNL     1      -6.930  20.924  67.074  1.00  0.00    -0.328 C  
HETATM   18  C   UNL     1      -9.530  19.560  68.365  1.00  0.00    -0.376 C  
HETATM   19  C   UNL     1      -7.732  18.768  66.289  1.00  0.00    -0.272 C  
HETATM   20  C   UNL     1      -9.306  20.413  67.082  1.00  0.00    -0.403 C  
HETATM   21  N   UNL     1      -8.014  20.211  66.401  1.00  0.00    -0.287 NA 
ENDBRANCH  12  15
ENDBRANCH   5   9
BRANCH   7  22
HETATM   22  N   UNL     1      -9.952   8.809  66.134  1.00  0.00    -0.428 NA 
HETATM   23  H   UNL     1     -10.073   8.700  65.127  1.00  0.00     0.000 HD 
BRANCH  22  24
HETATM   24  C   UNL     1      -9.846   7.548  66.741  1.00  0.00    -0.225 A  
HETATM   25 CL   UNL     1      -9.689   3.613  68.826  1.00  0.00    -0.145 Cl 
HETATM   26  C   UNL     1     -10.549   6.216  68.602  1.00  0.00    -0.270 A  
HETATM   27  C   UNL     1      -9.085   5.395  66.909  1.00  0.00    -0.114 A  
HETATM   28  N   UNL     1      -9.105   6.561  66.223  1.00  0.00    -0.156 NA 
HETATM   29  C   UNL     1      -9.770   5.168  68.098  1.00  0.00    -0.144 A  
HETATM   30  N   UNL     1     -10.566   7.397  67.908  1.00  0.00    -0.208 NA 
BRANCH  26  31
HETATM   31  N   UNL     1     -11.268   6.044  69.919  1.00  0.00    -0.399 NA 
HETATM   32  H   UNL     1     -12.254   5.796  69.849  1.00  0.00     0.000 HD 
BRANCH  31  33
HETATM   33  C   UNL     1     -10.742   6.185  71.305  1.00  0.00    -0.256 A  
HETATM   34  C   UNL     1      -9.719   5.281  71.624  1.00  0.00    -0.211 A  
HETATM   35  C   UNL     1      -9.089   5.319  72.857  1.00  0.00    -0.125 A  
HETATM   36  C   UNL     1      -9.450   6.293  73.796  1.00  0.00    -0.164 A  
HETATM   37  C   UNL     1     -10.458   7.246  73.553  1.00  0.00    -0.421 A  
HETATM   38  C   UNL     1     -11.145   7.246  72.337  1.00  0.00    -0.275 A  
HETATM   39  P   UNL     1     -12.506   8.438  72.065  1.00  0.00    -0.382 P  
HETATM   40  C   UNL     1     -11.754   9.009  70.430  1.00  0.00    -0.062 C  
HETATM   41  O   UNL     1     -13.657   9.448  71.835  1.00  0.00    -0.393 OA 
HETATM   42  C   UNL     1     -13.700   6.993  71.783  1.00  0.00    -0.203 C  
ENDBRANCH  31  33
ENDBRANCH  26  31
ENDBRANCH  22  24
ENDBRANCH   7  22
ENDBRANCH   2   3
TORSDOF 7
ENDMDL
MODEL       13
REMARK 921   NORMALIZED FREE ENERGY PREDICTED BY IDOCK:   -6.85 KCAL/MOL
REMARK 922        TOTAL FREE ENERGY PREDICTED BY IDOCK:  -10.96 KCAL/MOL
REMARK 923 INTER-LIGAND FREE ENERGY PREDICTED BY IDOCK:   -9.45 KCAL/MOL
REMARK 924 INTRA-LIGAND FREE ENERGY PREDICTED BY IDOCK:   -1.50 KCAL/MOL
REMARK 927      BINDING AFFINITY PREDICTED BY RF-SCORE:    0.00 PKD
ROOT
HETATM    1  C   UNL     1     -10.854  10.202  67.456  1.00  0.00    -0.290 C  
HETATM    2  O   UNL     1     -12.006  10.758  68.076  1.00  0.00    -0.537 OA 
ENDROOT
BRANCH   2   3
HETATM    3  C   UNL     1     -11.889  11.951  68.765  1.00  0.00    -0.313 A  
HETATM    4  C   UNL     1     -11.254  13.117  68.260  1.00  0.00    -0.307 A  
HETATM    5  C   UNL     1     -11.138  14.309  69.005  1.00  0.00    -0.259 A  
HETATM    6  C   UNL     1     -11.720  14.255  70.293  1.00  0.00    -0.343 A  
HETATM    7  C   UNL     1     -12.483  11.924  70.059  1.00  0.00    -0.021 A  
HETATM    8  C   UNL     1     -12.378  13.093  70.803  1.00  0.00    -0.404 A  
BRANCH   5   9
HETATM    9  N   UNL     1     -10.546  15.459  68.463  1.00  0.00    -0.235 NA 
HETATM   10  C   UNL     1      -9.479  15.273  67.460  1.00  0.00    -0.202 C  
HETATM   11  C   UNL     1      -9.489  16.460  66.492  1.00  0.00    -0.296 C  
HETATM   12  C   UNL     1      -9.271  17.830  67.178  1.00  0.00    -0.253 C  
HETATM   13  C   UNL     1     -10.290  17.921  68.345  1.00  0.00    -0.380 C  
HETATM   14  C   UNL     1     -10.309  16.681  69.265  1.00  0.00    -0.318 C  
BRANCH  12  15
HETATM   15  N   UNL     1      -7.899  18.175  67.652  1.00  0.00    -0.223 NA 
HETATM   16  C   UNL     1      -6.834  18.157  66.626  1.00  0.00    -0.203 C  
HETATM   17  C   UNL     1      -5.559  21.068  66.657  1.00  0.00    -0.223 C  
HETATM   18  C   UNL     1      -7.862  19.533  68.277  1.00  0.00    -0.327 C  
HETATM   19  C   UNL     1      -6.877  19.319  65.603  1.00  0.00    -0.283 C  
HETATM   20  C   UNL     1      -7.884  20.729  67.280  1.00  0.00    -0.240 C  
HETATM   21  N   UNL     1      -6.887  20.669  66.194  1.00  0.00    -0.217 NA 
ENDBRANCH  12  15
ENDBRANCH   5   9
BRANCH   7  22
HETATM   22  N   UNL     1     -13.154  10.730  70.453  1.00  0.00    -0.239 NA 
HETATM   23  H   UNL     1     -14.161  10.840  70.325  1.00  0.00     0.000 HD 
BRANCH  22  24
HETATM   24  C   UNL     1     -12.875   9.452  70.962  1.00  0.00    -0.180 A  
HETATM   25 CL   UNL     1     -11.748   5.457  72.582  1.00  0.00    -0.288 Cl 
HETATM   26  C   UNL     1     -11.125   7.917  71.522  1.00  0.00    -0.241 A  
HETATM   27  C   UNL     1     -13.435   7.403  71.815  1.00  0.00    -0.313 A  
HETATM   28  N   UNL     1     -13.838   8.606  71.346  1.00  0.00    -0.307 NA 
HETATM   29  C   UNL     1     -12.106   7.000  71.915  1.00  0.00    -0.323 A  
HETATM   30  N   UNL     1     -11.535   9.135  71.044  1.00  0.00    -0.286 NA 
BRANCH  26  31
HETATM   31  N   UNL     1      -9.671   7.513  71.555  1.00  0.00    -0.166 NA 
HETATM   32  H   UNL     1      -9.400   6.921  72.339  1.00  0.00     0.000 HD 
BRANCH  31  33
HETATM   33  C   UNL     1      -8.576   7.855  70.606  1.00  0.00    -0.130 A  
HETATM   34  C   UNL     1      -7.930   9.067  70.889  1.00  0.00    -0.194 A  
HETATM   35  C   UNL     1      -6.855   9.500  70.130  1.00  0.00    -0.085 A  
HETATM   36  C   UNL     1      -6.377   8.707  69.080  1.00  0.00    -0.044 A  
HETATM   37  C   UNL     1      -6.959   7.471  68.736  1.00  0.00    -0.078 A  
HETATM   38  C   UNL     1      -8.059   6.991  69.449  1.00  0.00    -0.130 A  
HETATM   39  P   UNL     1      -8.854   5.423  68.940  1.00  0.00    -0.100 P  
HETATM   40  C   UNL     1      -8.752   4.736  70.696  1.00  0.00    -0.108 C  
HETATM   41  O   UNL     1      -9.527   4.096  68.510  1.00  0.00    -0.146 OA 
HETATM   42  C   UNL     1     -10.487   6.351  68.678  1.00  0.00    -0.223 C  
ENDBRANCH  31  33
ENDBRANCH  26  31
ENDBRANCH  22  24
ENDBRANCH   7  22
ENDBRANCH   2   3
TORSDOF 7
ENDMDL
MODEL       14
REMARK 921   NORMALIZED FREE ENERGY PREDICTED BY IDOCK:   -6.74 KCAL/MOL
REMARK 922        TOTAL FREE ENERGY PREDICTED BY IDOCK:  -10.82 KCAL/MOL
REMARK 923 INTER-LIGAND FREE ENERGY PREDICTED BY IDOCK:   -9.51 KCAL/MOL
REMARK 924 INTRA-LIGAND FREE ENERGY PREDICTED BY IDOCK:   -1.31 KCAL/MOL
REMARK 927      BINDING AFFINITY PREDICTED BY RF-SCORE:    0.00 PKD
ROOT
HETATM    1  C   UNL     1     -12.581  10.624  70.520  1.00  0.00    -0.348 C  
HETATM    2  O   UNL     1     -11.489  10.110  69.767  1.00  0.00    -0.250 OA 
ENDROOT
BRANCH   2   3
HETATM    3  C   UNL     1     -11.057  10.802  68.651  1.00  0.00    -0.259 A  
HETATM    4  C   UNL     1     -10.894  12.211  68.587  1.00  0.00    -0.268 A  
HETATM    5  C   UNL     1     -10.470  12.881  67.421  1.00  0.00    -0.233 A  
HETATM    6  C   UNL     1     -10.204  12.032  66.321  1.00  0.00    -0.251 A  
HETATM    7  C   UNL     1     -10.768   9.964  67.537  1.00  0.00    -0.272 A  
HETATM    8  C   UNL     1     -10.347  10.610  66.381  1.00  0.00    -0.291 A  
BRANCH   5   9
HETATM    9  N   UNL     1     -10.273  14.269  67.401  1.00  0.00    -0.247 NA 
HETATM   10  C   UNL     1      -9.275  14.807  66.455  1.00  0.00    -0.276 C  
HETATM   11  C   UNL     1      -9.695  16.217  66.031  1.00  0.00    -0.376 C  
HETATM   12  C   UNL     1      -9.828  17.213  67.208  1.00  0.00    -0.265 C  
HETATM   13  C   UNL     1     -10.741  16.542  68.269  1.00  0.00    -0.345 C  
HETATM   14  C   UNL     1     -10.336  15.096  68.627  1.00  0.00    -0.232 C  
BRANCH  12  15
HETATM   15  N   UNL     1      -8.581  17.730  67.842  1.00  0.00    -0.245 NA 
HETATM   16  C   UNL     1      -7.448  17.992  66.928  1.00  0.00    -0.210 C  
HETATM   17  C   UNL     1      -6.706  21.056  67.331  1.00  0.00    -0.383 C  
HETATM   18  C   UNL     1      -8.832  19.006  68.581  1.00  0.00    -0.352 C  
HETATM   19  C   UNL     1      -7.608  19.228  66.008  1.00  0.00    -0.272 C  
HETATM   20  C   UNL     1      -8.980  20.276  67.691  1.00  0.00    -0.289 C  
HETATM   21  N   UNL     1      -7.902  20.491  66.708  1.00  0.00    -0.254 NA 
ENDBRANCH  12  15
ENDBRANCH   5   9
BRANCH   7  22
HETATM   22  N   UNL     1     -10.899   8.556  67.716  1.00  0.00    -0.495 NA 
HETATM   23  H   UNL     1     -11.879   8.316  67.863  1.00  0.00     0.000 HD 
BRANCH  22  24
HETATM   24  C   UNL     1     -10.112   7.395  67.755  1.00  0.00    -0.184 A  
HETATM   25 CL   UNL     1      -7.666   3.688  68.118  1.00  0.00    -0.065 Cl 
HETATM   26  C   UNL     1      -9.134   5.751  69.193  1.00  0.00    -0.117 A  
HETATM   27  C   UNL     1      -8.873   5.710  66.824  1.00  0.00    -0.115 A  
HETATM   28  N   UNL     1      -9.619   6.824  66.649  1.00  0.00    -0.169 NA 
HETATM   29  C   UNL     1      -8.587   5.138  68.060  1.00  0.00    -0.103 A  
HETATM   30  N   UNL     1      -9.887   6.881  69.015  1.00  0.00    -0.150 NA 
BRANCH  26  31
HETATM   31  N   UNL     1      -8.810   5.206  70.564  1.00  0.00    -0.117 NA 
HETATM   32  H   UNL     1      -7.971   5.589  70.999  1.00  0.00     0.000 HD 
BRANCH  31  33
HETATM   33  C   UNL     1      -9.541   4.191  71.372  1.00  0.00    -0.168 A  
HETATM   34  C   UNL     1      -9.508   2.897  70.832  1.00  0.00    -0.227 A  
HETATM   35  C   UNL     1     -10.097   1.831  71.491  1.00  0.00    -0.116 A  
HETATM   36  C   UNL     1     -10.709   2.030  72.734  1.00  0.00    -0.206 A  
HETATM   37  C   UNL     1     -10.776   3.293  73.354  1.00  0.00    -0.299 A  
HETATM   38  C   UNL     1     -10.221   4.412  72.729  1.00  0.00    -0.176 A  
HETATM   39  P   UNL     1     -10.386   6.060  73.507  1.00  0.00    -0.282 P  
HETATM   40  C   UNL     1      -8.530   6.374  73.366  1.00  0.00    -0.121 C  
HETATM   41  O   UNL     1     -10.525   7.454  74.166  1.00  0.00    -0.201 OA 
HETATM   42  C   UNL     1     -11.290   6.686  71.962  1.00  0.00    -0.280 C  
ENDBRANCH  31  33
ENDBRANCH  26  31
ENDBRANCH  22  24
ENDBRANCH   7  22
ENDBRANCH   2   3
TORSDOF 7
ENDMDL
MODEL       15
REMARK 921   NORMALIZED FREE ENERGY PREDICTED BY IDOCK:   -6.71 KCAL/MOL
REMARK 922        TOTAL FREE ENERGY PREDICTED BY IDOCK:  -10.77 KCAL/MOL
REMARK 923 INTER-LIGAND FREE ENERGY PREDICTED BY IDOCK:   -9.41 KCAL/MOL
REMARK 924 INTRA-LIGAND FREE ENERGY PREDICTED BY IDOCK:   -1.37 KCAL/MOL
REMARK 927      BINDING AFFINITY PREDICTED BY RF-SCORE:    0.00 PKD
ROOT
HETATM    1  C   UNL     1     -13.385  13.841  72.494  1.00  0.00    -0.552 C  
HETATM    2  O   UNL     1     -13.149  12.648  71.757  1.00  0.00    -0.416 OA 
ENDROOT
BRANCH   2   3
HETATM    3  C   UNL     1     -12.393  12.710  70.601  1.00  0.00    -0.290 A  
HETATM    4  C   UNL     1     -11.865  13.905  70.045  1.00  0.00    -0.384 A  
HETATM    5  C   UNL     1     -11.115  13.927  68.851  1.00  0.00    -0.266 A  
HETATM    6  C   UNL     1     -10.918  12.658  68.258  1.00  0.00    -0.275 A  
HETATM    7  C   UNL     1     -12.169  11.441  69.997  1.00  0.00    -0.301 A  
HETATM    8  C   UNL     1     -11.431  11.447  68.820  1.00  0.00    -0.354 A  
BRANCH   5   9
HETATM    9  N   UNL     1     -10.566  15.117  68.349  1.00  0.00    -0.234 NA 
HETATM   10  C   UNL     1      -9.362  15.012  67.502  1.00  0.00    -0.195 C  
HETATM   11  C   UNL     1      -9.353  16.169  66.500  1.00  0.00    -0.296 C  
HETATM   12  C   UNL     1      -9.358  17.570  67.157  1.00  0.00    -0.250 C  
HETATM   13  C   UNL     1     -10.527  17.588  68.177  1.00  0.00    -0.386 C  
HETATM   14  C   UNL     1     -10.553  16.374  69.131  1.00  0.00    -0.308 C  
BRANCH  12  15
HETATM   15  N   UNL     1      -8.100  18.057  67.794  1.00  0.00    -0.233 NA 
HETATM   16  C   UNL     1      -6.906  18.104  66.923  1.00  0.00    -0.188 C  
HETATM   17  C   UNL     1      -5.909  21.121  66.988  1.00  0.00    -0.287 C  
HETATM   18  C   UNL     1      -8.269  19.433  68.355  1.00  0.00    -0.347 C  
HETATM   19  C   UNL     1      -6.910  19.221  65.850  1.00  0.00    -0.264 C  
HETATM   20  C   UNL     1      -8.258  20.587  67.309  1.00  0.00    -0.300 C  
HETATM   21  N   UNL     1      -7.120  20.584  66.371  1.00  0.00    -0.251 NA 
ENDBRANCH  12  15
ENDBRANCH   5   9
BRANCH   7  22
HETATM   22  N   UNL     1     -12.684  10.291  70.663  1.00  0.00    -0.462 NA 
HETATM   23  H   UNL     1     -13.639  10.470  70.975  1.00  0.00     0.000 HD 
BRANCH  22  24
HETATM   24  C   UNL     1     -12.299   8.992  71.028  1.00  0.00    -0.193 A  
HETATM   25 CL   UNL     1     -10.842   4.932  72.145  1.00  0.00    -0.194 Cl 
HETATM   26  C   UNL     1     -10.464   7.458  71.125  1.00  0.00    -0.209 A  
HETATM   27  C   UNL     1     -12.660   6.888  71.857  1.00  0.00    -0.297 A  
HETATM   28  N   UNL     1     -13.158   8.109  71.552  1.00  0.00    -0.311 NA 
HETATM   29  C   UNL     1     -11.338   6.503  71.657  1.00  0.00    -0.285 A  
HETATM   30  N   UNL     1     -10.970   8.693  70.813  1.00  0.00    -0.237 NA 
BRANCH  26  31
HETATM   31  N   UNL     1      -9.032   7.077  70.834  1.00  0.00    -0.151 NA 
HETATM   32  H   UNL     1      -8.788   6.108  71.035  1.00  0.00     0.000 HD 
BRANCH  31  33
HETATM   33  C   UNL     1      -7.924   7.915  70.297  1.00  0.00    -0.102 A  
HETATM   34  C   UNL     1      -8.226   8.556  69.087  1.00  0.00    -0.119 A  
HETATM   35  C   UNL     1      -7.319   9.412  68.485  1.00  0.00    -0.079 A  
HETATM   36  C   UNL     1      -6.091   9.675  69.102  1.00  0.00    -0.040 A  
HETATM   37  C   UNL     1      -5.713   9.084  70.324  1.00  0.00    -0.033 A  
HETATM   38  C   UNL     1      -6.574   8.195  70.969  1.00  0.00    -0.038 A  
HETATM   39  P   UNL     1      -6.038   7.373  72.513  1.00  0.00    -0.040 P  
HETATM   40  C   UNL     1      -7.616   7.896  73.406  1.00  0.00    -0.144 C  
HETATM   41  O   UNL     1      -5.583   6.678  73.820  1.00  0.00    -0.049 OA 
HETATM   42  C   UNL     1      -6.268   5.684  71.681  1.00  0.00    -0.042 C  
ENDBRANCH  31  33
ENDBRANCH  26  31
ENDBRANCH  22  24
ENDBRANCH   7  22
ENDBRANCH   2   3
TORSDOF 7
ENDMDL
MODEL       16
REMARK 921   NORMALIZED FREE ENERGY PREDICTED BY IDOCK:   -6.66 KCAL/MOL
REMARK 922        TOTAL FREE ENERGY PREDICTED BY IDOCK:  -10.70 KCAL/MOL
REMARK 923 INTER-LIGAND FREE ENERGY PREDICTED BY IDOCK:   -9.64 KCAL/MOL
REMARK 924 INTRA-LIGAND FREE ENERGY PREDICTED BY IDOCK:   -1.06 KCAL/MOL
REMARK 927      BINDING AFFINITY PREDICTED BY RF-SCORE:    0.00 PKD
ROOT
HETATM    1  C   UNL     1     -12.302  11.253  70.430  1.00  0.00    -0.329 C  
HETATM    2  O   UNL     1     -12.341  10.839  69.070  1.00  0.00    -0.422 OA 
ENDROOT
BRANCH   2   3
HETATM    3  C   UNL     1     -11.464  11.412  68.167  1.00  0.00    -0.305 A  
HETATM    4  C   UNL     1     -11.170  12.799  68.095  1.00  0.00    -0.310 A  
HETATM    5  C   UNL     1     -10.283  13.346  67.145  1.00  0.00    -0.247 A  
HETATM    6  C   UNL     1      -9.697  12.396  66.276  1.00  0.00    -0.253 A  
HETATM    7  C   UNL     1     -10.849  10.471  67.293  1.00  0.00    -0.279 A  
HETATM    8  C   UNL     1      -9.972  10.995  66.351  1.00  0.00    -0.264 A  
BRANCH   5   9
HETATM    9  N   UNL     1      -9.976  14.714  67.127  1.00  0.00    -0.238 NA 
HETATM   10  C   UNL     1      -8.600  15.104  66.763  1.00  0.00    -0.262 C  
HETATM   11  C   UNL     1      -8.630  16.479  66.090  1.00  0.00    -0.334 C  
HETATM   12  C   UNL     1      -9.228  17.598  66.975  1.00  0.00    -0.250 C  
HETATM   13  C   UNL     1     -10.599  17.085  67.491  1.00  0.00    -0.310 C  
HETATM   14  C   UNL     1     -10.553  15.668  68.102  1.00  0.00    -0.274 C  
BRANCH  12  15
HETATM   15  N   UNL     1      -8.406  18.123  68.104  1.00  0.00    -0.269 NA 
HETATM   16  C   UNL     1      -6.941  17.999  67.954  1.00  0.00    -0.211 C  
HETATM   17  C   UNL     1      -5.795  20.953  68.197  1.00  0.00    -0.339 C  
HETATM   18  C   UNL     1      -8.685  19.570  68.356  1.00  0.00    -0.345 C  
HETATM   19  C   UNL     1      -6.296  18.950  66.915  1.00  0.00    -0.183 C  
HETATM   20  C   UNL     1      -8.037  20.562  67.344  1.00  0.00    -0.295 C  
HETATM   21  N   UNL     1      -6.592  20.381  67.114  1.00  0.00    -0.217 NA 
ENDBRANCH  12  15
ENDBRANCH   5   9
BRANCH   7  22
HETATM   22  N   UNL     1     -11.157   9.093  67.483  1.00  0.00    -0.399 NA 
HETATM   23  H   UNL     1     -12.159   8.980  67.641  1.00  0.00     0.000 HD 
BRANCH  22  24
HETATM   24  C   UNL     1     -10.525   7.840  67.522  1.00  0.00    -0.268 A  
HETATM   25 CL   UNL     1      -8.639   3.817  67.856  1.00  0.00    -0.107 Cl 
HETATM   26  C   UNL     1     -10.164   5.880  68.847  1.00  0.00    -0.198 A  
HETATM   27  C   UNL     1      -9.225   6.157  66.674  1.00  0.00    -0.144 A  
HETATM   28  N   UNL     1      -9.784   7.378  66.508  1.00  0.00    -0.184 NA 
HETATM   29  C   UNL     1      -9.367   5.373  67.814  1.00  0.00    -0.116 A  
HETATM   30  N   UNL     1     -10.727   7.118  68.679  1.00  0.00    -0.194 NA 
BRANCH  26  31
HETATM   31  N   UNL     1     -10.307   5.097  70.131  1.00  0.00    -0.282 NA 
HETATM   32  H   UNL     1     -10.528   4.108  70.017  1.00  0.00     0.000 HD 
BRANCH  31  33
HETATM   33  C   UNL     1     -10.171   5.563  71.539  1.00  0.00    -0.212 A  
HETATM   34  C   UNL     1     -10.945   6.690  71.846  1.00  0.00    -0.277 A  
HETATM   35  C   UNL     1     -10.969   7.214  73.128  1.00  0.00    -0.344 A  
HETATM   36  C   UNL     1     -10.238   6.596  74.150  1.00  0.00    -0.390 A  
HETATM   37  C   UNL     1      -9.445   5.452  73.930  1.00  0.00    -0.138 A  
HETATM   38  C   UNL     1      -9.362   4.890  72.655  1.00  0.00    -0.133 A  
HETATM   39  P   UNL     1      -8.265   3.453  72.367  1.00  0.00    -0.081 P  
HETATM   40  C   UNL     1      -9.662   2.479  71.553  1.00  0.00    -0.152 C  
HETATM   41  O   UNL     1      -7.338   2.238  72.124  1.00  0.00    -0.037 OA 
HETATM   42  C   UNL     1      -7.308   4.458  71.074  1.00  0.00    -0.045 C  
ENDBRANCH  31  33
ENDBRANCH  26  31
ENDBRANCH  22  24
ENDBRANCH   7  22
ENDBRANCH   2   3
TORSDOF 7
ENDMDL
MODEL       17
REMARK 921   NORMALIZED FREE ENERGY PREDICTED BY IDOCK:   -6.61 KCAL/MOL
REMARK 922        TOTAL FREE ENERGY PREDICTED BY IDOCK:  -10.62 KCAL/MOL
REMARK 923 INTER-LIGAND FREE ENERGY PREDICTED BY IDOCK:   -9.14 KCAL/MOL
REMARK 924 INTRA-LIGAND FREE ENERGY PREDICTED BY IDOCK:   -1.48 KCAL/MOL
REMARK 927      BINDING AFFINITY PREDICTED BY RF-SCORE:    0.00 PKD
ROOT
HETATM    1  C   UNL     1     -12.500  10.379  70.832  1.00  0.00    -0.381 C  
HETATM    2  O   UNL     1     -11.389   9.987  70.035  1.00  0.00    -0.253 OA 
ENDROOT
BRANCH   2   3
HETATM    3  C   UNL     1     -11.091  10.710  68.895  1.00  0.00    -0.261 A  
HETATM    4  C   UNL     1     -10.978  12.124  68.841  1.00  0.00    -0.269 A  
HETATM    5  C   UNL     1     -10.693  12.825  67.651  1.00  0.00    -0.219 A  
HETATM    6  C   UNL     1     -10.512  12.002  66.515  1.00  0.00    -0.253 A  
HETATM    7  C   UNL     1     -10.890   9.899  67.741  1.00  0.00    -0.264 A  
HETATM    8  C   UNL     1     -10.606  10.577  66.562  1.00  0.00    -0.240 A  
BRANCH   5   9
HETATM    9  N   UNL     1     -10.541  14.219  67.638  1.00  0.00    -0.252 NA 
HETATM   10  C   UNL     1      -9.568  14.794  66.688  1.00  0.00    -0.272 C  
HETATM   11  C   UNL     1     -10.037  16.192  66.276  1.00  0.00    -0.337 C  
HETATM   12  C   UNL     1     -10.191  17.177  67.460  1.00  0.00    -0.323 C  
HETATM   13  C   UNL     1     -11.073  16.471  68.524  1.00  0.00    -0.335 C  
HETATM   14  C   UNL     1     -10.620  15.037  68.870  1.00  0.00    -0.242 C  
BRANCH  12  15
HETATM   15  N   UNL     1      -8.956  17.730  68.087  1.00  0.00    -0.264 NA 
HETATM   16  C   UNL     1      -7.786  17.881  67.194  1.00  0.00    -0.208 C  
HETATM   17  C   UNL     1      -6.991  20.955  67.327  1.00  0.00    -0.376 C  
HETATM   18  C   UNL     1      -9.205  19.076  68.689  1.00  0.00    -0.368 C  
HETATM   19  C   UNL     1      -7.886  19.024  66.154  1.00  0.00    -0.264 C  
HETATM   20  C   UNL     1      -9.293  20.256  67.677  1.00  0.00    -0.353 C  
HETATM   21  N   UNL     1      -8.177  20.355  66.718  1.00  0.00    -0.258 NA 
ENDBRANCH  12  15
ENDBRANCH   5   9
BRANCH   7  22
HETATM   22  N   UNL     1     -10.961   8.486  67.906  1.00  0.00    -0.483 NA 
HETATM   23  H   UNL     1     -11.936   8.194  67.979  1.00  0.00     0.000 HD 
BRANCH  22  24
HETATM   24  C   UNL     1     -10.119   7.366  68.000  1.00  0.00    -0.179 A  
HETATM   25 CL   UNL     1      -7.484   3.814  68.544  1.00  0.00    -0.054 Cl 
HETATM   26  C   UNL     1      -8.973   5.911  69.517  1.00  0.00    -0.129 A  
HETATM   27  C   UNL     1      -8.865   5.649  67.150  1.00  0.00    -0.106 A  
HETATM   28  N   UNL     1      -9.674   6.710  66.922  1.00  0.00    -0.158 NA 
HETATM   29  C   UNL     1      -8.474   5.213  68.412  1.00  0.00    -0.095 A  
HETATM   30  N   UNL     1      -9.789   6.988  69.285  1.00  0.00    -0.158 NA 
BRANCH  26  31
HETATM   31  N   UNL     1      -8.536   5.517  70.908  1.00  0.00    -0.126 NA 
HETATM   32  H   UNL     1      -8.479   4.514  71.080  1.00  0.00     0.000 HD 
BRANCH  31  33
HETATM   33  C   UNL     1      -8.177   6.384  72.064  1.00  0.00    -0.109 A  
HETATM   34  C   UNL     1      -7.190   7.338  71.780  1.00  0.00    -0.072 A  
HETATM   35  C   UNL     1      -6.783   8.254  72.736  1.00  0.00    -0.109 A  
HETATM   36  C   UNL     1      -7.384   8.258  74.000  1.00  0.00    -0.211 A  
HETATM   37  C   UNL     1      -8.391   7.344  74.365  1.00  0.00    -0.244 A  
HETATM   38  C   UNL     1      -8.828   6.381  73.453  1.00  0.00    -0.124 A  
HETATM   39  P   UNL     1     -10.080   5.148  73.967  1.00  0.00    -0.260 P  
HETATM   40  C   UNL     1     -11.157   5.534  72.465  1.00  0.00    -0.270 C  
HETATM   41  O   UNL     1     -11.138   4.106  74.401  1.00  0.00    -0.172 OA 
HETATM   42  C   UNL     1      -8.854   3.757  73.571  1.00  0.00    -0.092 C  
ENDBRANCH  31  33
ENDBRANCH  26  31
ENDBRANCH  22  24
ENDBRANCH   7  22
ENDBRANCH   2   3
TORSDOF 7
ENDMDL
MODEL       18
REMARK 921   NORMALIZED FREE ENERGY PREDICTED BY IDOCK:   -6.60 KCAL/MOL
REMARK 922        TOTAL FREE ENERGY PREDICTED BY IDOCK:  -10.61 KCAL/MOL
REMARK 923 INTER-LIGAND FREE ENERGY PREDICTED BY IDOCK:   -9.18 KCAL/MOL
REMARK 924 INTRA-LIGAND FREE ENERGY PREDICTED BY IDOCK:   -1.43 KCAL/MOL
REMARK 927      BINDING AFFINITY PREDICTED BY RF-SCORE:    0.00 PKD
ROOT
HETATM    1  C   UNL     1      -6.096   8.246  65.489  1.00  0.00    -0.045 C  
HETATM    2  O   UNL     1      -7.444   8.259  65.033  1.00  0.00    -0.082 OA 
ENDROOT
BRANCH   2   3
HETATM    3  C   UNL     1      -8.375   9.024  65.711  1.00  0.00    -0.128 A  
HETATM    4  C   UNL     1      -8.327  10.439  65.829  1.00  0.00    -0.158 A  
HETATM    5  C   UNL     1      -9.287  11.180  66.547  1.00  0.00    -0.180 A  
HETATM    6  C   UNL     1     -10.313  10.401  67.130  1.00  0.00    -0.290 A  
HETATM    7  C   UNL     1      -9.427   8.260  66.292  1.00  0.00    -0.203 A  
HETATM    8  C   UNL     1     -10.381   8.979  67.002  1.00  0.00    -0.339 A  
BRANCH   5   9
HETATM    9  N   UNL     1      -9.239  12.581  66.607  1.00  0.00    -0.227 NA 
HETATM   10  C   UNL     1      -8.447  13.194  67.691  1.00  0.00    -0.194 C  
HETATM   11  C   UNL     1      -7.900  14.541  67.211  1.00  0.00    -0.199 C  
HETATM   12  C   UNL     1      -8.995  15.548  66.788  1.00  0.00    -0.266 C  
HETATM   13  C   UNL     1      -9.922  14.815  65.782  1.00  0.00    -0.375 C  
HETATM   14  C   UNL     1     -10.403  13.428  66.261  1.00  0.00    -0.291 C  
BRANCH  12  15
HETATM   15  N   UNL     1      -9.801  16.209  67.856  1.00  0.00    -0.233 NA 
HETATM   16  C   UNL     1      -9.035  16.939  68.889  1.00  0.00    -0.215 C  
HETATM   17  C   UNL     1     -10.120  19.926  68.815  1.00  0.00    -0.379 C  
HETATM   18  C   UNL     1     -10.775  17.186  67.281  1.00  0.00    -0.208 C  
HETATM   19  C   UNL     1      -8.388  18.267  68.422  1.00  0.00    -0.307 C  
HETATM   20  C   UNL     1     -10.166  18.543  66.817  1.00  0.00    -0.393 C  
HETATM   21  N   UNL     1      -9.319  19.231  67.809  1.00  0.00    -0.305 NA 
ENDBRANCH  12  15
ENDBRANCH   5   9
BRANCH   7  22
HETATM   22  N   UNL     1      -9.425   6.854  66.066  1.00  0.00    -0.394 NA 
HETATM   23  H   UNL     1      -9.468   6.664  65.065  1.00  0.00     0.000 HD 
BRANCH  22  24
HETATM   24  C   UNL     1      -9.385   5.646  66.780  1.00  0.00    -0.134 A  
HETATM   25 CL   UNL     1      -9.372   1.924  69.230  1.00  0.00    -0.186 Cl 
HETATM   26  C   UNL     1      -9.795   4.622  68.905  1.00  0.00    -0.140 A  
HETATM   27  C   UNL     1      -8.993   3.403  67.019  1.00  0.00    -0.156 A  
HETATM   28  N   UNL     1      -8.990   4.495  66.222  1.00  0.00    -0.116 NA 
HETATM   29  C   UNL     1      -9.369   3.405  68.359  1.00  0.00    -0.177 A  
HETATM   30  N   UNL     1      -9.787   5.729  68.096  1.00  0.00    -0.128 NA 
BRANCH  26  31
HETATM   31  N   UNL     1     -10.160   4.696  70.368  1.00  0.00    -0.232 NA 
HETATM   32  H   UNL     1     -10.104   3.815  70.877  1.00  0.00     0.000 HD 
BRANCH  31  33
HETATM   33  C   UNL     1     -10.591   5.872  71.174  1.00  0.00    -0.246 A  
HETATM   34  C   UNL     1     -11.776   6.471  70.724  1.00  0.00    -0.427 A  
HETATM   35  C   UNL     1     -12.335   7.544  71.398  1.00  0.00    -0.374 A  
HETATM   36  C   UNL     1     -11.735   8.024  72.568  1.00  0.00    -0.446 A  
HETATM   37  C   UNL     1     -10.552   7.472  73.097  1.00  0.00    -0.442 A  
HETATM   38  C   UNL     1      -9.927   6.404  72.450  1.00  0.00    -0.171 A  
HETATM   39  P   UNL     1      -8.347   5.749  73.102  1.00  0.00    -0.116 P  
HETATM   40  C   UNL     1      -9.015   3.983  73.101  1.00  0.00    -0.107 C  
HETATM   41  O   UNL     1      -7.011   5.195  73.655  1.00  0.00    -0.077 OA 
HETATM   42  C   UNL     1      -7.512   6.150  71.448  1.00  0.00    -0.093 C  
ENDBRANCH  31  33
ENDBRANCH  26  31
ENDBRANCH  22  24
ENDBRANCH   7  22
ENDBRANCH   2   3
TORSDOF 7
ENDMDL
MODEL       19
REMARK 921   NORMALIZED FREE ENERGY PREDICTED BY IDOCK:   -6.57 KCAL/MOL
REMARK 922        TOTAL FREE ENERGY PREDICTED BY IDOCK:  -10.57 KCAL/MOL
REMARK 923 INTER-LIGAND FREE ENERGY PREDICTED BY IDOCK:   -9.12 KCAL/MOL
REMARK 924 INTRA-LIGAND FREE ENERGY PREDICTED BY IDOCK:   -1.45 KCAL/MOL
REMARK 927      BINDING AFFINITY PREDICTED BY RF-SCORE:    0.00 PKD
ROOT
HETATM    1  C   UNL     1      -7.898   8.523  64.807  1.00  0.00    -0.125 C  
HETATM    2  O   UNL     1      -9.290   8.755  64.977  1.00  0.00    -0.013 OA 
ENDROOT
BRANCH   2   3
HETATM    3  C   UNL     1      -9.707   9.694  65.903  1.00  0.00    -0.275 A  
HETATM    4  C   UNL     1      -9.391  11.078  65.849  1.00  0.00    -0.229 A  
HETATM    5  C   UNL     1      -9.819  12.000  66.826  1.00  0.00    -0.204 A  
HETATM    6  C   UNL     1     -10.604  11.437  67.860  1.00  0.00    -0.224 A  
HETATM    7  C   UNL     1     -10.512   9.151  66.944  1.00  0.00    -0.217 A  
HETATM    8  C   UNL     1     -10.942  10.049  67.914  1.00  0.00    -0.311 A  
BRANCH   5   9
HETATM    9  N   UNL     1      -9.531  13.368  66.722  1.00  0.00    -0.255 NA 
HETATM   10  C   UNL     1      -8.522  13.928  67.642  1.00  0.00    -0.192 C  
HETATM   11  C   UNL     1      -7.819  15.105  66.959  1.00  0.00    -0.197 C  
HETATM   12  C   UNL     1      -8.773  16.248  66.539  1.00  0.00    -0.292 C  
HETATM   13  C   UNL     1      -9.924  15.601  65.722  1.00  0.00    -0.390 C  
HETATM   14  C   UNL     1     -10.569  14.374  66.402  1.00  0.00    -0.297 C  
BRANCH  12  15
HETATM   15  N   UNL     1      -9.322  17.139  67.602  1.00  0.00    -0.237 NA 
HETATM   16  C   UNL     1      -8.408  18.185  68.108  1.00  0.00    -0.277 C  
HETATM   17  C   UNL     1      -9.903  20.947  67.623  1.00  0.00    -0.114 C  
HETATM   18  C   UNL     1     -10.557  17.845  67.139  1.00  0.00    -0.307 C  
HETATM   19  C   UNL     1      -8.132  19.357  67.133  1.00  0.00    -0.266 C  
HETATM   20  C   UNL     1     -10.321  19.042  66.172  1.00  0.00    -0.468 C  
HETATM   21  N   UNL     1      -9.335  20.041  66.626  1.00  0.00    -0.378 NA 
ENDBRANCH  12  15
ENDBRANCH   5   9
BRANCH   7  22
HETATM   22  N   UNL     1     -10.829   7.763  66.879  1.00  0.00    -0.490 NA 
HETATM   23  H   UNL     1     -11.635   7.621  66.270  1.00  0.00     0.000 HD 
BRANCH  22  24
HETATM   24  C   UNL     1     -10.389   6.530  67.384  1.00  0.00    -0.208 A  
HETATM   25 CL   UNL     1      -8.953   2.726  69.206  1.00  0.00    -0.155 Cl 
HETATM   26  C   UNL     1      -9.370   5.444  69.258  1.00  0.00    -0.120 A  
HETATM   27  C   UNL     1     -10.031   4.271  67.291  1.00  0.00    -0.086 A  
HETATM   28  N   UNL     1     -10.498   5.390  66.692  1.00  0.00    -0.275 NA 
HETATM   29  C   UNL     1      -9.451   4.236  68.555  1.00  0.00    -0.153 A  
HETATM   30  N   UNL     1      -9.840   6.578  68.649  1.00  0.00    -0.137 NA 
BRANCH  26  31
HETATM   31  N   UNL     1      -8.698   5.475  70.611  1.00  0.00    -0.128 NA 
HETATM   32  H   UNL     1      -7.680   5.509  70.592  1.00  0.00     0.000 HD 
BRANCH  31  33
HETATM   33  C   UNL     1      -9.311   5.463  71.968  1.00  0.00    -0.144 A  
HETATM   34  C   UNL     1     -10.238   4.431  72.169  1.00  0.00    -0.247 A  
HETATM   35  C   UNL     1     -10.856   4.253  73.396  1.00  0.00    -0.337 A  
HETATM   36  C   UNL     1     -10.533   5.092  74.469  1.00  0.00    -0.274 A  
HETATM   37  C   UNL     1      -9.604   6.145  74.357  1.00  0.00    -0.235 A  
HETATM   38  C   UNL     1      -8.965   6.390  73.140  1.00  0.00    -0.128 A  
HETATM   39  P   UNL     1      -7.821   7.810  72.988  1.00  0.00    -0.142 P  
HETATM   40  C   UNL     1      -6.463   6.712  72.273  1.00  0.00    -0.058 C  
HETATM   41  O   UNL     1      -6.854   9.012  72.859  1.00  0.00    -0.325 OA 
HETATM   42  C   UNL     1      -8.906   8.519  71.603  1.00  0.00    -0.207 C  
ENDBRANCH  31  33
ENDBRANCH  26  31
ENDBRANCH  22  24
ENDBRANCH   7  22
ENDBRANCH   2   3
TORSDOF 7
ENDMDL
MODEL       20
REMARK 921   NORMALIZED FREE ENERGY PREDICTED BY IDOCK:   -6.47 KCAL/MOL
REMARK 922        TOTAL FREE ENERGY PREDICTED BY IDOCK:  -10.42 KCAL/MOL
REMARK 923 INTER-LIGAND FREE ENERGY PREDICTED BY IDOCK:   -9.46 KCAL/MOL
REMARK 924 INTRA-LIGAND FREE ENERGY PREDICTED BY IDOCK:   -0.97 KCAL/MOL
REMARK 927      BINDING AFFINITY PREDICTED BY RF-SCORE:    0.00 PKD
ROOT
HETATM    1  C   UNL     1     -10.719  11.308  63.589  1.00  0.00    -0.367 C  
HETATM    2  O   UNL     1      -9.616  11.490  64.468  1.00  0.00    -0.222 OA 
ENDROOT
BRANCH   2   3
HETATM    3  C   UNL     1      -9.821  11.401  65.832  1.00  0.00    -0.226 A  
HETATM    4  C   UNL     1      -9.923  10.183  66.556  1.00  0.00    -0.283 A  
HETATM    5  C   UNL     1     -10.154  10.136  67.946  1.00  0.00    -0.176 A  
HETATM    6  C   UNL     1     -10.259  11.403  68.566  1.00  0.00    -0.216 A  
HETATM    7  C   UNL     1      -9.914  12.666  66.479  1.00  0.00    -0.251 A  
HETATM    8  C   UNL     1     -10.139  12.634  67.850  1.00  0.00    -0.222 A  
BRANCH   5   9
HETATM    9  N   UNL     1     -10.204   8.919  68.642  1.00  0.00    -0.196 NA 
HETATM   10  C   UNL     1     -10.700   8.944  70.032  1.00  0.00    -0.228 C  
HETATM   11  C   UNL     1     -11.371   7.605  70.349  1.00  0.00    -0.235 C  
HETATM   12  C   UNL     1     -10.436   6.382  70.194  1.00  0.00    -0.216 C  
HETATM   13  C   UNL     1      -9.789   6.481  68.787  1.00  0.00    -0.146 C  
HETATM   14  C   UNL     1      -9.181   7.863  68.466  1.00  0.00    -0.138 C  
BRANCH  12  15
HETATM   15  N   UNL     1      -9.392   6.153  71.235  1.00  0.00    -0.159 NA 
HETATM   16  C   UNL     1      -9.694   6.678  72.584  1.00  0.00    -0.160 C  
HETATM   17  C   UNL     1      -9.542   4.175  74.537  1.00  0.00    -0.118 C  
HETATM   18  C   UNL     1      -9.100   4.696  71.404  1.00  0.00    -0.131 C  
HETATM   19  C   UNL     1     -10.784   5.907  73.369  1.00  0.00    -0.267 C  
HETATM   20  C   UNL     1     -10.164   3.889  72.205  1.00  0.00    -0.146 C  
HETATM   21  N   UNL     1     -10.543   4.459  73.511  1.00  0.00    -0.201 NA 
ENDBRANCH  12  15
ENDBRANCH   5   9
BRANCH   7  22
HETATM   22  N   UNL     1      -9.734  13.832  65.681  1.00  0.00    -0.503 NA 
HETATM   23  H   UNL     1      -9.490  13.564  64.727  1.00  0.00     0.000 HD 
BRANCH  22  24
HETATM   24  C   UNL     1      -9.784  15.231  65.786  1.00  0.00    -0.350 A  
HETATM   25 CL   UNL     1      -9.702  19.669  66.171  1.00  0.00    -0.480 Cl 
HETATM   26  C   UNL     1      -8.553  17.183  66.421  1.00  0.00    -0.265 A  
HETATM   27  C   UNL     1     -10.786  17.280  65.591  1.00  0.00    -0.120 A  
HETATM   28  N   UNL     1     -10.865  15.939  65.437  1.00  0.00    -0.365 NA 
HETATM   29  C   UNL     1      -9.672  17.953  66.084  1.00  0.00    -0.216 A  
HETATM   30  N   UNL     1      -8.636  15.823  66.268  1.00  0.00    -0.313 NA 
BRANCH  26  31
HETATM   31  N   UNL     1      -7.337  17.854  67.014  1.00  0.00    -0.189 NA 
HETATM   32  H   UNL     1      -6.998  17.451  67.887  1.00  0.00     0.000 HD 
BRANCH  31  33
HETATM   33  C   UNL     1      -6.563  19.021  66.508  1.00  0.00    -0.193 A  
HETATM   34  C   UNL     1      -6.417  19.050  65.114  1.00  0.00    -0.276 A  
HETATM   35  C   UNL     1      -5.767  20.098  64.484  1.00  0.00    -0.261 A  
HETATM   36  C   UNL     1      -5.273  21.169  65.239  1.00  0.00    -0.225 A  
HETATM   37  C   UNL     1      -5.390  21.227  66.642  1.00  0.00    -0.299 A  
HETATM   38  C   UNL     1      -6.014  20.189  67.337  1.00  0.00    -0.183 A  
HETATM   39  P   UNL     1      -6.086  20.238  69.165  1.00  0.00    -0.312 P  
HETATM   40  C   UNL     1      -7.950  19.936  69.155  1.00  0.00     0.037 C  
HETATM   41  O   UNL     1      -6.148  20.280  70.711  1.00  0.00    -0.449 OA 
HETATM   42  C   UNL     1      -5.143  18.595  69.234  1.00  0.00    -0.190 C  
ENDBRANCH  31  33
ENDBRANCH  26  31
ENDBRANCH  22  24
ENDBRANCH   7  22
ENDBRANCH   2   3
TORSDOF 7
ENDMDL
MODEL       21
REMARK 921   NORMALIZED FREE ENERGY PREDICTED BY IDOCK:   -6.42 KCAL/MOL
REMARK 922        TOTAL FREE ENERGY PREDICTED BY IDOCK:  -10.35 KCAL/MOL
REMARK 923 INTER-LIGAND FREE ENERGY PREDICTED BY IDOCK:   -9.19 KCAL/MOL
REMARK 924 INTRA-LIGAND FREE ENERGY PREDICTED BY IDOCK:   -1.16 KCAL/MOL
REMARK 927      BINDING AFFINITY PREDICTED BY RF-SCORE:    0.00 PKD
ROOT
HETATM    1  C   UNL     1      -7.645   9.841  63.780  1.00  0.00    -0.131 C  
HETATM    2  O   UNL     1      -8.747   9.144  64.347  1.00  0.00    -0.193 OA 
ENDROOT
BRANCH   2   3
HETATM    3  C   UNL     1      -9.401   9.692  65.436  1.00  0.00    -0.259 A  
HETATM    4  C   UNL     1      -9.590  11.083  65.649  1.00  0.00    -0.265 A  
HETATM    5  C   UNL     1     -10.246  11.602  66.785  1.00  0.00    -0.217 A  
HETATM    6  C   UNL     1     -10.714  10.621  67.690  1.00  0.00    -0.315 A  
HETATM    7  C   UNL     1      -9.895   8.721  66.352  1.00  0.00    -0.282 A  
HETATM    8  C   UNL     1     -10.544   9.217  67.476  1.00  0.00    -0.329 A  
BRANCH   5   9
HETATM    9  N   UNL     1     -10.459  12.978  66.945  1.00  0.00    -0.253 NA 
HETATM   10  C   UNL     1      -9.649  13.898  66.122  1.00  0.00    -0.229 C  
HETATM   11  C   UNL     1     -10.455  15.173  65.856  1.00  0.00    -0.350 C  
HETATM   12  C   UNL     1     -10.882  15.925  67.139  1.00  0.00    -0.267 C  
HETATM   13  C   UNL     1     -11.573  14.888  68.064  1.00  0.00    -0.363 C  
HETATM   14  C   UNL     1     -10.771  13.583  68.260  1.00  0.00    -0.258 C  
BRANCH  12  15
HETATM   15  N   UNL     1      -9.845  16.689  67.891  1.00  0.00    -0.243 NA 
HETATM   16  C   UNL     1      -8.677  17.145  67.106  1.00  0.00    -0.212 C  
HETATM   17  C   UNL     1      -8.586  20.303  67.452  1.00  0.00    -0.343 C  
HETATM   18  C   UNL     1     -10.423  17.907  68.535  1.00  0.00    -0.305 C  
HETATM   19  C   UNL     1      -8.953  18.305  66.117  1.00  0.00    -0.095 C  
HETATM   20  C   UNL     1     -10.697  19.104  67.578  1.00  0.00    -0.458 C  
HETATM   21  N   UNL     1      -9.566  19.503  66.719  1.00  0.00    -0.334 NA 
ENDBRANCH  12  15
ENDBRANCH   5   9
BRANCH   7  22
HETATM   22  N   UNL     1      -9.713   7.347  66.022  1.00  0.00    -0.419 NA 
HETATM   23  H   UNL     1      -9.623   7.243  65.010  1.00  0.00     0.000 HD 
BRANCH  22  24
HETATM   24  C   UNL     1      -9.620   6.090  66.641  1.00  0.00    -0.154 A  
HETATM   25 CL   UNL     1      -9.407   2.206  68.813  1.00  0.00    -0.221 Cl 
HETATM   26  C   UNL     1      -9.773   4.930  68.729  1.00  0.00    -0.165 A  
HETATM   27  C   UNL     1      -9.279   3.826  66.674  1.00  0.00    -0.174 A  
HETATM   28  N   UNL     1      -9.345   4.972  65.958  1.00  0.00    -0.151 NA 
HETATM   29  C   UNL     1      -9.470   3.744  68.050  1.00  0.00    -0.164 A  
HETATM   30  N   UNL     1      -9.837   6.091  68.002  1.00  0.00    -0.119 NA 
BRANCH  26  31
HETATM   31  N   UNL     1      -9.934   4.910  70.230  1.00  0.00    -0.234 NA 
HETATM   32  H   UNL     1     -10.830   4.562  70.569  1.00  0.00     0.000 HD 
BRANCH  31  33
HETATM   33  C   UNL     1      -8.970   5.325  71.287  1.00  0.00    -0.140 A  
HETATM   34  C   UNL     1      -7.725   4.686  71.209  1.00  0.00    -0.081 A  
HETATM   35  C   UNL     1      -6.703   5.002  72.089  1.00  0.00    -0.052 A  
HETATM   36  C   UNL     1      -6.894   5.997  73.055  1.00  0.00    -0.079 A  
HETATM   37  C   UNL     1      -8.109   6.696  73.194  1.00  0.00    -0.108 A  
HETATM   38  C   UNL     1      -9.185   6.407  72.352  1.00  0.00    -0.137 A  
HETATM   39  P   UNL     1     -10.782   7.266  72.596  1.00  0.00    -0.337 P  
HETATM   40  C   UNL     1     -10.857   7.763  70.777  1.00  0.00    -0.239 C  
HETATM   41  O   UNL     1     -12.134   7.994  72.803  1.00  0.00    -0.297 OA 
HETATM   42  C   UNL     1     -11.628   5.591  72.868  1.00  0.00    -0.218 C  
ENDBRANCH  31  33
ENDBRANCH  26  31
ENDBRANCH  22  24
ENDBRANCH   7  22
ENDBRANCH   2   3
TORSDOF 7
ENDMDL
MODEL       22
REMARK 921   NORMALIZED FREE ENERGY PREDICTED BY IDOCK:   -6.33 KCAL/MOL
REMARK 922        TOTAL FREE ENERGY PREDICTED BY IDOCK:  -10.23 KCAL/MOL
REMARK 923 INTER-LIGAND FREE ENERGY PREDICTED BY IDOCK:   -9.67 KCAL/MOL
REMARK 924 INTRA-LIGAND FREE ENERGY PREDICTED BY IDOCK:   -0.56 KCAL/MOL
REMARK 927      BINDING AFFINITY PREDICTED BY RF-SCORE:    0.00 PKD
ROOT
HETATM    1  C   UNL     1     -10.452  11.368  64.592  1.00  0.00    -0.315 C  
HETATM    2  O   UNL     1      -9.692  11.710  65.744  1.00  0.00    -0.225 OA 
ENDROOT
BRANCH   2   3
HETATM    3  C   UNL     1     -10.171  11.360  66.993  1.00  0.00    -0.213 A  
HETATM    4  C   UNL     1     -10.178  10.040  67.516  1.00  0.00    -0.260 A  
HETATM    5  C   UNL     1     -10.695   9.722  68.788  1.00  0.00    -0.215 A  
HETATM    6  C   UNL     1     -11.194  10.831  69.511  1.00  0.00    -0.342 A  
HETATM    7  C   UNL     1     -10.664  12.465  67.745  1.00  0.00    -0.221 A  
HETATM    8  C   UNL     1     -11.176  12.167  69.002  1.00  0.00    -0.314 A  
BRANCH   5   9
HETATM    9  N   UNL     1     -10.646   8.416  69.297  1.00  0.00    -0.212 NA 
HETATM   10  C   UNL     1     -11.266   8.170  70.614  1.00  0.00    -0.260 C  
HETATM   11  C   UNL     1     -11.778   6.728  70.664  1.00  0.00    -0.440 C  
HETATM   12  C   UNL     1     -10.678   5.662  70.443  1.00  0.00    -0.282 C  
HETATM   13  C   UNL     1      -9.925   6.051  69.144  1.00  0.00    -0.205 C  
HETATM   14  C   UNL     1      -9.480   7.528  69.089  1.00  0.00    -0.150 C  
BRANCH  12  15
HETATM   15  N   UNL     1      -9.713   5.401  71.551  1.00  0.00    -0.155 NA 
HETATM   16  C   UNL     1     -10.253   5.513  72.923  1.00  0.00    -0.186 C  
HETATM   17  C   UNL     1      -9.716   2.694  74.290  1.00  0.00    -0.095 C  
HETATM   18  C   UNL     1      -9.112   4.037  71.441  1.00  0.00    -0.117 C  
HETATM   19  C   UNL     1     -11.206   4.371  73.356  1.00  0.00    -0.295 C  
HETATM   20  C   UNL     1     -10.033   2.863  71.886  1.00  0.00    -0.143 C  
HETATM   21  N   UNL     1     -10.654   3.012  73.216  1.00  0.00    -0.162 NA 
ENDBRANCH  12  15
ENDBRANCH   5   9
BRANCH   7  22
HETATM   22  N   UNL     1     -10.556  13.761  67.163  1.00  0.00    -0.275 NA 
HETATM   23  H   UNL     1     -10.642  13.694  66.149  1.00  0.00     0.000 HD 
BRANCH  22  24
HETATM   24  C   UNL     1     -10.371  15.101  67.539  1.00  0.00    -0.242 A  
HETATM   25 CL   UNL     1      -9.568  19.352  68.604  1.00  0.00    -0.465 Cl 
HETATM   26  C   UNL     1      -8.829  16.932  67.527  1.00  0.00    -0.209 A  
HETATM   27  C   UNL     1     -11.012  17.091  68.471  1.00  0.00    -0.247 A  
HETATM   28  N   UNL     1     -11.320  15.810  68.160  1.00  0.00    -0.353 NA 
HETATM   29  C   UNL     1      -9.792  17.698  68.194  1.00  0.00    -0.318 A  
HETATM   30  N   UNL     1      -9.141  15.634  67.216  1.00  0.00    -0.200 NA 
BRANCH  26  31
HETATM   31  N   UNL     1      -7.466  17.522  67.252  1.00  0.00    -0.188 NA 
HETATM   32  H   UNL     1      -6.970  17.123  66.456  1.00  0.00     0.000 HD 
BRANCH  31  33
HETATM   33  C   UNL     1      -6.743  18.603  67.977  1.00  0.00    -0.221 A  
HETATM   34  C   UNL     1      -6.563  18.354  69.345  1.00  0.00    -0.223 A  
HETATM   35  C   UNL     1      -5.863  19.240  70.147  1.00  0.00    -0.281 A  
HETATM   36  C   UNL     1      -5.294  20.390  69.587  1.00  0.00    -0.328 A  
HETATM   37  C   UNL     1      -5.416  20.710  68.221  1.00  0.00    -0.309 A  
HETATM   38  C   UNL     1      -6.129  19.868  67.364  1.00  0.00    -0.184 A  
HETATM   39  P   UNL     1      -6.348  20.337  65.609  1.00  0.00    -0.266 P  
HETATM   40  C   UNL     1      -5.721  18.655  65.024  1.00  0.00    -0.237 C  
HETATM   41  O   UNL     1      -6.533  20.733  64.124  1.00  0.00    -0.316 OA 
HETATM   42  C   UNL     1      -8.229  20.304  65.847  1.00  0.00    -0.007 C  
ENDBRANCH  31  33
ENDBRANCH  26  31
ENDBRANCH  22  24
ENDBRANCH   7  22
ENDBRANCH   2   3
TORSDOF 7
ENDMDL
MODEL       23
REMARK 921   NORMALIZED FREE ENERGY PREDICTED BY IDOCK:   -6.28 KCAL/MOL
REMARK 922        TOTAL FREE ENERGY PREDICTED BY IDOCK:  -10.16 KCAL/MOL
REMARK 923 INTER-LIGAND FREE ENERGY PREDICTED BY IDOCK:   -9.69 KCAL/MOL
REMARK 924 INTRA-LIGAND FREE ENERGY PREDICTED BY IDOCK:   -0.47 KCAL/MOL
REMARK 927      BINDING AFFINITY PREDICTED BY RF-SCORE:    0.00 PKD
ROOT
HETATM    1  C   UNL     1     -13.352  10.910  71.980  1.00  0.00    -0.289 C  
HETATM    2  O   UNL     1     -12.789  11.249  70.719  1.00  0.00    -0.277 OA 
ENDROOT
BRANCH   2   3
HETATM    3  C   UNL     1     -11.589  10.674  70.343  1.00  0.00    -0.351 A  
HETATM    4  C   UNL     1     -10.909   9.667  71.078  1.00  0.00    -0.412 A  
HETATM    5  C   UNL     1      -9.676   9.121  70.669  1.00  0.00    -0.256 A  
HETATM    6  C   UNL     1      -9.175   9.647  69.456  1.00  0.00    -0.214 A  
HETATM    7  C   UNL     1     -11.075  11.178  69.114  1.00  0.00    -0.248 A  
HETATM    8  C   UNL     1      -9.860  10.648  68.698  1.00  0.00    -0.183 A  
BRANCH   5   9
HETATM    9  N   UNL     1      -9.050   8.094  71.392  1.00  0.00    -0.143 NA 
HETATM   10  C   UNL     1      -9.559   6.720  71.210  1.00  0.00    -0.169 C  
HETATM   11  C   UNL     1      -8.409   5.730  71.416  1.00  0.00    -0.127 C  
HETATM   12  C   UNL     1      -7.748   5.817  72.812  1.00  0.00    -0.097 C  
HETATM   13  C   UNL     1      -7.386   7.307  73.050  1.00  0.00    -0.079 C  
HETATM   14  C   UNL     1      -8.543   8.290  72.769  1.00  0.00    -0.203 C  
BRANCH  12  15
HETATM   15  N   UNL     1      -8.489   5.263  73.982  1.00  0.00    -0.113 NA 
HETATM   16  C   UNL     1      -9.913   4.937  73.755  1.00  0.00    -0.161 C  
HETATM   17  C   UNL     1     -10.216   1.855  74.469  1.00  0.00    -0.122 C  
HETATM   18  C   UNL     1      -7.845   4.015  74.496  1.00  0.00    -0.086 C  
HETATM   19  C   UNL     1     -10.177   3.689  72.875  1.00  0.00    -0.163 C  
HETATM   20  C   UNL     1      -8.103   2.733  73.650  1.00  0.00    -0.067 C  
HETATM   21  N   UNL     1      -9.516   2.454  73.334  1.00  0.00    -0.083 NA 
ENDBRANCH  12  15
ENDBRANCH   5   9
BRANCH   7  22
HETATM   22  N   UNL     1     -11.859  12.141  68.415  1.00  0.00    -0.339 NA 
HETATM   23  H   UNL     1     -12.799  12.174  68.810  1.00  0.00     0.000 HD 
BRANCH  22  24
HETATM   24  C   UNL     1     -11.752  13.058  67.358  1.00  0.00    -0.374 A  
HETATM   25 CL   UNL     1     -11.197  16.041  64.095  1.00  0.00    -0.125 Cl 
HETATM   26  C   UNL     1     -10.487  14.896  66.493  1.00  0.00    -0.297 A  
HETATM   27  C   UNL     1     -12.393  14.003  65.373  1.00  0.00    -0.478 A  
HETATM   28  N   UNL     1     -12.603  13.065  66.325  1.00  0.00    -0.314 NA 
HETATM   29  C   UNL     1     -11.369  14.944  65.407  1.00  0.00    -0.346 A  
HETATM   30  N   UNL     1     -10.704  13.947  67.458  1.00  0.00    -0.265 NA 
BRANCH  26  31
HETATM   31  N   UNL     1      -9.392  15.930  66.610  1.00  0.00    -0.230 NA 
HETATM   32  H   UNL     1      -8.482  15.645  66.249  1.00  0.00     0.000 HD 
BRANCH  31  33
HETATM   33  C   UNL     1      -9.451  17.305  67.177  1.00  0.00    -0.256 A  
HETATM   34  C   UNL     1     -10.601  18.023  66.820  1.00  0.00    -0.281 A  
HETATM   35  C   UNL     1     -10.830  19.298  67.309  1.00  0.00    -0.554 A  
HETATM   36  C   UNL     1      -9.920  19.878  68.203  1.00  0.00    -0.551 A  
HETATM   37  C   UNL     1      -8.747  19.221  68.623  1.00  0.00    -0.402 A  
HETATM   38  C   UNL     1      -8.449  17.943  68.147  1.00  0.00    -0.267 A  
HETATM   39  P   UNL     1      -6.882  17.135  68.639  1.00  0.00    -0.217 P  
HETATM   40  C   UNL     1      -7.792  15.573  69.180  1.00  0.00    -0.215 C  
HETATM   41  O   UNL     1      -5.557  16.452  69.056  1.00  0.00    -0.120 OA 
HETATM   42  C   UNL     1      -6.382  17.021  66.814  1.00  0.00    -0.211 C  
ENDBRANCH  31  33
ENDBRANCH  26  31
ENDBRANCH  22  24
ENDBRANCH   7  22
ENDBRANCH   2   3
TORSDOF 7
ENDMDL
MODEL       24
REMARK 921   NORMALIZED FREE ENERGY PREDICTED BY IDOCK:   -6.25 KCAL/MOL
REMARK 922        TOTAL FREE ENERGY PREDICTED BY IDOCK:  -10.13 KCAL/MOL
REMARK 923 INTER-LIGAND FREE ENERGY PREDICTED BY IDOCK:   -9.46 KCAL/MOL
REMARK 924 INTRA-LIGAND FREE ENERGY PREDICTED BY IDOCK:   -0.67 KCAL/MOL
REMARK 927      BINDING AFFINITY PREDICTED BY RF-SCORE:    0.00 PKD
ROOT
HETATM    1  C   UNL     1     -14.057   8.032  71.864  1.00  0.00    -0.397 C  
HETATM    2  O   UNL     1     -12.663   8.275  72.011  1.00  0.00    -0.321 OA 
ENDROOT
BRANCH   2   3
HETATM    3  C   UNL     1     -11.870   8.344  70.880  1.00  0.00    -0.217 A  
HETATM    4  C   UNL     1     -11.094   7.269  70.370  1.00  0.00    -0.291 A  
HETATM    5  C   UNL     1     -10.281   7.388  69.224  1.00  0.00    -0.199 A  
HETATM    6  C   UNL     1     -10.313   8.663  68.612  1.00  0.00    -0.219 A  
HETATM    7  C   UNL     1     -11.900   9.615  70.239  1.00  0.00    -0.099 A  
HETATM    8  C   UNL     1     -11.105   9.746  69.107  1.00  0.00    -0.158 A  
BRANCH   5   9
HETATM    9  N   UNL     1      -9.562   6.296  68.716  1.00  0.00    -0.121 NA 
HETATM   10  C   UNL     1      -8.105   6.457  68.542  1.00  0.00    -0.110 C  
HETATM   11  C   UNL     1      -7.427   5.096  68.720  1.00  0.00    -0.066 C  
HETATM   12  C   UNL     1      -7.914   4.016  67.724  1.00  0.00    -0.090 C  
HETATM   13  C   UNL     1      -9.464   3.997  67.799  1.00  0.00    -0.228 C  
HETATM   14  C   UNL     1     -10.120   5.390  67.687  1.00  0.00    -0.175 C  
BRANCH  12  15
HETATM   15  N   UNL     1      -7.460   4.104  66.306  1.00  0.00    -0.083 NA 
HETATM   16  C   UNL     1      -6.005   3.964  66.080  1.00  0.00    -0.027 C  
HETATM   17  C   UNL     1      -5.675   1.513  64.084  1.00  0.00    -0.008 C  
HETATM   18  C   UNL     1      -8.122   3.068  65.455  1.00  0.00    -0.086 C  
HETATM   19  C   UNL     1      -5.436   2.536  66.275  1.00  0.00    -0.016 C  
HETATM   20  C   UNL     1      -7.565   1.622  65.608  1.00  0.00    -0.066 C  
HETATM   21  N   UNL     1      -6.102   1.487  65.481  1.00  0.00    -0.021 NA 
ENDBRANCH  12  15
ENDBRANCH   5   9
BRANCH   7  22
HETATM   22  N   UNL     1     -12.758  10.612  70.787  1.00  0.00    -0.371 NA 
HETATM   23  H   UNL     1     -13.674  10.209  70.986  1.00  0.00     0.000 HD 
BRANCH  22  24
HETATM   24  C   UNL     1     -12.747  11.970  71.141  1.00  0.00    -0.266 A  
HETATM   25 CL   UNL     1     -12.622  16.333  72.040  1.00  0.00    -0.328 Cl 
HETATM   26  C   UNL     1     -12.047  14.156  70.461  1.00  0.00    -0.350 A  
HETATM   27  C   UNL     1     -13.219  13.754  72.498  1.00  0.00    -0.498 A  
HETATM   28  N   UNL     1     -13.301  12.422  72.272  1.00  0.00    -0.460 NA 
HETATM   29  C   UNL     1     -12.600  14.661  71.643  1.00  0.00    -0.337 A  
HETATM   30  N   UNL     1     -12.128  12.806  70.236  1.00  0.00    -0.342 NA 
BRANCH  26  31
HETATM   31  N   UNL     1     -11.313  15.086  69.525  1.00  0.00    -0.270 NA 
HETATM   32  H   UNL     1     -10.901  15.910  69.961  1.00  0.00     0.000 HD 
BRANCH  31  33
HETATM   33  C   UNL     1     -11.104  14.972  68.055  1.00  0.00    -0.300 A  
HETATM   34  C   UNL     1     -11.993  14.097  67.416  1.00  0.00    -0.439 A  
HETATM   35  C   UNL     1     -11.962  13.921  66.043  1.00  0.00    -0.436 A  
HETATM   36  C   UNL     1     -11.054  14.650  65.265  1.00  0.00    -0.363 A  
HETATM   37  C   UNL     1     -10.135  15.560  65.824  1.00  0.00    -0.388 A  
HETATM   38  C   UNL     1     -10.102  15.763  67.205  1.00  0.00    -0.251 A  
HETATM   39  P   UNL     1      -8.849  16.887  67.925  1.00  0.00    -0.226 P  
HETATM   40  C   UNL     1     -10.170  17.838  68.881  1.00  0.00    -0.345 C  
HETATM   41  O   UNL     1      -7.790  17.838  68.533  1.00  0.00    -0.273 OA 
HETATM   42  C   UNL     1      -8.175  15.451  68.963  1.00  0.00    -0.217 C  
ENDBRANCH  31  33
ENDBRANCH  26  31
ENDBRANCH  22  24
ENDBRANCH   7  22
ENDBRANCH   2   3
TORSDOF 7
ENDMDL
MODEL       25
REMARK 921   NORMALIZED FREE ENERGY PREDICTED BY IDOCK:   -6.25 KCAL/MOL
REMARK 922        TOTAL FREE ENERGY PREDICTED BY IDOCK:  -10.12 KCAL/MOL
REMARK 923 INTER-LIGAND FREE ENERGY PREDICTED BY IDOCK:   -9.63 KCAL/MOL
REMARK 924 INTRA-LIGAND FREE ENERGY PREDICTED BY IDOCK:   -0.49 KCAL/MOL
REMARK 927      BINDING AFFINITY PREDICTED BY RF-SCORE:    0.00 PKD
ROOT
HETATM    1  C   UNL     1     -13.444  13.548  72.329  1.00  0.00    -0.571 C  
HETATM    2  O   UNL     1     -13.134  12.440  71.493  1.00  0.00    -0.378 OA 
ENDROOT
BRANCH   2   3
HETATM    3  C   UNL     1     -12.215  12.605  70.473  1.00  0.00    -0.299 A  
HETATM    4  C   UNL     1     -11.592  13.836  70.137  1.00  0.00    -0.230 A  
HETATM    5  C   UNL     1     -10.674  13.965  69.074  1.00  0.00    -0.195 A  
HETATM    6  C   UNL     1     -10.411  12.763  68.378  1.00  0.00    -0.248 A  
HETATM    7  C   UNL     1     -11.923  11.402  69.769  1.00  0.00    -0.353 A  
HETATM    8  C   UNL     1     -11.018  11.514  68.720  1.00  0.00    -0.271 A  
BRANCH   5   9
HETATM    9  N   UNL     1     -10.040  15.185  68.795  1.00  0.00    -0.219 NA 
HETATM   10  C   UNL     1     -10.865  16.274  68.238  1.00  0.00    -0.340 C  
HETATM   11  C   UNL     1     -10.285  17.620  68.683  1.00  0.00    -0.377 C  
HETATM   12  C   UNL     1      -8.820  17.850  68.239  1.00  0.00    -0.275 C  
HETATM   13  C   UNL     1      -8.011  16.602  68.682  1.00  0.00    -0.236 C  
HETATM   14  C   UNL     1      -8.654  15.257  68.281  1.00  0.00    -0.159 C  
BRANCH  12  15
HETATM   15  N   UNL     1      -8.556  18.164  66.805  1.00  0.00    -0.252 NA 
HETATM   16  C   UNL     1      -8.853  19.548  66.378  1.00  0.00    -0.366 C  
HETATM   17  C   UNL     1      -6.130  20.688  65.200  1.00  0.00    -0.259 C  
HETATM   18  C   UNL     1      -7.129  17.906  66.443  1.00  0.00    -0.257 C  
HETATM   19  C   UNL     1      -7.870  20.628  66.895  1.00  0.00    -0.205 C  
HETATM   20  C   UNL     1      -6.111  18.980  66.928  1.00  0.00    -0.170 C  
HETATM   21  N   UNL     1      -6.450  20.375  66.591  1.00  0.00    -0.213 NA 
ENDBRANCH  12  15
ENDBRANCH   5   9
BRANCH   7  22
HETATM   22  N   UNL     1     -12.547  10.204  70.219  1.00  0.00    -0.530 NA 
HETATM   23  H   UNL     1     -13.543  10.228  69.998  1.00  0.00     0.000 HD 
BRANCH  22  24
HETATM   24  C   UNL     1     -12.232   9.001  70.870  1.00  0.00    -0.157 A  
HETATM   25 CL   UNL     1     -11.137   5.099  72.722  1.00  0.00    -0.323 Cl 
HETATM   26  C   UNL     1     -11.442   6.763  70.554  1.00  0.00    -0.360 A  
HETATM   27  C   UNL     1     -12.019   7.636  72.696  1.00  0.00    -0.159 A  
HETATM   28  N   UNL     1     -12.352   8.847  72.194  1.00  0.00    -0.375 NA 
HETATM   29  C   UNL     1     -11.574   6.561  71.933  1.00  0.00    -0.312 A  
HETATM   30  N   UNL     1     -11.783   7.990  70.046  1.00  0.00     0.164 NA 
BRANCH  26  31
HETATM   31  N   UNL     1     -11.017   5.615  69.670  1.00  0.00    -0.314 NA 
HETATM   32  H   UNL     1     -11.768   5.164  69.148  1.00  0.00     0.000 HD 
BRANCH  31  33
HETATM   33  C   UNL     1      -9.659   5.046  69.451  1.00  0.00    -0.166 A  
HETATM   34  C   UNL     1      -9.416   3.857  70.153  1.00  0.00    -0.261 A  
HETATM   35  C   UNL     1      -8.217   3.177  70.014  1.00  0.00    -0.067 A  
HETATM   36  C   UNL     1      -7.238   3.657  69.137  1.00  0.00    -0.049 A  
HETATM   37  C   UNL     1      -7.405   4.836  68.384  1.00  0.00    -0.065 A  
HETATM   38  C   UNL     1      -8.582   5.579  68.497  1.00  0.00    -0.102 A  
HETATM   39  P   UNL     1      -8.754   7.151  67.575  1.00  0.00    -0.119 P  
HETATM   40  C   UNL     1     -10.412   6.611  66.854  1.00  0.00    -0.279 C  
HETATM   41  O   UNL     1      -8.898   8.480  66.795  1.00  0.00    -0.131 OA 
HETATM   42  C   UNL     1      -9.004   8.071  69.214  1.00  0.00    -0.148 C  
ENDBRANCH  31  33
ENDBRANCH  26  31
ENDBRANCH  22  24
ENDBRANCH   7  22
ENDBRANCH   2   3
TORSDOF 7
ENDMDL
MODEL       26
REMARK 921   NORMALIZED FREE ENERGY PREDICTED BY IDOCK:   -6.22 KCAL/MOL
REMARK 922        TOTAL FREE ENERGY PREDICTED BY IDOCK:  -10.08 KCAL/MOL
REMARK 923 INTER-LIGAND FREE ENERGY PREDICTED BY IDOCK:   -9.13 KCAL/MOL
REMARK 924 INTRA-LIGAND FREE ENERGY PREDICTED BY IDOCK:   -0.95 KCAL/MOL
REMARK 927      BINDING AFFINITY PREDICTED BY RF-SCORE:    0.00 PKD
ROOT
HETATM    1  C   UNL     1     -13.719   9.700  71.794  1.00  0.00    -0.270 C  
HETATM    2  O   UNL     1     -12.318   9.893  71.638  1.00  0.00    -0.372 OA 
ENDROOT
BRANCH   2   3
HETATM    3  C   UNL     1     -11.836  10.372  70.433  1.00  0.00    -0.328 A  
HETATM    4  C   UNL     1     -11.738  11.747  70.092  1.00  0.00    -0.354 A  
HETATM    5  C   UNL     1     -11.259  12.194  68.843  1.00  0.00    -0.269 A  
HETATM    6  C   UNL     1     -10.868  11.159  67.961  1.00  0.00    -0.274 A  
HETATM    7  C   UNL     1     -11.422   9.347  69.536  1.00  0.00     0.161 A  
HETATM    8  C   UNL     1     -10.946   9.773  68.302  1.00  0.00    -0.215 A  
BRANCH   5   9
HETATM    9  N   UNL     1     -11.131  13.559  68.551  1.00  0.00    -0.260 NA 
HETATM   10  C   UNL     1     -10.077  13.960  67.598  1.00  0.00    -0.241 C  
HETATM   11  C   UNL     1     -10.525  15.224  66.859  1.00  0.00    -0.289 C  
HETATM   12  C   UNL     1     -10.815  16.426  67.788  1.00  0.00    -0.306 C  
HETATM   13  C   UNL     1     -11.788  15.925  68.888  1.00  0.00    -0.314 C  
HETATM   14  C   UNL     1     -11.348  14.611  69.570  1.00  0.00    -0.280 C  
BRANCH  12  15
HETATM   15  N   UNL     1      -9.659  17.144  68.399  1.00  0.00    -0.271 NA 
HETATM   16  C   UNL     1      -8.445  17.254  67.560  1.00  0.00    -0.204 C  
HETATM   17  C   UNL     1      -7.852  20.366  67.309  1.00  0.00    -0.334 C  
HETATM   18  C   UNL     1     -10.028  18.538  68.794  1.00  0.00    -0.380 C  
HETATM   19  C   UNL     1      -8.549  18.237  66.367  1.00  0.00    -0.242 C  
HETATM   20  C   UNL     1     -10.123  19.562  67.625  1.00  0.00    -0.408 C  
HETATM   21  N   UNL     1      -8.956  19.608  66.724  1.00  0.00    -0.335 NA 
ENDBRANCH  12  15
ENDBRANCH   5   9
BRANCH   7  22
HETATM   22  N   UNL     1     -11.497   7.999  69.992  1.00  0.00    -0.469 NA 
HETATM   23  H   UNL     1     -12.223   7.914  70.703  1.00  0.00     0.000 HD 
BRANCH  22  24
HETATM   24  C   UNL     1     -10.892   6.751  69.776  1.00  0.00    -0.272 A  
HETATM   25 CL   UNL     1      -8.953   2.848  68.850  1.00  0.00    -0.168 Cl 
HETATM   26  C   UNL     1     -10.105   5.231  68.103  1.00  0.00    -0.151 A  
HETATM   27  C   UNL     1      -9.966   4.764  70.437  1.00  0.00    -0.245 A  
HETATM   28  N   UNL     1     -10.537   5.942  70.780  1.00  0.00    -0.250 NA 
HETATM   29  C   UNL     1      -9.737   4.351  69.128  1.00  0.00    -0.170 A  
HETATM   30  N   UNL     1     -10.686   6.422  68.453  1.00  0.00    -0.257 NA 
BRANCH  26  31
HETATM   31  N   UNL     1      -9.932   4.811  66.663  1.00  0.00    -0.212 NA 
HETATM   32  H   UNL     1     -10.554   4.067  66.347  1.00  0.00     0.000 HD 
BRANCH  31  33
HETATM   33  C   UNL     1      -8.983   5.327  65.638  1.00  0.00    -0.158 A  
HETATM   34  C   UNL     1      -8.467   6.599  65.923  1.00  0.00    -0.145 A  
HETATM   35  C   UNL     1      -7.532   7.195  65.093  1.00  0.00    -0.094 A  
HETATM   36  C   UNL     1      -7.062   6.511  63.966  1.00  0.00    -0.054 A  
HETATM   37  C   UNL     1      -7.516   5.225  63.613  1.00  0.00    -0.055 A  
HETATM   38  C   UNL     1      -8.475   4.581  64.397  1.00  0.00    -0.122 A  
HETATM   39  P   UNL     1      -9.116   2.945  63.883  1.00  0.00    -0.111 P  
HETATM   40  C   UNL     1      -8.763   2.210  65.585  1.00  0.00    -0.119 C  
HETATM   41  O   UNL     1      -9.657   1.561  63.448  1.00  0.00    -0.096 OA 
HETATM   42  C   UNL     1     -10.868   3.666  63.816  1.00  0.00    -0.200 C  
ENDBRANCH  31  33
ENDBRANCH  26  31
ENDBRANCH  22  24
ENDBRANCH   7  22
ENDBRANCH   2   3
TORSDOF 7
ENDMDL
MODEL       27
REMARK 921   NORMALIZED FREE ENERGY PREDICTED BY IDOCK:   -6.15 KCAL/MOL
REMARK 922        TOTAL FREE ENERGY PREDICTED BY IDOCK:   -9.97 KCAL/MOL
REMARK 923 INTER-LIGAND FREE ENERGY PREDICTED BY IDOCK:   -8.61 KCAL/MOL
REMARK 924 INTRA-LIGAND FREE ENERGY PREDICTED BY IDOCK:   -1.36 KCAL/MOL
REMARK 927      BINDING AFFINITY PREDICTED BY RF-SCORE:    0.00 PKD
ROOT
HETATM    1  C   UNL     1      -6.021   9.488  67.886  1.00  0.00    -0.051 C  
HETATM    2  O   UNL     1      -6.966   9.038  66.924  1.00  0.00    -0.076 OA 
ENDROOT
BRANCH   2   3
HETATM    3  C   UNL     1      -8.123   9.769  66.725  1.00  0.00    -0.120 A  
HETATM    4  C   UNL     1      -8.308  11.116  67.135  1.00  0.00    -0.136 A  
HETATM    5  C   UNL     1      -9.513  11.820  66.931  1.00  0.00    -0.193 A  
HETATM    6  C   UNL     1     -10.520  11.078  66.270  1.00  0.00    -0.310 A  
HETATM    7  C   UNL     1      -9.145   9.046  66.047  1.00  0.00    -0.208 A  
HETATM    8  C   UNL     1     -10.338   9.728  65.838  1.00  0.00    -0.148 A  
BRANCH   5   9
HETATM    9  N   UNL     1      -9.651  13.165  67.305  1.00  0.00    -0.226 NA 
HETATM   10  C   UNL     1     -10.423  14.049  66.410  1.00  0.00    -0.284 C  
HETATM   11  C   UNL     1     -11.085  15.150  67.242  1.00  0.00    -0.332 C  
HETATM   12  C   UNL     1     -10.084  16.024  68.035  1.00  0.00    -0.240 C  
HETATM   13  C   UNL     1      -9.166  15.057  68.829  1.00  0.00    -0.200 C  
HETATM   14  C   UNL     1      -8.568  13.915  67.980  1.00  0.00    -0.178 C  
BRANCH  12  15
HETATM   15  N   UNL     1      -9.268  17.024  67.286  1.00  0.00    -0.219 NA 
HETATM   16  C   UNL     1     -10.011  17.908  66.363  1.00  0.00    -0.358 C  
HETATM   17  C   UNL     1      -9.377  20.874  67.315  1.00  0.00    -0.194 C  
HETATM   18  C   UNL     1      -8.512  17.919  68.214  1.00  0.00    -0.278 C  
HETATM   19  C   UNL     1     -10.888  18.990  67.042  1.00  0.00    -0.352 C  
HETATM   20  C   UNL     1      -9.356  19.033  68.902  1.00  0.00    -0.314 C  
HETATM   21  N   UNL     1     -10.177  19.859  67.997  1.00  0.00    -0.439 NA 
ENDBRANCH  12  15
ENDBRANCH   5   9
BRANCH   7  22
HETATM   22  N   UNL     1      -8.844   7.721  65.618  1.00  0.00    -0.334 NA 
HETATM   23  H   UNL     1      -8.432   7.745  64.685  1.00  0.00     0.000 HD 
BRANCH  22  24
HETATM   24  C   UNL     1      -8.933   6.394  66.067  1.00  0.00    -0.130 A  
HETATM   25 CL   UNL     1      -9.259   2.269  67.720  1.00  0.00    -0.222 Cl 
HETATM   26  C   UNL     1      -9.106   5.001  68.005  1.00  0.00    -0.114 A  
HETATM   27  C   UNL     1      -9.029   4.124  65.790  1.00  0.00    -0.129 A  
HETATM   28  N   UNL     1      -8.943   5.352  65.228  1.00  0.00    -0.137 NA 
HETATM   29  C   UNL     1      -9.100   3.886  67.159  1.00  0.00    -0.156 A  
HETATM   30  N   UNL     1      -9.015   6.244  67.435  1.00  0.00    -0.110 NA 
BRANCH  26  31
HETATM   31  N   UNL     1      -9.123   4.800  69.502  1.00  0.00    -0.097 NA 
HETATM   32  H   UNL     1      -8.382   4.207  69.872  1.00  0.00     0.000 HD 
BRANCH  31  33
HETATM   33  C   UNL     1     -10.070   5.344  70.515  1.00  0.00    -0.236 A  
HETATM   34  C   UNL     1     -11.043   6.203  69.986  1.00  0.00    -0.462 A  
HETATM   35  C   UNL     1     -12.028   6.750  70.791  1.00  0.00    -0.433 A  
HETATM   36  C   UNL     1     -12.082   6.421  72.151  1.00  0.00    -0.316 A  
HETATM   37  C   UNL     1     -11.152   5.557  72.761  1.00  0.00    -0.340 A  
HETATM   38  C   UNL     1     -10.122   4.991  72.007  1.00  0.00    -0.196 A  
HETATM   39  P   UNL     1      -8.873   3.935  72.828  1.00  0.00    -0.098 P  
HETATM   40  C   UNL     1      -9.128   2.556  71.565  1.00  0.00    -0.094 C  
HETATM   41  O   UNL     1      -7.817   3.041  73.523  1.00  0.00    -0.061 OA 
HETATM   42  C   UNL     1      -7.510   5.122  72.256  1.00  0.00    -0.094 C  
ENDBRANCH  31  33
ENDBRANCH  26  31
ENDBRANCH  22  24
ENDBRANCH   7  22
ENDBRANCH   2   3
TORSDOF 7
ENDMDL
MODEL       28
REMARK 921   NORMALIZED FREE ENERGY PREDICTED BY IDOCK:   -6.12 KCAL/MOL
REMARK 922        TOTAL FREE ENERGY PREDICTED BY IDOCK:   -9.93 KCAL/MOL
REMARK 923 INTER-LIGAND FREE ENERGY PREDICTED BY IDOCK:   -8.84 KCAL/MOL
REMARK 924 INTRA-LIGAND FREE ENERGY PREDICTED BY IDOCK:   -1.09 KCAL/MOL
REMARK 927      BINDING AFFINITY PREDICTED BY RF-SCORE:    0.00 PKD
ROOT
HETATM    1  C   UNL     1     -12.077  13.067  70.502  1.00  0.00    -0.292 C  
HETATM    2  O   UNL     1     -12.528  11.875  69.872  1.00  0.00    -0.119 OA 
ENDROOT
BRANCH   2   3
HETATM    3  C   UNL     1     -11.614  10.876  69.591  1.00  0.00    -0.322 A  
HETATM    4  C   UNL     1     -11.015  10.031  70.563  1.00  0.00    -0.392 A  
HETATM    5  C   UNL     1     -10.071   9.037  70.236  1.00  0.00    -0.198 A  
HETATM    6  C   UNL     1      -9.778   8.938  68.856  1.00  0.00    -0.173 A  
HETATM    7  C   UNL     1     -11.316  10.748  68.204  1.00  0.00    -0.308 A  
HETATM    8  C   UNL     1     -10.388   9.771  67.867  1.00  0.00    -0.258 A  
BRANCH   5   9
HETATM    9  N   UNL     1      -9.531   8.186  71.212  1.00  0.00    -0.153 NA 
HETATM   10  C   UNL     1      -8.731   7.035  70.751  1.00  0.00    -0.148 C  
HETATM   11  C   UNL     1      -7.675   6.704  71.809  1.00  0.00    -0.097 C  
HETATM   12  C   UNL     1      -8.263   6.356  73.197  1.00  0.00    -0.115 C  
HETATM   13  C   UNL     1      -9.241   7.500  73.575  1.00  0.00    -0.301 C  
HETATM   14  C   UNL     1     -10.251   7.861  72.464  1.00  0.00    -0.278 C  
BRANCH  12  15
HETATM   15  N   UNL     1      -8.918   5.027  73.375  1.00  0.00    -0.119 NA 
HETATM   16  C   UNL     1      -8.840   4.104  72.222  1.00  0.00    -0.107 C  
HETATM   17  C   UNL     1      -7.430   1.474  73.315  1.00  0.00    -0.028 C  
HETATM   18  C   UNL     1      -8.349   4.290  74.545  1.00  0.00    -0.090 C  
HETATM   19  C   UNL     1      -7.444   3.489  71.956  1.00  0.00    -0.056 C  
HETATM   20  C   UNL     1      -6.954   3.639  74.312  1.00  0.00    -0.051 C  
HETATM   21  N   UNL     1      -6.840   2.795  73.108  1.00  0.00    -0.026 NA 
ENDBRANCH  12  15
ENDBRANCH   5   9
BRANCH   7  22
HETATM   22  N   UNL     1     -12.014  11.597  67.297  1.00  0.00    -0.602 NA 
HETATM   23  H   UNL     1     -12.943  11.218  67.113  1.00  0.00     0.000 HD 
BRANCH  22  24
HETATM   24  C   UNL     1     -11.833  12.787  66.576  1.00  0.00    -0.405 A  
HETATM   25 CL   UNL     1     -11.021  16.561  64.350  1.00  0.00    -0.039 Cl 
HETATM   26  C   UNL     1     -10.291  14.548  66.076  1.00  0.00    -0.309 A  
HETATM   27  C   UNL     1     -12.489  14.461  65.157  1.00  0.00    -0.357 A  
HETATM   28  N   UNL     1     -12.789  13.306  65.795  1.00  0.00    -0.362 NA 
HETATM   29  C   UNL     1     -11.273  15.129  65.266  1.00  0.00    -0.358 A  
HETATM   30  N   UNL     1     -10.598  13.381  66.725  1.00  0.00    -0.276 NA 
BRANCH  26  31
HETATM   31  N   UNL     1      -8.974  15.260  66.276  1.00  0.00    -0.404 NA 
HETATM   32  H   UNL     1      -8.578  15.690  65.441  1.00  0.00     0.000 HD 
BRANCH  31  33
HETATM   33  C   UNL     1      -8.170  15.423  67.519  1.00  0.00    -0.169 A  
HETATM   34  C   UNL     1      -7.456  14.277  67.894  1.00  0.00    -0.157 A  
HETATM   35  C   UNL     1      -6.620  14.284  68.999  1.00  0.00    -0.105 A  
HETATM   36  C   UNL     1      -6.453  15.459  69.742  1.00  0.00    -0.171 A  
HETATM   37  C   UNL     1      -7.122  16.658  69.427  1.00  0.00    -0.162 A  
HETATM   38  C   UNL     1      -7.996  16.708  68.339  1.00  0.00    -0.205 A  
HETATM   39  P   UNL     1      -8.920  18.249  67.990  1.00  0.00    -0.303 P  
HETATM   40  C   UNL     1      -8.358  18.244  66.188  1.00  0.00    -0.129 C  
HETATM   41  O   UNL     1      -9.702  19.552  67.695  1.00  0.00    -0.315 OA 
HETATM   42  C   UNL     1     -10.551  17.300  68.185  1.00  0.00    -0.386 C  
ENDBRANCH  31  33
ENDBRANCH  26  31
ENDBRANCH  22  24
ENDBRANCH   7  22
ENDBRANCH   2   3
TORSDOF 7
ENDMDL
MODEL       29
REMARK 921   NORMALIZED FREE ENERGY PREDICTED BY IDOCK:   -6.10 KCAL/MOL
REMARK 922        TOTAL FREE ENERGY PREDICTED BY IDOCK:   -9.91 KCAL/MOL
REMARK 923 INTER-LIGAND FREE ENERGY PREDICTED BY IDOCK:   -8.60 KCAL/MOL
REMARK 924 INTRA-LIGAND FREE ENERGY PREDICTED BY IDOCK:   -1.30 KCAL/MOL
REMARK 927      BINDING AFFINITY PREDICTED BY RF-SCORE:    0.00 PKD
ROOT
HETATM    1  C   UNL     1     -13.397  10.798  71.962  1.00  0.00    -0.298 C  
HETATM    2  O   UNL     1     -12.424   9.846  71.551  1.00  0.00    -0.353 OA 
ENDROOT
BRANCH   2   3
HETATM    3  C   UNL     1     -11.739  10.053  70.367  1.00  0.00    -0.286 A  
HETATM    4  C   UNL     1     -11.537  11.321  69.761  1.00  0.00    -0.408 A  
HETATM    5  C   UNL     1     -10.850  11.486  68.541  1.00  0.00    -0.215 A  
HETATM    6  C   UNL     1     -10.363  10.284  67.976  1.00  0.00    -0.215 A  
HETATM    7  C   UNL     1     -11.227   8.857  69.789  1.00  0.00    -0.006 A  
HETATM    8  C   UNL     1     -10.545   9.004  68.587  1.00  0.00    -0.194 A  
BRANCH   5   9
HETATM    9  N   UNL     1     -10.625  12.755  67.990  1.00  0.00    -0.220 NA 
HETATM   10  C   UNL     1      -9.226  13.202  67.845  1.00  0.00    -0.207 C  
HETATM   11  C   UNL     1      -9.123  14.146  66.644  1.00  0.00    -0.238 C  
HETATM   12  C   UNL     1     -10.020  15.402  66.753  1.00  0.00    -0.249 C  
HETATM   13  C   UNL     1     -11.453  14.909  67.085  1.00  0.00    -0.344 C  
HETATM   14  C   UNL     1     -11.521  13.904  68.256  1.00  0.00    -0.311 C  
BRANCH  12  15
HETATM   15  N   UNL     1      -9.608  16.486  67.692  1.00  0.00    -0.233 NA 
HETATM   16  C   UNL     1      -8.266  17.065  67.468  1.00  0.00    -0.180 C  
HETATM   17  C   UNL     1      -8.734  20.178  67.027  1.00  0.00    -0.337 C  
HETATM   18  C   UNL     1     -10.573  17.628  67.664  1.00  0.00    -0.362 C  
HETATM   19  C   UNL     1      -8.133  17.967  66.216  1.00  0.00    -0.224 C  
HETATM   20  C   UNL     1     -10.457  18.571  66.430  1.00  0.00    -0.406 C  
HETATM   21  N   UNL     1      -9.102  19.075  66.140  1.00  0.00    -0.463 NA 
ENDBRANCH  12  15
ENDBRANCH   5   9
BRANCH   7  22
HETATM   22  N   UNL     1     -11.424   7.639  70.503  1.00  0.00    -0.381 NA 
HETATM   23  H   UNL     1     -12.263   7.708  71.079  1.00  0.00     0.000 HD 
BRANCH  22  24
HETATM   24  C   UNL     1     -10.834   6.377  70.667  1.00  0.00    -0.276 A  
HETATM   25 CL   UNL     1      -8.856   2.395  70.967  1.00  0.00    -0.119 Cl 
HETATM   26  C   UNL     1      -9.576   4.656  69.577  1.00  0.00    -0.188 A  
HETATM   27  C   UNL     1     -10.278   4.496  71.850  1.00  0.00    -0.171 A  
HETATM   28  N   UNL     1     -10.884   5.706  71.824  1.00  0.00    -0.249 NA 
HETATM   29  C   UNL     1      -9.625   3.918  70.765  1.00  0.00    -0.188 A  
HETATM   30  N   UNL     1     -10.193   5.880  69.552  1.00  0.00    -0.203 NA 
BRANCH  26  31
HETATM   31  N   UNL     1      -8.931   4.054  68.352  1.00  0.00    -0.109 NA 
HETATM   32  H   UNL     1      -9.211   3.098  68.135  1.00  0.00     0.000 HD 
BRANCH  31  33
HETATM   33  C   UNL     1      -7.942   4.656  67.415  1.00  0.00    -0.101 A  
HETATM   34  C   UNL     1      -6.953   5.426  68.043  1.00  0.00    -0.065 A  
HETATM   35  C   UNL     1      -5.930   6.010  67.314  1.00  0.00    -0.018 A  
HETATM   36  C   UNL     1      -5.854   5.807  65.930  1.00  0.00    -0.024 A  
HETATM   37  C   UNL     1      -6.798   5.038  65.223  1.00  0.00    -0.060 A  
HETATM   38  C   UNL     1      -7.866   4.442  65.898  1.00  0.00    -0.095 A  
HETATM   39  P   UNL     1      -9.129   3.513  64.955  1.00  0.00    -0.152 P  
HETATM   40  C   UNL     1      -8.952   2.013  66.087  1.00  0.00    -0.096 C  
HETATM   41  O   UNL     1     -10.197   2.726  64.156  1.00  0.00    -0.132 OA 
HETATM   42  C   UNL     1     -10.465   4.690  65.607  1.00  0.00    -0.227 C  
ENDBRANCH  31  33
ENDBRANCH  26  31
ENDBRANCH  22  24
ENDBRANCH   7  22
ENDBRANCH   2   3
TORSDOF 7
ENDMDL
MODEL       30
REMARK 921   NORMALIZED FREE ENERGY PREDICTED BY IDOCK:   -6.09 KCAL/MOL
REMARK 922        TOTAL FREE ENERGY PREDICTED BY IDOCK:   -9.89 KCAL/MOL
REMARK 923 INTER-LIGAND FREE ENERGY PREDICTED BY IDOCK:   -8.99 KCAL/MOL
REMARK 924 INTRA-LIGAND FREE ENERGY PREDICTED BY IDOCK:   -0.89 KCAL/MOL
REMARK 927      BINDING AFFINITY PREDICTED BY RF-SCORE:    0.00 PKD
ROOT
HETATM    1  C   UNL     1      -9.492   9.573  69.845  1.00  0.00    -0.222 C  
HETATM    2  O   UNL     1     -10.442   9.327  68.816  1.00  0.00    -0.207 OA 
ENDROOT
BRANCH   2   3
HETATM    3  C   UNL     1     -10.287   9.956  67.594  1.00  0.00    -0.225 A  
HETATM    4  C   UNL     1     -10.250  11.363  67.408  1.00  0.00    -0.221 A  
HETATM    5  C   UNL     1     -10.111  11.964  66.140  1.00  0.00    -0.228 A  
HETATM    6  C   UNL     1      -9.995  11.050  65.067  1.00  0.00    -0.340 A  
HETATM    7  C   UNL     1     -10.153   9.053  66.501  1.00  0.00    -0.283 A  
HETATM    8  C   UNL     1     -10.013   9.632  65.245  1.00  0.00    -0.159 A  
BRANCH   5   9
HETATM    9  N   UNL     1     -10.030  13.357  65.992  1.00  0.00    -0.296 NA 
HETATM   10  C   UNL     1      -9.339  14.120  67.049  1.00  0.00    -0.246 C  
HETATM   11  C   UNL     1      -8.707  15.371  66.433  1.00  0.00    -0.307 C  
HETATM   12  C   UNL     1      -9.723  16.314  65.746  1.00  0.00    -0.264 C  
HETATM   13  C   UNL     1     -10.559  15.445  64.768  1.00  0.00    -0.274 C  
HETATM   14  C   UNL     1     -11.127  14.155  65.397  1.00  0.00    -0.321 C  
BRANCH  12  15
HETATM   15  N   UNL     1     -10.618  17.140  66.608  1.00  0.00    -0.236 NA 
HETATM   16  C   UNL     1     -10.401  17.026  68.066  1.00  0.00    -0.341 C  
HETATM   17  C   UNL     1      -9.792  19.977  69.079  1.00  0.00    -0.166 C  
HETATM   18  C   UNL     1     -10.507  18.594  66.275  1.00  0.00    -0.424 C  
HETATM   19  C   UNL     1      -9.109  17.694  68.600  1.00  0.00    -0.261 C  
HETATM   20  C   UNL     1      -9.230  19.307  66.811  1.00  0.00    -0.323 C  
HETATM   21  N   UNL     1      -8.952  19.117  68.247  1.00  0.00    -0.323 NA 
ENDBRANCH  12  15
ENDBRANCH   5   9
BRANCH   7  22
HETATM   22  N   UNL     1     -10.138   7.658  66.793  1.00  0.00    -0.333 NA 
HETATM   23  H   UNL     1     -11.071   7.267  66.662  1.00  0.00     0.000 HD 
BRANCH  22  24
HETATM   24  C   UNL     1      -9.251   6.651  67.204  1.00  0.00    -0.126 A  
HETATM   25 CL   UNL     1      -6.544   3.457  68.729  1.00  0.00    -0.039 Cl 
HETATM   26  C   UNL     1      -8.471   5.388  69.082  1.00  0.00    -0.103 A  
HETATM   27  C   UNL     1      -7.625   5.073  66.875  1.00  0.00    -0.088 A  
HETATM   28  N   UNL     1      -8.433   6.022  66.351  1.00  0.00    -0.115 NA 
HETATM   29  C   UNL     1      -7.589   4.723  68.221  1.00  0.00    -0.077 A  
HETATM   30  N   UNL     1      -9.287   6.352  68.549  1.00  0.00    -0.123 NA 
BRANCH  26  31
HETATM   31  N   UNL     1      -8.435   5.089  70.561  1.00  0.00    -0.103 NA 
HETATM   32  H   UNL     1      -7.759   5.629  71.100  1.00  0.00     0.000 HD 
BRANCH  31  33
HETATM   33  C   UNL     1      -9.247   4.118  71.347  1.00  0.00    -0.135 A  
HETATM   34  C   UNL     1      -9.104   2.786  70.934  1.00  0.00    -0.184 A  
HETATM   35  C   UNL     1      -9.753   1.758  71.598  1.00  0.00    -0.207 A  
HETATM   36  C   UNL     1     -10.541   2.039  72.720  1.00  0.00    -0.231 A  
HETATM   37  C   UNL     1     -10.728   3.347  73.209  1.00  0.00    -0.291 A  
HETATM   38  C   UNL     1     -10.119   4.428  72.570  1.00  0.00    -0.177 A  
HETATM   39  P   UNL     1     -10.435   6.129  73.167  1.00  0.00    -0.266 P  
HETATM   40  C   UNL     1      -8.587   6.500  73.259  1.00  0.00    -0.120 C  
HETATM   41  O   UNL     1     -10.703   7.568  73.673  1.00  0.00    -0.343 OA 
HETATM   42  C   UNL     1     -11.126   6.586  71.461  1.00  0.00    -0.265 C  
ENDBRANCH  31  33
ENDBRANCH  26  31
ENDBRANCH  22  24
ENDBRANCH   7  22
ENDBRANCH   2   3
TORSDOF 7
ENDMDL
MODEL       31
REMARK 921   NORMALIZED FREE ENERGY PREDICTED BY IDOCK:   -6.08 KCAL/MOL
REMARK 922        TOTAL FREE ENERGY PREDICTED BY IDOCK:   -9.89 KCAL/MOL
REMARK 923 INTER-LIGAND FREE ENERGY PREDICTED BY IDOCK:   -8.48 KCAL/MOL
REMARK 924 INTRA-LIGAND FREE ENERGY PREDICTED BY IDOCK:   -1.40 KCAL/MOL
REMARK 927      BINDING AFFINITY PREDICTED BY RF-SCORE:    0.00 PKD
ROOT
HETATM    1  C   UNL     1      -8.950   8.589  68.807  1.00  0.00    -0.139 C  
HETATM    2  O   UNL     1     -10.361   8.476  68.940  1.00  0.00    -0.208 OA 
ENDROOT
BRANCH   2   3
HETATM    3  C   UNL     1     -11.065   9.507  69.536  1.00  0.00    -0.142 A  
HETATM    4  C   UNL     1     -10.977  10.872  69.155  1.00  0.00    -0.290 A  
HETATM    5  C   UNL     1     -11.697  11.896  69.804  1.00  0.00    -0.331 A  
HETATM    6  C   UNL     1     -12.529  11.450  70.858  1.00  0.00    -0.478 A  
HETATM    7  C   UNL     1     -11.922   9.077  70.589  1.00  0.00    -0.099 A  
HETATM    8  C   UNL     1     -12.639  10.076  71.237  1.00  0.00    -0.495 A  
BRANCH   5   9
HETATM    9  N   UNL     1     -11.625  13.230  69.377  1.00  0.00    -0.297 NA 
HETATM   10  C   UNL     1     -11.069  13.490  68.034  1.00  0.00    -0.258 C  
HETATM   11  C   UNL     1     -11.717  14.753  67.460  1.00  0.00    -0.370 C  
HETATM   12  C   UNL     1     -11.499  16.018  68.324  1.00  0.00    -0.291 C  
HETATM   13  C   UNL     1     -11.924  15.657  69.773  1.00  0.00    -0.371 C  
HETATM   14  C   UNL     1     -11.312  14.342  70.302  1.00  0.00    -0.132 C  
BRANCH  12  15
HETATM   15  N   UNL     1     -10.151  16.657  68.318  1.00  0.00    -0.257 NA 
HETATM   16  C   UNL     1      -9.413  16.604  67.037  1.00  0.00    -0.230 C  
HETATM   17  C   UNL     1      -8.796  19.626  66.273  1.00  0.00    -0.371 C  
HETATM   18  C   UNL     1     -10.227  18.099  68.703  1.00  0.00    -0.366 C  
HETATM   19  C   UNL     1      -9.960  17.523  65.917  1.00  0.00    -0.139 C  
HETATM   20  C   UNL     1     -10.754  19.060  67.596  1.00  0.00    -0.409 C  
HETATM   21  N   UNL     1     -10.089  18.944  66.285  1.00  0.00    -0.395 NA 
ENDBRANCH  12  15
ENDBRANCH   5   9
BRANCH   7  22
HETATM   22  N   UNL     1     -11.992   7.680  70.857  1.00  0.00    -0.421 NA 
HETATM   23  H   UNL     1     -12.796   7.276  70.375  1.00  0.00     0.000 HD 
BRANCH  22  24
HETATM   24  C   UNL     1     -11.311   6.681  71.569  1.00  0.00    -0.281 A  
HETATM   25 CL   UNL     1      -8.982   3.501  73.648  1.00  0.00    -0.091 Cl 
HETATM   26  C   UNL     1      -9.534   5.080  71.465  1.00  0.00    -0.153 A  
HETATM   27  C   UNL     1     -10.902   5.364  73.397  1.00  0.00    -0.297 A  
HETATM   28  N   UNL     1     -11.635   6.346  72.824  1.00  0.00    -0.148 NA 
HETATM   29  C   UNL     1      -9.857   4.692  72.770  1.00  0.00    -0.143 A  
HETATM   30  N   UNL     1     -10.280   6.073  70.885  1.00  0.00    -0.199 NA 
BRANCH  26  31
HETATM   31  N   UNL     1      -8.447   4.347  70.717  1.00  0.00    -0.078 NA 
HETATM   32  H   UNL     1      -8.399   3.343  70.889  1.00  0.00     0.000 HD 
BRANCH  31  33
HETATM   33  C   UNL     1      -7.434   4.880  69.763  1.00  0.00    -0.056 A  
HETATM   34  C   UNL     1      -6.683   5.951  70.265  1.00  0.00    -0.048 A  
HETATM   35  C   UNL     1      -5.666   6.523  69.519  1.00  0.00    -0.014 A  
HETATM   36  C   UNL     1      -5.353   6.010  68.254  1.00  0.00    -0.004 A  
HETATM   37  C   UNL     1      -6.048   4.928  67.680  1.00  0.00    -0.027 A  
HETATM   38  C   UNL     1      -7.099   4.323  68.374  1.00  0.00    -0.055 A  
HETATM   39  P   UNL     1      -8.046   2.971  67.583  1.00  0.00    -0.082 P  
HETATM   40  C   UNL     1      -7.810   1.852  69.085  1.00  0.00    -0.045 C  
HETATM   41  O   UNL     1      -8.847   1.828  66.914  1.00  0.00    -0.117 OA 
HETATM   42  C   UNL     1      -9.631   3.997  67.756  1.00  0.00    -0.150 C  
ENDBRANCH  31  33
ENDBRANCH  26  31
ENDBRANCH  22  24
ENDBRANCH   7  22
ENDBRANCH   2   3
TORSDOF 7
ENDMDL
MODEL       32
REMARK 921   NORMALIZED FREE ENERGY PREDICTED BY IDOCK:   -6.07 KCAL/MOL
REMARK 922        TOTAL FREE ENERGY PREDICTED BY IDOCK:   -9.86 KCAL/MOL
REMARK 923 INTER-LIGAND FREE ENERGY PREDICTED BY IDOCK:  -10.09 KCAL/MOL
REMARK 924 INTRA-LIGAND FREE ENERGY PREDICTED BY IDOCK:    0.23 KCAL/MOL
REMARK 927      BINDING AFFINITY PREDICTED BY RF-SCORE:    0.00 PKD
ROOT
HETATM    1  C   UNL     1     -12.239  12.549  63.471  1.00  0.00    -0.558 C  
HETATM    2  O   UNL     1     -10.971  12.051  63.882  1.00  0.00    -0.329 OA 
ENDROOT
BRANCH   2   3
HETATM    3  C   UNL     1     -10.306  12.679  64.919  1.00  0.00    -0.308 A  
HETATM    4  C   UNL     1     -10.115  14.082  65.024  1.00  0.00    -0.323 A  
HETATM    5  C   UNL     1      -9.412  14.681  66.090  1.00  0.00    -0.276 A  
HETATM    6  C   UNL     1      -8.924  13.771  67.055  1.00  0.00    -0.247 A  
HETATM    7  C   UNL     1      -9.820  11.781  65.911  1.00  0.00    -0.238 A  
HETATM    8  C   UNL     1      -9.126  12.358  66.968  1.00  0.00    -0.207 A  
BRANCH   5   9
HETATM    9  N   UNL     1      -9.279  16.074  66.192  1.00  0.00    -0.331 NA 
HETATM   10  C   UNL     1      -7.937  16.615  66.484  1.00  0.00    -0.307 C  
HETATM   11  C   UNL     1      -7.807  18.002  65.849  1.00  0.00    -0.093 C  
HETATM   12  C   UNL     1      -8.856  19.023  66.350  1.00  0.00    -0.321 C  
HETATM   13  C   UNL     1     -10.249  18.354  66.198  1.00  0.00    -0.408 C  
HETATM   14  C   UNL     1     -10.332  16.929  66.785  1.00  0.00    -0.298 C  
BRANCH  12  15
HETATM   15  N   UNL     1      -8.695  19.590  67.720  1.00  0.00    -0.312 NA 
HETATM   16  C   UNL     1      -7.869  18.797  68.658  1.00  0.00    -0.328 C  
HETATM   17  C   UNL     1      -5.533  20.736  69.599  1.00  0.00    -0.373 C  
HETATM   18  C   UNL     1      -8.092  20.957  67.678  1.00  0.00    -0.003 C  
HETATM   19  C   UNL     1      -6.347  18.803  68.371  1.00  0.00    -0.216 C  
HETATM   20  C   UNL     1      -6.559  21.005  67.411  1.00  0.00    -0.376 C  
HETATM   21  N   UNL     1      -5.736  20.141  68.279  1.00  0.00    -0.221 NA 
ENDBRANCH  12  15
ENDBRANCH   5   9
BRANCH   7  22
HETATM   22  N   UNL     1     -10.116  10.396  65.752  1.00  0.00    -0.264 NA 
HETATM   23  H   UNL     1     -10.654  10.254  64.897  1.00  0.00     0.000 HD 
BRANCH  22  24
HETATM   24  C   UNL     1      -9.904   9.166  66.394  1.00  0.00    -0.280 A  
HETATM   25 CL   UNL     1      -9.337   5.357  68.635  1.00  0.00    -0.136 Cl 
HETATM   26  C   UNL     1     -10.015   8.019  68.492  1.00  0.00    -0.192 A  
HETATM   27  C   UNL     1      -9.304   6.959  66.478  1.00  0.00    -0.158 A  
HETATM   28  N   UNL     1      -9.471   8.081  65.742  1.00  0.00     0.031 NA 
HETATM   29  C   UNL     1      -9.545   6.869  67.846  1.00  0.00    -0.118 A  
HETATM   30  N   UNL     1     -10.180   9.156  67.745  1.00  0.00    -0.210 NA 
BRANCH  26  31
HETATM   31  N   UNL     1     -10.239   7.995  69.985  1.00  0.00    -0.201 NA 
HETATM   32  H   UNL     1      -9.558   7.458  70.521  1.00  0.00     0.000 HD 
BRANCH  31  33
HETATM   33  C   UNL     1     -11.313   8.644  70.787  1.00  0.00    -0.263 A  
HETATM   34  C   UNL     1     -12.004   9.656  70.107  1.00  0.00    -0.019 A  
HETATM   35  C   UNL     1     -13.065  10.320  70.698  1.00  0.00    -0.292 A  
HETATM   36  C   UNL     1     -13.486   9.961  71.985  1.00  0.00    -0.478 A  
HETATM   37  C   UNL     1     -12.856   8.947  72.733  1.00  0.00    -0.169 A  
HETATM   38  C   UNL     1     -11.766   8.256  72.200  1.00  0.00    -0.365 A  
HETATM   39  P   UNL     1     -10.907   6.998  73.215  1.00  0.00    -0.187 P  
HETATM   40  C   UNL     1     -11.045   5.713  71.838  1.00  0.00    -0.214 C  
HETATM   41  O   UNL     1     -10.182   5.933  74.073  1.00  0.00    -0.224 OA 
HETATM   42  C   UNL     1      -9.295   7.983  73.051  1.00  0.00    -0.275 C  
ENDBRANCH  31  33
ENDBRANCH  26  31
ENDBRANCH  22  24
ENDBRANCH   7  22
ENDBRANCH   2   3
TORSDOF 7
ENDMDL
MODEL       33
REMARK 921   NORMALIZED FREE ENERGY PREDICTED BY IDOCK:   -6.06 KCAL/MOL
REMARK 922        TOTAL FREE ENERGY PREDICTED BY IDOCK:   -9.84 KCAL/MOL
REMARK 923 INTER-LIGAND FREE ENERGY PREDICTED BY IDOCK:   -8.56 KCAL/MOL
REMARK 924 INTRA-LIGAND FREE ENERGY PREDICTED BY IDOCK:   -1.28 KCAL/MOL
REMARK 927      BINDING AFFINITY PREDICTED BY RF-SCORE:    0.00 PKD
ROOT
HETATM    1  C   UNL     1     -10.626   8.957  67.016  1.00  0.00    -0.209 C  
HETATM    2  O   UNL     1     -10.495   9.126  68.422  1.00  0.00    -0.205 OA 
ENDROOT
BRANCH   2   3
HETATM    3  C   UNL     1     -11.010  10.265  69.013  1.00  0.00    -0.232 A  
HETATM    4  C   UNL     1     -10.713  11.592  68.605  1.00  0.00    -0.246 A  
HETATM    5  C   UNL     1     -11.244  12.728  69.249  1.00  0.00    -0.190 A  
HETATM    6  C   UNL     1     -12.112  12.439  70.328  1.00  0.00    -0.377 A  
HETATM    7  C   UNL     1     -11.899   9.995  70.092  1.00  0.00    -0.173 A  
HETATM    8  C   UNL     1     -12.432  11.106  70.735  1.00  0.00    -0.479 A  
BRANCH   5   9
HETATM    9  N   UNL     1     -10.969  14.026  68.795  1.00  0.00    -0.255 NA 
HETATM   10  C   UNL     1      -9.778  14.217  67.945  1.00  0.00    -0.222 C  
HETATM   11  C   UNL     1     -10.027  15.386  66.988  1.00  0.00    -0.239 C  
HETATM   12  C   UNL     1     -10.329  16.726  67.700  1.00  0.00    -0.309 C  
HETATM   13  C   UNL     1     -11.467  16.453  68.719  1.00  0.00    -0.222 C  
HETATM   14  C   UNL     1     -11.222  15.226  69.624  1.00  0.00    -0.278 C  
BRANCH  12  15
HETATM   15  N   UNL     1      -9.201  17.450  68.356  1.00  0.00    -0.270 NA 
HETATM   16  C   UNL     1      -7.971  17.602  67.550  1.00  0.00    -0.203 C  
HETATM   17  C   UNL     1      -7.429  20.729  67.386  1.00  0.00    -0.324 C  
HETATM   18  C   UNL     1      -9.606  18.827  68.775  1.00  0.00    -0.364 C  
HETATM   19  C   UNL     1      -8.064  18.611  66.378  1.00  0.00    -0.281 C  
HETATM   20  C   UNL     1      -9.692  19.877  67.627  1.00  0.00    -0.385 C  
HETATM   21  N   UNL     1      -8.505  19.966  66.757  1.00  0.00    -0.315 NA 
ENDBRANCH  12  15
ENDBRANCH   5   9
BRANCH   7  22
HETATM   22  N   UNL     1     -12.187   8.631  70.387  1.00  0.00    -0.379 NA 
HETATM   23  H   UNL     1     -13.068   8.361  69.949  1.00  0.00     0.000 HD 
BRANCH  22  24
HETATM   24  C   UNL     1     -11.647   7.541  71.086  1.00  0.00    -0.282 A  
HETATM   25 CL   UNL     1      -9.722   4.113  73.183  1.00  0.00    -0.149 Cl 
HETATM   26  C   UNL     1      -9.768   6.066  71.247  1.00  0.00    -0.172 A  
HETATM   27  C   UNL     1     -11.659   5.908  72.692  1.00  0.00    -0.241 A  
HETATM   28  N   UNL     1     -12.286   6.953  72.105  1.00  0.00    -0.242 NA 
HETATM   29  C   UNL     1     -10.416   5.416  72.304  1.00  0.00    -0.219 A  
HETATM   30  N   UNL     1     -10.407   7.122  70.651  1.00  0.00    -0.203 NA 
BRANCH  26  31
HETATM   31  N   UNL     1      -8.445   5.539  70.747  1.00  0.00    -0.121 NA 
HETATM   32  H   UNL     1      -7.635   5.777  71.319  1.00  0.00     0.000 HD 
BRANCH  31  33
HETATM   33  C   UNL     1      -8.152   4.721  69.538  1.00  0.00    -0.069 A  
HETATM   34  C   UNL     1      -8.913   3.547  69.442  1.00  0.00    -0.175 A  
HETATM   35  C   UNL     1      -8.796   2.705  68.349  1.00  0.00    -0.162 A  
HETATM   36  C   UNL     1      -7.930   3.038  67.300  1.00  0.00    -0.077 A  
HETATM   37  C   UNL     1      -7.139   4.203  67.310  1.00  0.00    -0.067 A  
HETATM   38  C   UNL     1      -7.196   5.081  68.394  1.00  0.00    -0.062 A  
HETATM   39  P   UNL     1      -6.104   6.549  68.430  1.00  0.00    -0.027 P  
HETATM   40  C   UNL     1      -7.562   7.695  68.782  1.00  0.00    -0.102 C  
HETATM   41  O   UNL     1      -5.180   7.791  68.459  1.00  0.00    -0.025 OA 
HETATM   42  C   UNL     1      -5.337   5.925  70.048  1.00  0.00    -0.012 C  
ENDBRANCH  31  33
ENDBRANCH  26  31
ENDBRANCH  22  24
ENDBRANCH   7  22
ENDBRANCH   2   3
TORSDOF 7
ENDMDL
MODEL       34
REMARK 921   NORMALIZED FREE ENERGY PREDICTED BY IDOCK:   -6.01 KCAL/MOL
REMARK 922        TOTAL FREE ENERGY PREDICTED BY IDOCK:   -9.78 KCAL/MOL
REMARK 923 INTER-LIGAND FREE ENERGY PREDICTED BY IDOCK:   -8.35 KCAL/MOL
REMARK 924 INTRA-LIGAND FREE ENERGY PREDICTED BY IDOCK:   -1.43 KCAL/MOL
REMARK 927      BINDING AFFINITY PREDICTED BY RF-SCORE:    0.00 PKD
ROOT
HETATM    1  C   UNL     1     -12.215  10.931  70.429  1.00  0.00    -0.365 C  
HETATM    2  O   UNL     1     -12.268  10.952  69.008  1.00  0.00    -0.462 OA 
ENDROOT
BRANCH   2   3
HETATM    3  C   UNL     1     -11.205  11.488  68.304  1.00  0.00    -0.261 A  
HETATM    4  C   UNL     1     -10.842  12.861  68.309  1.00  0.00    -0.263 A  
HETATM    5  C   UNL     1      -9.761  13.370  67.559  1.00  0.00    -0.224 A  
HETATM    6  C   UNL     1      -9.056  12.397  66.812  1.00  0.00    -0.212 A  
HETATM    7  C   UNL     1     -10.471  10.522  67.557  1.00  0.00    -0.239 A  
HETATM    8  C   UNL     1      -9.402  11.010  66.815  1.00  0.00    -0.199 A  
BRANCH   5   9
HETATM    9  N   UNL     1      -9.398  14.723  67.619  1.00  0.00    -0.193 NA 
HETATM   10  C   UNL     1      -8.962  15.372  66.367  1.00  0.00    -0.316 C  
HETATM   11  C   UNL     1      -9.324  16.859  66.422  1.00  0.00    -0.303 C  
HETATM   12  C   UNL     1      -8.680  17.618  67.607  1.00  0.00    -0.232 C  
HETATM   13  C   UNL     1      -9.004  16.812  68.892  1.00  0.00    -0.227 C  
HETATM   14  C   UNL     1      -8.695  15.303  68.786  1.00  0.00    -0.195 C  
BRANCH  12  15
HETATM   15  N   UNL     1      -7.223  17.933  67.539  1.00  0.00    -0.194 NA 
HETATM   16  C   UNL     1      -6.719  18.393  66.227  1.00  0.00    -0.227 C  
HETATM   17  C   UNL     1      -5.409  21.240  66.758  1.00  0.00    -0.257 C  
HETATM   18  C   UNL     1      -6.845  18.985  68.531  1.00  0.00    -0.268 C  
HETATM   19  C   UNL     1      -7.145  19.824  65.815  1.00  0.00    -0.306 C  
HETATM   20  C   UNL     1      -7.239  20.441  68.144  1.00  0.00    -0.196 C  
HETATM   21  N   UNL     1      -6.824  20.876  66.797  1.00  0.00    -0.285 NA 
ENDBRANCH  12  15
ENDBRANCH   5   9
BRANCH   7  22
HETATM   22  N   UNL     1     -10.870   9.159  67.666  1.00  0.00    -0.475 NA 
HETATM   23  H   UNL     1     -11.854   9.107  67.930  1.00  0.00     0.000 HD 
BRANCH  22  24
HETATM   24  C   UNL     1     -10.344   7.865  67.526  1.00  0.00    -0.259 A  
HETATM   25 CL   UNL     1      -8.722   3.720  67.321  1.00  0.00    -0.114 Cl 
HETATM   26  C   UNL     1      -9.684   5.891  68.708  1.00  0.00    -0.131 A  
HETATM   27  C   UNL     1      -9.521   6.090  66.338  1.00  0.00    -0.150 A  
HETATM   28  N   UNL     1     -10.022   7.346  66.335  1.00  0.00    -0.105 NA 
HETATM   29  C   UNL     1      -9.319   5.324  67.482  1.00  0.00    -0.117 A  
HETATM   30  N   UNL     1     -10.188   7.166  68.704  1.00  0.00    -0.173 NA 
BRANCH  26  31
HETATM   31  N   UNL     1      -9.434   5.128  69.987  1.00  0.00    -0.149 NA 
HETATM   32  H   UNL     1     -10.152   4.450  70.238  1.00  0.00     0.000 HD 
BRANCH  31  33
HETATM   33  C   UNL     1      -8.288   5.224  70.933  1.00  0.00    -0.116 A  
HETATM   34  C   UNL     1      -7.048   5.432  70.313  1.00  0.00    -0.062 A  
HETATM   35  C   UNL     1      -5.893   5.595  71.059  1.00  0.00    -0.024 A  
HETATM   36  C   UNL     1      -5.957   5.586  72.458  1.00  0.00    -0.031 A  
HETATM   37  C   UNL     1      -7.163   5.396  73.161  1.00  0.00    -0.090 A  
HETATM   38  C   UNL     1      -8.358   5.204  72.465  1.00  0.00    -0.117 A  
HETATM   39  P   UNL     1      -9.903   4.878  73.391  1.00  0.00    -0.157 P  
HETATM   40  C   UNL     1     -10.813   6.247  72.464  1.00  0.00    -0.240 C  
HETATM   41  O   UNL     1     -11.209   4.603  74.175  1.00  0.00    -0.257 OA 
HETATM   42  C   UNL     1     -10.082   3.222  72.485  1.00  0.00    -0.159 C  
ENDBRANCH  31  33
ENDBRANCH  26  31
ENDBRANCH  22  24
ENDBRANCH   7  22
ENDBRANCH   2   3
TORSDOF 7
ENDMDL
MODEL       35
REMARK 921   NORMALIZED FREE ENERGY PREDICTED BY IDOCK:   -6.01 KCAL/MOL
REMARK 922        TOTAL FREE ENERGY PREDICTED BY IDOCK:   -9.78 KCAL/MOL
REMARK 923 INTER-LIGAND FREE ENERGY PREDICTED BY IDOCK:   -9.33 KCAL/MOL
REMARK 924 INTRA-LIGAND FREE ENERGY PREDICTED BY IDOCK:   -0.45 KCAL/MOL
REMARK 927      BINDING AFFINITY PREDICTED BY RF-SCORE:    0.00 PKD
ROOT
HETATM    1  C   UNL     1      -8.395   8.802  70.935  1.00  0.00    -0.165 C  
HETATM    2  O   UNL     1      -9.651   8.513  71.535  1.00  0.00    -0.183 OA 
ENDROOT
BRANCH   2   3
HETATM    3  C   UNL     1     -10.753   9.273  71.187  1.00  0.00    -0.333 A  
HETATM    4  C   UNL     1     -10.704  10.458  70.406  1.00  0.00    -0.186 A  
HETATM    5  C   UNL     1     -11.850  11.216  70.091  1.00  0.00    -0.365 A  
HETATM    6  C   UNL     1     -13.059  10.690  70.604  1.00  0.00    -0.242 A  
HETATM    7  C   UNL     1     -11.983   8.753  71.681  1.00  0.00    -0.332 A  
HETATM    8  C   UNL     1     -13.122   9.489  71.376  1.00  0.00    -0.449 A  
BRANCH   5   9
HETATM    9  N   UNL     1     -11.777  12.356  69.278  1.00  0.00    -0.315 NA 
HETATM   10  C   UNL     1     -11.223  12.195  67.920  1.00  0.00    -0.272 C  
HETATM   11  C   UNL     1     -11.869  13.226  66.990  1.00  0.00    -0.442 C  
HETATM   12  C   UNL     1     -11.647  14.693  67.429  1.00  0.00    -0.389 C  
HETATM   13  C   UNL     1     -12.070  14.790  68.919  1.00  0.00    -0.240 C  
HETATM   14  C   UNL     1     -11.459  13.697  69.821  1.00  0.00    -0.187 C  
BRANCH  12  15
HETATM   15  N   UNL     1     -10.298  15.297  67.228  1.00  0.00    -0.260 NA 
HETATM   16  C   UNL     1     -10.023  15.837  65.879  1.00  0.00    -0.352 C  
HETATM   17  C   UNL     1      -9.274  18.896  66.313  1.00  0.00    -0.268 C  
HETATM   18  C   UNL     1     -10.049  16.413  68.190  1.00  0.00    -0.251 C  
HETATM   19  C   UNL     1     -10.768  17.149  65.524  1.00  0.00    -0.117 C  
HETATM   20  C   UNL     1     -10.766  17.755  67.857  1.00  0.00    -0.319 C  
HETATM   21  N   UNL     1     -10.576  18.252  66.482  1.00  0.00    -0.338 NA 
ENDBRANCH  12  15
ENDBRANCH   5   9
BRANCH   7  22
HETATM   22  N   UNL     1     -11.941   7.524  72.400  1.00  0.00    -0.474 NA 
HETATM   23  H   UNL     1     -12.576   7.568  73.198  1.00  0.00     0.000 HD 
BRANCH  22  24
HETATM   24  C   UNL     1     -11.306   6.272  72.363  1.00  0.00    -0.292 A  
HETATM   25 CL   UNL     1      -9.235   2.343  72.009  1.00  0.00    -0.137 Cl 
HETATM   26  C   UNL     1     -10.267   4.655  70.936  1.00  0.00    -0.143 A  
HETATM   27  C   UNL     1     -10.486   4.346  73.290  1.00  0.00    -0.187 A  
HETATM   28  N   UNL     1     -11.106   5.536  73.462  1.00  0.00    -0.240 NA 
HETATM   29  C   UNL     1     -10.058   3.851  72.062  1.00  0.00    -0.149 A  
HETATM   30  N   UNL     1     -10.899   5.859  71.112  1.00  0.00    -0.268 NA 
BRANCH  26  31
HETATM   31  N   UNL     1      -9.875   4.143  69.571  1.00  0.00    -0.179 NA 
HETATM   32  H   UNL     1      -9.817   3.129  69.484  1.00  0.00     0.000 HD 
BRANCH  31  33
HETATM   33  C   UNL     1      -9.561   4.908  68.332  1.00  0.00    -0.146 A  
HETATM   34  C   UNL     1     -10.578   5.783  67.925  1.00  0.00    -0.304 A  
HETATM   35  C   UNL     1     -10.418   6.603  66.821  1.00  0.00    -0.298 A  
HETATM   36  C   UNL     1      -9.212   6.590  66.110  1.00  0.00    -0.126 A  
HETATM   37  C   UNL     1      -8.134   5.752  66.458  1.00  0.00    -0.102 A  
HETATM   38  C   UNL     1      -8.243   4.885  67.548  1.00  0.00    -0.105 A  
HETATM   39  P   UNL     1      -6.867   3.745  67.939  1.00  0.00    -0.048 P  
HETATM   40  C   UNL     1      -6.836   4.310  69.740  1.00  0.00    -0.041 C  
HETATM   41  O   UNL     1      -5.702   2.780  68.270  1.00  0.00    -0.021 OA 
HETATM   42  C   UNL     1      -8.041   2.272  67.720  1.00  0.00    -0.063 C  
ENDBRANCH  31  33
ENDBRANCH  26  31
ENDBRANCH  22  24
ENDBRANCH   7  22
ENDBRANCH   2   3
TORSDOF 7
ENDMDL
MODEL       36
REMARK 921   NORMALIZED FREE ENERGY PREDICTED BY IDOCK:   -5.99 KCAL/MOL
REMARK 922        TOTAL FREE ENERGY PREDICTED BY IDOCK:   -9.76 KCAL/MOL
REMARK 923 INTER-LIGAND FREE ENERGY PREDICTED BY IDOCK:   -8.23 KCAL/MOL
REMARK 924 INTRA-LIGAND FREE ENERGY PREDICTED BY IDOCK:   -1.52 KCAL/MOL
REMARK 927      BINDING AFFINITY PREDICTED BY RF-SCORE:    0.00 PKD
ROOT
HETATM    1  C   UNL     1     -11.159  11.660  66.258  1.00  0.00    -0.290 C  
HETATM    2  O   UNL     1     -11.826  11.309  67.464  1.00  0.00    -0.613 OA 
ENDROOT
BRANCH   2   3
HETATM    3  C   UNL     1     -11.327  10.272  68.231  1.00  0.00    -0.177 A  
HETATM    4  C   UNL     1     -10.503   9.226  67.738  1.00  0.00    -0.313 A  
HETATM    5  C   UNL     1     -10.032   8.175  68.551  1.00  0.00    -0.190 A  
HETATM    6  C   UNL     1     -10.434   8.256  69.905  1.00  0.00    -0.223 A  
HETATM    7  C   UNL     1     -11.707  10.343  69.602  1.00  0.00    -0.212 A  
HETATM    8  C   UNL     1     -11.248   9.314  70.415  1.00  0.00    -0.290 A  
BRANCH   5   9
HETATM    9  N   UNL     1      -9.181   7.180  68.047  1.00  0.00    -0.131 NA 
HETATM   10  C   UNL     1      -8.746   7.299  66.642  1.00  0.00    -0.132 C  
HETATM   11  C   UNL     1      -7.360   6.666  66.492  1.00  0.00    -0.074 C  
HETATM   12  C   UNL     1      -7.306   5.171  66.887  1.00  0.00    -0.086 C  
HETATM   13  C   UNL     1      -7.937   5.052  68.300  1.00  0.00    -0.086 C  
HETATM   14  C   UNL     1      -9.303   5.759  68.443  1.00  0.00    -0.121 C  
BRANCH  12  15
HETATM   15  N   UNL     1      -7.909   4.171  65.959  1.00  0.00    -0.094 NA 
HETATM   16  C   UNL     1      -7.805   4.478  64.516  1.00  0.00    -0.089 C  
HETATM   17  C   UNL     1      -6.288   2.007  63.215  1.00  0.00    -0.014 C  
HETATM   18  C   UNL     1      -7.304   2.816  66.147  1.00  0.00    -0.067 C  
HETATM   19  C   UNL     1      -6.388   4.334  63.906  1.00  0.00    -0.030 C  
HETATM   20  C   UNL     1      -5.886   2.625  65.531  1.00  0.00    -0.018 C  
HETATM   21  N   UNL     1      -5.750   3.023  64.117  1.00  0.00    -0.010 NA 
ENDBRANCH  12  15
ENDBRANCH   5   9
BRANCH   7  22
HETATM   22  N   UNL     1     -12.481  11.465  70.016  1.00  0.00    -0.199 NA 
HETATM   23  H   UNL     1     -13.474  11.266  69.889  1.00  0.00     0.000 HD 
BRANCH  22  24
HETATM   24  C   UNL     1     -12.316  12.755  70.543  1.00  0.00    -0.275 A  
HETATM   25 CL   UNL     1     -11.710  16.924  71.995  1.00  0.00     0.034 Cl 
HETATM   26  C   UNL     1     -11.437  14.939  70.111  1.00  0.00    -0.279 A  
HETATM   27  C   UNL     1     -12.538  14.373  72.148  1.00  0.00    -0.296 A  
HETATM   28  N   UNL     1     -12.765  13.098  71.757  1.00  0.00    -0.221 NA 
HETATM   29  C   UNL     1     -11.875  15.327  71.382  1.00  0.00    -0.372 A  
HETATM   30  N   UNL     1     -11.664  13.646  69.717  1.00  0.00    -0.299 NA 
BRANCH  26  31
HETATM   31  N   UNL     1     -10.662  15.917  69.260  1.00  0.00    -0.238 NA 
HETATM   32  H   UNL     1     -11.159  16.771  69.013  1.00  0.00     0.000 HD 
BRANCH  31  33
HETATM   33  C   UNL     1      -9.275  15.810  68.728  1.00  0.00    -0.216 A  
HETATM   34  C   UNL     1      -8.323  15.427  69.684  1.00  0.00    -0.127 A  
HETATM   35  C   UNL     1      -6.997  15.234  69.335  1.00  0.00    -0.180 A  
HETATM   36  C   UNL     1      -6.595  15.388  68.003  1.00  0.00    -0.160 A  
HETATM   37  C   UNL     1      -7.488  15.758  66.978  1.00  0.00    -0.242 A  
HETATM   38  C   UNL     1      -8.833  15.990  67.270  1.00  0.00    -0.190 A  
HETATM   39  P   UNL     1      -9.965  16.548  65.945  1.00  0.00    -0.232 P  
HETATM   40  C   UNL     1     -11.204  15.184  66.351  1.00  0.00    -0.277 C  
HETATM   41  O   UNL     1     -10.922  17.021  64.823  1.00  0.00    -0.835 OA 
HETATM   42  C   UNL     1     -10.344  18.115  66.945  1.00  0.00    -0.375 C  
ENDBRANCH  31  33
ENDBRANCH  26  31
ENDBRANCH  22  24
ENDBRANCH   7  22
ENDBRANCH   2   3
TORSDOF 7
ENDMDL
MODEL       37
REMARK 921   NORMALIZED FREE ENERGY PREDICTED BY IDOCK:   -5.89 KCAL/MOL
REMARK 922        TOTAL FREE ENERGY PREDICTED BY IDOCK:   -9.61 KCAL/MOL
REMARK 923 INTER-LIGAND FREE ENERGY PREDICTED BY IDOCK:   -8.44 KCAL/MOL
REMARK 924 INTRA-LIGAND FREE ENERGY PREDICTED BY IDOCK:   -1.17 KCAL/MOL
REMARK 927      BINDING AFFINITY PREDICTED BY RF-SCORE:    0.00 PKD
ROOT
HETATM    1  C   UNL     1     -10.715   9.069  71.122  1.00  0.00    -0.288 C  
HETATM    2  O   UNL     1     -11.320   9.070  69.835  1.00  0.00    -0.149 OA 
ENDROOT
BRANCH   2   3
HETATM    3  C   UNL     1     -10.755   9.827  68.826  1.00  0.00    -0.215 A  
HETATM    4  C   UNL     1     -10.300  11.164  68.977  1.00  0.00    -0.214 A  
HETATM    5  C   UNL     1      -9.747  11.910  67.916  1.00  0.00    -0.192 A  
HETATM    6  C   UNL     1      -9.667  11.211  66.689  1.00  0.00    -0.224 A  
HETATM    7  C   UNL     1     -10.649   9.137  67.585  1.00  0.00    -0.242 A  
HETATM    8  C   UNL     1     -10.105   9.859  66.530  1.00  0.00    -0.298 A  
BRANCH   5   9
HETATM    9  N   UNL     1      -9.264  13.212  68.106  1.00  0.00    -0.212 NA 
HETATM   10  C   UNL     1     -10.254  14.304  68.194  1.00  0.00    -0.231 C  
HETATM   11  C   UNL     1      -9.698  15.413  69.091  1.00  0.00    -0.252 C  
HETATM   12  C   UNL     1      -8.362  16.014  68.593  1.00  0.00    -0.203 C  
HETATM   13  C   UNL     1      -7.397  14.826  68.337  1.00  0.00    -0.116 C  
HETATM   14  C   UNL     1      -8.007  13.689  67.487  1.00  0.00    -0.182 C  
BRANCH  12  15
HETATM   15  N   UNL     1      -8.392  16.927  67.414  1.00  0.00    -0.183 NA 
HETATM   16  C   UNL     1      -9.733  17.275  66.896  1.00  0.00    -0.273 C  
HETATM   17  C   UNL     1      -9.906  20.446  67.010  1.00  0.00    -0.453 C  
HETATM   18  C   UNL     1      -7.703  18.221  67.707  1.00  0.00    -0.235 C  
HETATM   19  C   UNL     1     -10.560  18.238  67.784  1.00  0.00    -0.393 C  
HETATM   20  C   UNL     1      -8.511  19.225  68.582  1.00  0.00    -0.368 C  
HETATM   21  N   UNL     1      -9.886  19.503  68.126  1.00  0.00    -0.380 NA 
ENDBRANCH  12  15
ENDBRANCH   5   9
BRANCH   7  22
HETATM   22  N   UNL     1     -11.072   7.777  67.547  1.00  0.00    -0.485 NA 
HETATM   23  H   UNL     1     -12.084   7.733  67.420  1.00  0.00     0.000 HD 
BRANCH  22  24
HETATM   24  C   UNL     1     -10.544   6.479  67.628  1.00  0.00    -0.269 A  
HETATM   25 CL   UNL     1      -8.851   2.388  68.132  1.00  0.00    -0.137 Cl 
HETATM   26  C   UNL     1      -9.528   4.876  69.088  1.00  0.00    -0.141 A  
HETATM   27  C   UNL     1      -9.968   4.429  66.788  1.00  0.00    -0.195 A  
HETATM   28  N   UNL     1     -10.507   5.652  66.577  1.00  0.00    -0.253 NA 
HETATM   29  C   UNL     1      -9.456   3.992  68.006  1.00  0.00    -0.165 A  
HETATM   30  N   UNL     1     -10.071   6.116  68.872  1.00  0.00    -0.161 NA 
BRANCH  26  31
HETATM   31  N   UNL     1      -8.937   4.476  70.418  1.00  0.00    -0.090 NA 
HETATM   32  H   UNL     1      -9.137   3.522  70.716  1.00  0.00     0.000 HD 
BRANCH  31  33
HETATM   33  C   UNL     1      -8.103   5.276  71.358  1.00  0.00    -0.115 A  
HETATM   34  C   UNL     1      -6.929   5.788  70.787  1.00  0.00    -0.062 A  
HETATM   35  C   UNL     1      -6.073   6.596  71.517  1.00  0.00    -0.037 A  
HETATM   36  C   UNL     1      -6.391   6.941  72.836  1.00  0.00    -0.058 A  
HETATM   37  C   UNL     1      -7.555   6.481  73.481  1.00  0.00    -0.088 A  
HETATM   38  C   UNL     1      -8.447   5.644  72.806  1.00  0.00    -0.120 A  
HETATM   39  P   UNL     1      -9.914   4.989  73.683  1.00  0.00    -0.192 P  
HETATM   40  C   UNL     1     -11.066   5.571  72.305  1.00  0.00    -0.237 C  
HETATM   41  O   UNL     1     -11.155   4.435  74.424  1.00  0.00    -0.241 OA 
HETATM   42  C   UNL     1      -9.310   3.223  73.348  1.00  0.00    -0.096 C  
ENDBRANCH  31  33
ENDBRANCH  26  31
ENDBRANCH  22  24
ENDBRANCH   7  22
ENDBRANCH   2   3
TORSDOF 7
ENDMDL
MODEL       38
REMARK 921   NORMALIZED FREE ENERGY PREDICTED BY IDOCK:   -5.88 KCAL/MOL
REMARK 922        TOTAL FREE ENERGY PREDICTED BY IDOCK:   -9.60 KCAL/MOL
REMARK 923 INTER-LIGAND FREE ENERGY PREDICTED BY IDOCK:   -8.45 KCAL/MOL
REMARK 924 INTRA-LIGAND FREE ENERGY PREDICTED BY IDOCK:   -1.15 KCAL/MOL
REMARK 927      BINDING AFFINITY PREDICTED BY RF-SCORE:    0.00 PKD
ROOT
HETATM    1  C   UNL     1     -10.647   9.153  69.951  1.00  0.00    -0.230 C  
HETATM    2  O   UNL     1     -10.897   8.859  68.582  1.00  0.00    -0.126 OA 
ENDROOT
BRANCH   2   3
HETATM    3  C   UNL     1     -10.626   9.822  67.627  1.00  0.00    -0.276 A  
HETATM    4  C   UNL     1     -10.771  11.220  67.826  1.00  0.00    -0.265 A  
HETATM    5  C   UNL     1     -10.503  12.169  66.817  1.00  0.00    -0.218 A  
HETATM    6  C   UNL     1     -10.060  11.614  65.594  1.00  0.00    -0.278 A  
HETATM    7  C   UNL     1     -10.164   9.285  66.392  1.00  0.00    -0.228 A  
HETATM    8  C   UNL     1      -9.893  10.209  65.389  1.00  0.00    -0.375 A  
BRANCH   5   9
HETATM    9  N   UNL     1     -10.611  13.546  67.056  1.00  0.00    -0.268 NA 
HETATM   10  C   UNL     1      -9.820  14.454  66.203  1.00  0.00    -0.320 C  
HETATM   11  C   UNL     1     -10.561  15.787  66.067  1.00  0.00    -0.334 C  
HETATM   12  C   UNL     1     -10.822  16.500  67.415  1.00  0.00    -0.202 C  
HETATM   13  C   UNL     1     -11.494  15.463  68.355  1.00  0.00    -0.365 C  
HETATM   14  C   UNL     1     -10.764  14.104  68.419  1.00  0.00    -0.256 C  
BRANCH  12  15
HETATM   15  N   UNL     1      -9.674  17.162  68.100  1.00  0.00    -0.266 NA 
HETATM   16  C   UNL     1      -8.486  17.433  67.262  1.00  0.00    -0.208 C  
HETATM   17  C   UNL     1      -7.995  20.567  67.452  1.00  0.00    -0.305 C  
HETATM   18  C   UNL     1     -10.076  18.471  68.701  1.00  0.00    -0.369 C  
HETATM   19  C   UNL     1      -8.649  18.573  66.226  1.00  0.00    -0.205 C  
HETATM   20  C   UNL     1     -10.232  19.648  67.693  1.00  0.00    -0.435 C  
HETATM   21  N   UNL     1      -9.090  19.864  66.786  1.00  0.00    -0.348 NA 
ENDBRANCH  12  15
ENDBRANCH   5   9
BRANCH   7  22
HETATM   22  N   UNL     1      -9.988   7.874  66.308  1.00  0.00    -0.476 NA 
HETATM   23  H   UNL     1     -10.834   7.441  65.937  1.00  0.00     0.000 HD 
BRANCH  22  24
HETATM   24  C   UNL     1      -9.024   6.888  66.573  1.00  0.00    -0.150 A  
HETATM   25 CL   UNL     1      -6.010   3.790  67.655  1.00  0.00    -0.027 Cl 
HETATM   26  C   UNL     1      -7.769   5.803  68.299  1.00  0.00    -0.093 A  
HETATM   27  C   UNL     1      -7.548   5.237  65.994  1.00  0.00    -0.087 A  
HETATM   28  N   UNL     1      -8.467   6.151  65.606  1.00  0.00    -0.149 NA 
HETATM   29  C   UNL     1      -7.152   5.027  67.311  1.00  0.00    -0.066 A  
HETATM   30  N   UNL     1      -8.697   6.731  67.904  1.00  0.00    -0.121 NA 
BRANCH  26  31
HETATM   31  N   UNL     1      -7.338   5.658  69.739  1.00  0.00    -0.068 NA 
HETATM   32  H   UNL     1      -6.644   4.933  69.916  1.00  0.00     0.000 HD 
BRANCH  31  33
HETATM   33  C   UNL     1      -7.781   6.423  70.937  1.00  0.00    -0.101 A  
HETATM   34  C   UNL     1      -7.255   7.719  71.017  1.00  0.00    -0.054 A  
HETATM   35  C   UNL     1      -7.613   8.575  72.046  1.00  0.00    -0.132 A  
HETATM   36  C   UNL     1      -8.541   8.161  73.009  1.00  0.00    -0.284 A  
HETATM   37  C   UNL     1      -9.128   6.881  72.996  1.00  0.00    -0.148 A  
HETATM   38  C   UNL     1      -8.790   5.964  71.998  1.00  0.00    -0.137 A  
HETATM   39  P   UNL     1      -9.499   4.277  72.040  1.00  0.00    -0.150 P  
HETATM   40  C   UNL     1     -10.074   4.414  70.247  1.00  0.00    -0.102 C  
HETATM   41  O   UNL     1     -10.100   2.851  72.075  1.00  0.00    -0.168 OA 
HETATM   42  C   UNL     1      -7.748   3.556  72.128  1.00  0.00    -0.059 C  
ENDBRANCH  31  33
ENDBRANCH  26  31
ENDBRANCH  22  24
ENDBRANCH   7  22
ENDBRANCH   2   3
TORSDOF 7
ENDMDL
MODEL       39
REMARK 921   NORMALIZED FREE ENERGY PREDICTED BY IDOCK:   -5.83 KCAL/MOL
REMARK 922        TOTAL FREE ENERGY PREDICTED BY IDOCK:   -9.53 KCAL/MOL
REMARK 923 INTER-LIGAND FREE ENERGY PREDICTED BY IDOCK:   -7.78 KCAL/MOL
REMARK 924 INTRA-LIGAND FREE ENERGY PREDICTED BY IDOCK:   -1.75 KCAL/MOL
REMARK 927      BINDING AFFINITY PREDICTED BY RF-SCORE:    0.00 PKD
ROOT
HETATM    1  C   UNL     1     -11.395   6.466  68.769  1.00  0.00    -0.162 C  
HETATM    2  O   UNL     1     -11.062   6.676  67.402  1.00  0.00    -0.346 OA 
ENDROOT
BRANCH   2   3
HETATM    3  C   UNL     1     -10.208   7.711  67.071  1.00  0.00    -0.300 A  
HETATM    4  C   UNL     1     -10.534   9.090  67.166  1.00  0.00    -0.333 A  
HETATM    5  C   UNL     1      -9.639  10.116  66.797  1.00  0.00    -0.177 A  
HETATM    6  C   UNL     1      -8.381   9.659  66.338  1.00  0.00    -0.120 A  
HETATM    7  C   UNL     1      -8.929   7.274  66.621  1.00  0.00    -0.150 A  
HETATM    8  C   UNL     1      -8.037   8.274  66.256  1.00  0.00    -0.109 A  
BRANCH   5   9
HETATM    9  N   UNL     1      -9.972  11.470  66.945  1.00  0.00    -0.203 NA 
HETATM   10  C   UNL     1      -9.810  12.348  65.770  1.00  0.00    -0.240 C  
HETATM   11  C   UNL     1     -10.841  13.478  65.843  1.00  0.00    -0.279 C  
HETATM   12  C   UNL     1     -10.726  14.351  67.115  1.00  0.00    -0.283 C  
HETATM   13  C   UNL     1     -10.718  13.385  68.329  1.00  0.00    -0.273 C  
HETATM   14  C   UNL     1      -9.718  12.215  68.199  1.00  0.00    -0.208 C  
BRANCH  12  15
HETATM   15  N   UNL     1      -9.596  15.321  67.210  1.00  0.00    -0.210 NA 
HETATM   16  C   UNL     1      -9.457  16.267  66.082  1.00  0.00    -0.339 C  
HETATM   17  C   UNL     1      -9.605  19.169  67.369  1.00  0.00    -0.311 C  
HETATM   18  C   UNL     1      -9.690  16.150  68.450  1.00  0.00    -0.219 C  
HETATM   19  C   UNL     1     -10.532  17.380  66.011  1.00  0.00    -0.276 C  
HETATM   20  C   UNL     1     -10.748  17.293  68.411  1.00  0.00    -0.332 C  
HETATM   21  N   UNL     1     -10.677  18.184  67.238  1.00  0.00    -0.364 NA 
ENDBRANCH  12  15
ENDBRANCH   5   9
BRANCH   7  22
HETATM   22  N   UNL     1      -8.672   5.872  66.621  1.00  0.00    -0.119 NA 
HETATM   23  H   UNL     1      -9.016   5.457  65.754  1.00  0.00     0.000 HD 
BRANCH  22  24
HETATM   24  C   UNL     1      -8.098   4.880  67.430  1.00  0.00    -0.106 A  
HETATM   25 CL   UNL     1      -6.372   1.843  70.197  1.00  0.00    -0.024 Cl 
HETATM   26  C   UNL     1      -7.664   4.217  69.689  1.00  0.00    -0.053 A  
HETATM   27  C   UNL     1      -6.994   2.911  67.811  1.00  0.00    -0.049 A  
HETATM   28  N   UNL     1      -7.512   3.789  66.923  1.00  0.00    -0.078 NA 
HETATM   29  C   UNL     1      -7.028   3.074  69.193  1.00  0.00    -0.041 A  
HETATM   30  N   UNL     1      -8.186   5.108  68.788  1.00  0.00    -0.085 NA 
BRANCH  26  31
HETATM   31  N   UNL     1      -7.681   4.474  71.177  1.00  0.00    -0.074 NA 
HETATM   32  H   UNL     1      -6.774   4.680  71.595  1.00  0.00     0.000 HD 
BRANCH  31  33
HETATM   33  C   UNL     1      -8.832   4.471  72.122  1.00  0.00    -0.121 A  
HETATM   34  C   UNL     1      -9.586   3.289  72.102  1.00  0.00    -0.208 A  
HETATM   35  C   UNL     1     -10.658   3.110  72.960  1.00  0.00    -0.242 A  
HETATM   36  C   UNL     1     -10.984   4.105  73.889  1.00  0.00    -0.295 A  
HETATM   37  C   UNL     1     -10.271   5.316  73.986  1.00  0.00    -0.273 A  
HETATM   38  C   UNL     1      -9.194   5.566  73.133  1.00  0.00    -0.132 A  
HETATM   39  P   UNL     1      -8.329   7.176  73.215  1.00  0.00    -0.129 P  
HETATM   40  C   UNL     1      -6.649   6.329  73.365  1.00  0.00    -0.074 C  
HETATM   41  O   UNL     1      -7.596   8.539  73.285  1.00  0.00    -0.322 OA 
HETATM   42  C   UNL     1      -8.761   7.488  71.395  1.00  0.00    -0.124 C  
ENDBRANCH  31  33
ENDBRANCH  26  31
ENDBRANCH  22  24
ENDBRANCH   7  22
ENDBRANCH   2   3
TORSDOF 7
ENDMDL
MODEL       40
REMARK 921   NORMALIZED FREE ENERGY PREDICTED BY IDOCK:   -5.83 KCAL/MOL
REMARK 922        TOTAL FREE ENERGY PREDICTED BY IDOCK:   -9.52 KCAL/MOL
REMARK 923 INTER-LIGAND FREE ENERGY PREDICTED BY IDOCK:   -8.51 KCAL/MOL
REMARK 924 INTRA-LIGAND FREE ENERGY PREDICTED BY IDOCK:   -1.01 KCAL/MOL
REMARK 927      BINDING AFFINITY PREDICTED BY RF-SCORE:    0.00 PKD
ROOT
HETATM    1  C   UNL     1     -12.378  10.119  70.844  1.00  0.00    -0.363 C  
HETATM    2  O   UNL     1     -11.582  10.982  70.041  1.00  0.00    -0.291 OA 
ENDROOT
BRANCH   2   3
HETATM    3  C   UNL     1     -11.174  10.552  68.792  1.00  0.00    -0.262 A  
HETATM    4  C   UNL     1     -10.636   9.267  68.516  1.00  0.00    -0.222 A  
HETATM    5  C   UNL     1     -10.212   8.875  67.229  1.00  0.00    -0.258 A  
HETATM    6  C   UNL     1     -10.380   9.863  66.230  1.00  0.00    -0.233 A  
HETATM    7  C   UNL     1     -11.350  11.526  67.768  1.00  0.00    -0.296 A  
HETATM    8  C   UNL     1     -10.937  11.153  66.495  1.00  0.00    -0.270 A  
BRANCH   5   9
HETATM    9  N   UNL     1      -9.728   7.584  66.977  1.00  0.00    -0.183 NA 
HETATM   10  C   UNL     1      -8.600   7.446  66.035  1.00  0.00    -0.151 C  
HETATM   11  C   UNL     1      -7.766   6.224  66.428  1.00  0.00    -0.099 C  
HETATM   12  C   UNL     1      -8.558   4.895  66.425  1.00  0.00    -0.110 C  
HETATM   13  C   UNL     1      -9.834   5.126  67.278  1.00  0.00    -0.191 C  
HETATM   14  C   UNL     1     -10.619   6.403  66.908  1.00  0.00    -0.309 C  
BRANCH  12  15
HETATM   15  N   UNL     1      -8.911   4.284  65.111  1.00  0.00    -0.132 NA 
HETATM   16  C   UNL     1      -7.925   4.467  64.023  1.00  0.00    -0.093 C  
HETATM   17  C   UNL     1      -7.139   1.540  63.070  1.00  0.00    -0.030 C  
HETATM   18  C   UNL     1      -9.134   2.811  65.236  1.00  0.00    -0.148 C  
HETATM   19  C   UNL     1      -6.620   3.646  64.164  1.00  0.00    -0.042 C  
HETATM   20  C   UNL     1      -7.844   1.947  65.360  1.00  0.00    -0.073 C  
HETATM   21  N   UNL     1      -6.813   2.195  64.335  1.00  0.00    -0.041 NA 
ENDBRANCH  12  15
ENDBRANCH   5   9
BRANCH   7  22
HETATM   22  N   UNL     1     -11.957  12.763  68.129  1.00  0.00    -0.308 NA 
HETATM   23  H   UNL     1     -12.722  12.974  67.487  1.00  0.00     0.000 HD 
BRANCH  22  24
HETATM   24  C   UNL     1     -11.840  13.785  69.084  1.00  0.00    -0.354 A  
HETATM   25 CL   UNL     1     -11.306  17.140  71.967  1.00  0.00     0.584 Cl 
HETATM   26  C   UNL     1     -10.616  15.749  69.698  1.00  0.00    -0.295 A  
HETATM   27  C   UNL     1     -12.426  14.900  70.997  1.00  0.00    -0.330 A  
HETATM   28  N   UNL     1     -12.646  13.868  70.149  1.00  0.00    -0.281 NA 
HETATM   29  C   UNL     1     -11.428  15.856  70.833  1.00  0.00    -0.409 A  
HETATM   30  N   UNL     1     -10.838  14.701  68.842  1.00  0.00    -0.242 NA 
BRANCH  26  31
HETATM   31  N   UNL     1      -9.481  16.725  69.499  1.00  0.00     0.038 NA 
HETATM   32  H   UNL     1      -8.681  16.597  70.117  1.00  0.00     0.000 HD 
BRANCH  31  33
HETATM   33  C   UNL     1      -9.364  17.849  68.529  1.00  0.00    -0.296 A  
HETATM   34  C   UNL     1     -10.385  18.805  68.633  1.00  0.00    -0.261 A  
HETATM   35  C   UNL     1     -10.389  19.937  67.836  1.00  0.00    -0.545 A  
HETATM   36  C   UNL     1      -9.344  20.159  66.931  1.00  0.00    -0.522 A  
HETATM   37  C   UNL     1      -8.273  19.257  66.772  1.00  0.00    -0.301 A  
HETATM   38  C   UNL     1      -8.224  18.086  67.530  1.00  0.00    -0.235 A  
HETATM   39  P   UNL     1      -6.871  16.885  67.256  1.00  0.00    -0.204 P  
HETATM   40  C   UNL     1      -6.462  16.840  69.098  1.00  0.00    -0.208 C  
HETATM   41  O   UNL     1      -5.725  15.869  67.023  1.00  0.00    -0.332 OA 
HETATM   42  C   UNL     1      -8.153  15.557  66.822  1.00  0.00    -0.212 C  
ENDBRANCH  31  33
ENDBRANCH  26  31
ENDBRANCH  22  24
ENDBRANCH   7  22
ENDBRANCH   2   3
TORSDOF 7
ENDMDL
MODEL       41
REMARK 921   NORMALIZED FREE ENERGY PREDICTED BY IDOCK:   -5.79 KCAL/MOL
REMARK 922        TOTAL FREE ENERGY PREDICTED BY IDOCK:   -9.47 KCAL/MOL
REMARK 923 INTER-LIGAND FREE ENERGY PREDICTED BY IDOCK:   -8.72 KCAL/MOL
REMARK 924 INTRA-LIGAND FREE ENERGY PREDICTED BY IDOCK:   -0.75 KCAL/MOL
REMARK 927      BINDING AFFINITY PREDICTED BY RF-SCORE:    0.00 PKD
ROOT
HETATM    1  C   UNL     1     -10.992  11.645  68.736  1.00  0.00    -0.226 C  
HETATM    2  O   UNL     1     -12.200  11.095  69.248  1.00  0.00    -0.345 OA 
ENDROOT
BRANCH   2   3
HETATM    3  C   UNL     1     -12.132  10.113  70.220  1.00  0.00    -0.204 A  
HETATM    4  C   UNL     1     -11.480   8.862  70.060  1.00  0.00     0.021 A  
HETATM    5  C   UNL     1     -11.452   7.879  71.070  1.00  0.00    -0.280 A  
HETATM    6  C   UNL     1     -12.114   8.247  72.265  1.00  0.00    -0.439 A  
HETATM    7  C   UNL     1     -12.779  10.470  71.437  1.00  0.00    -0.442 A  
HETATM    8  C   UNL     1     -12.758   9.511  72.442  1.00  0.00    -0.313 A  
BRANCH   5   9
HETATM    9  N   UNL     1     -10.760   6.670  70.901  1.00  0.00    -0.228 NA 
HETATM   10  C   UNL     1     -10.190   6.032  72.104  1.00  0.00    -0.192 C  
HETATM   11  C   UNL     1     -10.167   4.515  71.903  1.00  0.00    -0.241 C  
HETATM   12  C   UNL     1      -9.341   4.056  70.678  1.00  0.00    -0.146 C  
HETATM   13  C   UNL     1      -9.842   4.876  69.460  1.00  0.00    -0.287 C  
HETATM   14  C   UNL     1      -9.922   6.397  69.712  1.00  0.00    -0.166 C  
BRANCH  12  15
HETATM   15  N   UNL     1      -7.852   4.108  70.768  1.00  0.00    -0.052 NA 
HETATM   16  C   UNL     1      -7.218   3.089  71.632  1.00  0.00    -0.039 C  
HETATM   17  C   UNL     1      -5.191   1.513  69.758  1.00  0.00    -0.007 C  
HETATM   18  C   UNL     1      -7.219   3.975  69.421  1.00  0.00    -0.050 C  
HETATM   19  C   UNL     1      -7.230   1.643  71.073  1.00  0.00    -0.033 C  
HETATM   20  C   UNL     1      -7.194   2.533  68.833  1.00  0.00    -0.044 C  
HETATM   21  N   UNL     1      -6.652   1.492  69.726  1.00  0.00    -0.028 NA 
ENDBRANCH  12  15
ENDBRANCH   5   9
BRANCH   7  22
HETATM   22  N   UNL     1     -13.349  11.772  71.525  1.00  0.00    -0.168 NA 
HETATM   23  H   UNL     1     -14.335  11.737  71.264  1.00  0.00     0.000 HD 
BRANCH  22  24
HETATM   24  C   UNL     1     -12.991  13.088  71.857  1.00  0.00    -0.312 A  
HETATM   25 CL   UNL     1     -11.804  17.306  72.669  1.00  0.00     0.586 Cl 
HETATM   26  C   UNL     1     -12.031  15.116  71.021  1.00  0.00    -0.333 A  
HETATM   27  C   UNL     1     -12.792  14.880  73.268  1.00  0.00    -0.530 A  
HETATM   28  N   UNL     1     -13.186  13.600  73.078  1.00  0.00    -0.475 NA 
HETATM   29  C   UNL     1     -12.203  15.677  72.291  1.00  0.00    -0.439 A  
HETATM   30  N   UNL     1     -12.427  13.817  70.831  1.00  0.00    -0.362 NA 
BRANCH  26  31
HETATM   31  N   UNL     1     -11.345  15.915  69.939  1.00  0.00    -0.323 NA 
HETATM   32  H   UNL     1     -11.003  16.832  70.224  1.00  0.00     0.000 HD 
BRANCH  31  33
HETATM   33  C   UNL     1     -11.098  15.556  68.515  1.00  0.00    -0.307 A  
HETATM   34  C   UNL     1     -12.087  14.739  67.950  1.00  0.00    -0.161 A  
HETATM   35  C   UNL     1     -12.028  14.361  66.619  1.00  0.00    -0.414 A  
HETATM   36  C   UNL     1     -10.986  14.823  65.806  1.00  0.00    -0.334 A  
HETATM   37  C   UNL     1      -9.959  15.658  66.289  1.00  0.00    -0.315 A  
HETATM   38  C   UNL     1      -9.950  16.055  67.628  1.00  0.00    -0.239 A  
HETATM   39  P   UNL     1      -8.566  17.072  68.262  1.00  0.00    -0.247 P  
HETATM   40  C   UNL     1      -9.760  18.340  68.991  1.00  0.00    -0.206 C  
HETATM   41  O   UNL     1      -7.396  17.933  68.797  1.00  0.00    -0.265 OA 
HETATM   42  C   UNL     1      -8.169  15.720  69.530  1.00  0.00    -0.136 C  
ENDBRANCH  31  33
ENDBRANCH  26  31
ENDBRANCH  22  24
ENDBRANCH   7  22
ENDBRANCH   2   3
TORSDOF 7
ENDMDL
MODEL       42
REMARK 921   NORMALIZED FREE ENERGY PREDICTED BY IDOCK:   -5.75 KCAL/MOL
REMARK 922        TOTAL FREE ENERGY PREDICTED BY IDOCK:   -9.42 KCAL/MOL
REMARK 923 INTER-LIGAND FREE ENERGY PREDICTED BY IDOCK:   -8.11 KCAL/MOL
REMARK 924 INTRA-LIGAND FREE ENERGY PREDICTED BY IDOCK:   -1.31 KCAL/MOL
REMARK 927      BINDING AFFINITY PREDICTED BY RF-SCORE:    0.00 PKD
ROOT
HETATM    1  C   UNL     1     -12.131   9.887  71.376  1.00  0.00    -0.413 C  
HETATM    2  O   UNL     1     -11.566   9.066  70.361  1.00  0.00    -0.226 OA 
ENDROOT
BRANCH   2   3
HETATM    3  C   UNL     1     -10.906   9.664  69.303  1.00  0.00    -0.205 A  
HETATM    4  C   UNL     1     -10.508  11.027  69.265  1.00  0.00    -0.210 A  
HETATM    5  C   UNL     1      -9.854  11.603  68.157  1.00  0.00    -0.191 A  
HETATM    6  C   UNL     1      -9.611  10.708  67.089  1.00  0.00    -0.189 A  
HETATM    7  C   UNL     1     -10.636   8.776  68.224  1.00  0.00    -0.142 A  
HETATM    8  C   UNL     1      -9.990   9.330  67.125  1.00  0.00    -0.276 A  
BRANCH   5   9
HETATM    9  N   UNL     1      -9.432  12.941  68.166  1.00  0.00    -0.216 NA 
HETATM   10  C   UNL     1     -10.471  13.987  68.240  1.00  0.00    -0.244 C  
HETATM   11  C   UNL     1      -9.900  15.210  68.962  1.00  0.00    -0.238 C  
HETATM   12  C   UNL     1      -8.653  15.818  68.276  1.00  0.00    -0.170 C  
HETATM   13  C   UNL     1      -7.649  14.657  68.048  1.00  0.00    -0.132 C  
HETATM   14  C   UNL     1      -8.268  13.409  67.381  1.00  0.00    -0.183 C  
BRANCH  12  15
HETATM   15  N   UNL     1      -8.847  16.599  67.020  1.00  0.00    -0.191 NA 
HETATM   16  C   UNL     1     -10.196  17.166  66.808  1.00  0.00    -0.311 C  
HETATM   17  C   UNL     1      -9.773  20.299  66.488  1.00  0.00    -0.386 C  
HETATM   18  C   UNL     1      -7.888  17.743  66.934  1.00  0.00    -0.224 C  
HETATM   19  C   UNL     1     -10.565  18.361  67.722  1.00  0.00    -0.391 C  
HETATM   20  C   UNL     1      -8.236  18.974  67.824  1.00  0.00    -0.276 C  
HETATM   21  N   UNL     1      -9.612  19.486  67.691  1.00  0.00    -0.322 NA 
ENDBRANCH  12  15
ENDBRANCH   5   9
BRANCH   7  22
HETATM   22  N   UNL     1     -11.015   7.411  68.380  1.00  0.00    -0.438 NA 
HETATM   23  H   UNL     1     -12.004   7.352  68.622  1.00  0.00     0.000 HD 
BRANCH  22  24
HETATM   24  C   UNL     1     -10.463   6.122  68.307  1.00  0.00    -0.232 A  
HETATM   25 CL   UNL     1      -8.682   2.038  68.321  1.00  0.00    -0.106 Cl 
HETATM   26  C   UNL     1      -9.332   4.414  69.544  1.00  0.00    -0.156 A  
HETATM   27  C   UNL     1      -9.913   4.170  67.245  1.00  0.00    -0.038 A  
HETATM   28  N   UNL     1     -10.482   5.396  67.183  1.00  0.00    -0.242 NA 
HETATM   29  C   UNL     1      -9.317   3.634  68.382  1.00  0.00    -0.165 A  
HETATM   30  N   UNL     1      -9.906   5.657  69.479  1.00  0.00    -0.166 NA 
BRANCH  26  31
HETATM   31  N   UNL     1      -8.650   3.906  70.792  1.00  0.00    -0.070 NA 
HETATM   32  H   UNL     1      -7.631   3.945  70.780  1.00  0.00     0.000 HD 
BRANCH  31  33
HETATM   33  C   UNL     1      -9.252   3.355  72.038  1.00  0.00    -0.114 A  
HETATM   34  C   UNL     1     -10.001   2.186  71.844  1.00  0.00    -0.219 A  
HETATM   35  C   UNL     1     -10.582   1.522  72.912  1.00  0.00    -0.224 A  
HETATM   36  C   UNL     1     -10.397   1.999  74.215  1.00  0.00    -0.177 A  
HETATM   37  C   UNL     1      -9.649   3.158  74.500  1.00  0.00    -0.130 A  
HETATM   38  C   UNL     1      -9.057   3.884  73.464  1.00  0.00    -0.098 A  
HETATM   39  P   UNL     1      -8.156   5.432  73.842  1.00  0.00    -0.107 P  
HETATM   40  C   UNL     1      -6.640   4.849  72.880  1.00  0.00    -0.060 C  
HETATM   41  O   UNL     1      -7.394   6.741  74.161  1.00  0.00    -0.093 OA 
HETATM   42  C   UNL     1      -9.342   6.384  72.708  1.00  0.00    -0.140 C  
ENDBRANCH  31  33
ENDBRANCH  26  31
ENDBRANCH  22  24
ENDBRANCH   7  22
ENDBRANCH   2   3
TORSDOF 7
ENDMDL
MODEL       43
REMARK 921   NORMALIZED FREE ENERGY PREDICTED BY IDOCK:   -5.72 KCAL/MOL
REMARK 922        TOTAL FREE ENERGY PREDICTED BY IDOCK:   -9.38 KCAL/MOL
REMARK 923 INTER-LIGAND FREE ENERGY PREDICTED BY IDOCK:   -7.98 KCAL/MOL
REMARK 924 INTRA-LIGAND FREE ENERGY PREDICTED BY IDOCK:   -1.40 KCAL/MOL
REMARK 927      BINDING AFFINITY PREDICTED BY RF-SCORE:    0.00 PKD
ROOT
HETATM    1  C   UNL     1      -5.418  13.795  71.483  1.00  0.00    -0.222 C  
HETATM    2  O   UNL     1      -6.119  13.785  70.245  1.00  0.00    -0.148 OA 
ENDROOT
BRANCH   2   3
HETATM    3  C   UNL     1      -6.073  12.650  69.457  1.00  0.00    -0.119 A  
HETATM    4  C   UNL     1      -6.254  11.325  69.936  1.00  0.00    -0.137 A  
HETATM    5  C   UNL     1      -6.179  10.192  69.100  1.00  0.00    -0.040 A  
HETATM    6  C   UNL     1      -5.924  10.482  67.739  1.00  0.00    -0.044 A  
HETATM    7  C   UNL     1      -5.833  12.921  68.080  1.00  0.00    -0.107 A  
HETATM    8  C   UNL     1      -5.758  11.813  67.244  1.00  0.00    -0.118 A  
BRANCH   5   9
HETATM    9  N   UNL     1      -6.408   8.899  69.593  1.00  0.00    -0.042 NA 
HETATM   10  C   UNL     1      -7.606   8.183  69.110  1.00  0.00    -0.096 C  
HETATM   11  C   UNL     1      -7.325   6.678  69.114  1.00  0.00    -0.093 C  
HETATM   12  C   UNL     1      -6.955   6.112  70.505  1.00  0.00    -0.063 C  
HETATM   13  C   UNL     1      -5.811   6.998  71.066  1.00  0.00    -0.032 C  
HETATM   14  C   UNL     1      -6.090   8.515  70.987  1.00  0.00    -0.037 C  
BRANCH  12  15
HETATM   15  N   UNL     1      -8.040   5.954  71.517  1.00  0.00    -0.113 NA 
HETATM   16  C   UNL     1      -9.365   5.560  70.993  1.00  0.00    -0.153 C  
HETATM   17  C   UNL     1     -10.121   2.864  72.496  1.00  0.00    -0.164 C  
HETATM   18  C   UNL     1      -7.677   4.940  72.554  1.00  0.00    -0.093 C  
HETATM   19  C   UNL     1      -9.478   4.095  70.502  1.00  0.00    -0.173 C  
HETATM   20  C   UNL     1      -7.795   3.453  72.106  1.00  0.00    -0.059 C  
HETATM   21  N   UNL     1      -9.082   3.076  71.491  1.00  0.00    -0.094 NA 
ENDBRANCH  12  15
ENDBRANCH   5   9
BRANCH   7  22
HETATM   22  N   UNL     1      -5.729  14.285  67.683  1.00  0.00    -0.341 NA 
HETATM   23  H   UNL     1      -4.747  14.557  67.632  1.00  0.00     0.000 HD 
BRANCH  22  24
HETATM   24  C   UNL     1      -6.544  15.375  67.339  1.00  0.00    -0.116 A  
HETATM   25 CL   UNL     1      -9.320  18.721  66.363  1.00  0.00    -0.328 Cl 
HETATM   26  C   UNL     1      -8.792  16.199  67.324  1.00  0.00    -0.186 A  
HETATM   27  C   UNL     1      -6.947  17.468  66.504  1.00  0.00    -0.252 A  
HETATM   28  N   UNL     1      -6.054  16.494  66.792  1.00  0.00    -0.316 NA 
HETATM   29  C   UNL     1      -8.317  17.376  66.733  1.00  0.00    -0.248 A  
HETATM   30  N   UNL     1      -7.886  15.211  67.611  1.00  0.00    -0.145 NA 
BRANCH  26  31
HETATM   31  N   UNL     1     -10.275  16.021  67.543  1.00  0.00    -0.268 NA 
HETATM   32  H   UNL     1     -10.868  16.297  66.761  1.00  0.00     0.000 HD 
BRANCH  31  33
HETATM   33  C   UNL     1     -10.995  15.500  68.737  1.00  0.00    -0.270 A  
HETATM   34  C   UNL     1     -11.006  16.380  69.829  1.00  0.00    -0.341 A  
HETATM   35  C   UNL     1     -11.680  16.063  70.997  1.00  0.00    -0.458 A  
HETATM   36  C   UNL     1     -12.393  14.862  71.088  1.00  0.00    -0.387 A  
HETATM   37  C   UNL     1     -12.446  13.928  70.035  1.00  0.00    -0.325 A  
HETATM   38  C   UNL     1     -11.768  14.179  68.841  1.00  0.00    -0.334 A  
HETATM   39  P   UNL     1     -11.778  12.921  67.512  1.00  0.00    -0.319 P  
HETATM   40  C   UNL     1     -12.334  14.194  66.234  1.00  0.00    -0.422 C  
HETATM   41  O   UNL     1     -11.787  11.856  66.387  1.00  0.00    -0.561 OA 
HETATM   42  C   UNL     1      -9.886  12.837  67.593  1.00  0.00    -0.214 C  
ENDBRANCH  31  33
ENDBRANCH  26  31
ENDBRANCH  22  24
ENDBRANCH   7  22
ENDBRANCH   2   3
TORSDOF 7
ENDMDL
MODEL       44
REMARK 921   NORMALIZED FREE ENERGY PREDICTED BY IDOCK:   -5.63 KCAL/MOL
REMARK 922        TOTAL FREE ENERGY PREDICTED BY IDOCK:   -9.25 KCAL/MOL
REMARK 923 INTER-LIGAND FREE ENERGY PREDICTED BY IDOCK:   -8.16 KCAL/MOL
REMARK 924 INTRA-LIGAND FREE ENERGY PREDICTED BY IDOCK:   -1.09 KCAL/MOL
REMARK 927      BINDING AFFINITY PREDICTED BY RF-SCORE:    0.00 PKD
ROOT
HETATM    1  C   UNL     1     -13.615   8.997  72.309  1.00  0.00    -0.484 C  
HETATM    2  O   UNL     1     -12.368   9.619  72.025  1.00  0.00    -0.361 OA 
ENDROOT
BRANCH   2   3
HETATM    3  C   UNL     1     -11.691   9.272  70.871  1.00  0.00    -0.296 A  
HETATM    4  C   UNL     1     -11.007   8.043  70.674  1.00  0.00    -0.250 A  
HETATM    5  C   UNL     1     -10.310   7.736  69.487  1.00  0.00    -0.219 A  
HETATM    6  C   UNL     1     -10.361   8.747  68.499  1.00  0.00    -0.231 A  
HETATM    7  C   UNL     1     -11.744  10.270  69.856  1.00  0.00    -0.225 A  
HETATM    8  C   UNL     1     -11.063   9.980  68.680  1.00  0.00    -0.223 A  
BRANCH   5   9
HETATM    9  N   UNL     1      -9.682   6.496  69.303  1.00  0.00    -0.144 NA 
HETATM   10  C   UNL     1      -8.515   6.446  68.400  1.00  0.00    -0.116 C  
HETATM   11  C   UNL     1      -7.567   5.337  68.868  1.00  0.00    -0.081 C  
HETATM   12  C   UNL     1      -8.212   3.931  68.898  1.00  0.00    -0.073 C  
HETATM   13  C   UNL     1      -9.533   4.055  69.704  1.00  0.00    -0.262 C  
HETATM   14  C   UNL     1     -10.438   5.224  69.258  1.00  0.00    -0.185 C  
BRANCH  12  15
HETATM   15  N   UNL     1      -8.454   3.235  67.601  1.00  0.00    -0.086 NA 
HETATM   16  C   UNL     1      -7.798   3.825  66.415  1.00  0.00    -0.089 C  
HETATM   17  C   UNL     1      -5.995   1.513  65.188  1.00  0.00    -0.017 C  
HETATM   18  C   UNL     1      -8.018   1.806  67.659  1.00  0.00    -0.060 C  
HETATM   19  C   UNL     1      -6.262   3.635  66.341  1.00  0.00    -0.032 C  
HETATM   20  C   UNL     1      -6.481   1.572  67.568  1.00  0.00    -0.024 C  
HETATM   21  N   UNL     1      -5.802   2.239  66.442  1.00  0.00    -0.021 NA 
ENDBRANCH  12  15
ENDBRANCH   5   9
BRANCH   7  22
HETATM   22  N   UNL     1     -12.509  11.442  70.121  1.00  0.00    -0.232 NA 
HETATM   23  H   UNL     1     -13.483  11.286  69.860  1.00  0.00     0.000 HD 
BRANCH  22  24
HETATM   24  C   UNL     1     -12.352  12.742  70.626  1.00  0.00    -0.297 A  
HETATM   25 CL   UNL     1     -11.785  16.942  72.003  1.00  0.00     0.034 Cl 
HETATM   26  C   UNL     1     -11.546  14.941  70.131  1.00  0.00    -0.289 A  
HETATM   27  C   UNL     1     -12.542  14.374  72.221  1.00  0.00    -0.280 A  
HETATM   28  N   UNL     1     -12.754  13.089  71.854  1.00  0.00    -0.168 NA 
HETATM   29  C   UNL     1     -11.938  15.334  71.416  1.00  0.00    -0.368 A  
HETATM   30  N   UNL     1     -11.759  13.639  69.762  1.00  0.00    -0.299 NA 
BRANCH  26  31
HETATM   31  N   UNL     1     -10.834  15.927  69.235  1.00  0.00    -0.254 NA 
HETATM   32  H   UNL     1     -11.404  16.703  68.900  1.00  0.00     0.000 HD 
BRANCH  31  33
HETATM   33  C   UNL     1      -9.420  15.926  68.770  1.00  0.00    -0.221 A  
HETATM   34  C   UNL     1      -8.511  15.402  69.700  1.00  0.00    -0.124 A  
HETATM   35  C   UNL     1      -7.165  15.285  69.397  1.00  0.00    -0.201 A  
HETATM   36  C   UNL     1      -6.697  15.662  68.133  1.00  0.00    -0.133 A  
HETATM   37  C   UNL     1      -7.543  16.185  67.135  1.00  0.00    -0.237 A  
HETATM   38  C   UNL     1      -8.907  16.349  67.387  1.00  0.00    -0.183 A  
HETATM   39  P   UNL     1      -9.979  17.105  66.112  1.00  0.00    -0.205 P  
HETATM   40  C   UNL     1     -11.209  15.677  66.220  1.00  0.00    -0.033 C  
HETATM   41  O   UNL     1     -10.887  17.744  65.032  1.00  0.00    -0.774 OA 
HETATM   42  C   UNL     1     -10.442  18.480  67.332  1.00  0.00    -0.419 C  
ENDBRANCH  31  33
ENDBRANCH  26  31
ENDBRANCH  22  24
ENDBRANCH   7  22
ENDBRANCH   2   3
TORSDOF 7
ENDMDL
MODEL       45
REMARK 921   NORMALIZED FREE ENERGY PREDICTED BY IDOCK:   -5.62 KCAL/MOL
REMARK 922        TOTAL FREE ENERGY PREDICTED BY IDOCK:   -9.23 KCAL/MOL
REMARK 923 INTER-LIGAND FREE ENERGY PREDICTED BY IDOCK:   -7.48 KCAL/MOL
REMARK 924 INTRA-LIGAND FREE ENERGY PREDICTED BY IDOCK:   -1.74 KCAL/MOL
REMARK 927      BINDING AFFINITY PREDICTED BY RF-SCORE:    0.00 PKD
ROOT
HETATM    1  C   UNL     1     -10.455   8.439  66.510  1.00  0.00    -0.001 C  
HETATM    2  O   UNL     1      -9.195   8.840  65.987  1.00  0.00    -0.193 OA 
ENDROOT
BRANCH   2   3
HETATM    3  C   UNL     1      -8.435   9.755  66.692  1.00  0.00    -0.124 A  
HETATM    4  C   UNL     1      -8.805  11.107  66.920  1.00  0.00    -0.157 A  
HETATM    5  C   UNL     1      -7.990  12.015  67.627  1.00  0.00    -0.150 A  
HETATM    6  C   UNL     1      -6.778  11.465  68.107  1.00  0.00    -0.059 A  
HETATM    7  C   UNL     1      -7.217   9.217  67.197  1.00  0.00    -0.087 A  
HETATM    8  C   UNL     1      -6.405  10.101  67.898  1.00  0.00    -0.061 A  
BRANCH   5   9
HETATM    9  N   UNL     1      -8.403  13.332  67.877  1.00  0.00    -0.150 NA 
HETATM   10  C   UNL     1      -9.278  13.977  66.879  1.00  0.00    -0.260 C  
HETATM   11  C   UNL     1     -10.182  14.990  67.586  1.00  0.00    -0.236 C  
HETATM   12  C   UNL     1      -9.412  16.101  68.339  1.00  0.00    -0.210 C  
HETATM   13  C   UNL     1      -8.373  15.395  69.250  1.00  0.00    -0.254 C  
HETATM   14  C   UNL     1      -7.521  14.328  68.527  1.00  0.00    -0.121 C  
BRANCH  12  15
HETATM   15  N   UNL     1      -8.761  17.179  67.539  1.00  0.00    -0.206 NA 
HETATM   16  C   UNL     1      -9.586  17.783  66.470  1.00  0.00    -0.308 C  
HETATM   17  C   UNL     1      -9.689  20.893  67.117  1.00  0.00    -0.190 C  
HETATM   18  C   UNL     1      -8.304  18.305  68.409  1.00  0.00    -0.307 C  
HETATM   19  C   UNL     1     -10.733  18.704  66.957  1.00  0.00    -0.344 C  
HETATM   20  C   UNL     1      -9.426  19.266  68.903  1.00  0.00    -0.380 C  
HETATM   21  N   UNL     1     -10.315  19.797  67.854  1.00  0.00    -0.433 NA 
ENDBRANCH  12  15
ENDBRANCH   5   9
BRANCH   7  22
HETATM   22  N   UNL     1      -6.962   7.833  66.973  1.00  0.00    -0.075 NA 
HETATM   23  H   UNL     1      -6.386   7.718  66.140  1.00  0.00     0.000 HD 
BRANCH  22  24
HETATM   24  C   UNL     1      -7.250   6.578  67.532  1.00  0.00    -0.086 A  
HETATM   25 CL   UNL     1      -8.301   2.709  69.476  1.00  0.00    -0.074 Cl 
HETATM   26  C   UNL     1      -8.265   5.458  69.388  1.00  0.00    -0.096 A  
HETATM   27  C   UNL     1      -7.234   4.289  67.584  1.00  0.00    -0.068 A  
HETATM   28  N   UNL     1      -6.901   5.431  66.939  1.00  0.00    -0.062 NA 
HETATM   29  C   UNL     1      -7.899   4.239  68.805  1.00  0.00    -0.073 A  
HETATM   30  N   UNL     1      -7.923   6.613  68.735  1.00  0.00    -0.117 NA 
BRANCH  26  31
HETATM   31  N   UNL     1      -8.937   5.465  70.741  1.00  0.00    -0.135 NA 
HETATM   32  H   UNL     1      -8.548   4.817  71.425  1.00  0.00     0.000 HD 
BRANCH  31  33
HETATM   33  C   UNL     1     -10.086   6.283  71.217  1.00  0.00    -0.189 A  
HETATM   34  C   UNL     1     -11.227   6.196  70.406  1.00  0.00    -0.423 A  
HETATM   35  C   UNL     1     -12.396   6.857  70.743  1.00  0.00    -0.314 A  
HETATM   36  C   UNL     1     -12.463   7.600  71.928  1.00  0.00    -0.338 A  
HETATM   37  C   UNL     1     -11.369   7.729  72.806  1.00  0.00    -0.446 A  
HETATM   38  C   UNL     1     -10.155   7.105  72.510  1.00  0.00    -0.182 A  
HETATM   39  P   UNL     1      -8.719   7.347  73.618  1.00  0.00    -0.232 P  
HETATM   40  C   UNL     1      -8.433   5.486  73.747  1.00  0.00    -0.114 C  
HETATM   41  O   UNL     1      -7.504   7.552  74.556  1.00  0.00    -0.122 OA 
HETATM   42  C   UNL     1      -7.738   8.076  72.168  1.00  0.00    -0.106 C  
ENDBRANCH  31  33
ENDBRANCH  26  31
ENDBRANCH  22  24
ENDBRANCH   7  22
ENDBRANCH   2   3
TORSDOF 7
ENDMDL
MODEL       46
REMARK 921   NORMALIZED FREE ENERGY PREDICTED BY IDOCK:   -5.61 KCAL/MOL
REMARK 922        TOTAL FREE ENERGY PREDICTED BY IDOCK:   -9.21 KCAL/MOL
REMARK 923 INTER-LIGAND FREE ENERGY PREDICTED BY IDOCK:   -7.84 KCAL/MOL
REMARK 924 INTRA-LIGAND FREE ENERGY PREDICTED BY IDOCK:   -1.37 KCAL/MOL
REMARK 927      BINDING AFFINITY PREDICTED BY RF-SCORE:    0.00 PKD
ROOT
HETATM    1  C   UNL     1     -12.273   8.658  71.322  1.00  0.00    -0.281 C  
HETATM    2  O   UNL     1     -11.478   9.674  70.723  1.00  0.00    -0.279 OA 
ENDROOT
BRANCH   2   3
HETATM    3  C   UNL     1     -11.014   9.491  69.433  1.00  0.00    -0.170 A  
HETATM    4  C   UNL     1     -10.264   8.367  68.996  1.00  0.00    -0.217 A  
HETATM    5  C   UNL     1      -9.791   8.229  67.674  1.00  0.00    -0.169 A  
HETATM    6  C   UNL     1     -10.140   9.296  66.813  1.00  0.00    -0.331 A  
HETATM    7  C   UNL     1     -11.367  10.546  68.545  1.00  0.00    -0.257 A  
HETATM    8  C   UNL     1     -10.910  10.423  67.239  1.00  0.00    -0.324 A  
BRANCH   5   9
HETATM    9  N   UNL     1      -9.092   7.086  67.259  1.00  0.00    -0.124 NA 
HETATM   10  C   UNL     1      -8.324   7.172  66.002  1.00  0.00    -0.134 C  
HETATM   11  C   UNL     1      -7.120   6.230  66.085  1.00  0.00    -0.067 C  
HETATM   12  C   UNL     1      -7.498   4.747  66.318  1.00  0.00    -0.086 C  
HETATM   13  C   UNL     1      -8.453   4.709  67.541  1.00  0.00    -0.104 C  
HETATM   14  C   UNL     1      -9.619   5.718  67.463  1.00  0.00    -0.114 C  
BRANCH  12  15
HETATM   15  N   UNL     1      -8.075   3.976  65.179  1.00  0.00    -0.096 NA 
HETATM   16  C   UNL     1      -7.509   4.269  63.844  1.00  0.00    -0.062 C  
HETATM   17  C   UNL     1      -6.420   1.494  62.742  1.00  0.00    -0.009 C  
HETATM   18  C   UNL     1      -7.929   2.503  65.386  1.00  0.00    -0.079 C  
HETATM   19  C   UNL     1      -6.073   3.741  63.600  1.00  0.00    -0.014 C  
HETATM   20  C   UNL     1      -6.503   1.930  65.132  1.00  0.00    -0.023 C  
HETATM   21  N   UNL     1      -5.891   2.299  63.842  1.00  0.00    -0.009 NA 
ENDBRANCH  12  15
ENDBRANCH   5   9
BRANCH   7  22
HETATM   22  N   UNL     1     -12.177  11.600  69.059  1.00  0.00    -0.339 NA 
HETATM   23  H   UNL     1     -13.135  11.495  68.725  1.00  0.00     0.000 HD 
BRANCH  22  24
HETATM   24  C   UNL     1     -12.079  12.736  69.877  1.00  0.00    -0.259 A  
HETATM   25 CL   UNL     1     -11.662  16.462  72.285  1.00  0.00    -0.561 Cl 
HETATM   26  C   UNL     1     -11.172  14.945  70.044  1.00  0.00    -0.259 A  
HETATM   27  C   UNL     1     -12.484  13.956  71.772  1.00  0.00    -0.198 A  
HETATM   28  N   UNL     1     -12.658  12.806  71.081  1.00  0.00    -0.340 NA 
HETATM   29  C   UNL     1     -11.749  15.046  71.315  1.00  0.00    -0.347 A  
HETATM   30  N   UNL     1     -11.347  13.778  69.347  1.00  0.00    -0.261 NA 
BRANCH  26  31
HETATM   31  N   UNL     1     -10.316  16.075  69.522  1.00  0.00    -0.260 NA 
HETATM   32  H   UNL     1     -10.720  17.006  69.612  1.00  0.00     0.000 HD 
BRANCH  31  33
HETATM   33  C   UNL     1      -8.967  16.022  68.895  1.00  0.00    -0.239 A  
HETATM   34  C   UNL     1      -8.090  15.109  69.497  1.00  0.00    -0.167 A  
HETATM   35  C   UNL     1      -6.815  14.905  68.997  1.00  0.00    -0.115 A  
HETATM   36  C   UNL     1      -6.394  15.593  67.853  1.00  0.00    -0.165 A  
HETATM   37  C   UNL     1      -7.215  16.518  67.178  1.00  0.00    -0.223 A  
HETATM   38  C   UNL     1      -8.504  16.784  67.646  1.00  0.00    -0.190 A  
HETATM   39  P   UNL     1      -9.529  18.047  66.808  1.00  0.00    -0.312 P  
HETATM   40  C   UNL     1     -10.976  16.846  66.648  1.00  0.00     0.151 C  
HETATM   41  O   UNL     1     -10.397  19.115  66.099  1.00  0.00    -0.429 OA 
HETATM   42  C   UNL     1      -9.642  19.017  68.434  1.00  0.00    -0.373 C  
ENDBRANCH  31  33
ENDBRANCH  26  31
ENDBRANCH  22  24
ENDBRANCH   7  22
ENDBRANCH   2   3
TORSDOF 7
ENDMDL
MODEL       47
REMARK 921   NORMALIZED FREE ENERGY PREDICTED BY IDOCK:   -5.56 KCAL/MOL
REMARK 922        TOTAL FREE ENERGY PREDICTED BY IDOCK:   -9.15 KCAL/MOL
REMARK 923 INTER-LIGAND FREE ENERGY PREDICTED BY IDOCK:   -8.42 KCAL/MOL
REMARK 924 INTRA-LIGAND FREE ENERGY PREDICTED BY IDOCK:   -0.73 KCAL/MOL
REMARK 927      BINDING AFFINITY PREDICTED BY RF-SCORE:    0.00 PKD
ROOT
HETATM    1  C   UNL     1     -13.893   9.680  71.715  1.00  0.00    -0.186 C  
HETATM    2  O   UNL     1     -12.568  10.175  71.857  1.00  0.00    -0.396 OA 
ENDROOT
BRANCH   2   3
HETATM    3  C   UNL     1     -11.845  10.496  70.723  1.00  0.00    -0.365 A  
HETATM    4  C   UNL     1     -11.732  11.803  70.179  1.00  0.00    -0.354 A  
HETATM    5  C   UNL     1     -11.000  12.084  69.006  1.00  0.00    -0.210 A  
HETATM    6  C   UNL     1     -10.373  10.958  68.423  1.00  0.00    -0.196 A  
HETATM    7  C   UNL     1     -11.191   9.379  70.128  1.00  0.00    -0.219 A  
HETATM    8  C   UNL     1     -10.465   9.641  68.973  1.00  0.00    -0.229 A  
BRANCH   5   9
HETATM    9  N   UNL     1     -10.868  13.392  68.518  1.00  0.00    -0.257 NA 
HETATM   10  C   UNL     1      -9.609  13.744  67.833  1.00  0.00    -0.222 C  
HETATM   11  C   UNL     1      -9.895  14.821  66.783  1.00  0.00    -0.263 C  
HETATM   12  C   UNL     1     -10.505  16.118  67.364  1.00  0.00    -0.310 C  
HETATM   13  C   UNL     1     -11.723  15.699  68.229  1.00  0.00    -0.253 C  
HETATM   14  C   UNL     1     -11.426  14.563  69.231  1.00  0.00    -0.288 C  
BRANCH  12  15
HETATM   15  N   UNL     1      -9.613  17.040  68.127  1.00  0.00    -0.258 NA 
HETATM   16  C   UNL     1      -8.272  17.273  67.548  1.00  0.00    -0.195 C  
HETATM   17  C   UNL     1      -8.052  20.415  67.122  1.00  0.00    -0.329 C  
HETATM   18  C   UNL     1     -10.240  18.387  68.300  1.00  0.00    -0.384 C  
HETATM   19  C   UNL     1      -8.243  18.147  66.269  1.00  0.00    -0.212 C  
HETATM   20  C   UNL     1     -10.212  19.304  67.041  1.00  0.00    -0.398 C  
HETATM   21  N   UNL     1      -8.894  19.463  66.400  1.00  0.00    -0.349 NA 
ENDBRANCH  12  15
ENDBRANCH   5   9
BRANCH   7  22
HETATM   22  N   UNL     1     -11.310   8.119  70.782  1.00  0.00    -0.273 NA 
HETATM   23  H   UNL     1     -12.217   8.052  71.245  1.00  0.00     0.000 HD 
BRANCH  22  24
HETATM   24  C   UNL     1     -10.578   6.939  70.994  1.00  0.00    -0.220 A  
HETATM   25 CL   UNL     1      -8.153   3.228  71.445  1.00  0.00    -0.059 Cl 
HETATM   26  C   UNL     1      -9.117   5.342  69.972  1.00  0.00    -0.130 A  
HETATM   27  C   UNL     1      -9.821   5.177  72.244  1.00  0.00    -0.171 A  
HETATM   28  N   UNL     1     -10.563   6.306  72.173  1.00  0.00    -0.217 NA 
HETATM   29  C   UNL     1      -9.093   4.644  71.185  1.00  0.00    -0.133 A  
HETATM   30  N   UNL     1      -9.872   6.484  69.901  1.00  0.00    -0.166 NA 
BRANCH  26  31
HETATM   31  N   UNL     1      -8.391   4.779  68.774  1.00  0.00    -0.082 NA 
HETATM   32  H   UNL     1      -7.406   4.563  68.921  1.00  0.00     0.000 HD 
BRANCH  31  33
HETATM   33  C   UNL     1      -8.909   4.495  67.407  1.00  0.00    -0.106 A  
HETATM   34  C   UNL     1     -10.172   5.045  67.146  1.00  0.00    -0.234 A  
HETATM   35  C   UNL     1     -10.768   4.914  65.903  1.00  0.00    -0.233 A  
HETATM   36  C   UNL     1     -10.092   4.251  64.871  1.00  0.00    -0.184 A  
HETATM   37  C   UNL     1      -8.816   3.680  65.043  1.00  0.00    -0.123 A  
HETATM   38  C   UNL     1      -8.173   3.759  66.280  1.00  0.00    -0.101 A  
HETATM   39  P   UNL     1      -6.551   2.944  66.512  1.00  0.00    -0.037 P  
HETATM   40  C   UNL     1      -5.791   4.527  67.203  1.00  0.00    -0.023 C  
HETATM   41  O   UNL     1      -5.179   2.254  66.708  1.00  0.00    -0.008 OA 
HETATM   42  C   UNL     1      -7.292   1.893  67.906  1.00  0.00    -0.050 C  
ENDBRANCH  31  33
ENDBRANCH  26  31
ENDBRANCH  22  24
ENDBRANCH   7  22
ENDBRANCH   2   3
TORSDOF 7
ENDMDL
MODEL       48
REMARK 921   NORMALIZED FREE ENERGY PREDICTED BY IDOCK:   -5.55 KCAL/MOL
REMARK 922        TOTAL FREE ENERGY PREDICTED BY IDOCK:   -9.14 KCAL/MOL
REMARK 923 INTER-LIGAND FREE ENERGY PREDICTED BY IDOCK:   -8.32 KCAL/MOL
REMARK 924 INTRA-LIGAND FREE ENERGY PREDICTED BY IDOCK:   -0.82 KCAL/MOL
REMARK 927      BINDING AFFINITY PREDICTED BY RF-SCORE:    0.00 PKD
ROOT
HETATM    1  C   UNL     1      -9.813  10.095  64.789  1.00  0.00    -0.312 C  
HETATM    2  O   UNL     1      -8.942   9.372  65.649  1.00  0.00    -0.166 OA 
ENDROOT
BRANCH   2   3
HETATM    3  C   UNL     1      -8.322  10.037  66.691  1.00  0.00    -0.125 A  
HETATM    4  C   UNL     1      -8.455  11.425  66.957  1.00  0.00    -0.159 A  
HETATM    5  C   UNL     1      -7.788  12.069  68.020  1.00  0.00    -0.145 A  
HETATM    6  C   UNL     1      -6.985  11.215  68.811  1.00  0.00    -0.088 A  
HETATM    7  C   UNL     1      -7.520   9.192  67.511  1.00  0.00    -0.088 A  
HETATM    8  C   UNL     1      -6.858   9.813  68.563  1.00  0.00    -0.056 A  
BRANCH   5   9
HETATM    9  N   UNL     1      -7.976  13.433  68.286  1.00  0.00    -0.141 NA 
HETATM   10  C   UNL     1      -9.091  14.118  67.604  1.00  0.00    -0.194 C  
HETATM   11  C   UNL     1      -9.601  15.255  68.494  1.00  0.00    -0.211 C  
HETATM   12  C   UNL     1      -8.525  16.313  68.838  1.00  0.00    -0.253 C  
HETATM   13  C   UNL     1      -7.293  15.546  69.386  1.00  0.00    -0.215 C  
HETATM   14  C   UNL     1      -6.843  14.361  68.505  1.00  0.00    -0.098 C  
BRANCH  12  15
HETATM   15  N   UNL     1      -8.113  17.275  67.774  1.00  0.00    -0.195 NA 
HETATM   16  C   UNL     1      -8.860  17.194  66.501  1.00  0.00    -0.262 C  
HETATM   17  C   UNL     1     -10.090  20.088  66.039  1.00  0.00    -0.450 C  
HETATM   18  C   UNL     1      -8.227  18.690  68.243  1.00  0.00    -0.323 C  
HETATM   19  C   UNL     1     -10.315  17.723  66.549  1.00  0.00    -0.345 C  
HETATM   20  C   UNL     1      -9.674  19.265  68.288  1.00  0.00    -0.385 C  
HETATM   21  N   UNL     1     -10.461  19.101  67.051  1.00  0.00    -0.412 NA 
ENDBRANCH  12  15
ENDBRANCH   5   9
BRANCH   7  22
HETATM   22  N   UNL     1      -7.499   7.800  67.204  1.00  0.00    -0.094 NA 
HETATM   23  H   UNL     1      -7.001   7.647  66.327  1.00  0.00     0.000 HD 
BRANCH  22  24
HETATM   24  C   UNL     1      -7.942   6.574  67.722  1.00  0.00    -0.115 A  
HETATM   25 CL   UNL     1      -9.542   2.800  69.469  1.00  0.00    -0.137 Cl 
HETATM   26  C   UNL     1      -9.525   5.535  69.187  1.00  0.00    -0.129 A  
HETATM   27  C   UNL     1      -7.906   4.296  67.952  1.00  0.00    -0.079 A  
HETATM   28  N   UNL     1      -7.387   5.406  67.378  1.00  0.00    -0.081 NA 
HETATM   29  C   UNL     1      -8.957   4.298  68.865  1.00  0.00    -0.109 A  
HETATM   30  N   UNL     1      -8.996   6.659  68.607  1.00  0.00    -0.125 NA 
BRANCH  26  31
HETATM   31  N   UNL     1     -10.630   5.603  70.214  1.00  0.00    -0.290 NA 
HETATM   32  H   UNL     1     -11.578   5.583  69.839  1.00  0.00     0.000 HD 
BRANCH  31  33
HETATM   33  C   UNL     1     -10.534   5.693  71.698  1.00  0.00    -0.228 A  
HETATM   34  C   UNL     1      -9.933   4.580  72.302  1.00  0.00    -0.239 A  
HETATM   35  C   UNL     1      -9.723   4.534  73.670  1.00  0.00    -0.154 A  
HETATM   36  C   UNL     1     -10.083   5.626  74.469  1.00  0.00    -0.296 A  
HETATM   37  C   UNL     1     -10.680   6.788  73.942  1.00  0.00    -0.141 A  
HETATM   38  C   UNL     1     -10.938   6.886  72.573  1.00  0.00    -0.260 A  
HETATM   39  P   UNL     1     -11.787   8.367  71.915  1.00  0.00    -0.393 P  
HETATM   40  C   UNL     1     -10.450   8.620  70.607  1.00  0.00    -0.204 C  
HETATM   41  O   UNL     1     -12.505   9.621  71.358  1.00  0.00    -0.325 OA 
HETATM   42  C   UNL     1     -13.175   7.261  71.248  1.00  0.00    -0.289 C  
ENDBRANCH  31  33
ENDBRANCH  26  31
ENDBRANCH  22  24
ENDBRANCH   7  22
ENDBRANCH   2   3
TORSDOF 7
ENDMDL
MODEL       49
REMARK 921   NORMALIZED FREE ENERGY PREDICTED BY IDOCK:   -5.53 KCAL/MOL
REMARK 922        TOTAL FREE ENERGY PREDICTED BY IDOCK:   -9.10 KCAL/MOL
REMARK 923 INTER-LIGAND FREE ENERGY PREDICTED BY IDOCK:   -8.37 KCAL/MOL
REMARK 924 INTRA-LIGAND FREE ENERGY PREDICTED BY IDOCK:   -0.73 KCAL/MOL
REMARK 927      BINDING AFFINITY PREDICTED BY RF-SCORE:    0.00 PKD
ROOT
HETATM    1  C   UNL     1     -10.429   8.185  67.686  1.00  0.00    -0.231 C  
HETATM    2  O   UNL     1     -10.412   8.337  69.100  1.00  0.00    -0.220 OA 
ENDROOT
BRANCH   2   3
HETATM    3  C   UNL     1     -11.117   9.380  69.672  1.00  0.00    -0.142 A  
HETATM    4  C   UNL     1     -11.017  10.739  69.274  1.00  0.00    -0.292 A  
HETATM    5  C   UNL     1     -11.740  11.776  69.899  1.00  0.00    -0.323 A  
HETATM    6  C   UNL     1     -12.588  11.349  70.947  1.00  0.00    -0.453 A  
HETATM    7  C   UNL     1     -11.990   8.970  70.720  1.00  0.00    -0.170 A  
HETATM    8  C   UNL     1     -12.710   9.981  71.344  1.00  0.00    -0.518 A  
BRANCH   5   9
HETATM    9  N   UNL     1     -11.656  13.103  69.453  1.00  0.00    -0.295 NA 
HETATM   10  C   UNL     1     -11.008  13.348  68.150  1.00  0.00    -0.255 C  
HETATM   11  C   UNL     1     -11.630  14.592  67.508  1.00  0.00    -0.403 C  
HETATM   12  C   UNL     1     -11.492  15.874  68.362  1.00  0.00    -0.348 C  
HETATM   13  C   UNL     1     -12.015  15.532  69.783  1.00  0.00    -0.384 C  
HETATM   14  C   UNL     1     -11.425  14.236  70.378  1.00  0.00    -0.128 C  
BRANCH  12  15
HETATM   15  N   UNL     1     -10.155  16.533  68.441  1.00  0.00    -0.244 NA 
HETATM   16  C   UNL     1      -9.273  16.353  67.268  1.00  0.00    -0.215 C  
HETATM   17  C   UNL     1      -8.586  19.284  66.250  1.00  0.00    -0.325 C  
HETATM   18  C   UNL     1     -10.284  18.007  68.653  1.00  0.00    -0.377 C  
HETATM   19  C   UNL     1      -9.689  17.134  65.997  1.00  0.00    -0.189 C  
HETATM   20  C   UNL     1     -10.683  18.831  67.392  1.00  0.00    -0.424 C  
HETATM   21  N   UNL     1      -9.867  18.585  66.188  1.00  0.00    -0.502 NA 
ENDBRANCH  12  15
ENDBRANCH   5   9
BRANCH   7  22
HETATM   22  N   UNL     1     -12.071   7.576  71.006  1.00  0.00    -0.402 NA 
HETATM   23  H   UNL     1     -12.961   7.206  70.671  1.00  0.00     0.000 HD 
BRANCH  22  24
HETATM   24  C   UNL     1     -11.321   6.550  71.601  1.00  0.00    -0.285 A  
HETATM   25 CL   UNL     1      -8.733   3.426  73.445  1.00  0.00    -0.078 Cl 
HETATM   26  C   UNL     1      -9.104   5.750  72.021  1.00  0.00    -0.137 A  
HETATM   27  C   UNL     1     -11.054   4.596  72.764  1.00  0.00    -0.132 A  
HETATM   28  N   UNL     1     -11.890   5.520  72.238  1.00  0.00    -0.091 NA 
HETATM   29  C   UNL     1      -9.666   4.649  72.679  1.00  0.00    -0.143 A  
HETATM   30  N   UNL     1      -9.953   6.684  71.486  1.00  0.00    -0.176 NA 
BRANCH  26  31
HETATM   31  N   UNL     1      -7.606   5.830  71.849  1.00  0.00    -0.095 NA 
HETATM   32  H   UNL     1      -7.059   5.327  72.547  1.00  0.00     0.000 HD 
BRANCH  31  33
HETATM   33  C   UNL     1      -6.814   6.539  70.807  1.00  0.00    -0.063 A  
HETATM   34  C   UNL     1      -6.813   5.904  69.557  1.00  0.00    -0.062 A  
HETATM   35  C   UNL     1      -6.165   6.466  68.469  1.00  0.00    -0.032 A  
HETATM   36  C   UNL     1      -5.524   7.704  68.600  1.00  0.00    -0.026 A  
HETATM   37  C   UNL     1      -5.488   8.415  69.815  1.00  0.00    -0.029 A  
HETATM   38  C   UNL     1      -6.103   7.891  70.954  1.00  0.00    -0.034 A  
HETATM   39  P   UNL     1      -5.979   8.787  72.545  1.00  0.00    -0.012 P  
HETATM   40  C   UNL     1      -7.849   8.718  72.793  1.00  0.00     0.224 C  
HETATM   41  O   UNL     1      -5.874   9.545  73.890  1.00  0.00    -0.325 OA 
HETATM   42  C   UNL     1      -5.145   7.271  73.320  1.00  0.00    -0.037 C  
ENDBRANCH  31  33
ENDBRANCH  26  31
ENDBRANCH  22  24
ENDBRANCH   7  22
ENDBRANCH   2   3
TORSDOF 7
ENDMDL
MODEL       50
REMARK 921   NORMALIZED FREE ENERGY PREDICTED BY IDOCK:   -5.45 KCAL/MOL
REMARK 922        TOTAL FREE ENERGY PREDICTED BY IDOCK:   -8.99 KCAL/MOL
REMARK 923 INTER-LIGAND FREE ENERGY PREDICTED BY IDOCK:   -8.24 KCAL/MOL
REMARK 924 INTRA-LIGAND FREE ENERGY PREDICTED BY IDOCK:   -0.76 KCAL/MOL
REMARK 927      BINDING AFFINITY PREDICTED BY RF-SCORE:    0.00 PKD
ROOT
HETATM    1  C   UNL     1      -6.265   8.890  68.302  1.00  0.00    -0.054 C  
HETATM    2  O   UNL     1      -6.970   8.806  67.070  1.00  0.00    -0.073 OA 
ENDROOT
BRANCH   2   3
HETATM    3  C   UNL     1      -8.080   9.607  66.874  1.00  0.00    -0.113 A  
HETATM    4  C   UNL     1      -8.140  10.993  67.175  1.00  0.00    -0.134 A  
HETATM    5  C   UNL     1      -9.300  11.770  66.979  1.00  0.00    -0.184 A  
HETATM    6  C   UNL     1     -10.398  11.058  66.442  1.00  0.00    -0.302 A  
HETATM    7  C   UNL     1      -9.193   8.913  66.319  1.00  0.00    -0.207 A  
HETATM    8  C   UNL     1     -10.343   9.667  66.119  1.00  0.00    -0.202 A  
BRANCH   5   9
HETATM    9  N   UNL     1      -9.315  13.148  67.242  1.00  0.00    -0.216 NA 
HETATM   10  C   UNL     1      -9.596  14.058  66.114  1.00  0.00    -0.241 C  
HETATM   11  C   UNL     1     -10.288  15.316  66.646  1.00  0.00    -0.281 C  
HETATM   12  C   UNL     1      -9.457  16.093  67.695  1.00  0.00    -0.220 C  
HETATM   13  C   UNL     1      -9.023  15.070  68.778  1.00  0.00    -0.196 C  
HETATM   14  C   UNL     1      -8.392  13.779  68.211  1.00  0.00    -0.161 C  
BRANCH  12  15
HETATM   15  N   UNL     1      -8.285  16.886  67.224  1.00  0.00    -0.179 NA 
HETATM   16  C   UNL     1      -8.565  17.911  66.195  1.00  0.00    -0.096 C  
HETATM   17  C   UNL     1      -7.573  20.666  67.430  1.00  0.00    -0.330 C  
HETATM   18  C   UNL     1      -7.614  17.596  68.357  1.00  0.00    -0.260 C  
HETATM   19  C   UNL     1      -9.333  19.160  66.693  1.00  0.00    -0.337 C  
HETATM   20  C   UNL     1      -8.346  18.870  68.874  1.00  0.00    -0.238 C  
HETATM   21  N   UNL     1      -8.717  19.853  67.839  1.00  0.00    -0.308 NA 
ENDBRANCH  12  15
ENDBRANCH   5   9
BRANCH   7  22
HETATM   22  N   UNL     1      -9.018   7.538  65.990  1.00  0.00    -0.271 NA 
HETATM   23  H   UNL     1      -8.705   7.451  65.022  1.00  0.00     0.000 HD 
BRANCH  22  24
HETATM   24  C   UNL     1      -9.137   6.265  66.569  1.00  0.00    -0.153 A  
HETATM   25 CL   UNL     1      -9.503   2.333  68.632  1.00  0.00    -0.239 Cl 
HETATM   26  C   UNL     1      -9.041   5.044  68.626  1.00  0.00    -0.110 A  
HETATM   27  C   UNL     1      -9.498   4.005  66.529  1.00  0.00    -0.194 A  
HETATM   28  N   UNL     1      -9.414   5.172  65.850  1.00  0.00    -0.159 NA 
HETATM   29  C   UNL     1      -9.312   3.877  67.902  1.00  0.00    -0.177 A  
HETATM   30  N   UNL     1      -8.953   6.224  67.935  1.00  0.00    -0.115 NA 
BRANCH  26  31
HETATM   31  N   UNL     1      -8.774   4.956  70.109  1.00  0.00    -0.093 NA 
HETATM   32  H   UNL     1      -7.850   5.269  70.406  1.00  0.00     0.000 HD 
BRANCH  31  33
HETATM   33  C   UNL     1      -9.666   4.477  71.201  1.00  0.00    -0.186 A  
HETATM   34  C   UNL     1      -9.421   3.156  71.604  1.00  0.00    -0.214 A  
HETATM   35  C   UNL     1     -10.132   2.582  72.644  1.00  0.00    -0.228 A  
HETATM   36  C   UNL     1     -11.090   3.333  73.335  1.00  0.00    -0.282 A  
HETATM   37  C   UNL     1     -11.389   4.670  73.005  1.00  0.00    -0.287 A  
HETATM   38  C   UNL     1     -10.723   5.298  71.951  1.00  0.00    -0.185 A  
HETATM   39  P   UNL     1     -11.178   7.007  71.481  1.00  0.00    -0.274 P  
HETATM   40  C   UNL     1      -9.378   7.568  71.560  1.00  0.00    -0.139 C  
HETATM   41  O   UNL     1     -11.564   8.453  71.085  1.00  0.00    -0.272 OA 
HETATM   42  C   UNL     1     -11.615   6.399  69.739  1.00  0.00    -0.327 C  
ENDBRANCH  31  33
ENDBRANCH  26  31
ENDBRANCH  22  24
ENDBRANCH   7  22
ENDBRANCH   2   3
TORSDOF 7
ENDMDL
MODEL       51
REMARK 921   NORMALIZED FREE ENERGY PREDICTED BY IDOCK:   -5.35 KCAL/MOL
REMARK 922        TOTAL FREE ENERGY PREDICTED BY IDOCK:   -8.85 KCAL/MOL
REMARK 923 INTER-LIGAND FREE ENERGY PREDICTED BY IDOCK:   -8.05 KCAL/MOL
REMARK 924 INTRA-LIGAND FREE ENERGY PREDICTED BY IDOCK:   -0.80 KCAL/MOL
REMARK 927      BINDING AFFINITY PREDICTED BY RF-SCORE:    0.00 PKD
ROOT
HETATM    1  C   UNL     1      -7.554   8.842  69.759  1.00  0.00    -0.069 C  
HETATM    2  O   UNL     1      -8.762   8.671  70.491  1.00  0.00    -0.139 OA 
ENDROOT
BRANCH   2   3
HETATM    3  C   UNL     1      -9.828   9.514  70.234  1.00  0.00    -0.261 A  
HETATM    4  C   UNL     1      -9.728  10.763  69.566  1.00  0.00    -0.015 A  
HETATM    5  C   UNL     1     -10.839  11.602  69.342  1.00  0.00    -0.096 A  
HETATM    6  C   UNL     1     -12.067  11.091  69.825  1.00  0.00    -0.424 A  
HETATM    7  C   UNL     1     -11.077   9.011  70.698  1.00  0.00    -0.265 A  
HETATM    8  C   UNL     1     -12.181   9.827  70.483  1.00  0.00    -0.205 A  
BRANCH   5   9
HETATM    9  N   UNL     1     -10.718  12.809  68.638  1.00  0.00    -0.250 NA 
HETATM   10  C   UNL     1      -9.357  13.286  68.323  1.00  0.00    -0.205 C  
HETATM   11  C   UNL     1      -9.397  14.091  67.022  1.00  0.00    -0.256 C  
HETATM   12  C   UNL     1     -10.337  15.320  67.073  1.00  0.00    -0.277 C  
HETATM   13  C   UNL     1     -11.714  14.817  67.581  1.00  0.00    -0.364 C  
HETATM   14  C   UNL     1     -11.638  13.949  68.856  1.00  0.00    -0.316 C  
BRANCH  12  15
HETATM   15  N   UNL     1      -9.897  16.516  67.848  1.00  0.00    -0.236 NA 
HETATM   16  C   UNL     1      -8.480  16.909  67.689  1.00  0.00    -0.200 C  
HETATM   17  C   UNL     1      -8.530  19.912  66.651  1.00  0.00    -0.335 C  
HETATM   18  C   UNL     1     -10.711  17.721  67.503  1.00  0.00    -0.307 C  
HETATM   19  C   UNL     1      -8.115  17.541  66.322  1.00  0.00    -0.254 C  
HETATM   20  C   UNL     1     -10.362  18.398  66.144  1.00  0.00    -0.407 C  
HETATM   21  N   UNL     1      -8.934  18.704  65.936  1.00  0.00    -0.422 NA 
ENDBRANCH  12  15
ENDBRANCH   5   9
BRANCH   7  22
HETATM   22  N   UNL     1     -11.087   7.719  71.299  1.00  0.00    -0.243 NA 
HETATM   23  H   UNL     1     -11.610   7.749  72.175  1.00  0.00     0.000 HD 
BRANCH  22  24
HETATM   24  C   UNL     1     -10.609   6.419  71.073  1.00  0.00    -0.234 A  
HETATM   25 CL   UNL     1      -9.045   2.357  70.121  1.00  0.00    -0.164 Cl 
HETATM   26  C   UNL     1      -9.859   4.882  69.398  1.00  0.00    -0.211 A  
HETATM   27  C   UNL     1      -9.968   4.316  71.711  1.00  0.00    -0.184 A  
HETATM   28  N   UNL     1     -10.431   5.537  72.063  1.00  0.00    -0.216 NA 
HETATM   29  C   UNL     1      -9.678   3.929  70.406  1.00  0.00    -0.175 A  
HETATM   30  N   UNL     1     -10.331   6.118  69.756  1.00  0.00    -0.192 NA 
BRANCH  26  31
HETATM   31  N   UNL     1      -9.614   4.500  67.958  1.00  0.00    -0.157 NA 
HETATM   32  H   UNL     1      -9.865   3.543  67.711  1.00  0.00     0.000 HD 
BRANCH  31  33
HETATM   33  C   UNL     1      -9.057   5.320  66.846  1.00  0.00    -0.113 A  
HETATM   34  C   UNL     1      -9.574   6.622  66.780  1.00  0.00    -0.207 A  
HETATM   35  C   UNL     1      -9.119   7.525  65.834  1.00  0.00    -0.086 A  
HETATM   36  C   UNL     1      -8.103   7.154  64.945  1.00  0.00    -0.107 A  
HETATM   37  C   UNL     1      -7.520   5.872  64.951  1.00  0.00    -0.077 A  
HETATM   38  C   UNL     1      -7.952   4.909  65.865  1.00  0.00    -0.107 A  
HETATM   39  P   UNL     1      -7.243   3.223  65.808  1.00  0.00    -0.073 P  
HETATM   40  C   UNL     1      -6.842   3.268  67.653  1.00  0.00    -0.049 C  
HETATM   41  O   UNL     1      -6.642   1.796  65.760  1.00  0.00    -0.023 OA 
HETATM   42  C   UNL     1      -8.978   2.516  65.518  1.00  0.00    -0.133 C  
ENDBRANCH  31  33
ENDBRANCH  26  31
ENDBRANCH  22  24
ENDBRANCH   7  22
ENDBRANCH   2   3
TORSDOF 7
ENDMDL
MODEL       52
REMARK 921   NORMALIZED FREE ENERGY PREDICTED BY IDOCK:   -5.35 KCAL/MOL
REMARK 922        TOTAL FREE ENERGY PREDICTED BY IDOCK:   -8.84 KCAL/MOL
REMARK 923 INTER-LIGAND FREE ENERGY PREDICTED BY IDOCK:   -7.58 KCAL/MOL
REMARK 924 INTRA-LIGAND FREE ENERGY PREDICTED BY IDOCK:   -1.26 KCAL/MOL
REMARK 927      BINDING AFFINITY PREDICTED BY RF-SCORE:    0.00 PKD
ROOT
HETATM    1  C   UNL     1      -9.106  10.010  63.450  1.00  0.00    -0.273 C  
HETATM    2  O   UNL     1      -9.161   9.332  64.699  1.00  0.00    -0.190 OA 
ENDROOT
BRANCH   2   3
HETATM    3  C   UNL     1      -9.539  10.033  65.829  1.00  0.00    -0.231 A  
HETATM    4  C   UNL     1      -9.236  11.400  66.071  1.00  0.00    -0.229 A  
HETATM    5  C   UNL     1      -9.623  12.073  67.248  1.00  0.00    -0.183 A  
HETATM    6  C   UNL     1     -10.352  11.280  68.164  1.00  0.00    -0.205 A  
HETATM    7  C   UNL     1     -10.288   9.257  66.758  1.00  0.00    -0.226 A  
HETATM    8  C   UNL     1     -10.677   9.909  67.923  1.00  0.00    -0.316 A  
BRANCH   5   9
HETATM    9  N   UNL     1      -9.350  13.435  67.439  1.00  0.00    -0.212 NA 
HETATM   10  C   UNL     1      -9.766  14.045  68.717  1.00  0.00    -0.121 C  
HETATM   11  C   UNL     1      -8.806  15.187  69.062  1.00  0.00    -0.219 C  
HETATM   12  C   UNL     1      -8.749  16.304  67.993  1.00  0.00    -0.178 C  
HETATM   13  C   UNL     1      -8.489  15.613  66.628  1.00  0.00    -0.323 C  
HETATM   14  C   UNL     1      -9.425  14.420  66.336  1.00  0.00    -0.285 C  
BRANCH  12  15
HETATM   15  N   UNL     1      -9.901  17.247  67.891  1.00  0.00    -0.273 NA 
HETATM   16  C   UNL     1      -9.947  18.328  68.900  1.00  0.00    -0.339 C  
HETATM   17  C   UNL     1      -9.979  21.044  67.252  1.00  0.00     0.144 C  
HETATM   18  C   UNL     1      -9.944  17.914  66.554  1.00  0.00    -0.357 C  
HETATM   19  C   UNL     1      -8.890  19.447  68.724  1.00  0.00    -0.342 C  
HETATM   20  C   UNL     1      -8.910  19.059  66.344  1.00  0.00    -0.321 C  
HETATM   21  N   UNL     1      -8.881  20.091  67.398  1.00  0.00    -0.335 NA 
ENDBRANCH  12  15
ENDBRANCH   5   9
BRANCH   7  22
HETATM   22  N   UNL     1     -10.598   7.914  66.400  1.00  0.00    -0.256 NA 
HETATM   23  H   UNL     1     -11.180   7.904  65.561  1.00  0.00     0.000 HD 
BRANCH  22  24
HETATM   24  C   UNL     1     -10.360   6.599  66.830  1.00  0.00    -0.210 A  
HETATM   25 CL   UNL     1      -9.626   2.505  68.429  1.00  0.00    -0.202 Cl 
HETATM   26  C   UNL     1      -9.949   5.218  68.742  1.00  0.00    -0.174 A  
HETATM   27  C   UNL     1     -10.067   4.349  66.525  1.00  0.00    -0.189 A  
HETATM   28  N   UNL     1     -10.308   5.565  65.983  1.00  0.00    -0.067 NA 
HETATM   29  C   UNL     1      -9.869   4.116  67.883  1.00  0.00    -0.036 A  
HETATM   30  N   UNL     1     -10.190   6.450  68.190  1.00  0.00    -0.152 NA 
BRANCH  26  31
HETATM   31  N   UNL     1      -9.686   5.033  70.217  1.00  0.00    -0.196 NA 
HETATM   32  H   UNL     1     -10.515   4.904  70.796  1.00  0.00     0.000 HD 
BRANCH  31  33
HETATM   33  C   UNL     1      -8.389   5.014  70.948  1.00  0.00    -0.112 A  
HETATM   34  C   UNL     1      -7.300   5.475  70.195  1.00  0.00    -0.069 A  
HETATM   35  C   UNL     1      -6.034   5.567  70.750  1.00  0.00    -0.025 A  
HETATM   36  C   UNL     1      -5.834   5.228  72.094  1.00  0.00    -0.021 A  
HETATM   37  C   UNL     1      -6.874   4.769  72.925  1.00  0.00    -0.070 A  
HETATM   38  C   UNL     1      -8.168   4.632  72.418  1.00  0.00    -0.114 A  
HETATM   39  P   UNL     1      -9.493   3.958  73.485  1.00  0.00    -0.107 P  
HETATM   40  C   UNL     1     -10.628   5.414  73.091  1.00  0.00    -0.239 C  
HETATM   41  O   UNL     1     -10.614   3.388  74.389  1.00  0.00    -0.193 OA 
HETATM   42  C   UNL     1      -9.758   2.548  72.245  1.00  0.00    -0.135 C  
ENDBRANCH  31  33
ENDBRANCH  26  31
ENDBRANCH  22  24
ENDBRANCH   7  22
ENDBRANCH   2   3
TORSDOF 7
ENDMDL
MODEL       53
REMARK 921   NORMALIZED FREE ENERGY PREDICTED BY IDOCK:   -5.34 KCAL/MOL
REMARK 922        TOTAL FREE ENERGY PREDICTED BY IDOCK:   -8.84 KCAL/MOL
REMARK 923 INTER-LIGAND FREE ENERGY PREDICTED BY IDOCK:   -8.48 KCAL/MOL
REMARK 924 INTRA-LIGAND FREE ENERGY PREDICTED BY IDOCK:   -0.35 KCAL/MOL
REMARK 927      BINDING AFFINITY PREDICTED BY RF-SCORE:    0.00 PKD
ROOT
HETATM    1  C   UNL     1      -7.534  10.054  69.756  1.00  0.00    -0.151 C  
HETATM    2  O   UNL     1      -8.907   9.713  69.605  1.00  0.00    -0.168 OA 
ENDROOT
BRANCH   2   3
HETATM    3  C   UNL     1      -9.806  10.694  69.229  1.00  0.00    -0.180 A  
HETATM    4  C   UNL     1      -9.449  11.927  68.621  1.00  0.00    -0.087 A  
HETATM    5  C   UNL     1     -10.397  12.910  68.271  1.00  0.00    -0.244 A  
HETATM    6  C   UNL     1     -11.737  12.563  68.560  1.00  0.00    -0.369 A  
HETATM    7  C   UNL     1     -11.163  10.357  69.497  1.00  0.00    -0.269 A  
HETATM    8  C   UNL     1     -12.108  11.317  69.156  1.00  0.00    -0.348 A  
BRANCH   5   9
HETATM    9  N   UNL     1     -10.019  14.099  67.629  1.00  0.00    -0.230 NA 
HETATM   10  C   UNL     1      -8.787  14.766  68.092  1.00  0.00    -0.170 C  
HETATM   11  C   UNL     1      -8.151  15.516  66.918  1.00  0.00    -0.284 C  
HETATM   12  C   UNL     1      -9.071  16.588  66.286  1.00  0.00    -0.313 C  
HETATM   13  C   UNL     1     -10.425  15.898  65.974  1.00  0.00    -0.357 C  
HETATM   14  C   UNL     1     -11.010  15.092  67.154  1.00  0.00    -0.329 C  
BRANCH  12  15
HETATM   15  N   UNL     1      -9.290  17.861  67.033  1.00  0.00    -0.261 NA 
HETATM   16  C   UNL     1      -8.441  18.069  68.225  1.00  0.00    -0.287 C  
HETATM   17  C   UNL     1      -6.904  20.805  67.721  1.00  0.00    -0.312 C  
HETATM   18  C   UNL     1      -9.085  19.053  66.153  1.00  0.00    -0.191 C  
HETATM   19  C   UNL     1      -6.953  18.385  67.935  1.00  0.00    -0.215 C  
HETATM   20  C   UNL     1      -7.600  19.414  65.853  1.00  0.00    -0.269 C  
HETATM   21  N   UNL     1      -6.723  19.528  67.033  1.00  0.00    -0.195 NA 
ENDBRANCH  12  15
ENDBRANCH   5   9
BRANCH   7  22
HETATM   22  N   UNL     1     -11.429   9.071  70.050  1.00  0.00    -0.449 NA 
HETATM   23  H   UNL     1     -12.214   9.129  70.699  1.00  0.00     0.000 HD 
BRANCH  22  24
HETATM   24  C   UNL     1     -10.957   7.751  69.987  1.00  0.00    -0.214 A  
HETATM   25 CL   UNL     1      -9.425   3.590  69.546  1.00  0.00    -0.247 Cl 
HETATM   26  C   UNL     1     -10.288   5.988  68.512  1.00  0.00    -0.207 A  
HETATM   27  C   UNL     1     -10.273   5.759  70.885  1.00  0.00    -0.216 A  
HETATM   28  N   UNL     1     -10.722   7.019  71.083  1.00  0.00    -0.228 NA 
HETATM   29  C   UNL     1     -10.050   5.188  69.636  1.00  0.00    -0.261 A  
HETATM   30  N   UNL     1     -10.746   7.264  68.714  1.00  0.00    -0.178 NA 
BRANCH  26  31
HETATM   31  N   UNL     1     -10.117   5.402  67.131  1.00  0.00    -0.176 NA 
HETATM   32  H   UNL     1     -10.679   4.575  66.935  1.00  0.00     0.000 HD 
BRANCH  31  33
HETATM   33  C   UNL     1      -9.245   5.860  66.014  1.00  0.00    -0.128 A  
HETATM   34  C   UNL     1      -8.768   7.170  66.160  1.00  0.00    -0.164 A  
HETATM   35  C   UNL     1      -7.903   7.724  65.231  1.00  0.00    -0.117 A  
HETATM   36  C   UNL     1      -7.465   6.962  64.142  1.00  0.00    -0.101 A  
HETATM   37  C   UNL     1      -7.884   5.634  63.927  1.00  0.00    -0.112 A  
HETATM   38  C   UNL     1      -8.773   5.027  64.816  1.00  0.00    -0.149 A  
HETATM   39  P   UNL     1      -9.372   3.330  64.481  1.00  0.00    -0.154 P  
HETATM   40  C   UNL     1      -8.900   2.761  66.218  1.00  0.00    -0.144 C  
HETATM   41  O   UNL     1      -9.878   1.894  64.197  1.00  0.00    -0.133 OA 
HETATM   42  C   UNL     1     -11.154   3.978  64.450  1.00  0.00     0.123 C  
ENDBRANCH  31  33
ENDBRANCH  26  31
ENDBRANCH  22  24
ENDBRANCH   7  22
ENDBRANCH   2   3
TORSDOF 7
ENDMDL
MODEL       54
REMARK 921   NORMALIZED FREE ENERGY PREDICTED BY IDOCK:   -5.31 KCAL/MOL
REMARK 922        TOTAL FREE ENERGY PREDICTED BY IDOCK:   -8.80 KCAL/MOL
REMARK 923 INTER-LIGAND FREE ENERGY PREDICTED BY IDOCK:   -8.28 KCAL/MOL
REMARK 924 INTRA-LIGAND FREE ENERGY PREDICTED BY IDOCK:   -0.52 KCAL/MOL
REMARK 927      BINDING AFFINITY PREDICTED BY RF-SCORE:    0.00 PKD
ROOT
HETATM    1  C   UNL     1     -10.626   8.957  67.016  1.00  0.00    -0.209 C  
HETATM    2  O   UNL     1     -10.495   9.126  68.422  1.00  0.00    -0.205 OA 
ENDROOT
BRANCH   2   3
HETATM    3  C   UNL     1     -11.010  10.265  69.013  1.00  0.00    -0.232 A  
HETATM    4  C   UNL     1     -10.713  11.592  68.605  1.00  0.00    -0.246 A  
HETATM    5  C   UNL     1     -11.244  12.728  69.249  1.00  0.00    -0.190 A  
HETATM    6  C   UNL     1     -12.112  12.439  70.328  1.00  0.00    -0.377 A  
HETATM    7  C   UNL     1     -11.899   9.995  70.092  1.00  0.00    -0.173 A  
HETATM    8  C   UNL     1     -12.432  11.106  70.735  1.00  0.00    -0.479 A  
BRANCH   5   9
HETATM    9  N   UNL     1     -10.969  14.026  68.795  1.00  0.00    -0.255 NA 
HETATM   10  C   UNL     1      -9.778  14.217  67.945  1.00  0.00    -0.222 C  
HETATM   11  C   UNL     1     -10.027  15.386  66.988  1.00  0.00    -0.239 C  
HETATM   12  C   UNL     1     -10.329  16.726  67.700  1.00  0.00    -0.309 C  
HETATM   13  C   UNL     1     -11.467  16.453  68.719  1.00  0.00    -0.222 C  
HETATM   14  C   UNL     1     -11.222  15.226  69.624  1.00  0.00    -0.278 C  
BRANCH  12  15
HETATM   15  N   UNL     1      -9.201  17.450  68.356  1.00  0.00    -0.270 NA 
HETATM   16  C   UNL     1      -7.971  17.602  67.550  1.00  0.00    -0.203 C  
HETATM   17  C   UNL     1      -7.429  20.729  67.386  1.00  0.00    -0.324 C  
HETATM   18  C   UNL     1      -9.606  18.827  68.775  1.00  0.00    -0.364 C  
HETATM   19  C   UNL     1      -8.064  18.611  66.378  1.00  0.00    -0.281 C  
HETATM   20  C   UNL     1      -9.692  19.877  67.627  1.00  0.00    -0.385 C  
HETATM   21  N   UNL     1      -8.505  19.966  66.757  1.00  0.00    -0.315 NA 
ENDBRANCH  12  15
ENDBRANCH   5   9
BRANCH   7  22
HETATM   22  N   UNL     1     -12.187   8.631  70.387  1.00  0.00    -0.379 NA 
HETATM   23  H   UNL     1     -13.068   8.361  69.949  1.00  0.00     0.000 HD 
BRANCH  22  24
HETATM   24  C   UNL     1     -11.647   7.541  71.086  1.00  0.00    -0.282 A  
HETATM   25 CL   UNL     1      -9.722   4.113  73.183  1.00  0.00    -0.149 Cl 
HETATM   26  C   UNL     1      -9.768   6.066  71.247  1.00  0.00    -0.172 A  
HETATM   27  C   UNL     1     -11.659   5.908  72.692  1.00  0.00    -0.241 A  
HETATM   28  N   UNL     1     -12.286   6.953  72.105  1.00  0.00    -0.242 NA 
HETATM   29  C   UNL     1     -10.416   5.416  72.304  1.00  0.00    -0.219 A  
HETATM   30  N   UNL     1     -10.407   7.122  70.651  1.00  0.00    -0.203 NA 
BRANCH  26  31
HETATM   31  N   UNL     1      -8.445   5.539  70.747  1.00  0.00    -0.121 NA 
HETATM   32  H   UNL     1      -8.237   5.737  69.769  1.00  0.00     0.000 HD 
BRANCH  31  33
HETATM   33  C   UNL     1      -7.399   4.771  71.478  1.00  0.00    -0.069 A  
HETATM   34  C   UNL     1      -6.932   5.402  72.640  1.00  0.00    -0.082 A  
HETATM   35  C   UNL     1      -5.996   4.792  73.458  1.00  0.00    -0.025 A  
HETATM   36  C   UNL     1      -5.526   3.509  73.149  1.00  0.00     0.000 A  
HETATM   37  C   UNL     1      -5.953   2.799  72.009  1.00  0.00    -0.013 A  
HETATM   38  C   UNL     1      -6.878   3.370  71.133  1.00  0.00    -0.032 A  
HETATM   39  P   UNL     1      -7.362   2.470  69.614  1.00  0.00    -0.043 P  
HETATM   40  C   UNL     1      -9.196   2.679  70.009  1.00  0.00    -0.132 C  
HETATM   41  O   UNL     1      -7.771   1.708  68.330  1.00  0.00    -0.049 OA 
HETATM   42  C   UNL     1      -6.733   3.921  68.568  1.00  0.00    -0.046 C  
ENDBRANCH  31  33
ENDBRANCH  26  31
ENDBRANCH  22  24
ENDBRANCH   7  22
ENDBRANCH   2   3
TORSDOF 7
ENDMDL
MODEL       55
REMARK 921   NORMALIZED FREE ENERGY PREDICTED BY IDOCK:   -5.29 KCAL/MOL
REMARK 922        TOTAL FREE ENERGY PREDICTED BY IDOCK:   -8.77 KCAL/MOL
REMARK 923 INTER-LIGAND FREE ENERGY PREDICTED BY IDOCK:   -7.17 KCAL/MOL
REMARK 924 INTRA-LIGAND FREE ENERGY PREDICTED BY IDOCK:   -1.60 KCAL/MOL
REMARK 927      BINDING AFFINITY PREDICTED BY RF-SCORE:    0.00 PKD
ROOT
HETATM    1  C   UNL     1      -5.582  11.111  70.713  1.00  0.00    -0.114 C  
HETATM    2  O   UNL     1      -6.096  11.763  69.558  1.00  0.00    -0.082 OA 
ENDROOT
BRANCH   2   3
HETATM    3  C   UNL     1      -6.068  11.100  68.345  1.00  0.00    -0.045 A  
HETATM    4  C   UNL     1      -6.380   9.726  68.167  1.00  0.00    -0.055 A  
HETATM    5  C   UNL     1      -6.319   9.084  66.913  1.00  0.00    -0.059 A  
HETATM    6  C   UNL     1      -5.937   9.924  65.841  1.00  0.00    -0.072 A  
HETATM    7  C   UNL     1      -5.701  11.932  67.249  1.00  0.00    -0.128 A  
HETATM    8  C   UNL     1      -5.639  11.312  66.007  1.00  0.00    -0.050 A  
BRANCH   5   9
HETATM    9  N   UNL     1      -6.678   7.736  66.760  1.00  0.00    -0.065 NA 
HETATM   10  C   UNL     1      -6.701   7.185  65.391  1.00  0.00    -0.051 C  
HETATM   11  C   UNL     1      -6.367   5.692  65.447  1.00  0.00    -0.038 C  
HETATM   12  C   UNL     1      -7.343   4.862  66.316  1.00  0.00    -0.078 C  
HETATM   13  C   UNL     1      -7.437   5.570  67.693  1.00  0.00    -0.081 C  
HETATM   14  C   UNL     1      -7.705   7.089  67.606  1.00  0.00    -0.112 C  
BRANCH  12  15
HETATM   15  N   UNL     1      -8.705   4.580  65.778  1.00  0.00    -0.119 NA 
HETATM   16  C   UNL     1      -8.801   4.401  64.313  1.00  0.00    -0.149 C  
HETATM   17  C   UNL     1     -10.062   1.516  63.879  1.00  0.00    -0.084 C  
HETATM   18  C   UNL     1      -9.292   3.351  66.394  1.00  0.00    -0.149 C  
HETATM   19  C   UNL     1      -8.206   3.080  63.765  1.00  0.00    -0.086 C  
HETATM   20  C   UNL     1      -8.733   2.001  65.855  1.00  0.00    -0.116 C  
HETATM   21  N   UNL     1      -8.734   1.853  64.388  1.00  0.00    -0.093 NA 
ENDBRANCH  12  15
ENDBRANCH   5   9
BRANCH   7  22
HETATM   22  N   UNL     1      -5.470  13.313  67.515  1.00  0.00    -0.328 NA 
HETATM   23  H   UNL     1      -4.474  13.473  67.670  1.00  0.00     0.000 HD 
BRANCH  22  24
HETATM   24  C   UNL     1      -6.172  14.522  67.633  1.00  0.00    -0.080 A  
HETATM   25 CL   UNL     1      -8.605  18.231  68.055  1.00  0.00    -0.270 Cl 
HETATM   26  C   UNL     1      -8.344  15.499  67.880  1.00  0.00    -0.143 A  
HETATM   27  C   UNL     1      -6.352  16.802  67.746  1.00  0.00    -0.147 A  
HETATM   28  N   UNL     1      -5.559  15.712  67.629  1.00  0.00    -0.245 NA 
HETATM   29  C   UNL     1      -7.738  16.760  67.861  1.00  0.00    -0.171 A  
HETATM   30  N   UNL     1      -7.539  14.396  67.758  1.00  0.00    -0.147 NA 
BRANCH  26  31
HETATM   31  N   UNL     1      -9.849  15.396  67.945  1.00  0.00    -0.219 NA 
HETATM   32  H   UNL     1     -10.339  15.601  67.075  1.00  0.00     0.000 HD 
BRANCH  31  33
HETATM   33  C   UNL     1     -10.720  15.037  69.099  1.00  0.00    -0.249 A  
HETATM   34  C   UNL     1     -10.684  15.961  70.153  1.00  0.00    -0.338 A  
HETATM   35  C   UNL     1     -11.477  15.796  71.276  1.00  0.00    -0.481 A  
HETATM   36  C   UNL     1     -12.359  14.711  71.356  1.00  0.00    -0.411 A  
HETATM   37  C   UNL     1     -12.468  13.744  70.337  1.00  0.00    -0.384 A  
HETATM   38  C   UNL     1     -11.677  13.842  69.190  1.00  0.00    -0.338 A  
HETATM   39  P   UNL     1     -11.771  12.536  67.912  1.00  0.00    -0.262 P  
HETATM   40  C   UNL     1     -12.047  13.812  66.548  1.00  0.00    -0.443 C  
HETATM   41  O   UNL     1     -11.850  11.431  66.830  1.00  0.00    -0.489 OA 
HETATM   42  C   UNL     1      -9.920  12.194  68.143  1.00  0.00    -0.201 C  
ENDBRANCH  31  33
ENDBRANCH  26  31
ENDBRANCH  22  24
ENDBRANCH   7  22
ENDBRANCH   2   3
TORSDOF 7
ENDMDL
MODEL       56
REMARK 921   NORMALIZED FREE ENERGY PREDICTED BY IDOCK:   -5.26 KCAL/MOL
REMARK 922        TOTAL FREE ENERGY PREDICTED BY IDOCK:   -8.72 KCAL/MOL
REMARK 923 INTER-LIGAND FREE ENERGY PREDICTED BY IDOCK:   -7.29 KCAL/MOL
REMARK 924 INTRA-LIGAND FREE ENERGY PREDICTED BY IDOCK:   -1.44 KCAL/MOL
REMARK 927      BINDING AFFINITY PREDICTED BY RF-SCORE:    0.00 PKD
ROOT
HETATM    1  C   UNL     1      -5.534  13.888  71.649  1.00  0.00    -0.229 C  
HETATM    2  O   UNL     1      -5.547  13.927  70.228  1.00  0.00    -0.108 OA 
ENDROOT
BRANCH   2   3
HETATM    3  C   UNL     1      -5.734  12.752  69.524  1.00  0.00    -0.097 A  
HETATM    4  C   UNL     1      -6.027  11.494  70.115  1.00  0.00    -0.159 A  
HETATM    5  C   UNL     1      -6.190  10.313  69.362  1.00  0.00    -0.047 A  
HETATM    6  C   UNL     1      -6.053  10.486  67.965  1.00  0.00    -0.047 A  
HETATM    7  C   UNL     1      -5.616  12.906  68.114  1.00  0.00    -0.088 A  
HETATM    8  C   UNL     1      -5.776  11.751  67.358  1.00  0.00    -0.102 A  
BRANCH   5   9
HETATM    9  N   UNL     1      -6.525   9.094  69.970  1.00  0.00    -0.041 NA 
HETATM   10  C   UNL     1      -7.847   8.515  69.661  1.00  0.00    -0.095 C  
HETATM   11  C   UNL     1      -7.758   6.989  69.749  1.00  0.00    -0.109 C  
HETATM   12  C   UNL     1      -7.315   6.465  71.136  1.00  0.00    -0.080 C  
HETATM   13  C   UNL     1      -6.016   7.225  71.515  1.00  0.00    -0.036 C  
HETATM   14  C   UNL     1      -6.111   8.758  71.351  1.00  0.00    -0.056 C  
BRANCH  12  15
HETATM   15  N   UNL     1      -8.297   6.514  72.258  1.00  0.00    -0.106 NA 
HETATM   16  C   UNL     1      -9.718   6.343  71.886  1.00  0.00    -0.151 C  
HETATM   17  C   UNL     1     -10.751   3.844  73.555  1.00  0.00    -0.218 C  
HETATM   18  C   UNL     1      -8.001   5.472  73.288  1.00  0.00    -0.107 C  
HETATM   19  C   UNL     1     -10.126   4.909  71.463  1.00  0.00    -0.197 C  
HETATM   20  C   UNL     1      -8.415   4.019  72.909  1.00  0.00    -0.096 C  
HETATM   21  N   UNL     1      -9.804   3.856  72.442  1.00  0.00    -0.149 NA 
ENDBRANCH  12  15
ENDBRANCH   5   9
BRANCH   7  22
HETATM   22  N   UNL     1      -5.385  14.218  67.609  1.00  0.00    -0.333 NA 
HETATM   23  H   UNL     1      -4.384  14.367  67.477  1.00  0.00     0.000 HD 
BRANCH  22  24
HETATM   24  C   UNL     1      -6.092  15.372  67.236  1.00  0.00     0.180 A  
HETATM   25 CL   UNL     1      -8.537  18.938  66.159  1.00  0.00    -0.254 Cl 
HETATM   26  C   UNL     1      -8.259  16.383  67.140  1.00  0.00    -0.180 A  
HETATM   27  C   UNL     1      -6.287  17.489  66.385  1.00  0.00    -0.240 A  
HETATM   28  N   UNL     1      -5.490  16.443  66.705  1.00  0.00    -0.333 NA 
HETATM   29  C   UNL     1      -7.666  17.514  66.565  1.00  0.00    -0.275 A  
HETATM   30  N   UNL     1      -7.452  15.324  67.460  1.00  0.00    -0.173 NA 
BRANCH  26  31
HETATM   31  N   UNL     1      -9.760  16.333  67.306  1.00  0.00    -0.235 NA 
HETATM   32  H   UNL     1     -10.132  16.882  68.080  1.00  0.00     0.000 HD 
BRANCH  31  33
HETATM   33  C   UNL     1     -10.773  15.595  66.502  1.00  0.00    -0.293 A  
HETATM   34  C   UNL     1     -10.810  15.963  65.150  1.00  0.00    -0.438 A  
HETATM   35  C   UNL     1     -11.662  15.331  64.260  1.00  0.00    -0.223 A  
HETATM   36  C   UNL     1     -12.481  14.284  64.699  1.00  0.00    -0.371 A  
HETATM   37  C   UNL     1     -12.497  13.843  66.037  1.00  0.00    -0.501 A  
HETATM   38  C   UNL     1     -11.677  14.455  66.987  1.00  0.00    -0.399 A  
HETATM   39  P   UNL     1     -11.767  13.926  68.737  1.00  0.00    -0.388 P  
HETATM   40  C   UNL     1      -9.896  13.691  68.820  1.00  0.00    -0.062 C  
HETATM   41  O   UNL     1     -11.844  13.477  70.217  1.00  0.00    -0.309 OA 
HETATM   42  C   UNL     1     -12.243  15.693  69.234  1.00  0.00    -0.142 C  
ENDBRANCH  31  33
ENDBRANCH  26  31
ENDBRANCH  22  24
ENDBRANCH   7  22
ENDBRANCH   2   3
TORSDOF 7
ENDMDL
MODEL       57
REMARK 921   NORMALIZED FREE ENERGY PREDICTED BY IDOCK:   -5.15 KCAL/MOL
REMARK 922        TOTAL FREE ENERGY PREDICTED BY IDOCK:   -8.57 KCAL/MOL
REMARK 923 INTER-LIGAND FREE ENERGY PREDICTED BY IDOCK:   -7.07 KCAL/MOL
REMARK 924 INTRA-LIGAND FREE ENERGY PREDICTED BY IDOCK:   -1.50 KCAL/MOL
REMARK 927      BINDING AFFINITY PREDICTED BY RF-SCORE:    0.00 PKD
ROOT
HETATM    1  C   UNL     1      -9.003   9.615  63.931  1.00  0.00    -0.218 C  
HETATM    2  O   UNL     1      -8.687   8.960  65.153  1.00  0.00    -0.178 OA 
ENDROOT
BRANCH   2   3
HETATM    3  C   UNL     1      -7.941   9.633  66.103  1.00  0.00    -0.108 A  
HETATM    4  C   UNL     1      -7.880  11.046  66.230  1.00  0.00    -0.141 A  
HETATM    5  C   UNL     1      -7.090  11.694  67.202  1.00  0.00    -0.143 A  
HETATM    6  C   UNL     1      -6.373  10.820  68.052  1.00  0.00    -0.058 A  
HETATM    7  C   UNL     1      -7.224   8.771  66.980  1.00  0.00    -0.079 A  
HETATM    8  C   UNL     1      -6.442   9.396  67.944  1.00  0.00    -0.062 A  
BRANCH   5   9
HETATM    9  N   UNL     1      -7.085  13.090  67.334  1.00  0.00    -0.148 NA 
HETATM   10  C   UNL     1      -5.965  13.705  68.072  1.00  0.00    -0.133 C  
HETATM   11  C   UNL     1      -5.705  15.106  67.511  1.00  0.00     0.037 C  
HETATM   12  C   UNL     1      -6.923  16.056  67.608  1.00  0.00    -0.155 C  
HETATM   13  C   UNL     1      -8.132  15.309  66.984  1.00  0.00    -0.253 C  
HETATM   14  C   UNL     1      -8.329  13.873  67.516  1.00  0.00    -0.196 C  
BRANCH  12  15
HETATM   15  N   UNL     1      -7.284  16.612  68.944  1.00  0.00    -0.207 NA 
HETATM   16  C   UNL     1      -6.162  16.820  69.886  1.00  0.00    -0.149 C  
HETATM   17  C   UNL     1      -6.240  19.903  70.652  1.00  0.00    -0.232 C  
HETATM   18  C   UNL     1      -7.980  17.929  68.818  1.00  0.00    -0.240 C  
HETATM   19  C   UNL     1      -5.217  17.998  69.543  1.00  0.00    -0.186 C  
HETATM   20  C   UNL     1      -7.060  19.143  68.494  1.00  0.00    -0.300 C  
HETATM   21  N   UNL     1      -5.884  19.301  69.369  1.00  0.00    -0.241 NA 
ENDBRANCH  12  15
ENDBRANCH   5   9
BRANCH   7  22
HETATM   22  N   UNL     1      -7.398   7.366  66.817  1.00  0.00    -0.090 NA 
HETATM   23  H   UNL     1      -7.014   7.072  65.918  1.00  0.00     0.000 HD 
BRANCH  22  24
HETATM   24  C   UNL     1      -7.929   6.258  67.495  1.00  0.00    -0.109 A  
HETATM   25 CL   UNL     1      -9.782   2.889  69.747  1.00  0.00    -0.074 Cl 
HETATM   26  C   UNL     1      -9.498   5.562  69.163  1.00  0.00    -0.129 A  
HETATM   27  C   UNL     1      -8.115   4.027  67.974  1.00  0.00    -0.088 A  
HETATM   28  N   UNL     1      -7.527   5.005  67.248  1.00  0.00    -0.082 NA 
HETATM   29  C   UNL     1      -9.088   4.241  68.945  1.00  0.00    -0.128 A  
HETATM   30  N   UNL     1      -8.898   6.553  68.430  1.00  0.00    -0.124 NA 
BRANCH  26  31
HETATM   31  N   UNL     1     -10.509   5.859  70.245  1.00  0.00    -0.239 NA 
HETATM   32  H   UNL     1     -11.482   5.868  69.942  1.00  0.00     0.000 HD 
BRANCH  31  33
HETATM   33  C   UNL     1     -10.288   6.142  71.690  1.00  0.00    -0.216 A  
HETATM   34  C   UNL     1      -9.422   5.240  72.324  1.00  0.00    -0.164 A  
HETATM   35  C   UNL     1      -9.074   5.398  73.655  1.00  0.00    -0.124 A  
HETATM   36  C   UNL     1      -9.563   6.490  74.381  1.00  0.00    -0.295 A  
HETATM   37  C   UNL     1     -10.428   7.450  73.818  1.00  0.00    -0.258 A  
HETATM   38  C   UNL     1     -10.833   7.333  72.487  1.00  0.00    -0.272 A  
HETATM   39  P   UNL     1     -12.020   8.541  71.793  1.00  0.00    -0.387 P  
HETATM   40  C   UNL     1     -10.895   8.882  70.316  1.00  0.00    -0.239 C  
HETATM   41  O   UNL     1     -13.024   9.564  71.205  1.00  0.00    -0.334 OA 
HETATM   42  C   UNL     1     -13.219   7.124  71.407  1.00  0.00    -0.328 C  
ENDBRANCH  31  33
ENDBRANCH  26  31
ENDBRANCH  22  24
ENDBRANCH   7  22
ENDBRANCH   2   3
TORSDOF 7
ENDMDL
MODEL       58
REMARK 921   NORMALIZED FREE ENERGY PREDICTED BY IDOCK:   -5.15 KCAL/MOL
REMARK 922        TOTAL FREE ENERGY PREDICTED BY IDOCK:   -8.57 KCAL/MOL
REMARK 923 INTER-LIGAND FREE ENERGY PREDICTED BY IDOCK:   -7.10 KCAL/MOL
REMARK 924 INTRA-LIGAND FREE ENERGY PREDICTED BY IDOCK:   -1.47 KCAL/MOL
REMARK 927      BINDING AFFINITY PREDICTED BY RF-SCORE:    0.00 PKD
ROOT
HETATM    1  C   UNL     1      -5.621  11.487  70.476  1.00  0.00    -0.149 C  
HETATM    2  O   UNL     1      -6.465  11.785  69.371  1.00  0.00    -0.100 OA 
ENDROOT
BRANCH   2   3
HETATM    3  C   UNL     1      -6.260  11.128  68.172  1.00  0.00    -0.049 A  
HETATM    4  C   UNL     1      -6.635   9.783  67.913  1.00  0.00    -0.061 A  
HETATM    5  C   UNL     1      -6.389   9.143  66.681  1.00  0.00    -0.066 A  
HETATM    6  C   UNL     1      -5.751   9.956  65.715  1.00  0.00    -0.059 A  
HETATM    7  C   UNL     1      -5.633  11.934  67.180  1.00  0.00    -0.132 A  
HETATM    8  C   UNL     1      -5.385  11.316  65.959  1.00  0.00    -0.079 A  
BRANCH   5   9
HETATM    9  N   UNL     1      -6.813   7.828  66.438  1.00  0.00    -0.061 NA 
HETATM   10  C   UNL     1      -6.636   7.292  65.074  1.00  0.00    -0.044 C  
HETATM   11  C   UNL     1      -6.428   5.777  65.154  1.00  0.00    -0.042 C  
HETATM   12  C   UNL     1      -7.598   5.017  65.822  1.00  0.00    -0.086 C  
HETATM   13  C   UNL     1      -7.880   5.717  67.178  1.00  0.00    -0.102 C  
HETATM   14  C   UNL     1      -8.017   7.252  67.079  1.00  0.00    -0.109 C  
BRANCH  12  15
HETATM   15  N   UNL     1      -8.862   4.843  65.049  1.00  0.00    -0.152 NA 
HETATM   16  C   UNL     1      -8.710   4.416  63.642  1.00  0.00    -0.129 C  
HETATM   17  C   UNL     1     -10.365   1.716  63.376  1.00  0.00    -0.137 C  
HETATM   18  C   UNL     1      -9.767   3.845  65.699  1.00  0.00    -0.170 C  
HETATM   19  C   UNL     1      -8.270   2.945  63.437  1.00  0.00    -0.085 C  
HETATM   20  C   UNL     1      -9.369   2.353  65.500  1.00  0.00     0.000 C  
HETATM   21  N   UNL     1      -9.119   1.943  64.105  1.00  0.00    -0.104 NA 
ENDBRANCH  12  15
ENDBRANCH   5   9
BRANCH   7  22
HETATM   22  N   UNL     1      -5.352  13.291  67.510  1.00  0.00    -0.327 NA 
HETATM   23  H   UNL     1      -4.367  13.391  67.755  1.00  0.00     0.000 HD 
BRANCH  22  24
HETATM   24  C   UNL     1      -5.997  14.534  67.607  1.00  0.00    -0.024 A  
HETATM   25 CL   UNL     1      -8.254  18.360  67.959  1.00  0.00    -0.275 Cl 
HETATM   26  C   UNL     1      -8.123  15.617  67.797  1.00  0.00    -0.146 A  
HETATM   27  C   UNL     1      -6.066  16.820  67.709  1.00  0.00    -0.138 A  
HETATM   28  N   UNL     1      -5.326  15.692  67.615  1.00  0.00    -0.260 NA 
HETATM   29  C   UNL     1      -7.455  16.847  67.790  1.00  0.00    -0.164 A  
HETATM   30  N   UNL     1      -7.371  14.475  67.699  1.00  0.00    -0.169 NA 
BRANCH  26  31
HETATM   31  N   UNL     1      -9.632  15.589  67.826  1.00  0.00    -0.209 NA 
HETATM   32  H   UNL     1     -10.059  15.899  68.698  1.00  0.00     0.000 HD 
BRANCH  31  33
HETATM   33  C   UNL     1     -10.587  15.172  66.762  1.00  0.00    -0.298 A  
HETATM   34  C   UNL     1     -10.511  15.940  65.591  1.00  0.00    -0.411 A  
HETATM   35  C   UNL     1     -11.297  15.645  64.490  1.00  0.00    -0.327 A  
HETATM   36  C   UNL     1     -12.163  14.545  64.523  1.00  0.00    -0.483 A  
HETATM   37  C   UNL     1     -12.292  13.715  65.653  1.00  0.00    -0.518 A  
HETATM   38  C   UNL     1     -11.543  13.974  66.803  1.00  0.00    -0.386 A  
HETATM   39  P   UNL     1     -11.781  12.935  68.292  1.00  0.00    -0.307 P  
HETATM   40  C   UNL     1      -9.926  12.616  68.433  1.00  0.00    -0.210 C  
HETATM   41  O   UNL     1     -11.982  12.057  69.551  1.00  0.00    -0.303 OA 
HETATM   42  C   UNL     1     -12.271  14.480  69.276  1.00  0.00    -0.229 C  
ENDBRANCH  31  33
ENDBRANCH  26  31
ENDBRANCH  22  24
ENDBRANCH   7  22
ENDBRANCH   2   3
TORSDOF 7
ENDMDL
MODEL       59
REMARK 921   NORMALIZED FREE ENERGY PREDICTED BY IDOCK:   -5.10 KCAL/MOL
REMARK 922        TOTAL FREE ENERGY PREDICTED BY IDOCK:   -8.50 KCAL/MOL
REMARK 923 INTER-LIGAND FREE ENERGY PREDICTED BY IDOCK:   -7.51 KCAL/MOL
REMARK 924 INTRA-LIGAND FREE ENERGY PREDICTED BY IDOCK:   -0.99 KCAL/MOL
REMARK 927      BINDING AFFINITY PREDICTED BY RF-SCORE:    0.00 PKD
ROOT
HETATM    1  C   UNL     1     -10.739   7.916  67.203  1.00  0.00    -0.236 C  
HETATM    2  O   UNL     1      -9.873   8.444  66.206  1.00  0.00    -0.245 OA 
ENDROOT
BRANCH   2   3
HETATM    3  C   UNL     1      -9.067   9.523  66.518  1.00  0.00    -0.151 A  
HETATM    4  C   UNL     1      -9.520  10.864  66.630  1.00  0.00    -0.204 A  
HETATM    5  C   UNL     1      -8.661  11.941  66.931  1.00  0.00    -0.185 A  
HETATM    6  C   UNL     1      -7.309  11.574  67.127  1.00  0.00    -0.139 A  
HETATM    7  C   UNL     1      -7.704   9.174  66.735  1.00  0.00    -0.097 A  
HETATM    8  C   UNL     1      -6.845  10.225  67.034  1.00  0.00    -0.084 A  
BRANCH   5   9
HETATM    9  N   UNL     1      -9.145  13.248  67.081  1.00  0.00    -0.223 NA 
HETATM   10  C   UNL     1      -9.832  13.862  65.927  1.00  0.00    -0.267 C  
HETATM   11  C   UNL     1     -10.878  14.856  66.439  1.00  0.00    -0.325 C  
HETATM   12  C   UNL     1     -10.291  15.993  67.308  1.00  0.00    -0.295 C  
HETATM   13  C   UNL     1      -9.425  15.323  68.407  1.00  0.00    -0.206 C  
HETATM   14  C   UNL     1      -8.427  14.273  67.872  1.00  0.00    -0.168 C  
BRANCH  12  15
HETATM   15  N   UNL     1      -9.527  17.081  66.631  1.00  0.00    -0.252 NA 
HETATM   16  C   UNL     1     -10.336  18.155  66.014  1.00  0.00    -0.353 C  
HETATM   17  C   UNL     1      -9.359  20.857  67.371  1.00  0.00    -0.186 C  
HETATM   18  C   UNL     1      -8.580  17.752  67.573  1.00  0.00    -0.228 C  
HETATM   19  C   UNL     1     -11.023  19.124  67.008  1.00  0.00    -0.262 C  
HETATM   20  C   UNL     1      -9.231  18.751  68.576  1.00  0.00    -0.348 C  
HETATM   21  N   UNL     1     -10.118  19.766  67.978  1.00  0.00    -0.423 NA 
ENDBRANCH  12  15
ENDBRANCH   5   9
BRANCH   7  22
HETATM   22  N   UNL     1      -7.355   7.794  66.664  1.00  0.00    -0.086 NA 
HETATM   23  H   UNL     1      -7.274   7.507  65.688  1.00  0.00     0.000 HD 
BRANCH  22  24
HETATM   24  C   UNL     1      -7.088   6.703  67.506  1.00  0.00    -0.084 A  
HETATM   25 CL   UNL     1      -6.417   3.321  70.329  1.00  0.00    -0.031 Cl 
HETATM   26  C   UNL     1      -7.570   5.720  69.635  1.00  0.00    -0.076 A  
HETATM   27  C   UNL     1      -6.085   4.721  68.060  1.00  0.00    -0.031 A  
HETATM   28  N   UNL     1      -6.261   5.711  67.155  1.00  0.00    -0.033 NA 
HETATM   29  C   UNL     1      -6.697   4.676  69.309  1.00  0.00    -0.045 A  
HETATM   30  N   UNL     1      -7.744   6.725  68.719  1.00  0.00    -0.108 NA 
BRANCH  26  31
HETATM   31  N   UNL     1      -8.217   5.752  70.999  1.00  0.00    -0.120 NA 
HETATM   32  H   UNL     1      -7.629   5.436  71.769  1.00  0.00     0.000 HD 
BRANCH  31  33
HETATM   33  C   UNL     1      -9.591   6.180  71.380  1.00  0.00    -0.159 A  
HETATM   34  C   UNL     1      -9.990   7.398  70.812  1.00  0.00    -0.182 A  
HETATM   35  C   UNL     1     -11.260   7.906  71.028  1.00  0.00    -0.288 A  
HETATM   36  C   UNL     1     -12.181   7.185  71.798  1.00  0.00    -0.379 A  
HETATM   37  C   UNL     1     -11.867   5.948  72.395  1.00  0.00    -0.263 A  
HETATM   38  C   UNL     1     -10.595   5.393  72.233  1.00  0.00    -0.225 A  
HETATM   39  P   UNL     1     -10.176   3.826  73.079  1.00  0.00    -0.169 P  
HETATM   40  C   UNL     1      -9.560   3.057  71.469  1.00  0.00    -0.155 C  
HETATM   41  O   UNL     1      -9.821   2.500  73.795  1.00  0.00    -0.093 OA 
HETATM   42  C   UNL     1      -8.761   4.707  73.983  1.00  0.00    -0.104 C  
ENDBRANCH  31  33
ENDBRANCH  26  31
ENDBRANCH  22  24
ENDBRANCH   7  22
ENDBRANCH   2   3
TORSDOF 7
ENDMDL
MODEL       60
REMARK 921   NORMALIZED FREE ENERGY PREDICTED BY IDOCK:   -5.09 KCAL/MOL
REMARK 922        TOTAL FREE ENERGY PREDICTED BY IDOCK:   -8.49 KCAL/MOL
REMARK 923 INTER-LIGAND FREE ENERGY PREDICTED BY IDOCK:   -7.34 KCAL/MOL
REMARK 924 INTRA-LIGAND FREE ENERGY PREDICTED BY IDOCK:   -1.15 KCAL/MOL
REMARK 927      BINDING AFFINITY PREDICTED BY RF-SCORE:    0.00 PKD
ROOT
HETATM    1  C   UNL     1     -10.825   9.865  66.995  1.00  0.00    -0.116 C  
HETATM    2  O   UNL     1      -9.614   9.122  67.062  1.00  0.00    -0.152 OA 
ENDROOT
BRANCH   2   3
HETATM    3  C   UNL     1      -8.441   9.778  67.390  1.00  0.00    -0.121 A  
HETATM    4  C   UNL     1      -8.356  11.146  67.759  1.00  0.00    -0.123 A  
HETATM    5  C   UNL     1      -7.135  11.782  68.066  1.00  0.00    -0.082 A  
HETATM    6  C   UNL     1      -6.001  10.941  67.991  1.00  0.00    -0.049 A  
HETATM    7  C   UNL     1      -7.288   8.944  67.336  1.00  0.00    -0.081 A  
HETATM    8  C   UNL     1      -6.078   9.557  67.638  1.00  0.00    -0.053 A  
BRANCH   5   9
HETATM    9  N   UNL     1      -7.087  13.124  68.472  1.00  0.00    -0.099 NA 
HETATM   10  C   UNL     1      -7.962  14.084  67.771  1.00  0.00    -0.171 C  
HETATM   11  C   UNL     1      -8.345  15.209  68.736  1.00  0.00    -0.175 C  
HETATM   12  C   UNL     1      -7.134  15.988  69.305  1.00  0.00    -0.220 C  
HETATM   13  C   UNL     1      -6.146  14.936  69.875  1.00  0.00    -0.140 C  
HETATM   14  C   UNL     1      -5.831  13.775  68.907  1.00  0.00    -0.083 C  
BRANCH  12  15
HETATM   15  N   UNL     1      -6.422  16.943  68.407  1.00  0.00    -0.146 NA 
HETATM   16  C   UNL     1      -7.250  18.014  67.810  1.00  0.00    -0.211 C  
HETATM   17  C   UNL     1      -5.901  20.748  68.708  1.00  0.00    -0.354 C  
HETATM   18  C   UNL     1      -5.297  17.625  69.117  1.00  0.00    -0.178 C  
HETATM   19  C   UNL     1      -7.707  19.124  68.789  1.00  0.00    -0.355 C  
HETATM   20  C   UNL     1      -5.715  18.762  70.096  1.00  0.00    -0.240 C  
HETATM   21  N   UNL     1      -6.620  19.782  69.536  1.00  0.00    -0.347 NA 
ENDBRANCH  12  15
ENDBRANCH   5   9
BRANCH   7  22
HETATM   22  N   UNL     1      -7.480   7.569  67.019  1.00  0.00    -0.096 NA 
HETATM   23  H   UNL     1      -7.183   7.390  66.059  1.00  0.00     0.000 HD 
BRANCH  22  24
HETATM   24  C   UNL     1      -7.947   6.381  67.602  1.00  0.00    -0.114 A  
HETATM   25 CL   UNL     1      -9.609   2.742  69.565  1.00  0.00    -0.137 Cl 
HETATM   26  C   UNL     1      -9.484   5.464  69.193  1.00  0.00    -0.133 A  
HETATM   27  C   UNL     1      -8.001   4.112  67.905  1.00  0.00    -0.086 A  
HETATM   28  N   UNL     1      -7.468   5.178  67.264  1.00  0.00    -0.083 NA 
HETATM   29  C   UNL     1      -8.993   4.191  68.878  1.00  0.00    -0.113 A  
HETATM   30  N   UNL     1      -8.940   6.543  68.546  1.00  0.00    -0.127 NA 
BRANCH  26  31
HETATM   31  N   UNL     1     -10.520   5.615  70.281  1.00  0.00    -0.270 NA 
HETATM   32  H   UNL     1     -11.485   5.681  69.960  1.00  0.00     0.000 HD 
BRANCH  31  33
HETATM   33  C   UNL     1     -10.333   5.681  71.757  1.00  0.00    -0.215 A  
HETATM   34  C   UNL     1      -9.643   4.587  72.297  1.00  0.00    -0.204 A  
HETATM   35  C   UNL     1      -9.344   4.526  73.648  1.00  0.00    -0.121 A  
HETATM   36  C   UNL     1      -9.702   5.584  74.492  1.00  0.00    -0.204 A  
HETATM   37  C   UNL     1     -10.386   6.725  74.030  1.00  0.00    -0.377 A  
HETATM   38  C   UNL     1     -10.736   6.836  72.683  1.00  0.00    -0.240 A  
HETATM   39  P   UNL     1     -11.694   8.287  72.112  1.00  0.00    -0.401 P  
HETATM   40  C   UNL     1     -10.457   8.629  70.728  1.00  0.00    -0.204 C  
HETATM   41  O   UNL     1     -12.504   9.515  71.629  1.00  0.00    -0.340 OA 
HETATM   42  C   UNL     1     -13.068   7.127  71.510  1.00  0.00    -0.375 C  
ENDBRANCH  31  33
ENDBRANCH  26  31
ENDBRANCH  22  24
ENDBRANCH   7  22
ENDBRANCH   2   3
TORSDOF 7
ENDMDL
MODEL       61
REMARK 921   NORMALIZED FREE ENERGY PREDICTED BY IDOCK:   -5.09 KCAL/MOL
REMARK 922        TOTAL FREE ENERGY PREDICTED BY IDOCK:   -8.49 KCAL/MOL
REMARK 923 INTER-LIGAND FREE ENERGY PREDICTED BY IDOCK:   -6.86 KCAL/MOL
REMARK 924 INTRA-LIGAND FREE ENERGY PREDICTED BY IDOCK:   -1.63 KCAL/MOL
REMARK 927      BINDING AFFINITY PREDICTED BY RF-SCORE:    0.00 PKD
ROOT
HETATM    1  C   UNL     1     -11.146   6.248  67.250  1.00  0.00    -0.296 C  
HETATM    2  O   UNL     1     -10.105   6.612  66.351  1.00  0.00    -0.109 OA 
ENDROOT
BRANCH   2   3
HETATM    3  C   UNL     1      -9.295   7.689  66.661  1.00  0.00    -0.190 A  
HETATM    4  C   UNL     1      -9.720   9.044  66.668  1.00  0.00    -0.295 A  
HETATM    5  C   UNL     1      -8.855  10.116  66.971  1.00  0.00    -0.135 A  
HETATM    6  C   UNL     1      -7.530   9.730  67.284  1.00  0.00    -0.088 A  
HETATM    7  C   UNL     1      -7.961   7.321  66.996  1.00  0.00    -0.109 A  
HETATM    8  C   UNL     1      -7.098   8.367  67.298  1.00  0.00    -0.079 A  
BRANCH   5   9
HETATM    9  N   UNL     1      -9.313  11.441  67.014  1.00  0.00    -0.172 NA 
HETATM   10  C   UNL     1      -9.083  12.285  65.826  1.00  0.00     0.122 C  
HETATM   11  C   UNL     1     -10.205  13.322  65.724  1.00  0.00    -0.296 C  
HETATM   12  C   UNL     1     -10.317  14.249  66.958  1.00  0.00    -0.267 C  
HETATM   13  C   UNL     1     -10.376  13.333  68.209  1.00  0.00    -0.252 C  
HETATM   14  C   UNL     1      -9.275  12.252  68.253  1.00  0.00    -0.189 C  
BRANCH  12  15
HETATM   15  N   UNL     1      -9.290  15.317  67.138  1.00  0.00    -0.210 NA 
HETATM   16  C   UNL     1      -9.231  16.346  66.077  1.00  0.00    -0.293 C  
HETATM   17  C   UNL     1      -9.684  19.126  67.550  1.00  0.00    -0.316 C  
HETATM   18  C   UNL     1      -9.482  16.048  68.427  1.00  0.00    -0.207 C  
HETATM   19  C   UNL     1     -10.411  17.350  66.059  1.00  0.00    -0.304 C  
HETATM   20  C   UNL     1     -10.648  17.081  68.443  1.00  0.00    -0.375 C  
HETATM   21  N   UNL     1     -10.651  18.052  67.333  1.00  0.00    -0.386 NA 
ENDBRANCH  12  15
ENDBRANCH   5   9
BRANCH   7  22
HETATM   22  N   UNL     1      -7.645   5.932  67.025  1.00  0.00    -0.098 NA 
HETATM   23  H   UNL     1      -7.418   5.609  66.084  1.00  0.00     0.000 HD 
BRANCH  22  24
HETATM   24  C   UNL     1      -7.547   4.866  67.933  1.00  0.00    -0.083 A  
HETATM   25 CL   UNL     1      -7.371   1.614  70.973  1.00  0.00    -0.032 Cl 
HETATM   26  C   UNL     1      -7.998   4.171  70.178  1.00  0.00    -0.054 A  
HETATM   27  C   UNL     1      -6.983   2.739  68.565  1.00  0.00    -0.048 A  
HETATM   28  N   UNL     1      -7.023   3.682  67.595  1.00  0.00    -0.054 NA 
HETATM   29  C   UNL     1      -7.440   2.926  69.866  1.00  0.00    -0.044 A  
HETATM   30  N   UNL     1      -8.034   5.126  69.196  1.00  0.00    -0.080 NA 
BRANCH  26  31
HETATM   31  N   UNL     1      -8.456   4.449  71.590  1.00  0.00    -0.104 NA 
HETATM   32  H   UNL     1      -8.930   3.676  72.056  1.00  0.00     0.000 HD 
BRANCH  31  33
HETATM   33  C   UNL     1      -8.316   5.691  72.400  1.00  0.00    -0.115 A  
HETATM   34  C   UNL     1      -6.988   6.048  72.675  1.00  0.00    -0.079 A  
HETATM   35  C   UNL     1      -6.688   7.206  73.373  1.00  0.00    -0.065 A  
HETATM   36  C   UNL     1      -7.719   8.059  73.787  1.00  0.00    -0.225 A  
HETATM   37  C   UNL     1      -9.078   7.783  73.541  1.00  0.00    -0.342 A  
HETATM   38  C   UNL     1      -9.446   6.619  72.862  1.00  0.00    -0.138 A  
HETATM   39  P   UNL     1     -11.218   6.233  72.621  1.00  0.00    -0.213 P  
HETATM   40  C   UNL     1     -10.966   5.971  70.768  1.00  0.00    -0.297 C  
HETATM   41  O   UNL     1     -12.718   5.907  72.416  1.00  0.00    -0.025 OA 
HETATM   42  C   UNL     1     -10.980   4.606  73.565  1.00  0.00    -0.318 C  
ENDBRANCH  31  33
ENDBRANCH  26  31
ENDBRANCH  22  24
ENDBRANCH   7  22
ENDBRANCH   2   3
TORSDOF 7
ENDMDL
MODEL       62
REMARK 921   NORMALIZED FREE ENERGY PREDICTED BY IDOCK:   -5.09 KCAL/MOL
REMARK 922        TOTAL FREE ENERGY PREDICTED BY IDOCK:   -8.48 KCAL/MOL
REMARK 923 INTER-LIGAND FREE ENERGY PREDICTED BY IDOCK:   -7.67 KCAL/MOL
REMARK 924 INTRA-LIGAND FREE ENERGY PREDICTED BY IDOCK:   -0.81 KCAL/MOL
REMARK 927      BINDING AFFINITY PREDICTED BY RF-SCORE:    0.00 PKD
ROOT
HETATM    1  C   UNL     1      -7.176   8.932  71.116  1.00  0.00    -0.102 C  
HETATM    2  O   UNL     1      -8.479   8.418  71.364  1.00  0.00    -0.127 OA 
ENDROOT
BRANCH   2   3
HETATM    3  C   UNL     1      -9.575   9.095  70.862  1.00  0.00    -0.279 A  
HETATM    4  C   UNL     1      -9.514  10.110  69.871  1.00  0.00    -0.150 A  
HETATM    5  C   UNL     1     -10.655  10.791  69.400  1.00  0.00    -0.221 A  
HETATM    6  C   UNL     1     -11.872  10.370  69.986  1.00  0.00    -0.351 A  
HETATM    7  C   UNL     1     -10.813   8.675  71.427  1.00  0.00    -0.269 A  
HETATM    8  C   UNL     1     -11.947   9.337  70.971  1.00  0.00    -0.369 A  
BRANCH   5   9
HETATM    9  N   UNL     1     -10.569  11.757  68.387  1.00  0.00    -0.208 NA 
HETATM   10  C   UNL     1      -9.970  13.061  68.732  1.00  0.00    -0.010 C  
HETATM   11  C   UNL     1      -9.296  13.647  67.489  1.00  0.00    -0.223 C  
HETATM   12  C   UNL     1     -10.256  13.860  66.295  1.00  0.00    -0.297 C  
HETATM   13  C   UNL     1     -11.005  12.520  66.070  1.00  0.00    -0.318 C  
HETATM   14  C   UNL     1     -11.616  11.915  67.353  1.00  0.00    -0.297 C  
BRANCH  12  15
HETATM   15  N   UNL     1     -11.222  14.996  66.357  1.00  0.00    -0.335 NA 
HETATM   16  C   UNL     1     -11.343  15.675  67.665  1.00  0.00    -0.228 C  
HETATM   17  C   UNL     1     -10.653  18.729  67.118  1.00  0.00    -0.428 C  
HETATM   18  C   UNL     1     -10.883  16.057  65.359  1.00  0.00    -0.328 C  
HETATM   19  C   UNL     1     -10.135  16.554  68.072  1.00  0.00    -0.255 C  
HETATM   20  C   UNL     1      -9.684  16.975  65.741  1.00  0.00    -0.050 C  
HETATM   21  N   UNL     1      -9.750  17.579  67.085  1.00  0.00    -0.270 NA 
ENDBRANCH  12  15
ENDBRANCH   5   9
BRANCH   7  22
HETATM   22  N   UNL     1     -10.782   7.605  72.367  1.00  0.00    -0.256 NA 
HETATM   23  H   UNL     1     -10.873   7.974  73.314  1.00  0.00     0.000 HD 
BRANCH  22  24
HETATM   24  C   UNL     1     -10.665   6.207  72.409  1.00  0.00    -0.231 A  
HETATM   25 CL   UNL     1     -10.157   1.781  72.336  1.00  0.00    -0.207 Cl 
HETATM   26  C   UNL     1      -9.891   4.280  71.219  1.00  0.00    -0.187 A  
HETATM   27  C   UNL     1     -10.931   4.141  73.359  1.00  0.00    -0.259 A  
HETATM   28  N   UNL     1     -11.100   5.481  73.445  1.00  0.00    -0.272 NA 
HETATM   29  C   UNL     1     -10.351   3.487  72.277  1.00  0.00    -0.055 A  
HETATM   30  N   UNL     1     -10.065   5.637  71.306  1.00  0.00    -0.198 NA 
BRANCH  26  31
HETATM   31  N   UNL     1      -9.304   3.620  69.994  1.00  0.00    -0.162 NA 
HETATM   32  H   UNL     1      -9.983   3.228  69.342  1.00  0.00     0.000 HD 
BRANCH  31  33
HETATM   33  C   UNL     1      -7.877   3.460  69.601  1.00  0.00    -0.050 A  
HETATM   34  C   UNL     1      -7.095   2.781  70.547  1.00  0.00    -0.033 A  
HETATM   35  C   UNL     1      -5.759   2.507  70.307  1.00  0.00    -0.017 A  
HETATM   36  C   UNL     1      -5.177   2.880  69.089  1.00  0.00    -0.012 A  
HETATM   37  C   UNL     1      -5.893   3.553  68.080  1.00  0.00    -0.026 A  
HETATM   38  C   UNL     1      -7.237   3.878  68.271  1.00  0.00    -0.055 A  
HETATM   39  P   UNL     1      -8.132   4.824  66.985  1.00  0.00    -0.106 P  
HETATM   40  C   UNL     1      -9.535   3.562  66.955  1.00  0.00    -0.171 C  
HETATM   41  O   UNL     1      -8.889   5.624  65.897  1.00  0.00    -0.145 OA 
HETATM   42  C   UNL     1      -8.488   6.189  68.253  1.00  0.00    -0.113 C  
ENDBRANCH  31  33
ENDBRANCH  26  31
ENDBRANCH  22  24
ENDBRANCH   7  22
ENDBRANCH   2   3
TORSDOF 7
ENDMDL
MODEL       63
REMARK 921   NORMALIZED FREE ENERGY PREDICTED BY IDOCK:   -5.05 KCAL/MOL
REMARK 922        TOTAL FREE ENERGY PREDICTED BY IDOCK:   -8.42 KCAL/MOL
REMARK 923 INTER-LIGAND FREE ENERGY PREDICTED BY IDOCK:   -7.12 KCAL/MOL
REMARK 924 INTRA-LIGAND FREE ENERGY PREDICTED BY IDOCK:   -1.31 KCAL/MOL
REMARK 927      BINDING AFFINITY PREDICTED BY RF-SCORE:    0.00 PKD
ROOT
HETATM    1  C   UNL     1     -10.732   7.863  67.005  1.00  0.00    -0.219 C  
HETATM    2  O   UNL     1     -10.518   8.262  68.353  1.00  0.00    -0.207 OA 
ENDROOT
BRANCH   2   3
HETATM    3  C   UNL     1      -9.568   9.230  68.624  1.00  0.00    -0.147 A  
HETATM    4  C   UNL     1      -9.596  10.555  68.114  1.00  0.00    -0.163 A  
HETATM    5  C   UNL     1      -8.595  11.506  68.399  1.00  0.00    -0.159 A  
HETATM    6  C   UNL     1      -7.567  11.039  69.250  1.00  0.00    -0.090 A  
HETATM    7  C   UNL     1      -8.532   8.784  69.493  1.00  0.00    -0.128 A  
HETATM    8  C   UNL     1      -7.539   9.713  69.784  1.00  0.00    -0.123 A  
BRANCH   5   9
HETATM    9  N   UNL     1      -8.673  12.822  67.918  1.00  0.00    -0.176 NA 
HETATM   10  C   UNL     1      -7.692  13.798  68.431  1.00  0.00    -0.134 C  
HETATM   11  C   UNL     1      -7.425  14.852  67.354  1.00  0.00    -0.228 C  
HETATM   12  C   UNL     1      -8.687  15.628  66.907  1.00  0.00    -0.253 C  
HETATM   13  C   UNL     1      -9.764  14.572  66.544  1.00  0.00    -0.301 C  
HETATM   14  C   UNL     1      -9.965  13.480  67.618  1.00  0.00    -0.229 C  
BRANCH  12  15
HETATM   15  N   UNL     1      -9.250  16.655  67.830  1.00  0.00    -0.217 NA 
HETATM   16  C   UNL     1      -8.335  17.748  68.223  1.00  0.00    -0.276 C  
HETATM   17  C   UNL     1      -9.777  20.440  67.344  1.00  0.00    -0.457 C  
HETATM   18  C   UNL     1     -10.462  17.308  67.247  1.00  0.00    -0.319 C  
HETATM   19  C   UNL     1      -8.017  18.781  67.113  1.00  0.00    -0.245 C  
HETATM   20  C   UNL     1     -10.184  18.368  66.140  1.00  0.00    -0.389 C  
HETATM   21  N   UNL     1      -9.197  19.407  66.489  1.00  0.00    -0.340 NA 
ENDBRANCH  12  15
ENDBRANCH   5   9
BRANCH   7  22
HETATM   22  N   UNL     1      -8.623   7.458  70.006  1.00  0.00    -0.138 NA 
HETATM   23  H   UNL     1      -8.553   7.476  71.024  1.00  0.00     0.000 HD 
BRANCH  22  24
HETATM   24  C   UNL     1      -8.779   6.136  69.561  1.00  0.00    -0.130 A  
HETATM   25 CL   UNL     1      -9.115   1.990  67.964  1.00  0.00    -0.187 Cl 
HETATM   26  C   UNL     1      -8.272   4.603  67.794  1.00  0.00    -0.099 A  
HETATM   27  C   UNL     1      -9.523   3.978  69.725  1.00  0.00    -0.195 A  
HETATM   28  N   UNL     1      -9.442   5.214  70.268  1.00  0.00    -0.161 NA 
HETATM   29  C   UNL     1      -8.974   3.618  68.498  1.00  0.00    -0.128 A  
HETATM   30  N   UNL     1      -8.193   5.856  68.344  1.00  0.00    -0.108 NA 
BRANCH  26  31
HETATM   31  N   UNL     1      -7.704   4.284  66.432  1.00  0.00    -0.093 NA 
HETATM   32  H   UNL     1      -7.304   3.352  66.333  1.00  0.00     0.000 HD 
BRANCH  31  33
HETATM   33  C   UNL     1      -7.646   5.136  65.212  1.00  0.00    -0.082 A  
HETATM   34  C   UNL     1      -6.726   6.191  65.294  1.00  0.00    -0.047 A  
HETATM   35  C   UNL     1      -6.516   7.042  64.222  1.00  0.00    -0.039 A  
HETATM   36  C   UNL     1      -7.204   6.835  63.020  1.00  0.00    -0.064 A  
HETATM   37  C   UNL     1      -8.135   5.793  62.848  1.00  0.00    -0.110 A  
HETATM   38  C   UNL     1      -8.407   4.915  63.899  1.00  0.00    -0.127 A  
HETATM   39  P   UNL     1      -9.678   3.615  63.688  1.00  0.00    -0.177 P  
HETATM   40  C   UNL     1      -8.485   2.275  64.276  1.00  0.00    -0.083 C  
HETATM   41  O   UNL     1     -10.753   2.515  63.509  1.00  0.00    -0.204 OA 
HETATM   42  C   UNL     1     -10.645   4.339  65.150  1.00  0.00    -0.144 C  
ENDBRANCH  31  33
ENDBRANCH  26  31
ENDBRANCH  22  24
ENDBRANCH   7  22
ENDBRANCH   2   3
TORSDOF 7
ENDMDL
MODEL       64
REMARK 921   NORMALIZED FREE ENERGY PREDICTED BY IDOCK:   -5.04 KCAL/MOL
REMARK 922        TOTAL FREE ENERGY PREDICTED BY IDOCK:   -8.42 KCAL/MOL
REMARK 923 INTER-LIGAND FREE ENERGY PREDICTED BY IDOCK:   -8.29 KCAL/MOL
REMARK 924 INTRA-LIGAND FREE ENERGY PREDICTED BY IDOCK:   -0.12 KCAL/MOL
REMARK 927      BINDING AFFINITY PREDICTED BY RF-SCORE:    0.00 PKD
ROOT
HETATM    1  C   UNL     1     -11.178  11.896  67.806  1.00  0.00    -0.267 C  
HETATM    2  O   UNL     1      -9.758  11.962  67.773  1.00  0.00    -0.181 OA 
ENDROOT
BRANCH   2   3
HETATM    3  C   UNL     1      -9.029  11.203  68.671  1.00  0.00    -0.162 A  
HETATM    4  C   UNL     1      -9.585  10.238  69.552  1.00  0.00    -0.225 A  
HETATM    5  C   UNL     1      -8.808   9.500  70.467  1.00  0.00    -0.201 A  
HETATM    6  C   UNL     1      -7.423   9.787  70.427  1.00  0.00    -0.161 A  
HETATM    7  C   UNL     1      -7.630  11.465  68.635  1.00  0.00    -0.130 A  
HETATM    8  C   UNL     1      -6.851  10.743  69.531  1.00  0.00    -0.116 A  
BRANCH   5   9
HETATM    9  N   UNL     1      -9.378   8.520  71.293  1.00  0.00    -0.183 NA 
HETATM   10  C   UNL     1      -8.553   7.343  71.631  1.00  0.00    -0.116 C  
HETATM   11  C   UNL     1      -8.964   6.823  73.011  1.00  0.00    -0.142 C  
HETATM   12  C   UNL     1     -10.452   6.411  73.109  1.00  0.00    -0.243 C  
HETATM   13  C   UNL     1     -11.290   7.604  72.576  1.00  0.00    -0.409 C  
HETATM   14  C   UNL     1     -10.810   8.154  71.215  1.00  0.00    -0.237 C  
BRANCH  12  15
HETATM   15  N   UNL     1     -10.879   5.139  72.456  1.00  0.00    -0.228 NA 
HETATM   16  C   UNL     1      -9.821   4.383  71.752  1.00  0.00    -0.185 C  
HETATM   17  C   UNL     1      -9.779   1.504  73.097  1.00  0.00    -0.073 C  
HETATM   18  C   UNL     1     -11.488   4.195  73.444  1.00  0.00    -0.136 C  
HETATM   19  C   UNL     1      -8.786   3.680  72.666  1.00  0.00    -0.093 C  
HETATM   20  C   UNL     1     -10.478   3.453  74.369  1.00  0.00    -0.199 C  
HETATM   21  N   UNL     1      -9.363   2.778  73.680  1.00  0.00    -0.084 NA 
ENDBRANCH  12  15
ENDBRANCH   5   9
BRANCH   7  22
HETATM   22  N   UNL     1      -7.157  12.404  67.672  1.00  0.00    -0.119 NA 
HETATM   23  H   UNL     1      -7.145  11.974  66.747  1.00  0.00     0.000 HD 
BRANCH  22  24
HETATM   24  C   UNL     1      -6.703  13.729  67.590  1.00  0.00    -0.176 A  
HETATM   25 CL   UNL     1      -5.487  18.002  67.249  1.00  0.00    -0.136 Cl 
HETATM   26  C   UNL     1      -7.261  15.938  66.856  1.00  0.00    -0.138 A  
HETATM   27  C   UNL     1      -5.187  15.415  67.908  1.00  0.00    -0.113 A  
HETATM   28  N   UNL     1      -5.506  14.109  68.053  1.00  0.00    -0.150 NA 
HETATM   29  C   UNL     1      -6.010  16.367  67.313  1.00  0.00    -0.158 A  
HETATM   30  N   UNL     1      -7.582  14.614  67.001  1.00  0.00    -0.024 NA 
BRANCH  26  31
HETATM   31  N   UNL     1      -8.172  16.915  66.151  1.00  0.00    -0.441 NA 
HETATM   32  H   UNL     1      -8.318  16.738  65.158  1.00  0.00     0.000 HD 
BRANCH  31  33
HETATM   33  C   UNL     1      -8.886  18.102  66.698  1.00  0.00    -0.275 A  
HETATM   34  C   UNL     1      -8.355  19.332  66.285  1.00  0.00    -0.327 A  
HETATM   35  C   UNL     1      -8.939  20.528  66.667  1.00  0.00    -0.203 A  
HETATM   36  C   UNL     1     -10.100  20.521  67.450  1.00  0.00    -0.441 A  
HETATM   37  C   UNL     1     -10.707  19.330  67.897  1.00  0.00    -0.417 A  
HETATM   38  C   UNL     1     -10.152  18.093  67.565  1.00  0.00    -0.349 A  
HETATM   39  P   UNL     1     -10.904  16.558  68.219  1.00  0.00    -0.313 P  
HETATM   40  C   UNL     1     -10.986  15.796  66.494  1.00  0.00    -0.165 C  
HETATM   41  O   UNL     1     -11.541  15.260  68.773  1.00  0.00    -0.326 OA 
HETATM   42  C   UNL     1      -9.262  16.127  69.063  1.00  0.00    -0.252 C  
ENDBRANCH  31  33
ENDBRANCH  26  31
ENDBRANCH  22  24
ENDBRANCH   7  22
ENDBRANCH   2   3
TORSDOF 7
ENDMDL
MODEL       65
REMARK 921   NORMALIZED FREE ENERGY PREDICTED BY IDOCK:   -5.01 KCAL/MOL
REMARK 922        TOTAL FREE ENERGY PREDICTED BY IDOCK:   -8.37 KCAL/MOL
REMARK 923 INTER-LIGAND FREE ENERGY PREDICTED BY IDOCK:   -8.08 KCAL/MOL
REMARK 924 INTRA-LIGAND FREE ENERGY PREDICTED BY IDOCK:   -0.29 KCAL/MOL
REMARK 927      BINDING AFFINITY PREDICTED BY RF-SCORE:    0.00 PKD
ROOT
HETATM    1  C   UNL     1     -11.719  11.947  64.021  1.00  0.00    -0.378 C  
HETATM    2  O   UNL     1     -10.317  11.935  64.259  1.00  0.00    -0.279 OA 
ENDROOT
BRANCH   2   3
HETATM    3  C   UNL     1      -9.842  11.427  65.455  1.00  0.00    -0.236 A  
HETATM    4  C   UNL     1      -9.691  10.045  65.742  1.00  0.00    -0.321 A  
HETATM    5  C   UNL     1      -9.222   9.568  66.983  1.00  0.00    -0.139 A  
HETATM    6  C   UNL     1      -8.899  10.581  67.916  1.00  0.00    -0.133 A  
HETATM    7  C   UNL     1      -9.496  12.431  66.403  1.00  0.00    -0.240 A  
HETATM    8  C   UNL     1      -9.031  11.975  67.631  1.00  0.00    -0.172 A  
BRANCH   5   9
HETATM    9  N   UNL     1      -9.038   8.198  67.223  1.00  0.00    -0.136 NA 
HETATM   10  C   UNL     1     -10.222   7.405  67.607  1.00  0.00    -0.201 C  
HETATM   11  C   UNL     1     -10.044   5.967  67.112  1.00  0.00    -0.210 C  
HETATM   12  C   UNL     1      -8.788   5.260  67.676  1.00  0.00    -0.105 C  
HETATM   13  C   UNL     1      -7.583   6.202  67.416  1.00  0.00    -0.090 C  
HETATM   14  C   UNL     1      -7.815   7.663  67.862  1.00  0.00    -0.117 C  
BRANCH  12  15
HETATM   15  N   UNL     1      -8.806   4.812  69.099  1.00  0.00    -0.090 NA 
HETATM   16  C   UNL     1      -9.645   3.631  69.397  1.00  0.00    -0.126 C  
HETATM   17  C   UNL     1      -7.687   1.488  70.691  1.00  0.00    -0.035 C  
HETATM   18  C   UNL     1      -7.431   4.488  69.587  1.00  0.00    -0.051 C  
HETATM   19  C   UNL     1      -9.098   2.279  68.877  1.00  0.00    -0.135 C  
HETATM   20  C   UNL     1      -6.852   3.126  69.102  1.00  0.00    -0.041 C  
HETATM   21  N   UNL     1      -7.726   1.956  69.307  1.00  0.00    -0.042 NA 
ENDBRANCH  12  15
ENDBRANCH   5   9
BRANCH   7  22
HETATM   22  N   UNL     1      -9.621  13.792  66.001  1.00  0.00    -0.468 NA 
HETATM   23  H   UNL     1      -9.748  13.845  64.990  1.00  0.00     0.000 HD 
BRANCH  22  24
HETATM   24  C   UNL     1      -9.626  15.084  66.550  1.00  0.00    -0.277 A  
HETATM   25 CL   UNL     1      -9.413  19.218  68.201  1.00  0.00    -0.386 Cl 
HETATM   26  C   UNL     1      -8.288  17.021  66.987  1.00  0.00    -0.203 A  
HETATM   27  C   UNL     1     -10.591  16.882  67.589  1.00  0.00    -0.325 A  
HETATM   28  N   UNL     1     -10.721  15.631  67.091  1.00  0.00    -0.313 NA 
HETATM   29  C   UNL     1      -9.409  17.616  67.577  1.00  0.00    -0.248 A  
HETATM   30  N   UNL     1      -8.421  15.752  66.486  1.00  0.00    -0.290 NA 
BRANCH  26  31
HETATM   31  N   UNL     1      -6.965  17.749  66.997  1.00  0.00    -0.170 NA 
HETATM   32  H   UNL     1      -6.262  17.387  66.353  1.00  0.00     0.000 HD 
BRANCH  31  33
HETATM   33  C   UNL     1      -6.540  18.920  67.812  1.00  0.00    -0.209 A  
HETATM   34  C   UNL     1      -6.498  18.673  69.191  1.00  0.00    -0.287 A  
HETATM   35  C   UNL     1      -6.072  19.646  70.080  1.00  0.00    -0.316 A  
HETATM   36  C   UNL     1      -5.642  20.890  69.602  1.00  0.00    -0.345 A  
HETATM   37  C   UNL     1      -5.640  21.217  68.232  1.00  0.00    -0.365 A  
HETATM   38  C   UNL     1      -6.079  20.286  67.288  1.00  0.00    -0.186 A  
HETATM   39  P   UNL     1      -6.146  20.752  65.519  1.00  0.00    -0.216 P  
HETATM   40  C   UNL     1      -5.168  19.217  65.020  1.00  0.00    -0.162 C  
HETATM   41  O   UNL     1      -6.202  21.147  64.023  1.00  0.00    -0.314 OA 
HETATM   42  C   UNL     1      -8.008  20.393  65.508  1.00  0.00     0.283 C  
ENDBRANCH  31  33
ENDBRANCH  26  31
ENDBRANCH  22  24
ENDBRANCH   7  22
ENDBRANCH   2   3
TORSDOF 7
ENDMDL
MODEL       66
REMARK 921   NORMALIZED FREE ENERGY PREDICTED BY IDOCK:   -4.94 KCAL/MOL
REMARK 922        TOTAL FREE ENERGY PREDICTED BY IDOCK:   -8.27 KCAL/MOL
REMARK 923 INTER-LIGAND FREE ENERGY PREDICTED BY IDOCK:   -7.86 KCAL/MOL
REMARK 924 INTRA-LIGAND FREE ENERGY PREDICTED BY IDOCK:   -0.41 KCAL/MOL
REMARK 927      BINDING AFFINITY PREDICTED BY RF-SCORE:    0.00 PKD
ROOT
HETATM    1  C   UNL     1     -13.404   9.977  71.852  1.00  0.00    -0.415 C  
HETATM    2  O   UNL     1     -12.111   9.591  71.402  1.00  0.00    -0.326 OA 
ENDROOT
BRANCH   2   3
HETATM    3  C   UNL     1     -11.615  10.140  70.234  1.00  0.00    -0.302 A  
HETATM    4  C   UNL     1     -11.427  11.530  70.010  1.00  0.00    -0.304 A  
HETATM    5  C   UNL     1     -10.936  12.050  68.795  1.00  0.00    -0.239 A  
HETATM    6  C   UNL     1     -10.631  11.073  67.819  1.00  0.00    -0.250 A  
HETATM    7  C   UNL     1     -11.286   9.172  69.243  1.00  0.00     0.132 A  
HETATM    8  C   UNL     1     -10.799   9.671  68.041  1.00  0.00    -0.250 A  
BRANCH   5   9
HETATM    9  N   UNL     1     -10.717  13.425  68.619  1.00  0.00    -0.253 NA 
HETATM   10  C   UNL     1     -11.697  14.177  67.811  1.00  0.00    -0.373 C  
HETATM   11  C   UNL     1     -11.757  15.622  68.314  1.00  0.00    -0.253 C  
HETATM   12  C   UNL     1     -10.403  16.367  68.245  1.00  0.00    -0.279 C  
HETATM   13  C   UNL     1      -9.352  15.467  68.947  1.00  0.00    -0.218 C  
HETATM   14  C   UNL     1      -9.360  13.998  68.471  1.00  0.00    -0.182 C  
BRANCH  12  15
HETATM   15  N   UNL     1      -9.905  16.809  66.910  1.00  0.00    -0.257 NA 
HETATM   16  C   UNL     1     -10.516  18.040  66.363  1.00  0.00    -0.339 C  
HETATM   17  C   UNL     1      -8.104  20.047  65.854  1.00  0.00    -0.203 C  
HETATM   18  C   UNL     1      -8.428  17.041  66.927  1.00  0.00    -0.216 C  
HETATM   19  C   UNL     1     -10.097  19.357  67.063  1.00  0.00    -0.387 C  
HETATM   20  C   UNL     1      -7.967  18.366  67.605  1.00  0.00    -0.242 C  
HETATM   21  N   UNL     1      -8.643  19.589  67.134  1.00  0.00    -0.287 NA 
ENDBRANCH  12  15
ENDBRANCH   5   9
BRANCH   7  22
HETATM   22  N   UNL     1     -11.448   7.797  69.582  1.00  0.00    -0.421 NA 
HETATM   23  H   UNL     1     -12.370   7.648  69.992  1.00  0.00     0.000 HD 
BRANCH  22  24
HETATM   24  C   UNL     1     -10.745   6.583  69.534  1.00  0.00    -0.270 A  
HETATM   25 CL   UNL     1      -8.453   2.782  69.146  1.00  0.00    -0.088 Cl 
HETATM   26  C   UNL     1      -9.570   5.068  68.101  1.00  0.00    -0.138 A  
HETATM   27  C   UNL     1      -9.855   4.676  70.436  1.00  0.00    -0.236 A  
HETATM   28  N   UNL     1     -10.544   5.826  70.619  1.00  0.00    -0.261 NA 
HETATM   29  C   UNL     1      -9.357   4.242  69.211  1.00  0.00    -0.162 A  
HETATM   30  N   UNL     1     -10.272   6.230  68.288  1.00  0.00    -0.153 NA 
BRANCH  26  31
HETATM   31  N   UNL     1      -9.103   4.618  66.737  1.00  0.00    -0.116 NA 
HETATM   32  H   UNL     1      -9.820   4.600  66.013  1.00  0.00     0.000 HD 
BRANCH  31  33
HETATM   33  C   UNL     1      -7.743   4.198  66.298  1.00  0.00    -0.090 A  
HETATM   34  C   UNL     1      -7.591   2.812  66.155  1.00  0.00    -0.076 A  
HETATM   35  C   UNL     1      -6.401   2.265  65.703  1.00  0.00    -0.024 A  
HETATM   36  C   UNL     1      -5.337   3.104  65.349  1.00  0.00    -0.009 A  
HETATM   37  C   UNL     1      -5.410   4.507  65.450  1.00  0.00    -0.013 A  
HETATM   38  C   UNL     1      -6.575   5.117  65.920  1.00  0.00    -0.048 A  
HETATM   39  P   UNL     1      -6.627   6.935  66.122  1.00  0.00    -0.054 P  
HETATM   40  C   UNL     1      -8.227   7.055  65.128  1.00  0.00    -0.113 C  
HETATM   41  O   UNL     1      -6.672   8.473  66.293  1.00  0.00    -0.067 OA 
HETATM   42  C   UNL     1      -7.001   6.707  67.967  1.00  0.00    -0.080 C  
ENDBRANCH  31  33
ENDBRANCH  26  31
ENDBRANCH  22  24
ENDBRANCH   7  22
ENDBRANCH   2   3
TORSDOF 7
ENDMDL
MODEL       67
REMARK 921   NORMALIZED FREE ENERGY PREDICTED BY IDOCK:   -4.88 KCAL/MOL
REMARK 922        TOTAL FREE ENERGY PREDICTED BY IDOCK:   -8.19 KCAL/MOL
REMARK 923 INTER-LIGAND FREE ENERGY PREDICTED BY IDOCK:   -7.46 KCAL/MOL
REMARK 924 INTRA-LIGAND FREE ENERGY PREDICTED BY IDOCK:   -0.73 KCAL/MOL
REMARK 927      BINDING AFFINITY PREDICTED BY RF-SCORE:    0.00 PKD
ROOT
HETATM    1  C   UNL     1      -7.486   9.824  70.252  1.00  0.00    -0.164 C  
HETATM    2  O   UNL     1      -8.512   9.526  69.314  1.00  0.00    -0.123 OA 
ENDROOT
BRANCH   2   3
HETATM    3  C   UNL     1      -9.558  10.417  69.156  1.00  0.00    -0.213 A  
HETATM    4  C   UNL     1      -9.406  11.813  68.943  1.00  0.00     0.076 A  
HETATM    5  C   UNL     1     -10.501  12.690  68.808  1.00  0.00    -0.143 A  
HETATM    6  C   UNL     1     -11.767  12.064  68.886  1.00  0.00    -0.383 A  
HETATM    7  C   UNL     1     -10.842   9.804  69.215  1.00  0.00    -0.216 A  
HETATM    8  C   UNL     1     -11.931  10.658  69.082  1.00  0.00    -0.230 A  
BRANCH   5   9
HETATM    9  N   UNL     1     -10.320  14.057  68.553  1.00  0.00    -0.243 NA 
HETATM   10  C   UNL     1     -11.184  14.685  67.534  1.00  0.00    -0.333 C  
HETATM   11  C   UNL     1     -11.395  16.158  67.894  1.00  0.00    -0.182 C  
HETATM   12  C   UNL     1     -10.085  16.976  67.982  1.00  0.00    -0.305 C  
HETATM   13  C   UNL     1      -9.126  16.197  68.921  1.00  0.00    -0.246 C  
HETATM   14  C   UNL     1      -8.986  14.698  68.578  1.00  0.00    -0.184 C  
BRANCH  12  15
HETATM   15  N   UNL     1      -9.392  17.343  66.713  1.00  0.00    -0.259 NA 
HETATM   16  C   UNL     1      -9.820  18.609  66.081  1.00  0.00    -0.287 C  
HETATM   17  C   UNL     1      -7.196  20.387  65.848  1.00  0.00    -0.177 C  
HETATM   18  C   UNL     1      -7.913  17.446  66.908  1.00  0.00    -0.227 C  
HETATM   19  C   UNL     1      -9.374  19.901  66.811  1.00  0.00    -0.384 C  
HETATM   20  C   UNL     1      -7.422  18.740  67.622  1.00  0.00    -0.229 C  
HETATM   21  N   UNL     1      -7.924  20.007  67.057  1.00  0.00    -0.302 NA 
ENDBRANCH  12  15
ENDBRANCH   5   9
BRANCH   7  22
HETATM   22  N   UNL     1     -10.894   8.389  69.367  1.00  0.00    -0.397 NA 
HETATM   23  H   UNL     1     -11.314   8.152  70.266  1.00  0.00     0.000 HD 
BRANCH  22  24
HETATM   24  C   UNL     1     -10.552   7.216  68.676  1.00  0.00    -0.189 A  
HETATM   25 CL   UNL     1      -9.351   3.632  66.316  1.00  0.00    -0.181 Cl 
HETATM   26  C   UNL     1      -9.595   6.350  66.660  1.00  0.00    -0.157 A  
HETATM   27  C   UNL     1     -10.393   4.947  68.415  1.00  0.00     0.037 A  
HETATM   28  N   UNL     1     -10.764   5.996  69.184  1.00  0.00    -0.296 NA 
HETATM   29  C   UNL     1      -9.820   5.059  67.152  1.00  0.00    -0.182 A  
HETATM   30  N   UNL     1      -9.975   7.411  67.439  1.00  0.00    -0.166 NA 
BRANCH  26  31
HETATM   31  N   UNL     1      -9.029   6.531  65.272  1.00  0.00    -0.362 NA 
HETATM   32  H   UNL     1      -9.264   5.797  64.605  1.00  0.00     0.000 HD 
BRANCH  31  33
HETATM   33  C   UNL     1      -8.176   7.628  64.738  1.00  0.00    -0.078 A  
HETATM   34  C   UNL     1      -8.674   8.914  64.987  1.00  0.00    -0.200 A  
HETATM   35  C   UNL     1      -7.970  10.042  64.599  1.00  0.00    -0.145 A  
HETATM   36  C   UNL     1      -6.723   9.909  63.977  1.00  0.00    -0.126 A  
HETATM   37  C   UNL     1      -6.143   8.655  63.701  1.00  0.00    -0.073 A  
HETATM   38  C   UNL     1      -6.814   7.480  64.047  1.00  0.00    -0.056 A  
HETATM   39  P   UNL     1      -6.086   5.859  63.610  1.00  0.00    -0.026 P  
HETATM   40  C   UNL     1      -6.272   5.236  65.382  1.00  0.00    -0.034 C  
HETATM   41  O   UNL     1      -5.470   4.488  63.241  1.00  0.00    -0.009 OA 
HETATM   42  C   UNL     1      -7.633   5.452  62.592  1.00  0.00    -0.064 C  
ENDBRANCH  31  33
ENDBRANCH  26  31
ENDBRANCH  22  24
ENDBRANCH   7  22
ENDBRANCH   2   3
TORSDOF 7
ENDMDL
MODEL       68
REMARK 921   NORMALIZED FREE ENERGY PREDICTED BY IDOCK:   -4.83 KCAL/MOL
REMARK 922        TOTAL FREE ENERGY PREDICTED BY IDOCK:   -8.11 KCAL/MOL
REMARK 923 INTER-LIGAND FREE ENERGY PREDICTED BY IDOCK:   -7.01 KCAL/MOL
REMARK 924 INTRA-LIGAND FREE ENERGY PREDICTED BY IDOCK:   -1.10 KCAL/MOL
REMARK 927      BINDING AFFINITY PREDICTED BY RF-SCORE:    0.00 PKD
ROOT
HETATM    1  C   UNL     1      -9.305  10.536  66.669  1.00  0.00    -0.161 C  
HETATM    2  O   UNL     1      -7.903  10.410  66.870  1.00  0.00    -0.110 OA 
ENDROOT
BRANCH   2   3
HETATM    3  C   UNL     1      -7.433  10.061  68.123  1.00  0.00    -0.083 A  
HETATM    4  C   UNL     1      -7.835   8.906  68.844  1.00  0.00    -0.096 A  
HETATM    5  C   UNL     1      -7.345   8.596  70.130  1.00  0.00    -0.053 A  
HETATM    6  C   UNL     1      -6.406   9.524  70.638  1.00  0.00    -0.086 A  
HETATM    7  C   UNL     1      -6.474  10.974  68.647  1.00  0.00    -0.052 A  
HETATM    8  C   UNL     1      -5.981  10.681  69.913  1.00  0.00    -0.076 A  
BRANCH   5   9
HETATM    9  N   UNL     1      -7.725   7.424  70.799  1.00  0.00    -0.087 NA 
HETATM   10  C   UNL     1      -7.608   6.148  70.066  1.00  0.00    -0.095 C  
HETATM   11  C   UNL     1      -7.330   5.021  71.064  1.00  0.00    -0.072 C  
HETATM   12  C   UNL     1      -8.425   4.855  72.145  1.00  0.00    -0.124 C  
HETATM   13  C   UNL     1      -8.655   6.255  72.775  1.00  0.00    -0.122 C  
HETATM   14  C   UNL     1      -8.863   7.385  71.745  1.00  0.00    -0.115 C  
BRANCH  12  15
HETATM   15  N   UNL     1      -9.724   4.239  71.748  1.00  0.00    -0.161 NA 
HETATM   16  C   UNL     1      -9.704   2.781  71.506  1.00  0.00    -0.155 C  
HETATM   17  C   UNL     1     -11.856   1.548  73.493  1.00  0.00    -0.202 C  
HETATM   18  C   UNL     1     -10.781   4.483  72.777  1.00  0.00    -0.186 C  
HETATM   19  C   UNL     1      -9.562   1.898  72.772  1.00  0.00    -0.086 C  
HETATM   20  C   UNL     1     -10.685   3.602  74.057  1.00  0.00    -0.210 C  
HETATM   21  N   UNL     1     -10.566   2.151  73.822  1.00  0.00    -0.125 NA 
ENDBRANCH  12  15
ENDBRANCH   5   9
BRANCH   7  22
HETATM   22  N   UNL     1      -6.084  12.069  67.823  1.00  0.00    -0.070 NA 
HETATM   23  H   UNL     1      -5.473  11.740  67.075  1.00  0.00     0.000 HD 
BRANCH  22  24
HETATM   24  C   UNL     1      -6.272  13.456  67.711  1.00  0.00    -0.157 A  
HETATM   25 CL   UNL     1      -7.107  17.822  67.404  1.00  0.00    -0.195 Cl 
HETATM   26  C   UNL     1      -7.908  15.201  67.637  1.00  0.00    -0.160 A  
HETATM   27  C   UNL     1      -5.567  15.623  67.487  1.00  0.00    -0.041 A  
HETATM   28  N   UNL     1      -5.250  14.311  67.591  1.00  0.00    -0.330 NA 
HETATM   29  C   UNL     1      -6.865  16.123  67.491  1.00  0.00    -0.165 A  
HETATM   30  N   UNL     1      -7.586  13.873  67.739  1.00  0.00    -0.152 NA 
BRANCH  26  31
HETATM   31  N   UNL     1      -9.339  15.682  67.591  1.00  0.00    -0.205 NA 
HETATM   32  H   UNL     1      -9.583  16.395  68.278  1.00  0.00     0.000 HD 
BRANCH  31  33
HETATM   33  C   UNL     1     -10.445  15.264  66.686  1.00  0.00    -0.290 A  
HETATM   34  C   UNL     1     -10.294  15.693  65.360  1.00  0.00    -0.421 A  
HETATM   35  C   UNL     1     -11.212  15.341  64.385  1.00  0.00    -0.191 A  
HETATM   36  C   UNL     1     -12.296  14.517  64.710  1.00  0.00    -0.403 A  
HETATM   37  C   UNL     1     -12.516  14.032  66.014  1.00  0.00    -0.489 A  
HETATM   38  C   UNL     1     -11.638  14.370  67.046  1.00  0.00    -0.384 A  
HETATM   39  P   UNL     1     -11.981  13.798  68.750  1.00  0.00    -0.235 P  
HETATM   40  C   UNL     1     -10.239  13.093  68.924  1.00  0.00    -0.005 C  
HETATM   41  O   UNL     1     -12.271  13.314  70.192  1.00  0.00    -0.334 OA 
HETATM   42  C   UNL     1     -12.033  15.602  69.332  1.00  0.00    -0.331 C  
ENDBRANCH  31  33
ENDBRANCH  26  31
ENDBRANCH  22  24
ENDBRANCH   7  22
ENDBRANCH   2   3
TORSDOF 7
ENDMDL
MODEL       69
REMARK 921   NORMALIZED FREE ENERGY PREDICTED BY IDOCK:   -4.81 KCAL/MOL
REMARK 922        TOTAL FREE ENERGY PREDICTED BY IDOCK:   -8.08 KCAL/MOL
REMARK 923 INTER-LIGAND FREE ENERGY PREDICTED BY IDOCK:   -7.58 KCAL/MOL
REMARK 924 INTRA-LIGAND FREE ENERGY PREDICTED BY IDOCK:   -0.50 KCAL/MOL
REMARK 927      BINDING AFFINITY PREDICTED BY RF-SCORE:    0.00 PKD
ROOT
HETATM    1  C   UNL     1     -10.312  11.590  67.166  1.00  0.00    -0.216 C  
HETATM    2  O   UNL     1      -9.625  11.088  68.306  1.00  0.00    -0.158 OA 
ENDROOT
BRANCH   2   3
HETATM    3  C   UNL     1      -8.574  10.209  68.123  1.00  0.00    -0.118 A  
HETATM    4  C   UNL     1      -8.689   8.923  67.532  1.00  0.00    -0.124 A  
HETATM    5  C   UNL     1      -7.594   8.047  67.383  1.00  0.00    -0.097 A  
HETATM    6  C   UNL     1      -6.364   8.561  67.858  1.00  0.00    -0.057 A  
HETATM    7  C   UNL     1      -7.323  10.712  68.581  1.00  0.00    -0.094 A  
HETATM    8  C   UNL     1      -6.234   9.860  68.439  1.00  0.00    -0.050 A  
BRANCH   5   9
HETATM    9  N   UNL     1      -7.729   6.802  66.752  1.00  0.00    -0.104 NA 
HETATM   10  C   UNL     1      -8.519   6.746  65.507  1.00  0.00    -0.119 C  
HETATM   11  C   UNL     1      -7.975   5.625  64.618  1.00  0.00    -0.120 C  
HETATM   12  C   UNL     1      -8.017   4.225  65.277  1.00  0.00    -0.100 C  
HETATM   13  C   UNL     1      -7.337   4.357  66.665  1.00  0.00    -0.081 C  
HETATM   14  C   UNL     1      -7.856   5.538  67.514  1.00  0.00    -0.101 C  
BRANCH  12  15
HETATM   15  N   UNL     1      -9.337   3.541  65.403  1.00  0.00    -0.154 NA 
HETATM   16  C   UNL     1     -10.409   4.028  64.508  1.00  0.00    -0.206 C  
HETATM   17  C   UNL     1     -11.352   1.496  62.835  1.00  0.00    -0.264 C  
HETATM   18  C   UNL     1      -9.216   2.071  65.158  1.00  0.00    -0.083 C  
HETATM   19  C   UNL     1     -10.249   3.654  63.013  1.00  0.00    -0.183 C  
HETATM   20  C   UNL     1      -9.073   1.652  63.664  1.00  0.00    -0.092 C  
HETATM   21  N   UNL     1     -10.082   2.213  62.747  1.00  0.00    -0.097 NA 
ENDBRANCH  12  15
ENDBRANCH   5   9
BRANCH   7  22
HETATM   22  N   UNL     1      -7.294  12.038  69.101  1.00  0.00    -0.308 NA 
HETATM   23  H   UNL     1      -7.783  12.070  69.996  1.00  0.00     0.000 HD 
BRANCH  22  24
HETATM   24  C   UNL     1      -6.808  13.315  68.777  1.00  0.00    -0.102 A  
HETATM   25 CL   UNL     1      -5.484  17.415  67.640  1.00  0.00    -0.130 Cl 
HETATM   26  C   UNL     1      -7.255  15.313  67.536  1.00  0.00    -0.197 A  
HETATM   27  C   UNL     1      -5.295  15.031  68.865  1.00  0.00    -0.095 A  
HETATM   28  N   UNL     1      -5.652  13.787  69.258  1.00  0.00    -0.078 NA 
HETATM   29  C   UNL     1      -6.042  15.831  68.005  1.00  0.00    -0.137 A  
HETATM   30  N   UNL     1      -7.612  14.050  67.932  1.00  0.00    -0.137 NA 
BRANCH  26  31
HETATM   31  N   UNL     1      -8.078  16.113  66.555  1.00  0.00    -0.294 NA 
HETATM   32  H   UNL     1      -8.163  15.708  65.624  1.00  0.00     0.000 HD 
BRANCH  31  33
HETATM   33  C   UNL     1      -8.782  17.410  66.754  1.00  0.00    -0.255 A  
HETATM   34  C   UNL     1      -8.105  18.517  66.223  1.00  0.00    -0.259 A  
HETATM   35  C   UNL     1      -8.655  19.787  66.280  1.00  0.00    -0.397 A  
HETATM   36  C   UNL     1      -9.922  19.975  66.846  1.00  0.00    -0.584 A  
HETATM   37  C   UNL     1     -10.676  18.917  67.390  1.00  0.00    -0.519 A  
HETATM   38  C   UNL     1     -10.166  17.617  67.383  1.00  0.00    -0.345 A  
HETATM   39  P   UNL     1     -11.120  16.265  68.165  1.00  0.00    -0.228 P  
HETATM   40  C   UNL     1     -10.984  15.197  66.615  1.00  0.00    -0.318 C  
HETATM   41  O   UNL     1     -11.928  15.122  68.826  1.00  0.00    -0.314 OA 
HETATM   42  C   UNL     1      -9.667  15.933  69.336  1.00  0.00    -0.268 C  
ENDBRANCH  31  33
ENDBRANCH  26  31
ENDBRANCH  22  24
ENDBRANCH   7  22
ENDBRANCH   2   3
TORSDOF 7
ENDMDL
MODEL       70
REMARK 921   NORMALIZED FREE ENERGY PREDICTED BY IDOCK:   -4.76 KCAL/MOL
REMARK 922        TOTAL FREE ENERGY PREDICTED BY IDOCK:   -8.03 KCAL/MOL
REMARK 923 INTER-LIGAND FREE ENERGY PREDICTED BY IDOCK:   -6.79 KCAL/MOL
REMARK 924 INTRA-LIGAND FREE ENERGY PREDICTED BY IDOCK:   -1.23 KCAL/MOL
REMARK 927      BINDING AFFINITY PREDICTED BY RF-SCORE:    0.00 PKD
ROOT
HETATM    1  C   UNL     1      -5.154  13.261  72.035  1.00  0.00    -0.124 C  
HETATM    2  O   UNL     1      -6.146  13.447  71.033  1.00  0.00    -0.180 OA 
ENDROOT
BRANCH   2   3
HETATM    3  C   UNL     1      -6.132  12.635  69.914  1.00  0.00    -0.125 A  
HETATM    4  C   UNL     1      -6.243  11.219  69.942  1.00  0.00    -0.137 A  
HETATM    5  C   UNL     1      -6.203  10.425  68.778  1.00  0.00    -0.047 A  
HETATM    6  C   UNL     1      -6.060  11.154  67.575  1.00  0.00    -0.052 A  
HETATM    7  C   UNL     1      -6.004  13.351  68.690  1.00  0.00    -0.084 A  
HETATM    8  C   UNL     1      -5.966  12.581  67.534  1.00  0.00    -0.152 A  
BRANCH   5   9
HETATM    9  N   UNL     1      -6.361   9.032  68.833  1.00  0.00    -0.044 NA 
HETATM   10  C   UNL     1      -5.649   8.303  69.900  1.00  0.00    -0.025 C  
HETATM   11  C   UNL     1      -6.454   7.056  70.278  1.00  0.00    -0.043 C  
HETATM   12  C   UNL     1      -6.687   6.079  69.101  1.00  0.00    -0.060 C  
HETATM   13  C   UNL     1      -7.270   6.912  67.929  1.00  0.00    -0.095 C  
HETATM   14  C   UNL     1      -6.479   8.200  67.614  1.00  0.00    -0.057 C  
BRANCH  12  15
HETATM   15  N   UNL     1      -5.540   5.247  68.633  1.00  0.00    -0.014 NA 
HETATM   16  C   UNL     1      -5.143   4.131  69.519  1.00  0.00     0.000 C  
HETATM   17  C   UNL     1      -5.360   1.504  67.743  1.00  0.00    -0.013 C  
HETATM   18  C   UNL     1      -5.812   4.647  67.291  1.00  0.00    -0.022 C  
HETATM   19  C   UNL     1      -6.123   2.932  69.555  1.00  0.00    -0.024 C  
HETATM   20  C   UNL     1      -6.778   3.426  67.288  1.00  0.00    -0.045 C  
HETATM   21  N   UNL     1      -6.444   2.349  68.240  1.00  0.00    -0.029 NA 
ENDBRANCH  12  15
ENDBRANCH   5   9
BRANCH   7  22
HETATM   22  N   UNL     1      -5.965  14.774  68.757  1.00  0.00    -0.082 NA 
HETATM   23  H   UNL     1      -5.002  15.088  68.878  1.00  0.00     0.000 HD 
BRANCH  22  24
HETATM   24  C   UNL     1      -6.826  15.881  68.711  1.00  0.00    -0.128 A  
HETATM   25 CL   UNL     1      -9.746  19.246  68.629  1.00  0.00    -0.466 Cl 
HETATM   26  C   UNL     1      -9.115  16.576  68.819  1.00  0.00    -0.256 A  
HETATM   27  C   UNL     1      -7.314  18.110  68.519  1.00  0.00    -0.278 A  
HETATM   28  N   UNL     1      -6.380  17.132  68.551  1.00  0.00    -0.152 NA 
HETATM   29  C   UNL     1      -8.684  17.895  68.635  1.00  0.00    -0.264 A  
HETATM   30  N   UNL     1      -8.167  15.586  68.847  1.00  0.00    -0.183 NA 
BRANCH  26  31
HETATM   31  N   UNL     1     -10.593  16.278  68.893  1.00  0.00    -0.263 NA 
HETATM   32  H   UNL     1     -11.150  16.634  68.116  1.00  0.00     0.000 HD 
BRANCH  31  33
HETATM   33  C   UNL     1     -11.355  15.539  69.937  1.00  0.00    -0.314 A  
HETATM   34  C   UNL     1     -11.592  16.278  71.104  1.00  0.00    -0.376 A  
HETATM   35  C   UNL     1     -12.332  15.749  72.149  1.00  0.00    -0.539 A  
HETATM   36  C   UNL     1     -12.885  14.468  72.035  1.00  0.00    -0.409 A  
HETATM   37  C   UNL     1     -12.707  13.663  70.893  1.00  0.00    -0.382 A  
HETATM   38  C   UNL     1     -11.951  14.131  69.816  1.00  0.00    -0.339 A  
HETATM   39  P   UNL     1     -11.660  13.043  68.373  1.00  0.00    -0.369 P  
HETATM   40  C   UNL     1     -12.249  14.379  67.176  1.00  0.00    -0.222 C  
HETATM   41  O   UNL     1     -11.414  12.123  67.152  1.00  0.00    -0.313 OA 
HETATM   42  C   UNL     1      -9.791  13.180  68.662  1.00  0.00    -0.083 C  
ENDBRANCH  31  33
ENDBRANCH  26  31
ENDBRANCH  22  24
ENDBRANCH   7  22
ENDBRANCH   2   3
TORSDOF 7
ENDMDL
MODEL       71
REMARK 921   NORMALIZED FREE ENERGY PREDICTED BY IDOCK:   -4.76 KCAL/MOL
REMARK 922        TOTAL FREE ENERGY PREDICTED BY IDOCK:   -8.01 KCAL/MOL
REMARK 923 INTER-LIGAND FREE ENERGY PREDICTED BY IDOCK:   -8.74 KCAL/MOL
REMARK 924 INTRA-LIGAND FREE ENERGY PREDICTED BY IDOCK:    0.73 KCAL/MOL
REMARK 927      BINDING AFFINITY PREDICTED BY RF-SCORE:    0.00 PKD
ROOT
HETATM    1  C   UNL     1      -5.861   8.748  66.413  1.00  0.00    -0.051 C  
HETATM    2  O   UNL     1      -6.990   8.557  65.570  1.00  0.00    -0.072 OA 
ENDROOT
BRANCH   2   3
HETATM    3  C   UNL     1      -8.174   9.203  65.875  1.00  0.00    -0.113 A  
HETATM    4  C   UNL     1      -8.334  10.613  65.932  1.00  0.00    -0.161 A  
HETATM    5  C   UNL     1      -9.555  11.232  66.269  1.00  0.00    -0.209 A  
HETATM    6  C   UNL     1     -10.616  10.333  66.530  1.00  0.00    -0.202 A  
HETATM    7  C   UNL     1      -9.259   8.316  66.127  1.00  0.00    -0.192 A  
HETATM    8  C   UNL     1     -10.470   8.912  66.458  1.00  0.00    -0.175 A  
BRANCH   5   9
HETATM    9  N   UNL     1      -9.696  12.627  66.272  1.00  0.00    -0.257 NA 
HETATM   10  C   UNL     1      -9.226  13.361  67.463  1.00  0.00    -0.219 C  
HETATM   11  C   UNL     1      -8.764  14.758  67.042  1.00  0.00    -0.258 C  
HETATM   12  C   UNL     1      -9.865  15.604  66.359  1.00  0.00    -0.274 C  
HETATM   13  C   UNL     1     -10.465  14.736  65.222  1.00  0.00    -0.427 C  
HETATM   14  C   UNL     1     -10.859  13.308  65.659  1.00  0.00    -0.279 C  
BRANCH  12  15
HETATM   15  N   UNL     1     -10.949  16.175  67.211  1.00  0.00    -0.237 NA 
HETATM   16  C   UNL     1     -11.775  15.198  67.953  1.00  0.00    -0.256 C  
HETATM   17  C   UNL     1     -11.502  15.990  71.018  1.00  0.00    -0.417 C  
HETATM   18  C   UNL     1     -10.402  17.125  68.228  1.00  0.00    -0.354 C  
HETATM   19  C   UNL     1     -11.072  14.503  69.145  1.00  0.00    -0.263 C  
HETATM   20  C   UNL     1      -9.704  16.464  69.453  1.00  0.00    -0.157 C  
HETATM   21  N   UNL     1     -10.483  15.418  70.140  1.00  0.00    -0.296 NA 
ENDBRANCH  12  15
ENDBRANCH   5   9
BRANCH   7  22
HETATM   22  N   UNL     1      -9.019   6.919  65.982  1.00  0.00    -0.265 NA 
HETATM   23  H   UNL     1      -8.699   6.719  65.034  1.00  0.00     0.000 HD 
BRANCH  22  24
HETATM   24  C   UNL     1      -9.082   5.730  66.726  1.00  0.00    -0.126 A  
HETATM   25 CL   UNL     1      -9.364   2.089  69.278  1.00  0.00    -0.188 Cl 
HETATM   26  C   UNL     1      -9.443   4.813  68.907  1.00  0.00    -0.146 A  
HETATM   27  C   UNL     1      -8.979   3.459  67.000  1.00  0.00    -0.156 A  
HETATM   28  N   UNL     1      -8.896   4.526  66.172  1.00  0.00    -0.116 NA 
HETATM   29  C   UNL     1      -9.235   3.539  68.365  1.00  0.00    -0.168 A  
HETATM   30  N   UNL     1      -9.355   5.893  68.068  1.00  0.00    -0.111 NA 
BRANCH  26  31
HETATM   31  N   UNL     1      -9.668   4.963  70.393  1.00  0.00    -0.195 NA 
HETATM   32  H   UNL     1      -9.326   4.193  70.967  1.00  0.00     0.000 HD 
BRANCH  31  33
HETATM   33  C   UNL     1     -10.317   6.075  71.140  1.00  0.00    -0.214 A  
HETATM   34  C   UNL     1     -11.573   6.445  70.639  1.00  0.00    -0.412 A  
HETATM   35  C   UNL     1     -12.329   7.429  71.256  1.00  0.00    -0.380 A  
HETATM   36  C   UNL     1     -11.855   8.048  72.419  1.00  0.00    -0.429 A  
HETATM   37  C   UNL     1     -10.610   7.727  72.996  1.00  0.00    -0.441 A  
HETATM   38  C   UNL     1      -9.792   6.760  72.408  1.00  0.00    -0.158 A  
HETATM   39  P   UNL     1      -8.144   6.411  73.123  1.00  0.00    -0.107 P  
HETATM   40  C   UNL     1      -8.499   4.558  73.179  1.00  0.00    -0.099 C  
HETATM   41  O   UNL     1      -6.750   6.116  73.728  1.00  0.00    -0.077 OA 
HETATM   42  C   UNL     1      -7.341   6.890  71.473  1.00  0.00    -0.081 C  
ENDBRANCH  31  33
ENDBRANCH  26  31
ENDBRANCH  22  24
ENDBRANCH   7  22
ENDBRANCH   2   3
TORSDOF 7
ENDMDL
MODEL       72
REMARK 921   NORMALIZED FREE ENERGY PREDICTED BY IDOCK:   -4.74 KCAL/MOL
REMARK 922        TOTAL FREE ENERGY PREDICTED BY IDOCK:   -7.99 KCAL/MOL
REMARK 923 INTER-LIGAND FREE ENERGY PREDICTED BY IDOCK:   -6.86 KCAL/MOL
REMARK 924 INTRA-LIGAND FREE ENERGY PREDICTED BY IDOCK:   -1.13 KCAL/MOL
REMARK 927      BINDING AFFINITY PREDICTED BY RF-SCORE:    0.00 PKD
ROOT
HETATM    1  C   UNL     1      -8.996   9.355  70.935  1.00  0.00    -0.132 C  
HETATM    2  O   UNL     1      -8.901   9.164  69.529  1.00  0.00    -0.137 OA 
ENDROOT
BRANCH   2   3
HETATM    3  C   UNL     1      -9.421  10.126  68.683  1.00  0.00    -0.164 A  
HETATM    4  C   UNL     1      -8.888  11.432  68.520  1.00  0.00    -0.151 A  
HETATM    5  C   UNL     1      -9.462  12.392  67.662  1.00  0.00    -0.190 A  
HETATM    6  C   UNL     1     -10.606  11.943  66.962  1.00  0.00    -0.260 A  
HETATM    7  C   UNL     1     -10.565   9.689  67.956  1.00  0.00    -0.243 A  
HETATM    8  C   UNL     1     -11.140  10.625  67.104  1.00  0.00    -0.267 A  
BRANCH   5   9
HETATM    9  N   UNL     1      -8.886  13.659  67.486  1.00  0.00    -0.193 NA 
HETATM   10  C   UNL     1      -7.726  14.008  68.331  1.00  0.00    -0.138 C  
HETATM   11  C   UNL     1      -6.823  14.978  67.565  1.00  0.00    -0.197 C  
HETATM   12  C   UNL     1      -7.525  16.292  67.146  1.00  0.00    -0.203 C  
HETATM   13  C   UNL     1      -8.835  15.893  66.416  1.00  0.00    -0.368 C  
HETATM   14  C   UNL     1      -9.694  14.861  67.178  1.00  0.00    -0.228 C  
BRANCH  12  15
HETATM   15  N   UNL     1      -7.801  17.314  68.197  1.00  0.00    -0.212 NA 
HETATM   16  C   UNL     1      -6.767  17.466  69.243  1.00  0.00    -0.222 C  
HETATM   17  C   UNL     1      -5.881  20.516  69.142  1.00  0.00    -0.357 C  
HETATM   18  C   UNL     1      -8.003  18.670  67.601  1.00  0.00    -0.246 C  
HETATM   19  C   UNL     1      -5.455  18.151  68.785  1.00  0.00    -0.179 C  
HETATM   20  C   UNL     1      -6.705  19.400  67.146  1.00  0.00    -0.192 C  
HETATM   21  N   UNL     1      -5.629  19.470  68.153  1.00  0.00    -0.197 NA 
ENDBRANCH  12  15
ENDBRANCH   5   9
BRANCH   7  22
HETATM   22  N   UNL     1     -10.988   8.341  68.137  1.00  0.00    -0.445 NA 
HETATM   23  H   UNL     1     -11.853   8.319  68.679  1.00  0.00     0.000 HD 
BRANCH  22  24
HETATM   24  C   UNL     1     -10.597   7.033  67.810  1.00  0.00    -0.233 A  
HETATM   25 CL   UNL     1      -9.232   2.975  66.578  1.00  0.00    -0.163 Cl 
HETATM   26  C   UNL     1      -9.511   5.679  66.162  1.00  0.00    -0.139 A  
HETATM   27  C   UNL     1     -10.410   4.781  68.179  1.00  0.00     0.096 A  
HETATM   28  N   UNL     1     -10.835   5.990  68.614  1.00  0.00    -0.303 NA 
HETATM   29  C   UNL     1      -9.760   4.563  66.969  1.00  0.00    -0.202 A  
HETATM   30  N   UNL     1      -9.945   6.902  66.602  1.00  0.00    -0.171 NA 
BRANCH  26  31
HETATM   31  N   UNL     1      -8.860   5.493  64.812  1.00  0.00    -0.338 NA 
HETATM   32  H   UNL     1      -9.121   4.642  64.315  1.00  0.00     0.000 HD 
BRANCH  31  33
HETATM   33  C   UNL     1      -7.890   6.373  64.104  1.00  0.00    -0.116 A  
HETATM   34  C   UNL     1      -8.277   7.720  64.044  1.00  0.00    -0.001 A  
HETATM   35  C   UNL     1      -7.458   8.674  63.465  1.00  0.00    -0.110 A  
HETATM   36  C   UNL     1      -6.206   8.306  62.956  1.00  0.00    -0.082 A  
HETATM   37  C   UNL     1      -5.735   6.979  62.987  1.00  0.00    -0.040 A  
HETATM   38  C   UNL     1      -6.523   5.967  63.538  1.00  0.00    -0.029 A  
HETATM   39  P   UNL     1      -5.932   4.235  63.499  1.00  0.00    -0.018 P  
HETATM   40  C   UNL     1      -6.240   4.030  65.350  1.00  0.00    -0.027 C  
HETATM   41  O   UNL     1      -5.432   2.771  63.466  1.00  0.00    -0.008 OA 
HETATM   42  C   UNL     1      -7.472   3.745  62.507  1.00  0.00    -0.052 C  
ENDBRANCH  31  33
ENDBRANCH  26  31
ENDBRANCH  22  24
ENDBRANCH   7  22
ENDBRANCH   2   3
TORSDOF 7
ENDMDL
MODEL       73
REMARK 921   NORMALIZED FREE ENERGY PREDICTED BY IDOCK:   -4.71 KCAL/MOL
REMARK 922        TOTAL FREE ENERGY PREDICTED BY IDOCK:   -7.94 KCAL/MOL
REMARK 923 INTER-LIGAND FREE ENERGY PREDICTED BY IDOCK:   -8.36 KCAL/MOL
REMARK 924 INTRA-LIGAND FREE ENERGY PREDICTED BY IDOCK:    0.41 KCAL/MOL
REMARK 927      BINDING AFFINITY PREDICTED BY RF-SCORE:    0.00 PKD
ROOT
HETATM    1  C   UNL     1      -7.665  10.724  68.658  1.00  0.00    -0.114 C  
HETATM    2  O   UNL     1      -9.024  10.994  68.976  1.00  0.00    -0.148 OA 
ENDROOT
BRANCH   2   3
HETATM    3  C   UNL     1      -9.736  11.880  68.188  1.00  0.00    -0.194 A  
HETATM    4  C   UNL     1      -9.383  13.239  67.979  1.00  0.00    -0.218 A  
HETATM    5  C   UNL     1     -10.149  14.115  67.182  1.00  0.00    -0.258 A  
HETATM    6  C   UNL     1     -11.291  13.525  66.593  1.00  0.00    -0.344 A  
HETATM    7  C   UNL     1     -10.882  11.301  67.572  1.00  0.00    -0.245 A  
HETATM    8  C   UNL     1     -11.645  12.152  66.782  1.00  0.00    -0.412 A  
BRANCH   5   9
HETATM    9  N   UNL     1      -9.751  15.441  66.957  1.00  0.00    -0.221 NA 
HETATM   10  C   UNL     1      -8.347  15.794  67.246  1.00  0.00    -0.188 C  
HETATM   11  C   UNL     1      -7.912  16.925  66.311  1.00  0.00    -0.350 C  
HETATM   12  C   UNL     1      -8.766  18.209  66.438  1.00  0.00    -0.231 C  
HETATM   13  C   UNL     1     -10.252  17.780  66.309  1.00  0.00    -0.364 C  
HETATM   14  C   UNL     1     -10.647  16.592  67.212  1.00  0.00    -0.285 C  
BRANCH  12  15
HETATM   15  N   UNL     1      -8.573  19.072  67.639  1.00  0.00    -0.286 NA 
HETATM   16  C   UNL     1      -7.570  18.605  68.620  1.00  0.00    -0.314 C  
HETATM   17  C   UNL     1      -5.459  20.965  68.886  1.00  0.00    -0.362 C  
HETATM   18  C   UNL     1      -8.174  20.461  67.255  1.00  0.00    -0.336 C  
HETATM   19  C   UNL     1      -6.093  18.731  68.172  1.00  0.00    -0.212 C  
HETATM   20  C   UNL     1      -6.689  20.633  66.817  1.00  0.00    -0.277 C  
HETATM   21  N   UNL     1      -5.685  20.081  67.745  1.00  0.00    -0.190 NA 
ENDBRANCH  12  15
ENDBRANCH   5   9
BRANCH   7  22
HETATM   22  N   UNL     1     -11.119   9.913  67.788  1.00  0.00    -0.473 NA 
HETATM   23  H   UNL     1     -12.108   9.757  67.985  1.00  0.00     0.000 HD 
BRANCH  22  24
HETATM   24  C   UNL     1     -10.428   8.691  67.818  1.00  0.00    -0.224 A  
HETATM   25 CL   UNL     1      -8.285   4.799  68.153  1.00  0.00    -0.088 Cl 
HETATM   26  C   UNL     1      -9.553   6.981  69.246  1.00  0.00    -0.154 A  
HETATM   27  C   UNL     1      -9.353   6.905  66.871  1.00  0.00    -0.148 A  
HETATM   28  N   UNL     1     -10.011   8.075  66.705  1.00  0.00    -0.256 NA 
HETATM   29  C   UNL     1      -9.086   6.319  68.105  1.00  0.00    -0.112 A  
HETATM   30  N   UNL     1     -10.216   8.169  69.076  1.00  0.00    -0.216 NA 
BRANCH  26  31
HETATM   31  N   UNL     1      -9.242   6.421  70.613  1.00  0.00    -0.158 NA 
HETATM   32  H   UNL     1      -9.282   7.091  71.380  1.00  0.00     0.000 HD 
BRANCH  31  33
HETATM   33  C   UNL     1      -8.884   5.028  71.002  1.00  0.00    -0.131 A  
HETATM   34  C   UNL     1      -9.847   4.071  70.653  1.00  0.00    -0.229 A  
HETATM   35  C   UNL     1      -9.640   2.724  70.899  1.00  0.00    -0.202 A  
HETATM   36  C   UNL     1      -8.438   2.296  71.476  1.00  0.00    -0.086 A  
HETATM   37  C   UNL     1      -7.412   3.189  71.845  1.00  0.00    -0.052 A  
HETATM   38  C   UNL     1      -7.571   4.561  71.643  1.00  0.00    -0.078 A  
HETATM   39  P   UNL     1      -6.265   5.716  72.200  1.00  0.00    -0.046 P  
HETATM   40  C   UNL     1      -6.198   6.546  70.506  1.00  0.00    -0.039 C  
HETATM   41  O   UNL     1      -5.161   6.693  72.672  1.00  0.00    -0.031 OA 
HETATM   42  C   UNL     1      -7.527   6.583  73.320  1.00  0.00    -0.085 C  
ENDBRANCH  31  33
ENDBRANCH  26  31
ENDBRANCH  22  24
ENDBRANCH   7  22
ENDBRANCH   2   3
TORSDOF 7
ENDMDL
MODEL       74
REMARK 921   NORMALIZED FREE ENERGY PREDICTED BY IDOCK:   -4.68 KCAL/MOL
REMARK 922        TOTAL FREE ENERGY PREDICTED BY IDOCK:   -7.91 KCAL/MOL
REMARK 923 INTER-LIGAND FREE ENERGY PREDICTED BY IDOCK:   -7.20 KCAL/MOL
REMARK 924 INTRA-LIGAND FREE ENERGY PREDICTED BY IDOCK:   -0.71 KCAL/MOL
REMARK 927      BINDING AFFINITY PREDICTED BY RF-SCORE:    0.00 PKD
ROOT
HETATM    1  C   UNL     1     -11.212  11.449  67.965  1.00  0.00    -0.281 C  
HETATM    2  O   UNL     1     -10.111  11.104  68.795  1.00  0.00    -0.194 OA 
ENDROOT
BRANCH   2   3
HETATM    3  C   UNL     1      -8.973  10.573  68.216  1.00  0.00    -0.139 A  
HETATM    4  C   UNL     1      -8.882   9.271  67.656  1.00  0.00    -0.122 A  
HETATM    5  C   UNL     1      -7.695   8.760  67.093  1.00  0.00    -0.096 A  
HETATM    6  C   UNL     1      -6.602   9.658  67.115  1.00  0.00    -0.071 A  
HETATM    7  C   UNL     1      -7.864  11.467  68.214  1.00  0.00    -0.132 A  
HETATM    8  C   UNL     1      -6.687  10.977  67.659  1.00  0.00    -0.073 A  
BRANCH   5   9
HETATM    9  N   UNL     1      -7.648   7.487  66.506  1.00  0.00    -0.087 NA 
HETATM   10  C   UNL     1      -8.644   7.177  65.461  1.00  0.00    -0.080 C  
HETATM   11  C   UNL     1      -8.039   6.174  64.475  1.00  0.00    -0.118 C  
HETATM   12  C   UNL     1      -7.596   4.843  65.127  1.00  0.00    -0.078 C  
HETATM   13  C   UNL     1      -6.693   5.208  66.335  1.00  0.00    -0.057 C  
HETATM   14  C   UNL     1      -7.296   6.273  67.276  1.00  0.00    -0.083 C  
BRANCH  12  15
HETATM   15  N   UNL     1      -8.649   3.869  65.535  1.00  0.00    -0.109 NA 
HETATM   16  C   UNL     1     -10.005   4.115  64.999  1.00  0.00    -0.208 C  
HETATM   17  C   UNL     1     -10.801   1.474  63.421  1.00  0.00    -0.142 C  
HETATM   18  C   UNL     1      -8.285   2.473  65.141  1.00  0.00    -0.084 C  
HETATM   19  C   UNL     1     -10.185   3.823  63.488  1.00  0.00    -0.205 C  
HETATM   20  C   UNL     1      -8.471   2.134  63.633  1.00  0.00    -0.081 C  
HETATM   21  N   UNL     1      -9.791   2.468  63.064  1.00  0.00    -0.094 NA 
ENDBRANCH  12  15
ENDBRANCH   5   9
BRANCH   7  22
HETATM   22  N   UNL     1      -8.068  12.776  68.739  1.00  0.00    -0.344 NA 
HETATM   23  H   UNL     1      -9.068  12.974  68.795  1.00  0.00     0.000 HD 
BRANCH  22  24
HETATM   24  C   UNL     1      -7.336  13.879  69.203  1.00  0.00    -0.004 A  
HETATM   25 CL   UNL     1      -5.139  17.525  70.520  1.00  0.00    -0.241 Cl 
HETATM   26  C   UNL     1      -6.878  16.202  68.849  1.00  0.00    -0.152 A  
HETATM   27  C   UNL     1      -5.861  14.939  70.597  1.00  0.00    -0.126 A  
HETATM   28  N   UNL     1      -6.511  13.803  70.254  1.00  0.00    -0.025 NA 
HETATM   29  C   UNL     1      -5.992  16.154  69.932  1.00  0.00    -0.182 A  
HETATM   30  N   UNL     1      -7.533  15.050  68.501  1.00  0.00    -0.114 NA 
BRANCH  26  31
HETATM   31  N   UNL     1      -7.017  17.480  68.056  1.00  0.00    -0.190 NA 
HETATM   32  H   UNL     1      -6.140  17.905  67.756  1.00  0.00     0.000 HD 
BRANCH  31  33
HETATM   33  C   UNL     1      -8.251  18.207  67.650  1.00  0.00    -0.242 A  
HETATM   34  C   UNL     1      -9.441  17.573  68.031  1.00  0.00    -0.280 A  
HETATM   35  C   UNL     1     -10.674  18.149  67.772  1.00  0.00    -0.355 A  
HETATM   36  C   UNL     1     -10.743  19.401  67.150  1.00  0.00    -0.593 A  
HETATM   37  C   UNL     1      -9.596  20.113  66.747  1.00  0.00    -0.559 A  
HETATM   38  C   UNL     1      -8.326  19.574  66.959  1.00  0.00    -0.287 A  
HETATM   39  P   UNL     1      -6.849  20.473  66.357  1.00  0.00    -0.202 P  
HETATM   40  C   UNL     1      -6.022  20.361  68.051  1.00  0.00    -0.255 C  
HETATM   41  O   UNL     1      -5.600  21.233  65.849  1.00  0.00    -0.231 OA 
HETATM   42  C   UNL     1      -6.389  18.975  65.288  1.00  0.00    -0.283 C  
ENDBRANCH  31  33
ENDBRANCH  26  31
ENDBRANCH  22  24
ENDBRANCH   7  22
ENDBRANCH   2   3
TORSDOF 7
ENDMDL
MODEL       75
REMARK 921   NORMALIZED FREE ENERGY PREDICTED BY IDOCK:   -4.62 KCAL/MOL
REMARK 922        TOTAL FREE ENERGY PREDICTED BY IDOCK:   -7.82 KCAL/MOL
REMARK 923 INTER-LIGAND FREE ENERGY PREDICTED BY IDOCK:   -6.92 KCAL/MOL
REMARK 924 INTRA-LIGAND FREE ENERGY PREDICTED BY IDOCK:   -0.90 KCAL/MOL
REMARK 927      BINDING AFFINITY PREDICTED BY RF-SCORE:    0.00 PKD
ROOT
HETATM    1  C   UNL     1      -6.609   9.034  72.130  1.00  0.00     0.092 C  
HETATM    2  O   UNL     1      -6.265  10.141  71.305  1.00  0.00    -0.309 OA 
ENDROOT
BRANCH   2   3
HETATM    3  C   UNL     1      -6.596  10.107  69.963  1.00  0.00    -0.117 A  
HETATM    4  C   UNL     1      -6.759   8.920  69.201  1.00  0.00    -0.051 A  
HETATM    5  C   UNL     1      -7.076   8.929  67.827  1.00  0.00    -0.079 A  
HETATM    6  C   UNL     1      -7.236  10.220  67.271  1.00  0.00    -0.089 A  
HETATM    7  C   UNL     1      -6.778  11.396  69.387  1.00  0.00    -0.122 A  
HETATM    8  C   UNL     1      -7.093  11.421  68.034  1.00  0.00    -0.074 A  
BRANCH   5   9
HETATM    9  N   UNL     1      -7.276   7.740  67.110  1.00  0.00    -0.088 NA 
HETATM   10  C   UNL     1      -7.366   7.833  65.640  1.00  0.00    -0.073 C  
HETATM   11  C   UNL     1      -6.844   6.533  65.023  1.00  0.00    -0.047 C  
HETATM   12  C   UNL     1      -7.616   5.270  65.473  1.00  0.00    -0.082 C  
HETATM   13  C   UNL     1      -7.661   5.294  67.024  1.00  0.00    -0.092 C  
HETATM   14  C   UNL     1      -8.125   6.640  67.622  1.00  0.00    -0.119 C  
BRANCH  12  15
HETATM   15  N   UNL     1      -8.979   5.036  64.913  1.00  0.00    -0.143 NA 
HETATM   16  C   UNL     1      -9.051   4.801  63.455  1.00  0.00    -0.026 C  
HETATM   17  C   UNL     1     -10.453   1.970  63.108  1.00  0.00    -0.149 C  
HETATM   18  C   UNL     1      -9.644   3.866  65.565  1.00  0.00    -0.184 C  
HETATM   19  C   UNL     1      -8.514   3.429  62.976  1.00  0.00    -0.089 C  
HETATM   20  C   UNL     1      -9.146   2.467  65.095  1.00  0.00    -0.135 C  
HETATM   21  N   UNL     1      -9.121   2.258  63.635  1.00  0.00    -0.093 NA 
ENDBRANCH  12  15
ENDBRANCH   5   9
BRANCH   7  22
HETATM   22  N   UNL     1      -6.657  12.527  70.246  1.00  0.00    -0.417 NA 
HETATM   23  H   UNL     1      -6.887  12.260  71.204  1.00  0.00     0.000 HD 
BRANCH  22  24
HETATM   24  C   UNL     1      -6.324  13.889  70.197  1.00  0.00    -0.083 A  
HETATM   25 CL   UNL     1      -5.461  18.250  69.894  1.00  0.00    -0.216 Cl 
HETATM   26  C   UNL     1      -6.825  15.982  69.148  1.00  0.00    -0.180 A  
HETATM   27  C   UNL     1      -5.146  15.750  70.824  1.00  0.00    -0.178 A  
HETATM   28  N   UNL     1      -5.373  14.424  70.972  1.00  0.00    -0.136 NA 
HETATM   29  C   UNL     1      -5.825  16.571  69.929  1.00  0.00    -0.203 A  
HETATM   30  N   UNL     1      -7.052  14.638  69.296  1.00  0.00    -0.142 NA 
BRANCH  26  31
HETATM   31  N   UNL     1      -7.555  16.813  68.119  1.00  0.00    -0.172 NA 
HETATM   32  H   UNL     1      -7.260  17.787  68.056  1.00  0.00     0.000 HD 
BRANCH  31  33
HETATM   33  C   UNL     1      -8.642  16.414  67.183  1.00  0.00    -0.181 A  
HETATM   34  C   UNL     1      -8.689  15.039  66.913  1.00  0.00    -0.285 A  
HETATM   35  C   UNL     1      -9.676  14.502  66.102  1.00  0.00    -0.340 A  
HETATM   36  C   UNL     1     -10.667  15.332  65.565  1.00  0.00    -0.385 A  
HETATM   37  C   UNL     1     -10.701  16.721  65.796  1.00  0.00    -0.185 A  
HETATM   38  C   UNL     1      -9.721  17.326  66.586  1.00  0.00    -0.288 A  
HETATM   39  P   UNL     1      -9.732  19.142  66.812  1.00  0.00    -0.389 P  
HETATM   40  C   UNL     1      -9.637  18.965  68.689  1.00  0.00    -0.391 C  
HETATM   41  O   UNL     1      -9.742  20.678  67.003  1.00  0.00    -0.439 OA 
HETATM   42  C   UNL     1      -7.994  19.234  66.060  1.00  0.00    -0.243 C  
ENDBRANCH  31  33
ENDBRANCH  26  31
ENDBRANCH  22  24
ENDBRANCH   7  22
ENDBRANCH   2   3
TORSDOF 7
ENDMDL
MODEL       76
REMARK 921   NORMALIZED FREE ENERGY PREDICTED BY IDOCK:   -4.58 KCAL/MOL
REMARK 922        TOTAL FREE ENERGY PREDICTED BY IDOCK:   -7.76 KCAL/MOL
REMARK 923 INTER-LIGAND FREE ENERGY PREDICTED BY IDOCK:   -8.24 KCAL/MOL
REMARK 924 INTRA-LIGAND FREE ENERGY PREDICTED BY IDOCK:    0.48 KCAL/MOL
REMARK 927      BINDING AFFINITY PREDICTED BY RF-SCORE:    0.00 PKD
ROOT
HETATM    1  C   UNL     1     -11.572  11.865  66.935  1.00  0.00    -0.285 C  
HETATM    2  O   UNL     1     -10.985  12.237  68.175  1.00  0.00    -0.208 OA 
ENDROOT
BRANCH   2   3
HETATM    3  C   UNL     1     -10.166  11.335  68.829  1.00  0.00    -0.202 A  
HETATM    4  C   UNL     1     -10.628  10.232  69.595  1.00  0.00    -0.288 A  
HETATM    5  C   UNL     1      -9.758   9.346  70.264  1.00  0.00    -0.246 A  
HETATM    6  C   UNL     1      -8.383   9.636  70.096  1.00  0.00    -0.221 A  
HETATM    7  C   UNL     1      -8.777  11.599  68.659  1.00  0.00    -0.083 A  
HETATM    8  C   UNL     1      -7.908  10.732  69.311  1.00  0.00    -0.124 A  
BRANCH   5   9
HETATM    9  N   UNL     1     -10.241   8.239  70.976  1.00  0.00    -0.188 NA 
HETATM   10  C   UNL     1      -9.347   7.623  71.976  1.00  0.00    -0.142 C  
HETATM   11  C   UNL     1     -10.193   7.012  73.096  1.00  0.00    -0.288 C  
HETATM   12  C   UNL     1     -11.189   5.931  72.611  1.00  0.00    -0.291 C  
HETATM   13  C   UNL     1     -11.993   6.549  71.437  1.00  0.00    -0.371 C  
HETATM   14  C   UNL     1     -11.119   7.220  70.356  1.00  0.00    -0.268 C  
BRANCH  12  15
HETATM   15  N   UNL     1     -10.650   4.592  72.230  1.00  0.00    -0.172 NA 
HETATM   16  C   UNL     1      -9.177   4.466  72.212  1.00  0.00    -0.122 C  
HETATM   17  C   UNL     1      -8.490   2.102  74.223  1.00  0.00    -0.059 C  
HETATM   18  C   UNL     1     -11.156   3.521  73.142  1.00  0.00    -0.073 C  
HETATM   19  C   UNL     1      -8.494   4.452  73.602  1.00  0.00    -0.097 C  
HETATM   20  C   UNL     1     -10.480   3.461  74.544  1.00  0.00    -0.177 C  
HETATM   21  N   UNL     1      -9.006   3.434  74.537  1.00  0.00    -0.086 NA 
ENDBRANCH  12  15
ENDBRANCH   5   9
BRANCH   7  22
HETATM   22  N   UNL     1      -8.409  12.689  67.819  1.00  0.00    -0.159 NA 
HETATM   23  H   UNL     1      -8.838  12.578  66.900  1.00  0.00     0.000 HD 
BRANCH  22  24
HETATM   24  C   UNL     1      -7.645  13.866  67.851  1.00  0.00    -0.156 A  
HETATM   25 CL   UNL     1      -5.396  17.713  67.814  1.00  0.00    -0.132 Cl 
HETATM   26  C   UNL     1      -7.444  16.083  66.969  1.00  0.00    -0.229 A  
HETATM   27  C   UNL     1      -5.910  15.183  68.557  1.00  0.00    -0.095 A  
HETATM   28  N   UNL     1      -6.560  13.998  68.622  1.00  0.00    -0.086 NA 
HETATM   29  C   UNL     1      -6.293  16.249  67.748  1.00  0.00    -0.143 A  
HETATM   30  N   UNL     1      -8.098  14.880  67.033  1.00  0.00    -0.202 NA 
BRANCH  26  31
HETATM   31  N   UNL     1      -7.873  17.185  66.030  1.00  0.00    -0.474 NA 
HETATM   32  H   UNL     1      -8.749  17.021  65.536  1.00  0.00     0.000 HD 
BRANCH  31  33
HETATM   33  C   UNL     1      -7.200  18.477  65.723  1.00  0.00    -0.189 A  
HETATM   34  C   UNL     1      -6.047  18.350  64.936  1.00  0.00    -0.066 A  
HETATM   35  C   UNL     1      -5.336  19.464  64.521  1.00  0.00    -0.238 A  
HETATM   36  C   UNL     1      -5.787  20.746  64.860  1.00  0.00    -0.286 A  
HETATM   37  C   UNL     1      -6.942  20.964  65.636  1.00  0.00     0.046 A  
HETATM   38  C   UNL     1      -7.688  19.881  66.103  1.00  0.00    -0.325 A  
HETATM   39  P   UNL     1      -9.140  20.177  67.177  1.00  0.00    -0.375 P  
HETATM   40  C   UNL     1     -10.240  19.104  66.080  1.00  0.00    -0.463 C  
HETATM   41  O   UNL     1     -10.369  20.427  68.085  1.00  0.00    -0.310 OA 
HETATM   42  C   UNL     1      -8.332  19.133  68.538  1.00  0.00    -0.364 C  
ENDBRANCH  31  33
ENDBRANCH  26  31
ENDBRANCH  22  24
ENDBRANCH   7  22
ENDBRANCH   2   3
TORSDOF 7
ENDMDL
MODEL       77
REMARK 921   NORMALIZED FREE ENERGY PREDICTED BY IDOCK:   -4.53 KCAL/MOL
REMARK 922        TOTAL FREE ENERGY PREDICTED BY IDOCK:   -7.69 KCAL/MOL
REMARK 923 INTER-LIGAND FREE ENERGY PREDICTED BY IDOCK:   -6.75 KCAL/MOL
REMARK 924 INTRA-LIGAND FREE ENERGY PREDICTED BY IDOCK:   -0.94 KCAL/MOL
REMARK 927      BINDING AFFINITY PREDICTED BY RF-SCORE:    0.00 PKD
ROOT
HETATM    1  C   UNL     1      -5.625  12.088  70.598  1.00  0.00    -0.153 C  
HETATM    2  O   UNL     1      -6.509  12.228  69.493  1.00  0.00    -0.116 OA 
ENDROOT
BRANCH   2   3
HETATM    3  C   UNL     1      -6.284  11.478  68.353  1.00  0.00    -0.049 A  
HETATM    4  C   UNL     1      -6.635  10.111  68.202  1.00  0.00    -0.058 A  
HETATM    5  C   UNL     1      -6.368   9.376  67.029  1.00  0.00    -0.066 A  
HETATM    6  C   UNL     1      -5.734  10.118  66.004  1.00  0.00    -0.068 A  
HETATM    7  C   UNL     1      -5.661  12.211  67.303  1.00  0.00    -0.135 A  
HETATM    8  C   UNL     1      -5.393  11.500  66.139  1.00  0.00     0.046 A  
BRANCH   5   9
HETATM    9  N   UNL     1      -6.768   8.039  66.891  1.00  0.00    -0.063 NA 
HETATM   10  C   UNL     1      -7.795   7.532  67.822  1.00  0.00    -0.117 C  
HETATM   11  C   UNL     1      -8.607   6.438  67.124  1.00  0.00    -0.111 C  
HETATM   12  C   UNL     1      -7.759   5.237  66.643  1.00  0.00    -0.096 C  
HETATM   13  C   UNL     1      -6.581   5.815  65.814  1.00  0.00    -0.044 C  
HETATM   14  C   UNL     1      -5.823   6.964  66.513  1.00  0.00    -0.029 C  
BRANCH  12  15
HETATM   15  N   UNL     1      -7.257   4.270  67.663  1.00  0.00    -0.067 NA 
HETATM   16  C   UNL     1      -7.673   4.525  69.059  1.00  0.00    -0.070 C  
HETATM   17  C   UNL     1      -9.168   1.885  70.007  1.00  0.00    -0.105 C  
HETATM   18  C   UNL     1      -7.678   2.872  67.344  1.00  0.00    -0.069 C  
HETATM   19  C   UNL     1      -9.162   4.231  69.372  1.00  0.00    -0.137 C  
HETATM   20  C   UNL     1      -9.163   2.531  67.663  1.00  0.00    -0.184 C  
HETATM   21  N   UNL     1      -9.615   2.872  69.025  1.00  0.00    -0.082 NA 
ENDBRANCH  12  15
ENDBRANCH   5   9
BRANCH   7  22
HETATM   22  N   UNL     1      -5.405  13.595  67.523  1.00  0.00    -0.341 NA 
HETATM   23  H   UNL     1      -4.436  13.726  67.817  1.00  0.00     0.000 HD 
BRANCH  22  24
HETATM   24  C   UNL     1      -6.058  14.836  67.466  1.00  0.00     0.044 A  
HETATM   25 CL   UNL     1      -8.339  18.663  67.355  1.00  0.00    -0.267 Cl 
HETATM   26  C   UNL     1      -8.186  15.926  67.584  1.00  0.00    -0.150 A  
HETATM   27  C   UNL     1      -6.147  17.113  67.242  1.00  0.00    -0.151 A  
HETATM   28  N   UNL     1      -5.399  15.986  67.281  1.00  0.00    -0.325 NA 
HETATM   29  C   UNL     1      -7.532  17.145  67.373  1.00  0.00    -0.160 A  
HETATM   30  N   UNL     1      -7.427  14.785  67.621  1.00  0.00    -0.168 NA 
BRANCH  26  31
HETATM   31  N   UNL     1      -9.693  15.895  67.677  1.00  0.00    -0.223 NA 
HETATM   32  H   UNL     1     -10.086  16.290  68.530  1.00  0.00     0.000 HD 
BRANCH  31  33
HETATM   33  C   UNL     1     -10.687  15.370  66.700  1.00  0.00    -0.309 A  
HETATM   34  C   UNL     1     -10.652  16.004  65.450  1.00  0.00    -0.428 A  
HETATM   35  C   UNL     1     -11.479  15.595  64.417  1.00  0.00    -0.266 A  
HETATM   36  C   UNL     1     -12.344  14.510  64.602  1.00  0.00    -0.419 A  
HETATM   37  C   UNL     1     -12.433  13.809  65.820  1.00  0.00    -0.527 A  
HETATM   38  C   UNL     1     -11.642  14.187  66.907  1.00  0.00    -0.391 A  
HETATM   39  P   UNL     1     -11.826  13.319  68.508  1.00  0.00    -0.260 P  
HETATM   40  C   UNL     1      -9.967  13.008  68.616  1.00  0.00    -0.107 C  
HETATM   41  O   UNL     1     -11.981  12.585  69.862  1.00  0.00    -0.326 OA 
HETATM   42  C   UNL     1     -12.278  14.965  69.334  1.00  0.00    -0.205 C  
ENDBRANCH  31  33
ENDBRANCH  26  31
ENDBRANCH  22  24
ENDBRANCH   7  22
ENDBRANCH   2   3
TORSDOF 7
ENDMDL
MODEL       78
REMARK 921   NORMALIZED FREE ENERGY PREDICTED BY IDOCK:   -4.51 KCAL/MOL
REMARK 922        TOTAL FREE ENERGY PREDICTED BY IDOCK:   -7.67 KCAL/MOL
REMARK 923 INTER-LIGAND FREE ENERGY PREDICTED BY IDOCK:   -7.00 KCAL/MOL
REMARK 924 INTRA-LIGAND FREE ENERGY PREDICTED BY IDOCK:   -0.67 KCAL/MOL
REMARK 927      BINDING AFFINITY PREDICTED BY RF-SCORE:    0.00 PKD
ROOT
HETATM    1  C   UNL     1     -10.713  11.298  67.378  1.00  0.00    -0.242 C  
HETATM    2  O   UNL     1     -10.076  10.672  68.484  1.00  0.00    -0.159 OA 
ENDROOT
BRANCH   2   3
HETATM    3  C   UNL     1      -8.981   9.858  68.257  1.00  0.00    -0.119 A  
HETATM    4  C   UNL     1      -9.038   8.582  67.636  1.00  0.00    -0.144 A  
HETATM    5  C   UNL     1      -7.899   7.773  67.442  1.00  0.00    -0.118 A  
HETATM    6  C   UNL     1      -6.690   8.344  67.902  1.00  0.00    -0.066 A  
HETATM    7  C   UNL     1      -7.750  10.421  68.698  1.00  0.00    -0.101 A  
HETATM    8  C   UNL     1      -6.619   9.636  68.511  1.00  0.00    -0.052 A  
BRANCH   5   9
HETATM    9  N   UNL     1      -7.979   6.537  66.784  1.00  0.00    -0.107 NA 
HETATM   10  C   UNL     1      -8.660   6.500  65.475  1.00  0.00    -0.102 C  
HETATM   11  C   UNL     1      -8.041   5.392  64.619  1.00  0.00    -0.125 C  
HETATM   12  C   UNL     1      -8.137   3.983  65.251  1.00  0.00    -0.101 C  
HETATM   13  C   UNL     1      -7.577   4.094  66.694  1.00  0.00    -0.089 C  
HETATM   14  C   UNL     1      -8.168   5.263  67.513  1.00  0.00    -0.100 C  
BRANCH  12  15
HETATM   15  N   UNL     1      -9.462   3.297  65.255  1.00  0.00    -0.151 NA 
HETATM   16  C   UNL     1     -10.510   3.903  64.405  1.00  0.00    -0.224 C  
HETATM   17  C   UNL     1     -11.419   1.616  62.395  1.00  0.00    -0.240 C  
HETATM   18  C   UNL     1      -9.340   1.871  64.823  1.00  0.00    -0.100 C  
HETATM   19  C   UNL     1     -10.313   3.725  62.879  1.00  0.00    -0.200 C  
HETATM   20  C   UNL     1      -9.161   1.648  63.292  1.00  0.00    -0.087 C  
HETATM   21  N   UNL     1     -10.145   2.331  62.432  1.00  0.00    -0.088 NA 
ENDBRANCH  12  15
ENDBRANCH   5   9
BRANCH   7  22
HETATM   22  N   UNL     1      -7.784  11.734  69.250  1.00  0.00    -0.344 NA 
HETATM   23  H   UNL     1      -8.506  11.789  69.969  1.00  0.00     0.000 HD 
BRANCH  22  24
HETATM   24  C   UNL     1      -7.142  12.975  69.123  1.00  0.00     0.030 A  
HETATM   25 CL   UNL     1      -5.319  17.014  68.648  1.00  0.00    -0.130 Cl 
HETATM   26  C   UNL     1      -7.391  15.229  68.355  1.00  0.00    -0.114 A  
HETATM   27  C   UNL     1      -5.384  14.424  69.358  1.00  0.00    -0.089 A  
HETATM   28  N   UNL     1      -5.888  13.182  69.543  1.00  0.00    -0.095 NA 
HETATM   29  C   UNL     1      -6.076  15.475  68.765  1.00  0.00    -0.099 A  
HETATM   30  N   UNL     1      -7.899  13.969  68.539  1.00  0.00    -0.137 NA 
BRANCH  26  31
HETATM   31  N   UNL     1      -8.169  16.316  67.653  1.00  0.00    -0.151 NA 
HETATM   32  H   UNL     1      -7.949  17.268  67.945  1.00  0.00     0.000 HD 
BRANCH  31  33
HETATM   33  C   UNL     1      -9.212  16.198  66.597  1.00  0.00    -0.246 A  
HETATM   34  C   UNL     1      -9.331  14.912  66.051  1.00  0.00    -0.276 A  
HETATM   35  C   UNL     1     -10.291  14.627  65.094  1.00  0.00    -0.431 A  
HETATM   36  C   UNL     1     -11.184  15.623  64.682  1.00  0.00    -0.380 A  
HETATM   37  C   UNL     1     -11.143  16.937  65.188  1.00  0.00     0.019 A  
HETATM   38  C   UNL     1     -10.183  17.293  66.138  1.00  0.00    -0.331 A  
HETATM   39  P   UNL     1     -10.090  19.023  66.726  1.00  0.00    -0.446 P  
HETATM   40  C   UNL     1     -10.139  18.470  68.531  1.00  0.00    -0.378 C  
HETATM   41  O   UNL     1     -10.011  20.487  67.225  1.00  0.00    -0.450 OA 
HETATM   42  C   UNL     1      -8.300  19.124  66.107  1.00  0.00    -0.244 C  
ENDBRANCH  31  33
ENDBRANCH  26  31
ENDBRANCH  22  24
ENDBRANCH   7  22
ENDBRANCH   2   3
TORSDOF 7
ENDMDL
MODEL       79
REMARK 921   NORMALIZED FREE ENERGY PREDICTED BY IDOCK:   -4.51 KCAL/MOL
REMARK 922        TOTAL FREE ENERGY PREDICTED BY IDOCK:   -7.67 KCAL/MOL
REMARK 923 INTER-LIGAND FREE ENERGY PREDICTED BY IDOCK:   -7.73 KCAL/MOL
REMARK 924 INTRA-LIGAND FREE ENERGY PREDICTED BY IDOCK:    0.06 KCAL/MOL
REMARK 927      BINDING AFFINITY PREDICTED BY RF-SCORE:    0.00 PKD
ROOT
HETATM    1  C   UNL     1     -12.256  10.642  69.288  1.00  0.00    -0.037 C  
HETATM    2  O   UNL     1     -12.140  10.922  67.899  1.00  0.00    -0.527 OA 
ENDROOT
BRANCH   2   3
HETATM    3  C   UNL     1     -10.961  10.611  67.247  1.00  0.00    -0.284 A  
HETATM    4  C   UNL     1     -10.534   9.293  66.934  1.00  0.00    -0.284 A  
HETATM    5  C   UNL     1      -9.313   9.017  66.285  1.00  0.00    -0.225 A  
HETATM    6  C   UNL     1      -8.552  10.163  65.956  1.00  0.00    -0.150 A  
HETATM    7  C   UNL     1     -10.187  11.752  66.892  1.00  0.00    -0.209 A  
HETATM    8  C   UNL     1      -8.981  11.495  66.250  1.00  0.00    -0.199 A  
BRANCH   5   9
HETATM    9  N   UNL     1      -8.939   7.708  65.948  1.00  0.00    -0.144 NA 
HETATM   10  C   UNL     1      -8.920   6.701  67.027  1.00  0.00    -0.118 C  
HETATM   11  C   UNL     1      -9.235   5.325  66.433  1.00  0.00    -0.145 C  
HETATM   12  C   UNL     1      -8.242   4.873  65.336  1.00  0.00    -0.121 C  
HETATM   13  C   UNL     1      -8.145   6.030  64.306  1.00  0.00    -0.109 C  
HETATM   14  C   UNL     1      -7.897   7.417  64.937  1.00  0.00    -0.125 C  
BRANCH  12  15
HETATM   15  N   UNL     1      -6.880   4.427  65.753  1.00  0.00    -0.056 NA 
HETATM   16  C   UNL     1      -6.578   4.529  67.197  1.00  0.00    -0.046 C  
HETATM   17  C   UNL     1      -5.789   1.592  68.120  1.00  0.00    -0.019 C  
HETATM   18  C   UNL     1      -6.628   3.005  65.366  1.00  0.00    -0.036 C  
HETATM   19  C   UNL     1      -7.298   3.497  68.101  1.00  0.00    -0.051 C  
HETATM   20  C   UNL     1      -7.319   1.936  66.263  1.00  0.00    -0.061 C  
HETATM   21  N   UNL     1      -7.103   2.088  67.714  1.00  0.00    -0.046 NA 
ENDBRANCH  12  15
ENDBRANCH   5   9
BRANCH   7  22
HETATM   22  N   UNL     1     -10.727  13.036  67.189  1.00  0.00    -0.253 NA 
HETATM   23  H   UNL     1     -11.088  13.466  66.337  1.00  0.00     0.000 HD 
BRANCH  22  24
HETATM   24  C   UNL     1     -10.921  13.900  68.278  1.00  0.00    -0.255 A  
HETATM   25 CL   UNL     1     -11.448  16.825  71.598  1.00  0.00    -0.027 Cl 
HETATM   26  C   UNL     1     -10.503  16.102  69.118  1.00  0.00    -0.265 A  
HETATM   27  C   UNL     1     -11.698  14.454  70.359  1.00  0.00    -0.280 A  
HETATM   28  N   UNL     1     -11.584  13.528  69.380  1.00  0.00    -0.297 NA 
HETATM   29  C   UNL     1     -11.174  15.742  70.292  1.00  0.00    -0.366 A  
HETATM   30  N   UNL     1     -10.385  15.161  68.128  1.00  0.00    -0.236 NA 
BRANCH  26  31
HETATM   31  N   UNL     1      -9.865  17.467  69.013  1.00  0.00    -0.265 NA 
HETATM   32  H   UNL     1     -10.418  18.237  69.386  1.00  0.00     0.000 HD 
BRANCH  31  33
HETATM   33  C   UNL     1      -8.543  17.847  68.443  1.00  0.00    -0.293 A  
HETATM   34  C   UNL     1      -7.447  17.294  69.119  1.00  0.00    -0.130 A  
HETATM   35  C   UNL     1      -6.151  17.511  68.680  1.00  0.00    -0.174 A  
HETATM   36  C   UNL     1      -5.922  18.267  67.524  1.00  0.00    -0.166 A  
HETATM   37  C   UNL     1      -6.966  18.848  66.778  1.00  0.00    -0.212 A  
HETATM   38  C   UNL     1      -8.293  18.685  67.183  1.00  0.00    -0.264 A  
HETATM   39  P   UNL     1      -9.633  19.512  66.250  1.00  0.00    -0.339 P  
HETATM   40  C   UNL     1     -10.592  17.895  66.084  1.00  0.00    -0.242 C  
HETATM   41  O   UNL     1     -10.766  20.212  65.461  1.00  0.00    -0.371 OA 
HETATM   42  C   UNL     1     -10.144  20.434  67.827  1.00  0.00    -0.304 C  
ENDBRANCH  31  33
ENDBRANCH  26  31
ENDBRANCH  22  24
ENDBRANCH   7  22
ENDBRANCH   2   3
TORSDOF 7
ENDMDL
MODEL       80
REMARK 921   NORMALIZED FREE ENERGY PREDICTED BY IDOCK:   -4.42 KCAL/MOL
REMARK 922        TOTAL FREE ENERGY PREDICTED BY IDOCK:   -7.54 KCAL/MOL
REMARK 923 INTER-LIGAND FREE ENERGY PREDICTED BY IDOCK:   -6.64 KCAL/MOL
REMARK 924 INTRA-LIGAND FREE ENERGY PREDICTED BY IDOCK:   -0.90 KCAL/MOL
REMARK 927      BINDING AFFINITY PREDICTED BY RF-SCORE:    0.00 PKD
ROOT
HETATM    1  C   UNL     1      -6.579   9.197  71.403  1.00  0.00    -0.059 C  
HETATM    2  O   UNL     1      -6.364   8.880  70.034  1.00  0.00    -0.036 OA 
ENDROOT
BRANCH   2   3
HETATM    3  C   UNL     1      -6.651   9.829  69.071  1.00  0.00    -0.049 A  
HETATM    4  C   UNL     1      -7.011  11.175  69.345  1.00  0.00    -0.124 A  
HETATM    5  C   UNL     1      -7.317  12.108  68.333  1.00  0.00    -0.108 A  
HETATM    6  C   UNL     1      -7.220  11.598  67.017  1.00  0.00    -0.143 A  
HETATM    7  C   UNL     1      -6.544   9.341  67.738  1.00  0.00    -0.063 A  
HETATM    8  C   UNL     1      -6.841  10.250  66.729  1.00  0.00    -0.088 A  
BRANCH   5   9
HETATM    9  N   UNL     1      -7.624  13.443  68.632  1.00  0.00    -0.122 NA 
HETATM   10  C   UNL     1      -8.730  14.076  67.886  1.00  0.00    -0.184 C  
HETATM   11  C   UNL     1      -9.389  15.136  68.772  1.00  0.00    -0.200 C  
HETATM   12  C   UNL     1      -8.425  16.252  69.240  1.00  0.00    -0.148 C  
HETATM   13  C   UNL     1      -7.186  15.551  69.859  1.00  0.00    -0.028 C  
HETATM   14  C   UNL     1      -6.583  14.438  68.975  1.00  0.00    -0.103 C  
BRANCH  12  15
HETATM   15  N   UNL     1      -8.002  17.284  68.249  1.00  0.00    -0.234 NA 
HETATM   16  C   UNL     1      -8.469  17.081  66.860  1.00  0.00    -0.216 C  
HETATM   17  C   UNL     1     -10.096  19.704  66.106  1.00  0.00    -0.480 C  
HETATM   18  C   UNL     1      -8.457  18.649  68.653  1.00  0.00    -0.306 C  
HETATM   19  C   UNL     1      -9.979  17.333  66.623  1.00  0.00    -0.294 C  
HETATM   20  C   UNL     1      -9.967  18.949  68.412  1.00  0.00    -0.391 C  
HETATM   21  N   UNL     1     -10.464  18.656  67.055  1.00  0.00    -0.393 NA 
ENDBRANCH  12  15
ENDBRANCH   5   9
BRANCH   7  22
HETATM   22  N   UNL     1      -6.114   7.994  67.560  1.00  0.00    -0.049 NA 
HETATM   23  H   UNL     1      -5.098   7.942  67.640  1.00  0.00     0.000 HD 
BRANCH  22  24
HETATM   24  C   UNL     1      -6.639   6.717  67.309  1.00  0.00    -0.054 A  
HETATM   25 CL   UNL     1      -8.486   2.712  66.674  1.00  0.00    -0.098 Cl 
HETATM   26  C   UNL     1      -8.275   5.112  68.000  1.00  0.00    -0.098 A  
HETATM   27  C   UNL     1      -6.764   4.718  66.198  1.00  0.00    -0.050 A  
HETATM   28  N   UNL     1      -6.174   5.928  66.333  1.00  0.00    -0.032 NA 
HETATM   29  C   UNL     1      -7.801   4.254  67.002  1.00  0.00    -0.097 A  
HETATM   30  N   UNL     1      -7.673   6.336  68.137  1.00  0.00    -0.102 NA 
BRANCH  26  31
HETATM   31  N   UNL     1      -9.360   4.638  68.938  1.00  0.00    -0.130 NA 
HETATM   32  H   UNL     1      -9.577   3.644  68.887  1.00  0.00     0.000 HD 
BRANCH  31  33
HETATM   33  C   UNL     1     -10.158   5.415  69.926  1.00  0.00    -0.252 A  
HETATM   34  C   UNL     1     -11.123   6.253  69.351  1.00  0.00    -0.477 A  
HETATM   35  C   UNL     1     -11.981   7.003  70.139  1.00  0.00    -0.133 A  
HETATM   36  C   UNL     1     -11.914   6.905  71.534  1.00  0.00    -0.386 A  
HETATM   37  C   UNL     1     -10.983   6.078  72.193  1.00  0.00    -0.314 A  
HETATM   38  C   UNL     1     -10.076   5.315  71.454  1.00  0.00    -0.203 A  
HETATM   39  P   UNL     1      -8.820   4.309  72.325  1.00  0.00    -0.110 P  
HETATM   40  C   UNL     1      -9.295   2.767  71.343  1.00  0.00    -0.134 C  
HETATM   41  O   UNL     1      -7.758   3.457  73.061  1.00  0.00    -0.059 OA 
HETATM   42  C   UNL     1      -7.450   5.272  71.436  1.00  0.00    -0.095 C  
ENDBRANCH  31  33
ENDBRANCH  26  31
ENDBRANCH  22  24
ENDBRANCH   7  22
ENDBRANCH   2   3
TORSDOF 7
ENDMDL
MODEL       81
REMARK 921   NORMALIZED FREE ENERGY PREDICTED BY IDOCK:   -4.39 KCAL/MOL
REMARK 922        TOTAL FREE ENERGY PREDICTED BY IDOCK:   -7.50 KCAL/MOL
REMARK 923 INTER-LIGAND FREE ENERGY PREDICTED BY IDOCK:   -8.67 KCAL/MOL
REMARK 924 INTRA-LIGAND FREE ENERGY PREDICTED BY IDOCK:    1.17 KCAL/MOL
REMARK 927      BINDING AFFINITY PREDICTED BY RF-SCORE:    0.00 PKD
ROOT
HETATM    1  C   UNL     1     -12.714  10.781  70.911  1.00  0.00    -0.384 C  
HETATM    2  O   UNL     1     -11.315  11.020  70.819  1.00  0.00    -0.108 OA 
ENDROOT
BRANCH   2   3
HETATM    3  C   UNL     1     -10.544  10.197  70.018  1.00  0.00    -0.287 A  
HETATM    4  C   UNL     1     -10.233   8.843  70.313  1.00  0.00    -0.230 A  
HETATM    5  C   UNL     1      -9.426   8.043  69.478  1.00  0.00    -0.160 A  
HETATM    6  C   UNL     1      -8.961   8.696  68.312  1.00  0.00    -0.142 A  
HETATM    7  C   UNL     1     -10.079  10.830  68.830  1.00  0.00    -0.205 A  
HETATM    8  C   UNL     1      -9.283  10.053  67.997  1.00  0.00    -0.139 A  
BRANCH   5   9
HETATM    9  N   UNL     1      -9.174   6.695  69.772  1.00  0.00    -0.146 NA 
HETATM   10  C   UNL     1     -10.277   5.901  70.346  1.00  0.00    -0.213 C  
HETATM   11  C   UNL     1     -10.119   4.440  69.917  1.00  0.00    -0.123 C  
HETATM   12  C   UNL     1      -8.783   3.797  70.359  1.00  0.00    -0.079 C  
HETATM   13  C   UNL     1      -7.647   4.747  69.897  1.00  0.00    -0.055 C  
HETATM   14  C   UNL     1      -7.866   6.226  70.283  1.00  0.00    -0.103 C  
BRANCH  12  15
HETATM   15  N   UNL     1      -8.613   3.436  71.797  1.00  0.00    -0.082 NA 
HETATM   16  C   UNL     1      -8.329   2.012  72.080  1.00  0.00    -0.053 C  
HETATM   17  C   UNL     1      -5.577   1.982  73.670  1.00  0.00     0.000 C  
HETATM   18  C   UNL     1      -7.509   4.221  72.430  1.00  0.00    -0.073 C  
HETATM   19  C   UNL     1      -6.911   1.527  71.690  1.00  0.00    -0.023 C  
HETATM   20  C   UNL     1      -6.067   3.752  72.078  1.00  0.00    -0.013 C  
HETATM   21  N   UNL     1      -5.804   2.312  72.264  1.00  0.00    -0.008 NA 
ENDBRANCH  12  15
ENDBRANCH   5   9
BRANCH   7  22
HETATM   22  N   UNL     1     -10.496  12.170  68.588  1.00  0.00    -0.266 NA 
HETATM   23  H   UNL     1     -10.498  12.695  69.464  1.00  0.00     0.000 HD 
BRANCH  22  24
HETATM   24  C   UNL     1     -10.904  13.001  67.533  1.00  0.00    -0.247 A  
HETATM   25 CL   UNL     1     -11.981  15.751  64.197  1.00  0.00    -0.189 Cl 
HETATM   26  C   UNL     1     -10.343  14.945  66.255  1.00  0.00    -0.294 A  
HETATM   27  C   UNL     1     -12.307  13.657  65.847  1.00  0.00    -0.471 A  
HETATM   28  N   UNL     1     -12.025  12.779  66.838  1.00  0.00    -0.461 NA 
HETATM   29  C   UNL     1     -11.519  14.755  65.519  1.00  0.00    -0.329 A  
HETATM   30  N   UNL     1     -10.061  14.058  67.260  1.00  0.00    -0.247 NA 
BRANCH  26  31
HETATM   31  N   UNL     1      -9.479  16.153  65.980  1.00  0.00    -0.327 NA 
HETATM   32  H   UNL     1      -8.717  16.004  65.320  1.00  0.00     0.000 HD 
BRANCH  31  33
HETATM   33  C   UNL     1      -9.581  17.531  66.535  1.00  0.00    -0.285 A  
HETATM   34  C   UNL     1     -10.514  18.346  65.878  1.00  0.00    -0.346 A  
HETATM   35  C   UNL     1     -10.763  19.639  66.308  1.00  0.00    -0.524 A  
HETATM   36  C   UNL     1     -10.103  20.139  67.437  1.00  0.00    -0.556 A  
HETATM   37  C   UNL     1      -9.161  19.384  68.163  1.00  0.00    -0.395 A  
HETATM   38  C   UNL     1      -8.850  18.082  67.766  1.00  0.00    -0.255 A  
HETATM   39  P   UNL     1      -7.566  17.142  68.670  1.00  0.00    -0.253 P  
HETATM   40  C   UNL     1      -8.724  15.667  68.893  1.00  0.00    -0.215 C  
HETATM   41  O   UNL     1      -6.481  16.346  69.435  1.00  0.00    -0.184 OA 
HETATM   42  C   UNL     1      -6.573  16.975  67.063  1.00  0.00    -0.202 C  
ENDBRANCH  31  33
ENDBRANCH  26  31
ENDBRANCH  22  24
ENDBRANCH   7  22
ENDBRANCH   2   3
TORSDOF 7
ENDMDL
MODEL       82
REMARK 921   NORMALIZED FREE ENERGY PREDICTED BY IDOCK:   -4.38 KCAL/MOL
REMARK 922        TOTAL FREE ENERGY PREDICTED BY IDOCK:   -7.49 KCAL/MOL
REMARK 923 INTER-LIGAND FREE ENERGY PREDICTED BY IDOCK:   -7.82 KCAL/MOL
REMARK 924 INTRA-LIGAND FREE ENERGY PREDICTED BY IDOCK:    0.34 KCAL/MOL
REMARK 927      BINDING AFFINITY PREDICTED BY RF-SCORE:    0.00 PKD
ROOT
HETATM    1  C   UNL     1     -13.565   9.666  71.070  1.00  0.00    -0.101 C  
HETATM    2  O   UNL     1     -12.208  10.076  70.958  1.00  0.00    -0.313 OA 
ENDROOT
BRANCH   2   3
HETATM    3  C   UNL     1     -11.453   9.618  69.894  1.00  0.00    -0.100 A  
HETATM    4  C   UNL     1     -10.856   8.331  69.822  1.00  0.00    -0.186 A  
HETATM    5  C   UNL     1     -10.075   7.909  68.727  1.00  0.00    -0.193 A  
HETATM    6  C   UNL     1      -9.946   8.869  67.695  1.00  0.00    -0.248 A  
HETATM    7  C   UNL     1     -11.323  10.563  68.837  1.00  0.00    -0.251 A  
HETATM    8  C   UNL     1     -10.557  10.160  67.750  1.00  0.00    -0.304 A  
BRANCH   5   9
HETATM    9  N   UNL     1      -9.537   6.616  68.662  1.00  0.00    -0.130 NA 
HETATM   10  C   UNL     1      -9.801   5.706  69.794  1.00  0.00    -0.185 C  
HETATM   11  C   UNL     1      -9.829   4.264  69.282  1.00  0.00    -0.180 C  
HETATM   12  C   UNL     1      -8.515   3.814  68.600  1.00  0.00    -0.083 C  
HETATM   13  C   UNL     1      -8.166   4.887  67.535  1.00  0.00    -0.105 C  
HETATM   14  C   UNL     1      -8.213   6.338  68.060  1.00  0.00    -0.115 C  
BRANCH  12  15
HETATM   15  N   UNL     1      -7.332   3.528  69.463  1.00  0.00    -0.048 NA 
HETATM   16  C   UNL     1      -7.187   4.373  70.667  1.00  0.00    -0.045 C  
HETATM   17  C   UNL     1      -7.128   2.363  73.128  1.00  0.00    -0.028 C  
HETATM   18  C   UNL     1      -7.332   2.110  69.937  1.00  0.00    -0.043 C  
HETATM   19  C   UNL     1      -8.203   4.093  71.803  1.00  0.00    -0.091 C  
HETATM   20  C   UNL     1      -8.327   1.792  71.092  1.00  0.00    -0.049 C  
HETATM   21  N   UNL     1      -8.256   2.692  72.259  1.00  0.00    -0.055 NA 
ENDBRANCH  12  15
ENDBRANCH   5   9
BRANCH   7  22
HETATM   22  N   UNL     1     -12.011  11.803  68.971  1.00  0.00    -0.304 NA 
HETATM   23  H   UNL     1     -12.805  11.830  68.331  1.00  0.00     0.000 HD 
BRANCH  22  24
HETATM   24  C   UNL     1     -11.946  13.000  69.702  1.00  0.00    -0.302 A  
HETATM   25 CL   UNL     1     -11.579  16.885  71.854  1.00  0.00     0.061 Cl 
HETATM   26  C   UNL     1     -10.804  15.093  69.916  1.00  0.00    -0.270 A  
HETATM   27  C   UNL     1     -12.601  14.453  71.346  1.00  0.00    -0.354 A  
HETATM   28  N   UNL     1     -12.771  13.264  70.722  1.00  0.00    -0.255 NA 
HETATM   29  C   UNL     1     -11.637  15.394  71.000  1.00  0.00    -0.367 A  
HETATM   30  N   UNL     1     -10.975  13.887  69.288  1.00  0.00    -0.221 NA 
BRANCH  26  31
HETATM   31  N   UNL     1      -9.703  16.053  69.533  1.00  0.00    -0.245 NA 
HETATM   32  H   UNL     1      -8.865  16.010  70.112  1.00  0.00     0.000 HD 
BRANCH  31  33
HETATM   33  C   UNL     1      -9.666  17.053  68.430  1.00  0.00    -0.279 A  
HETATM   34  C   UNL     1     -10.779  17.905  68.392  1.00  0.00    -0.171 A  
HETATM   35  C   UNL     1     -10.869  18.923  67.458  1.00  0.00    -0.440 A  
HETATM   36  C   UNL     1      -9.822  19.136  66.552  1.00  0.00    -0.429 A  
HETATM   37  C   UNL     1      -8.663  18.335  66.530  1.00  0.00    -0.290 A  
HETATM   38  C   UNL     1      -8.523  17.279  67.432  1.00  0.00    -0.200 A  
HETATM   39  P   UNL     1      -7.050  16.197  67.339  1.00  0.00    -0.211 P  
HETATM   40  C   UNL     1      -6.698  16.424  69.180  1.00  0.00    -0.205 C  
HETATM   41  O   UNL     1      -5.803  15.283  67.261  1.00  0.00    -0.332 OA 
HETATM   42  C   UNL     1      -8.180  14.702  67.054  1.00  0.00    -0.157 C  
ENDBRANCH  31  33
ENDBRANCH  26  31
ENDBRANCH  22  24
ENDBRANCH   7  22
ENDBRANCH   2   3
TORSDOF 7
ENDMDL
MODEL       83
REMARK 921   NORMALIZED FREE ENERGY PREDICTED BY IDOCK:   -4.37 KCAL/MOL
REMARK 922        TOTAL FREE ENERGY PREDICTED BY IDOCK:   -7.47 KCAL/MOL
REMARK 923 INTER-LIGAND FREE ENERGY PREDICTED BY IDOCK:   -7.82 KCAL/MOL
REMARK 924 INTRA-LIGAND FREE ENERGY PREDICTED BY IDOCK:    0.35 KCAL/MOL
REMARK 927      BINDING AFFINITY PREDICTED BY RF-SCORE:    0.00 PKD
ROOT
HETATM    1  C   UNL     1     -10.556  12.069  67.062  1.00  0.00    -0.227 C  
HETATM    2  O   UNL     1      -9.226  11.575  66.968  1.00  0.00    -0.170 OA 
ENDROOT
BRANCH   2   3
HETATM    3  C   UNL     1      -8.677  10.911  68.050  1.00  0.00    -0.132 A  
HETATM    4  C   UNL     1      -9.282   9.811  68.714  1.00  0.00    -0.143 A  
HETATM    5  C   UNL     1      -8.697   9.175  69.828  1.00  0.00    -0.151 A  
HETATM    6  C   UNL     1      -7.449   9.711  70.222  1.00  0.00    -0.165 A  
HETATM    7  C   UNL     1      -7.412  11.426  68.453  1.00  0.00    -0.111 A  
HETATM    8  C   UNL     1      -6.823  10.806  69.549  1.00  0.00    -0.116 A  
BRANCH   5   9
HETATM    9  N   UNL     1      -9.295   8.061  70.436  1.00  0.00    -0.158 NA 
HETATM   10  C   UNL     1      -9.846   8.235  71.794  1.00  0.00    -0.218 C  
HETATM   11  C   UNL     1     -11.029   7.280  71.981  1.00  0.00    -0.271 C  
HETATM   12  C   UNL     1     -10.665   5.787  71.796  1.00  0.00    -0.249 C  
HETATM   13  C   UNL     1      -9.925   5.664  70.438  1.00  0.00    -0.267 C  
HETATM   14  C   UNL     1      -8.782   6.685  70.247  1.00  0.00    -0.147 C  
BRANCH  12  15
HETATM   15  N   UNL     1      -9.893   5.108  72.877  1.00  0.00    -0.154 NA 
HETATM   16  C   UNL     1     -10.685   4.580  74.009  1.00  0.00    -0.276 C  
HETATM   17  C   UNL     1     -10.028   1.474  74.146  1.00  0.00    -0.080 C  
HETATM   18  C   UNL     1      -9.101   3.958  72.342  1.00  0.00    -0.110 C  
HETATM   19  C   UNL     1     -11.537   3.324  73.695  1.00  0.00     0.087 C  
HETATM   20  C   UNL     1      -9.918   2.669  72.033  1.00  0.00    -0.153 C  
HETATM   21  N   UNL     1     -10.788   2.191  73.124  1.00  0.00    -0.162 NA 
ENDBRANCH  12  15
ENDBRANCH   5   9
BRANCH   7  22
HETATM   22  N   UNL     1      -6.855  12.489  67.685  1.00  0.00    -0.121 NA 
HETATM   23  H   UNL     1      -6.551  12.138  66.777  1.00  0.00     0.000 HD 
BRANCH  22  24
HETATM   24  C   UNL     1      -6.591  13.864  67.778  1.00  0.00    -0.176 A  
HETATM   25 CL   UNL     1      -5.976  18.260  68.172  1.00  0.00    -0.173 Cl 
HETATM   26  C   UNL     1      -7.543  16.002  68.282  1.00  0.00    -0.137 A  
HETATM   27  C   UNL     1      -5.262  15.724  67.647  1.00  0.00    -0.087 A  
HETATM   28  N   UNL     1      -5.383  14.382  67.525  1.00  0.00    -0.339 NA 
HETATM   29  C   UNL     1      -6.298  16.580  68.007  1.00  0.00    -0.131 A  
HETATM   30  N   UNL     1      -7.665  14.643  68.155  1.00  0.00    -0.116 NA 
BRANCH  26  31
HETATM   31  N   UNL     1      -8.717  16.888  68.622  1.00  0.00    -0.260 NA 
HETATM   32  H   UNL     1      -9.137  16.726  69.537  1.00  0.00     0.000 HD 
BRANCH  31  33
HETATM   33  C   UNL     1      -9.350  17.966  67.812  1.00  0.00    -0.262 A  
HETATM   34  C   UNL     1      -8.929  19.259  68.150  1.00  0.00    -0.371 A  
HETATM   35  C   UNL     1      -9.387  20.366  67.454  1.00  0.00    -0.536 A  
HETATM   36  C   UNL     1     -10.259  20.199  66.371  1.00  0.00    -0.552 A  
HETATM   37  C   UNL     1     -10.721  18.934  65.957  1.00  0.00    -0.373 A  
HETATM   38  C   UNL     1     -10.314  17.782  66.633  1.00  0.00    -0.345 A  
HETATM   39  P   UNL     1     -10.986  16.154  66.135  1.00  0.00     0.169 P  
HETATM   40  C   UNL     1      -9.253  15.416  66.007  1.00  0.00    -0.298 C  
HETATM   41  O   UNL     1     -11.554  14.777  65.713  1.00  0.00    -0.347 OA 
HETATM   42  C   UNL     1     -11.685  15.922  67.882  1.00  0.00     0.009 C  
ENDBRANCH  31  33
ENDBRANCH  26  31
ENDBRANCH  22  24
ENDBRANCH   7  22
ENDBRANCH   2   3
TORSDOF 7
ENDMDL
MODEL       84
REMARK 921   NORMALIZED FREE ENERGY PREDICTED BY IDOCK:   -4.21 KCAL/MOL
REMARK 922        TOTAL FREE ENERGY PREDICTED BY IDOCK:   -7.24 KCAL/MOL
REMARK 923 INTER-LIGAND FREE ENERGY PREDICTED BY IDOCK:   -8.08 KCAL/MOL
REMARK 924 INTRA-LIGAND FREE ENERGY PREDICTED BY IDOCK:    0.84 KCAL/MOL
REMARK 927      BINDING AFFINITY PREDICTED BY RF-SCORE:    0.00 PKD
ROOT
HETATM    1  C   UNL     1     -12.979  11.263  72.049  1.00  0.00    -0.274 C  
HETATM    2  O   UNL     1     -13.022  10.388  70.929  1.00  0.00    -0.379 OA 
ENDROOT
BRANCH   2   3
HETATM    3  C   UNL     1     -12.108  10.561  69.905  1.00  0.00    -0.245 A  
HETATM    4  C   UNL     1     -11.897  11.780  69.208  1.00  0.00    -0.389 A  
HETATM    5  C   UNL     1     -10.969  11.909  68.155  1.00  0.00    -0.227 A  
HETATM    6  C   UNL     1     -10.251  10.727  67.858  1.00  0.00    -0.203 A  
HETATM    7  C   UNL     1     -11.363   9.387  69.601  1.00  0.00     0.008 A  
HETATM    8  C   UNL     1     -10.442   9.500  68.566  1.00  0.00    -0.247 A  
BRANCH   5   9
HETATM    9  N   UNL     1     -10.749  13.138  67.515  1.00  0.00    -0.237 NA 
HETATM   10  C   UNL     1      -9.787  14.071  68.135  1.00  0.00    -0.235 C  
HETATM   11  C   UNL     1      -9.133  14.916  67.039  1.00  0.00    -0.255 C  
HETATM   12  C   UNL     1     -10.136  15.745  66.202  1.00  0.00    -0.318 C  
HETATM   13  C   UNL     1     -11.236  14.767  65.713  1.00  0.00    -0.337 C  
HETATM   14  C   UNL     1     -11.831  13.877  66.826  1.00  0.00    -0.424 C  
BRANCH  12  15
HETATM   15  N   UNL     1     -10.750  16.954  66.826  1.00  0.00    -0.183 NA 
HETATM   16  C   UNL     1     -10.528  17.118  68.279  1.00  0.00    -0.373 C  
HETATM   17  C   UNL     1      -9.119  19.947  68.621  1.00  0.00    -0.117 C  
HETATM   18  C   UNL     1     -10.262  18.210  66.178  1.00  0.00    -0.367 C  
HETATM   19  C   UNL     1      -9.089  17.518  68.691  1.00  0.00    -0.263 C  
HETATM   20  C   UNL     1      -8.825  18.656  66.582  1.00  0.00    -0.302 C  
HETATM   21  N   UNL     1      -8.566  18.728  68.032  1.00  0.00    -0.289 NA 
ENDBRANCH  12  15
ENDBRANCH   5   9
BRANCH   7  22
HETATM   22  N   UNL     1     -11.598   8.229  70.398  1.00  0.00    -0.461 NA 
HETATM   23  H   UNL     1     -12.588   8.169  70.638  1.00  0.00     0.000 HD 
BRANCH  22  24
HETATM   24  C   UNL     1     -10.905   7.145  70.959  1.00  0.00    -0.240 A  
HETATM   25 CL   UNL     1      -8.501   3.781  72.620  1.00  0.00    -0.093 Cl 
HETATM   26  C   UNL     1      -8.844   5.927  70.935  1.00  0.00    -0.138 A  
HETATM   27  C   UNL     1     -10.669   5.346  72.355  1.00  0.00    -0.231 A  
HETATM   28  N   UNL     1     -11.441   6.360  71.900  1.00  0.00    -0.290 NA 
HETATM   29  C   UNL     1      -9.379   5.075  71.907  1.00  0.00    -0.142 A  
HETATM   30  N   UNL     1      -9.629   6.952  70.473  1.00  0.00    -0.169 NA 
BRANCH  26  31
HETATM   31  N   UNL     1      -7.472   5.646  70.371  1.00  0.00    -0.078 NA 
HETATM   32  H   UNL     1      -6.773   6.369  70.539  1.00  0.00     0.000 HD 
BRANCH  31  33
HETATM   33  C   UNL     1      -6.992   4.463  69.605  1.00  0.00    -0.049 A  
HETATM   34  C   UNL     1      -6.520   3.414  70.406  1.00  0.00    -0.032 A  
HETATM   35  C   UNL     1      -6.088   2.224  69.845  1.00  0.00    -0.024 A  
HETATM   36  C   UNL     1      -6.150   2.041  68.459  1.00  0.00    -0.025 A  
HETATM   37  C   UNL     1      -6.622   3.037  67.582  1.00  0.00    -0.037 A  
HETATM   38  C   UNL     1      -7.051   4.268  68.084  1.00  0.00    -0.059 A  
HETATM   39  P   UNL     1      -7.586   5.581  66.928  1.00  0.00    -0.093 P  
HETATM   40  C   UNL     1      -9.203   5.828  67.870  1.00  0.00    -0.108 C  
HETATM   41  O   UNL     1      -8.039   6.692  65.950  1.00  0.00    -0.112 OA 
HETATM   42  C   UNL     1      -6.233   6.719  67.613  1.00  0.00    -0.040 C  
ENDBRANCH  31  33
ENDBRANCH  26  31
ENDBRANCH  22  24
ENDBRANCH   7  22
ENDBRANCH   2   3
TORSDOF 7
ENDMDL
MODEL       85
REMARK 921   NORMALIZED FREE ENERGY PREDICTED BY IDOCK:   -4.17 KCAL/MOL
REMARK 922        TOTAL FREE ENERGY PREDICTED BY IDOCK:   -7.19 KCAL/MOL
REMARK 923 INTER-LIGAND FREE ENERGY PREDICTED BY IDOCK:   -7.57 KCAL/MOL
REMARK 924 INTRA-LIGAND FREE ENERGY PREDICTED BY IDOCK:    0.38 KCAL/MOL
REMARK 927      BINDING AFFINITY PREDICTED BY RF-SCORE:    0.00 PKD
ROOT
HETATM    1  C   UNL     1     -12.067  11.765  63.315  1.00  0.00    -0.264 C  
HETATM    2  O   UNL     1     -10.665  11.625  63.505  1.00  0.00    -0.381 OA 
ENDROOT
BRANCH   2   3
HETATM    3  C   UNL     1     -10.196  11.130  64.708  1.00  0.00    -0.306 A  
HETATM    4  C   UNL     1      -9.930   9.760  64.970  1.00  0.00    -0.132 A  
HETATM    5  C   UNL     1      -9.471   9.295  66.219  1.00  0.00    -0.224 A  
HETATM    6  C   UNL     1      -9.281  10.307  67.188  1.00  0.00    -0.163 A  
HETATM    7  C   UNL     1      -9.982  12.136  65.693  1.00  0.00    -0.249 A  
HETATM    8  C   UNL     1      -9.528  11.692  66.929  1.00  0.00    -0.195 A  
BRANCH   5   9
HETATM    9  N   UNL     1      -9.174   7.941  66.435  1.00  0.00    -0.184 NA 
HETATM   10  C   UNL     1      -9.272   7.429  67.816  1.00  0.00    -0.131 C  
HETATM   11  C   UNL     1      -9.654   5.947  67.775  1.00  0.00    -0.118 C  
HETATM   12  C   UNL     1      -8.646   5.061  67.005  1.00  0.00    -0.105 C  
HETATM   13  C   UNL     1      -8.424   5.725  65.620  1.00  0.00    -0.149 C  
HETATM   14  C   UNL     1      -8.109   7.235  65.686  1.00  0.00    -0.133 C  
BRANCH  12  15
HETATM   15  N   UNL     1      -7.338   4.749  67.652  1.00  0.00    -0.073 NA 
HETATM   16  C   UNL     1      -7.393   4.382  69.083  1.00  0.00    -0.055 C  
HETATM   17  C   UNL     1      -6.064   1.502  69.285  1.00  0.00    -0.024 C  
HETATM   18  C   UNL     1      -6.636   3.629  66.954  1.00  0.00    -0.042 C  
HETATM   19  C   UNL     1      -7.987   2.984  69.388  1.00  0.00    -0.048 C  
HETATM   20  C   UNL     1      -7.192   2.204  67.250  1.00  0.00    -0.055 C  
HETATM   21  N   UNL     1      -7.342   1.865  68.677  1.00  0.00    -0.043 NA 
ENDBRANCH  12  15
ENDBRANCH   5   9
BRANCH   7  22
HETATM   22  N   UNL     1     -10.214  13.490  65.317  1.00  0.00    -0.407 NA 
HETATM   23  H   UNL     1     -10.376  13.548  64.311  1.00  0.00     0.000 HD 
BRANCH  22  24
HETATM   24  C   UNL     1     -10.292  14.771  65.887  1.00  0.00    -0.320 A  
HETATM   25 CL   UNL     1     -10.321  18.889  67.587  1.00  0.00    -0.458 Cl 
HETATM   26  C   UNL     1      -9.100  16.814  66.258  1.00  0.00    -0.285 A  
HETATM   27  C   UNL     1     -11.331  16.465  67.023  1.00  0.00     0.338 A  
HETATM   28  N   UNL     1     -11.387  15.212  66.515  1.00  0.00    -0.287 NA 
HETATM   29  C   UNL     1     -10.223  17.301  66.938  1.00  0.00    -0.322 A  
HETATM   30  N   UNL     1      -9.158  15.544  65.747  1.00  0.00    -0.207 NA 
BRANCH  26  31
HETATM   31  N   UNL     1      -7.849  17.657  66.184  1.00  0.00    -0.455 NA 
HETATM   32  H   UNL     1      -7.266  17.502  65.363  1.00  0.00     0.000 HD 
BRANCH  31  33
HETATM   33  C   UNL     1      -7.346  18.681  67.140  1.00  0.00    -0.210 A  
HETATM   34  C   UNL     1      -7.635  20.002  66.769  1.00  0.00    -0.306 A  
HETATM   35  C   UNL     1      -7.279  21.067  67.580  1.00  0.00    -0.320 A  
HETATM   36  C   UNL     1      -6.650  20.832  68.808  1.00  0.00    -0.045 A  
HETATM   37  C   UNL     1      -6.334  19.536  69.263  1.00  0.00    -0.346 A  
HETATM   38  C   UNL     1      -6.646  18.423  68.480  1.00  0.00    -0.236 A  
HETATM   39  P   UNL     1      -6.158  16.752  69.047  1.00  0.00    -0.193 P  
HETATM   40  C   UNL     1      -7.911  16.096  68.802  1.00  0.00    -0.216 C  
HETATM   41  O   UNL     1      -5.746  15.339  69.527  1.00  0.00    -0.095 OA 
HETATM   42  C   UNL     1      -5.134  16.529  67.467  1.00  0.00    -0.131 C  
ENDBRANCH  31  33
ENDBRANCH  26  31
ENDBRANCH  22  24
ENDBRANCH   7  22
ENDBRANCH   2   3
TORSDOF 7
ENDMDL
MODEL       86
REMARK 921   NORMALIZED FREE ENERGY PREDICTED BY IDOCK:   -4.12 KCAL/MOL
REMARK 922        TOTAL FREE ENERGY PREDICTED BY IDOCK:   -7.12 KCAL/MOL
REMARK 923 INTER-LIGAND FREE ENERGY PREDICTED BY IDOCK:   -6.80 KCAL/MOL
REMARK 924 INTRA-LIGAND FREE ENERGY PREDICTED BY IDOCK:   -0.32 KCAL/MOL
REMARK 927      BINDING AFFINITY PREDICTED BY RF-SCORE:    0.00 PKD
ROOT
HETATM    1  C   UNL     1     -12.904  10.116  70.800  1.00  0.00    -0.308 C  
HETATM    2  O   UNL     1     -11.610   9.605  70.501  1.00  0.00    -0.264 OA 
ENDROOT
BRANCH   2   3
HETATM    3  C   UNL     1     -10.867  10.201  69.499  1.00  0.00    -0.255 A  
HETATM    4  C   UNL     1     -10.419  11.549  69.517  1.00  0.00     0.109 A  
HETATM    5  C   UNL     1      -9.680  12.124  68.463  1.00  0.00    -0.149 A  
HETATM    6  C   UNL     1      -9.406  11.244  67.391  1.00  0.00    -0.168 A  
HETATM    7  C   UNL     1     -10.566   9.327  68.415  1.00  0.00    -0.190 A  
HETATM    8  C   UNL     1      -9.836   9.881  67.370  1.00  0.00    -0.223 A  
BRANCH   5   9
HETATM    9  N   UNL     1      -9.212  13.445  68.530  1.00  0.00    -0.135 NA 
HETATM   10  C   UNL     1     -10.212  14.530  68.488  1.00  0.00    -0.240 C  
HETATM   11  C   UNL     1      -9.683  15.729  69.279  1.00  0.00    -0.263 C  
HETATM   12  C   UNL     1      -8.342  16.290  68.748  1.00  0.00    -0.235 C  
HETATM   13  C   UNL     1      -7.363  15.091  68.632  1.00  0.00    -0.118 C  
HETATM   14  C   UNL     1      -7.946  13.869  67.890  1.00  0.00    -0.160 C  
BRANCH  12  15
HETATM   15  N   UNL     1      -8.357  17.079  67.482  1.00  0.00    -0.187 NA 
HETATM   16  C   UNL     1      -9.207  18.289  67.481  1.00  0.00    -0.254 C  
HETATM   17  C   UNL     1      -7.266  20.706  66.780  1.00  0.00    -0.256 C  
HETATM   18  C   UNL     1      -6.982  17.528  67.102  1.00  0.00    -0.171 C  
HETATM   19  C   UNL     1      -8.679  19.474  68.327  1.00  0.00    -0.336 C  
HETATM   20  C   UNL     1      -6.422  18.731  67.917  1.00  0.00    -0.209 C  
HETATM   21  N   UNL     1      -7.307  19.907  68.003  1.00  0.00    -0.292 NA 
ENDBRANCH  12  15
ENDBRANCH   5   9
BRANCH   7  22
HETATM   22  N   UNL     1     -11.002   7.975  68.516  1.00  0.00    -0.414 NA 
HETATM   23  H   UNL     1     -11.894   7.934  69.010  1.00  0.00     0.000 HD 
BRANCH  22  24
HETATM   24  C   UNL     1     -10.599   6.680  68.153  1.00  0.00    -0.241 A  
HETATM   25 CL   UNL     1      -9.306   2.515  67.240  1.00  0.00    -0.160 Cl 
HETATM   26  C   UNL     1      -9.768   4.594  68.981  1.00  0.00    -0.172 A  
HETATM   27  C   UNL     1     -10.199   4.983  66.668  1.00  0.00    -0.263 A  
HETATM   28  N   UNL     1     -10.617   6.252  66.885  1.00  0.00    -0.283 NA 
HETATM   29  C   UNL     1      -9.755   4.118  67.664  1.00  0.00    -0.122 A  
HETATM   30  N   UNL     1     -10.188   5.880  69.198  1.00  0.00    -0.194 NA 
BRANCH  26  31
HETATM   31  N   UNL     1      -9.244   3.718  70.094  1.00  0.00    -0.131 NA 
HETATM   32  H   UNL     1      -9.920   3.484  70.821  1.00  0.00     0.000 HD 
BRANCH  31  33
HETATM   33  C   UNL     1      -7.882   3.148  70.283  1.00  0.00    -0.043 A  
HETATM   34  C   UNL     1      -7.324   2.599  69.120  1.00  0.00    -0.044 A  
HETATM   35  C   UNL     1      -6.042   2.076  69.119  1.00  0.00    -0.024 A  
HETATM   36  C   UNL     1      -5.268   2.120  70.285  1.00  0.00    -0.004 A  
HETATM   37  C   UNL     1      -5.746   2.665  71.493  1.00  0.00    -0.012 A  
HETATM   38  C   UNL     1      -7.039   3.187  71.564  1.00  0.00    -0.032 A  
HETATM   39  P   UNL     1      -7.674   3.819  73.160  1.00  0.00    -0.076 P  
HETATM   40  C   UNL     1      -8.194   5.452  72.370  1.00  0.00    -0.114 C  
HETATM   41  O   UNL     1      -8.212   4.353  74.510  1.00  0.00    -0.090 OA 
HETATM   42  C   UNL     1      -9.089   2.558  73.081  1.00  0.00    -0.080 C  
ENDBRANCH  31  33
ENDBRANCH  26  31
ENDBRANCH  22  24
ENDBRANCH   7  22
ENDBRANCH   2   3
TORSDOF 7
ENDMDL
MODEL       87
REMARK 921   NORMALIZED FREE ENERGY PREDICTED BY IDOCK:   -3.98 KCAL/MOL
REMARK 922        TOTAL FREE ENERGY PREDICTED BY IDOCK:   -6.91 KCAL/MOL
REMARK 923 INTER-LIGAND FREE ENERGY PREDICTED BY IDOCK:   -8.54 KCAL/MOL
REMARK 924 INTRA-LIGAND FREE ENERGY PREDICTED BY IDOCK:    1.63 KCAL/MOL
REMARK 927      BINDING AFFINITY PREDICTED BY RF-SCORE:    0.00 PKD
ROOT
HETATM    1  C   UNL     1     -13.600  13.207  72.162  1.00  0.00    -0.544 C  
HETATM    2  O   UNL     1     -12.871  12.101  71.645  1.00  0.00    -0.359 OA 
ENDROOT
BRANCH   2   3
HETATM    3  C   UNL     1     -12.264  12.216  70.408  1.00  0.00    -0.294 A  
HETATM    4  C   UNL     1     -11.792  13.433  69.849  1.00  0.00    -0.385 A  
HETATM    5  C   UNL     1     -11.196  13.510  68.574  1.00  0.00    -0.278 A  
HETATM    6  C   UNL     1     -11.090  12.270  67.900  1.00  0.00    -0.290 A  
HETATM    7  C   UNL     1     -12.133  10.976  69.719  1.00  0.00    -0.353 A  
HETATM    8  C   UNL     1     -11.545  11.037  68.461  1.00  0.00    -0.380 A  
BRANCH   5   9
HETATM    9  N   UNL     1     -10.698  14.719  68.067  1.00  0.00    -0.244 NA 
HETATM   10  C   UNL     1      -9.365  14.699  67.433  1.00  0.00    -0.196 C  
HETATM   11  C   UNL     1      -9.309  15.780  66.350  1.00  0.00    -0.333 C  
HETATM   12  C   UNL     1      -9.569  17.211  66.878  1.00  0.00    -0.262 C  
HETATM   13  C   UNL     1     -10.888  17.161  67.694  1.00  0.00    -0.241 C  
HETATM   14  C   UNL     1     -10.946  16.019  68.731  1.00  0.00    -0.320 C  
BRANCH  12  15
HETATM   15  N   UNL     1      -8.493  17.883  67.662  1.00  0.00    -0.232 NA 
HETATM   16  C   UNL     1      -8.259  17.359  69.025  1.00  0.00    -0.080 C  
HETATM   17  C   UNL     1      -5.202  16.492  69.102  1.00  0.00    -0.120 C  
HETATM   18  C   UNL     1      -7.178  17.819  66.953  1.00  0.00    -0.197 C  
HETATM   19  C   UNL     1      -7.576  15.970  69.095  1.00  0.00    -0.225 C  
HETATM   20  C   UNL     1      -6.450  16.444  67.016  1.00  0.00    -0.167 C  
HETATM   21  N   UNL     1      -6.300  15.867  68.365  1.00  0.00    -0.106 NA 
ENDBRANCH  12  15
ENDBRANCH   5   9
BRANCH   7  22
HETATM   22  N   UNL     1     -12.576   9.798  70.387  1.00  0.00    -0.504 NA 
HETATM   23  H   UNL     1     -13.558   9.897  70.648  1.00  0.00     0.000 HD 
BRANCH  22  24
HETATM   24  C   UNL     1     -12.096   8.546  70.802  1.00  0.00    -0.061 A  
HETATM   25 CL   UNL     1     -10.344   4.647  72.058  1.00  0.00    -0.255 Cl 
HETATM   26  C   UNL     1     -10.171   7.126  70.880  1.00  0.00    -0.197 A  
HETATM   27  C   UNL     1     -12.288   6.478  71.765  1.00  0.00    -0.287 A  
HETATM   28  N   UNL     1     -12.872   7.649  71.421  1.00  0.00    -0.336 NA 
HETATM   29  C   UNL     1     -10.957   6.157  71.513  1.00  0.00    -0.273 A  
HETATM   30  N   UNL     1     -10.765   8.310  70.529  1.00  0.00    -0.221 NA 
BRANCH  26  31
HETATM   31  N   UNL     1      -8.736   6.810  70.531  1.00  0.00    -0.146 NA 
HETATM   32  H   UNL     1      -8.094   6.762  71.321  1.00  0.00     0.000 HD 
BRANCH  31  33
HETATM   33  C   UNL     1      -8.124   6.558  69.197  1.00  0.00    -0.112 A  
HETATM   34  C   UNL     1      -8.647   7.353  68.167  1.00  0.00    -0.123 A  
HETATM   35  C   UNL     1      -8.147   7.275  66.878  1.00  0.00    -0.120 A  
HETATM   36  C   UNL     1      -7.079   6.415  66.594  1.00  0.00    -0.069 A  
HETATM   37  C   UNL     1      -6.486   5.592  67.571  1.00  0.00    -0.051 A  
HETATM   38  C   UNL     1      -6.961   5.608  68.884  1.00  0.00    -0.067 A  
HETATM   39  P   UNL     1      -6.235   4.475  70.125  1.00  0.00    -0.023 P  
HETATM   40  C   UNL     1      -5.941   5.896  71.332  1.00  0.00    -0.030 C  
HETATM   41  O   UNL     1      -5.621   3.516  71.174  1.00  0.00    -0.011 OA 
HETATM   42  C   UNL     1      -7.945   3.704  70.403  1.00  0.00    -0.050 C  
ENDBRANCH  31  33
ENDBRANCH  26  31
ENDBRANCH  22  24
ENDBRANCH   7  22
ENDBRANCH   2   3
TORSDOF 7
ENDMDL
MODEL       88
REMARK 921   NORMALIZED FREE ENERGY PREDICTED BY IDOCK:   -3.97 KCAL/MOL
REMARK 922        TOTAL FREE ENERGY PREDICTED BY IDOCK:   -6.91 KCAL/MOL
REMARK 923 INTER-LIGAND FREE ENERGY PREDICTED BY IDOCK:   -7.43 KCAL/MOL
REMARK 924 INTRA-LIGAND FREE ENERGY PREDICTED BY IDOCK:    0.52 KCAL/MOL
REMARK 927      BINDING AFFINITY PREDICTED BY RF-SCORE:    0.00 PKD
ROOT
HETATM    1  C   UNL     1     -12.032  12.253  64.457  1.00  0.00    -0.383 C  
HETATM    2  O   UNL     1     -11.040  11.467  65.104  1.00  0.00    -0.232 OA 
ENDROOT
BRANCH   2   3
HETATM    3  C   UNL     1     -10.385  11.984  66.207  1.00  0.00    -0.221 A  
HETATM    4  C   UNL     1     -10.032  13.350  66.370  1.00  0.00    -0.293 A  
HETATM    5  C   UNL     1      -9.346  13.834  67.502  1.00  0.00    -0.222 A  
HETATM    6  C   UNL     1      -9.050  12.849  68.473  1.00  0.00    -0.049 A  
HETATM    7  C   UNL     1     -10.092  11.012  67.205  1.00  0.00    -0.193 A  
HETATM    8  C   UNL     1      -9.416  11.475  68.328  1.00  0.00    -0.189 A  
BRANCH   5   9
HETATM    9  N   UNL     1      -9.051  15.196  67.657  1.00  0.00    -0.178 NA 
HETATM   10  C   UNL     1     -10.184  16.142  67.699  1.00  0.00    -0.265 C  
HETATM   11  C   UNL     1      -9.801  17.343  68.568  1.00  0.00    -0.320 C  
HETATM   12  C   UNL     1      -8.554  18.109  68.066  1.00  0.00    -0.265 C  
HETATM   13  C   UNL     1      -7.430  17.060  67.859  1.00  0.00    -0.175 C  
HETATM   14  C   UNL     1      -7.862  15.825  67.038  1.00  0.00    -0.236 C  
BRANCH  12  15
HETATM   15  N   UNL     1      -8.693  18.974  66.859  1.00  0.00    -0.293 NA 
HETATM   16  C   UNL     1      -8.531  20.428  67.079  1.00  0.00    -0.279 C  
HETATM   17  C   UNL     1      -6.162  21.331  65.162  1.00  0.00     0.016 C  
HETATM   18  C   UNL     1      -7.709  18.595  65.799  1.00  0.00     0.015 C  
HETATM   19  C   UNL     1      -7.084  20.899  67.369  1.00  0.00    -0.361 C  
HETATM   20  C   UNL     1      -6.246  19.067  66.044  1.00  0.00    -0.191 C  
HETATM   21  N   UNL     1      -6.085  20.499  66.362  1.00  0.00    -0.194 NA 
ENDBRANCH  12  15
ENDBRANCH   5   9
BRANCH   7  22
HETATM   22  N   UNL     1     -10.542   9.679  66.982  1.00  0.00    -0.226 NA 
HETATM   23  H   UNL     1     -11.517   9.688  66.682  1.00  0.00     0.000 HD 
BRANCH  22  24
HETATM   24  C   UNL     1     -10.074   8.356  67.042  1.00  0.00    -0.284 A  
HETATM   25 CL   UNL     1      -8.589   4.179  67.479  1.00  0.00    -0.102 Cl 
HETATM   26  C   UNL     1      -9.216   6.657  68.493  1.00  0.00    -0.127 A  
HETATM   27  C   UNL     1      -9.536   6.315  66.155  1.00  0.00    -0.015 A  
HETATM   28  N   UNL     1     -10.009   7.568  65.962  1.00  0.00     0.236 NA 
HETATM   29  C   UNL     1      -9.117   5.811  67.382  1.00  0.00    -0.110 A  
HETATM   30  N   UNL     1      -9.692   7.927  68.295  1.00  0.00    -0.156 NA 
BRANCH  26  31
HETATM   31  N   UNL     1      -8.722   6.182  69.838  1.00  0.00    -0.135 NA 
HETATM   32  H   UNL     1      -7.864   6.622  70.169  1.00  0.00     0.000 HD 
BRANCH  31  33
HETATM   33  C   UNL     1      -9.309   5.163  70.752  1.00  0.00    -0.160 A  
HETATM   34  C   UNL     1      -8.648   3.926  70.730  1.00  0.00    -0.108 A  
HETATM   35  C   UNL     1      -9.041   2.891  71.562  1.00  0.00    -0.170 A  
HETATM   36  C   UNL     1     -10.093   3.081  72.466  1.00  0.00    -0.232 A  
HETATM   37  C   UNL     1     -10.802   4.294  72.562  1.00  0.00    -0.067 A  
HETATM   38  C   UNL     1     -10.468   5.369  71.735  1.00  0.00    -0.226 A  
HETATM   39  P   UNL     1     -11.450   6.911  71.814  1.00  0.00    -0.308 P  
HETATM   40  C   UNL     1      -9.892   7.957  72.023  1.00  0.00    -0.192 C  
HETATM   41  O   UNL     1     -12.280   8.217  71.881  1.00  0.00    -0.299 OA 
HETATM   42  C   UNL     1     -11.883   6.716  69.978  1.00  0.00    -0.238 C  
ENDBRANCH  31  33
ENDBRANCH  26  31
ENDBRANCH  22  24
ENDBRANCH   7  22
ENDBRANCH   2   3
TORSDOF 7
ENDMDL
MODEL       89
REMARK 921   NORMALIZED FREE ENERGY PREDICTED BY IDOCK:   -3.80 KCAL/MOL
REMARK 922        TOTAL FREE ENERGY PREDICTED BY IDOCK:   -6.66 KCAL/MOL
REMARK 923 INTER-LIGAND FREE ENERGY PREDICTED BY IDOCK:   -8.24 KCAL/MOL
REMARK 924 INTRA-LIGAND FREE ENERGY PREDICTED BY IDOCK:    1.58 KCAL/MOL
REMARK 927      BINDING AFFINITY PREDICTED BY RF-SCORE:    0.00 PKD
ROOT
HETATM    1  C   UNL     1     -12.221  12.615  63.683  1.00  0.00    -0.536 C  
HETATM    2  O   UNL     1     -10.812  12.799  63.741  1.00  0.00    -0.407 OA 
ENDROOT
BRANCH   2   3
HETATM    3  C   UNL     1     -10.237  13.212  64.929  1.00  0.00    -0.287 A  
HETATM    4  C   UNL     1     -10.120  14.565  65.343  1.00  0.00    -0.394 A  
HETATM    5  C   UNL     1      -9.506  14.945  66.554  1.00  0.00    -0.283 A  
HETATM    6  C   UNL     1      -9.029  13.866  67.334  1.00  0.00    -0.211 A  
HETATM    7  C   UNL     1      -9.764  12.139  65.737  1.00  0.00    -0.229 A  
HETATM    8  C   UNL     1      -9.158  12.499  66.935  1.00  0.00    -0.213 A  
BRANCH   5   9
HETATM    9  N   UNL     1      -9.446  16.287  66.959  1.00  0.00    -0.222 NA 
HETATM   10  C   UNL     1     -10.397  17.232  66.340  1.00  0.00    -0.316 C  
HETATM   11  C   UNL     1     -10.712  18.349  67.339  1.00  0.00    -0.397 C  
HETATM   12  C   UNL     1      -9.471  19.149  67.800  1.00  0.00    -0.303 C  
HETATM   13  C   UNL     1      -8.417  18.115  68.278  1.00  0.00    -0.294 C  
HETATM   14  C   UNL     1      -8.168  16.961  67.282  1.00  0.00    -0.184 C  
BRANCH  12  15
HETATM   15  N   UNL     1      -8.858  20.118  66.845  1.00  0.00    -0.335 NA 
HETATM   16  C   UNL     1      -8.182  21.287  67.450  1.00  0.00     0.443 C  
HETATM   17  C   UNL     1      -5.190  21.199  66.383  1.00  0.00    -0.215 C  
HETATM   18  C   UNL     1      -7.848  19.454  65.965  1.00  0.00    -0.281 C  
HETATM   19  C   UNL     1      -6.837  20.984  68.157  1.00  0.00    -0.021 C  
HETATM   20  C   UNL     1      -6.475  19.151  66.634  1.00  0.00    -0.188 C  
HETATM   21  N   UNL     1      -5.839  20.289  67.324  1.00  0.00    -0.169 NA 
ENDBRANCH  12  15
ENDBRANCH   5   9
BRANCH   7  22
HETATM   22  N   UNL     1      -9.983  10.811  65.268  1.00  0.00    -0.263 NA 
HETATM   23  H   UNL     1     -10.927  10.730  64.888  1.00  0.00     0.000 HD 
BRANCH  22  24
HETATM   24  C   UNL     1      -9.318   9.580  65.162  1.00  0.00    -0.252 A  
HETATM   25 CL   UNL     1      -7.295   5.612  65.049  1.00  0.00    -0.069 Cl 
HETATM   26  C   UNL     1      -8.702   7.590  66.341  1.00  0.00    -0.145 A  
HETATM   27  C   UNL     1      -8.122   7.969  64.060  1.00  0.00    -0.102 A  
HETATM   28  N   UNL     1      -8.733   9.175  64.029  1.00  0.00    -0.178 NA 
HETATM   29  C   UNL     1      -8.063   7.143  65.179  1.00  0.00    -0.127 A  
HETATM   30  N   UNL     1      -9.318   8.814  66.309  1.00  0.00    -0.204 NA 
BRANCH  26  31
HETATM   31  N   UNL     1      -8.621   6.762  67.601  1.00  0.00    -0.121 NA 
HETATM   32  H   UNL     1      -7.926   6.016  67.591  1.00  0.00     0.000 HD 
BRANCH  31  33
HETATM   33  C   UNL     1      -9.413   6.877  68.858  1.00  0.00    -0.136 A  
HETATM   34  C   UNL     1     -10.741   6.446  68.740  1.00  0.00    -0.339 A  
HETATM   35  C   UNL     1     -11.592   6.442  69.833  1.00  0.00    -0.422 A  
HETATM   36  C   UNL     1     -11.118   6.841  71.089  1.00  0.00    -0.313 A  
HETATM   37  C   UNL     1      -9.795   7.276  71.298  1.00  0.00    -0.183 A  
HETATM   38  C   UNL     1      -8.896   7.325  70.231  1.00  0.00    -0.147 A  
HETATM   39  P   UNL     1      -7.204   7.968  70.501  1.00  0.00    -0.054 P  
HETATM   40  C   UNL     1      -6.435   6.441  69.701  1.00  0.00    -0.043 C  
HETATM   41  O   UNL     1      -5.772   8.512  70.730  1.00  0.00    -0.031 OA 
HETATM   42  C   UNL     1      -7.521   9.314  69.204  1.00  0.00    -0.072 C  
ENDBRANCH  31  33
ENDBRANCH  26  31
ENDBRANCH  22  24
ENDBRANCH   7  22
ENDBRANCH   2   3
TORSDOF 7
ENDMDL
MODEL       90
REMARK 921   NORMALIZED FREE ENERGY PREDICTED BY IDOCK:   -3.71 KCAL/MOL
REMARK 922        TOTAL FREE ENERGY PREDICTED BY IDOCK:   -6.53 KCAL/MOL
REMARK 923 INTER-LIGAND FREE ENERGY PREDICTED BY IDOCK:   -7.95 KCAL/MOL
REMARK 924 INTRA-LIGAND FREE ENERGY PREDICTED BY IDOCK:    1.41 KCAL/MOL
REMARK 927      BINDING AFFINITY PREDICTED BY RF-SCORE:    0.00 PKD
ROOT
HETATM    1  C   UNL     1     -10.343  10.060  67.137  1.00  0.00    -0.241 C  
HETATM    2  O   UNL     1     -11.351   9.427  67.916  1.00  0.00     0.090 OA 
ENDROOT
BRANCH   2   3
HETATM    3  C   UNL     1     -10.978   8.657  69.002  1.00  0.00     0.090 A  
HETATM    4  C   UNL     1     -10.039   7.593  68.953  1.00  0.00    -0.202 A  
HETATM    5  C   UNL     1      -9.701   6.818  70.082  1.00  0.00    -0.167 A  
HETATM    6  C   UNL     1     -10.362   7.197  71.273  1.00  0.00    -0.209 A  
HETATM    7  C   UNL     1     -11.620   9.033  70.216  1.00  0.00    -0.060 A  
HETATM    8  C   UNL     1     -11.295   8.279  71.337  1.00  0.00    -0.309 A  
BRANCH   5   9
HETATM    9  N   UNL     1      -8.736   5.802  70.014  1.00  0.00    -0.130 NA 
HETATM   10  C   UNL     1      -7.343   6.158  70.347  1.00  0.00    -0.089 C  
HETATM   11  C   UNL     1      -6.640   4.931  70.935  1.00  0.00    -0.034 C  
HETATM   12  C   UNL     1      -6.611   3.709  69.986  1.00  0.00    -0.033 C  
HETATM   13  C   UNL     1      -8.068   3.470  69.509  1.00  0.00    -0.064 C  
HETATM   14  C   UNL     1      -8.777   4.738  68.985  1.00  0.00    -0.088 C  
BRANCH  12  15
HETATM   15  N   UNL     1      -5.677   3.738  68.823  1.00  0.00    -0.021 NA 
HETATM   16  C   UNL     1      -5.194   2.425  68.344  1.00  0.00    -0.012 C  
HETATM   17  C   UNL     1      -6.037   2.260  65.284  1.00  0.00    -0.019 C  
HETATM   18  C   UNL     1      -6.294   4.418  67.643  1.00  0.00    -0.037 C  
HETATM   19  C   UNL     1      -6.244   1.561  67.603  1.00  0.00    -0.024 C  
HETATM   20  C   UNL     1      -7.342   3.574  66.858  1.00  0.00    -0.067 C  
HETATM   21  N   UNL     1      -6.902   2.223  66.462  1.00  0.00    -0.042 NA 
ENDBRANCH  12  15
ENDBRANCH   5   9
BRANCH   7  22
HETATM   22  N   UNL     1     -12.498  10.155  70.179  1.00  0.00    -0.523 NA 
HETATM   23  H   UNL     1     -13.395   9.880  69.779  1.00  0.00     0.000 HD 
BRANCH  22  24
HETATM   24  C   UNL     1     -12.523  11.517  70.518  1.00  0.00    -0.280 A  
HETATM   25 CL   UNL     1     -12.514  15.892  71.366  1.00  0.00    -0.489 Cl 
HETATM   26  C   UNL     1     -11.869  13.711  69.819  1.00  0.00    -0.327 A  
HETATM   27  C   UNL     1     -13.053  13.304  71.848  1.00  0.00    -0.388 A  
HETATM   28  N   UNL     1     -13.101  11.969  71.637  1.00  0.00    -0.397 NA 
HETATM   29  C   UNL     1     -12.447  14.216  70.989  1.00  0.00    -0.367 A  
HETATM   30  N   UNL     1     -11.915  12.358  69.609  1.00  0.00    -0.298 NA 
BRANCH  26  31
HETATM   31  N   UNL     1     -11.148  14.648  68.879  1.00  0.00    -0.243 NA 
HETATM   32  H   UNL     1     -10.633  15.405  69.328  1.00  0.00     0.000 HD 
BRANCH  31  33
HETATM   33  C   UNL     1     -11.080  14.625  67.392  1.00  0.00    -0.326 A  
HETATM   34  C   UNL     1     -12.245  14.149  66.774  1.00  0.00    -0.429 A  
HETATM   35  C   UNL     1     -12.360  14.114  65.394  1.00  0.00    -0.475 A  
HETATM   36  C   UNL     1     -11.314  14.590  64.593  1.00  0.00    -0.372 A  
HETATM   37  C   UNL     1     -10.115  15.097  65.132  1.00  0.00    -0.331 A  
HETATM   38  C   UNL     1      -9.930  15.137  66.516  1.00  0.00    -0.266 A  
HETATM   39  P   UNL     1      -8.337  15.722  67.200  1.00  0.00    -0.245 P  
HETATM   40  C   UNL     1      -9.212  16.942  68.344  1.00  0.00    -0.253 C  
HETATM   41  O   UNL     1      -6.989  16.218  67.779  1.00  0.00    -0.120 OA 
HETATM   42  C   UNL     1      -8.105  14.048  68.059  1.00  0.00    -0.152 C  
ENDBRANCH  31  33
ENDBRANCH  26  31
ENDBRANCH  22  24
ENDBRANCH   7  22
ENDBRANCH   2   3
TORSDOF 7
ENDMDL
MODEL       91
REMARK 921   NORMALIZED FREE ENERGY PREDICTED BY IDOCK:   -3.69 KCAL/MOL
REMARK 922        TOTAL FREE ENERGY PREDICTED BY IDOCK:   -6.51 KCAL/MOL
REMARK 923 INTER-LIGAND FREE ENERGY PREDICTED BY IDOCK:   -5.84 KCAL/MOL
REMARK 924 INTRA-LIGAND FREE ENERGY PREDICTED BY IDOCK:   -0.67 KCAL/MOL
REMARK 927      BINDING AFFINITY PREDICTED BY RF-SCORE:    0.00 PKD
ROOT
HETATM    1  C   UNL     1     -13.476  10.074  71.646  1.00  0.00    -0.309 C  
HETATM    2  O   UNL     1     -12.119  10.425  71.404  1.00  0.00    -0.363 OA 
ENDROOT
BRANCH   2   3
HETATM    3  C   UNL     1     -11.690  10.591  70.100  1.00  0.00    -0.326 A  
HETATM    4  C   UNL     1     -11.222  11.816  69.553  1.00  0.00    -0.265 A  
HETATM    5  C   UNL     1     -10.813  11.948  68.210  1.00  0.00    -0.224 A  
HETATM    6  C   UNL     1     -10.891  10.756  67.453  1.00  0.00    -0.345 A  
HETATM    7  C   UNL     1     -11.746   9.399  69.324  1.00  0.00     0.567 A  
HETATM    8  C   UNL     1     -11.344   9.514  67.999  1.00  0.00     0.282 A  
BRANCH   5   9
HETATM    9  N   UNL     1     -10.311  13.158  67.711  1.00  0.00    -0.226 NA 
HETATM   10  C   UNL     1      -9.011  13.628  68.229  1.00  0.00    -0.187 C  
HETATM   11  C   UNL     1      -8.303  14.442  67.143  1.00  0.00    -0.214 C  
HETATM   12  C   UNL     1      -9.103  15.676  66.662  1.00  0.00    -0.282 C  
HETATM   13  C   UNL     1     -10.526  15.179  66.293  1.00  0.00    -0.312 C  
HETATM   14  C   UNL     1     -11.189  14.303  67.377  1.00  0.00    -0.316 C  
BRANCH  12  15
HETATM   15  N   UNL     1      -9.179  16.865  67.561  1.00  0.00    -0.222 NA 
HETATM   16  C   UNL     1      -8.025  17.788  67.517  1.00  0.00    -0.212 C  
HETATM   17  C   UNL     1      -9.223  20.627  66.739  1.00  0.00    -0.125 C  
HETATM   18  C   UNL     1     -10.393  17.689  67.274  1.00  0.00    -0.354 C  
HETATM   19  C   UNL     1      -7.910  18.647  66.232  1.00  0.00    -0.262 C  
HETATM   20  C   UNL     1     -10.309  18.582  66.001  1.00  0.00    -0.393 C  
HETATM   21  N   UNL     1      -9.110  19.436  65.901  1.00  0.00    -0.403 NA 
ENDBRANCH  12  15
ENDBRANCH   5   9
BRANCH   7  22
HETATM   22  N   UNL     1     -12.169   8.205  69.976  1.00  0.00     0.108 NA 
HETATM   23  H   UNL     1     -13.132   7.991  69.717  1.00  0.00     0.000 HD 
BRANCH  22  24
HETATM   24  C   UNL     1     -11.685   7.228  70.861  1.00  0.00    -0.315 A  
HETATM   25 CL   UNL     1      -9.924   4.234  73.652  1.00  0.00    -0.159 Cl 
HETATM   26  C   UNL     1      -9.713   6.310  71.861  1.00  0.00    -0.152 A  
HETATM   27  C   UNL     1     -11.899   5.481  72.325  1.00  0.00     0.014 A  
HETATM   28  N   UNL     1     -12.493   6.376  71.503  1.00  0.00    -0.156 NA 
HETATM   29  C   UNL     1     -10.526   5.392  72.534  1.00  0.00    -0.214 A  
HETATM   30  N   UNL     1     -10.316   7.214  71.026  1.00  0.00    -0.197 NA 
BRANCH  26  31
HETATM   31  N   UNL     1      -8.212   6.223  72.006  1.00  0.00    -0.110 NA 
HETATM   32  H   UNL     1      -7.846   5.293  72.209  1.00  0.00     0.000 HD 
BRANCH  31  33
HETATM   33  C   UNL     1      -7.190   7.300  71.894  1.00  0.00    -0.075 A  
HETATM   34  C   UNL     1      -7.300   8.298  72.873  1.00  0.00    -0.146 A  
HETATM   35  C   UNL     1      -6.392   9.341  72.936  1.00  0.00     0.339 A  
HETATM   36  C   UNL     1      -5.323   9.393  72.034  1.00  0.00    -0.076 A  
HETATM   37  C   UNL     1      -5.130   8.426  71.028  1.00  0.00    -0.025 A  
HETATM   38  C   UNL     1      -6.025   7.362  70.898  1.00  0.00    -0.035 A  
HETATM   39  P   UNL     1      -5.809   6.157  69.537  1.00  0.00    -0.018 P  
HETATM   40  C   UNL     1      -5.895   4.702  70.737  1.00  0.00    -0.017 C  
HETATM   41  O   UNL     1      -5.626   5.138  68.386  1.00  0.00    -0.014 OA 
HETATM   42  C   UNL     1      -7.537   6.595  68.891  1.00  0.00    -0.101 C  
ENDBRANCH  31  33
ENDBRANCH  26  31
ENDBRANCH  22  24
ENDBRANCH   7  22
ENDBRANCH   2   3
TORSDOF 7
ENDMDL
MODEL       92
REMARK 921   NORMALIZED FREE ENERGY PREDICTED BY IDOCK:   -3.68 KCAL/MOL
REMARK 922        TOTAL FREE ENERGY PREDICTED BY IDOCK:   -6.50 KCAL/MOL
REMARK 923 INTER-LIGAND FREE ENERGY PREDICTED BY IDOCK:   -8.68 KCAL/MOL
REMARK 924 INTRA-LIGAND FREE ENERGY PREDICTED BY IDOCK:    2.18 KCAL/MOL
REMARK 927      BINDING AFFINITY PREDICTED BY RF-SCORE:    0.00 PKD
ROOT
HETATM    1  C   UNL     1     -12.254  12.566  63.680  1.00  0.00    -0.550 C  
HETATM    2  O   UNL     1     -10.843  12.743  63.678  1.00  0.00    -0.412 OA 
ENDROOT
BRANCH   2   3
HETATM    3  C   UNL     1     -10.207  13.088  64.857  1.00  0.00    -0.284 A  
HETATM    4  C   UNL     1     -10.116  14.409  65.370  1.00  0.00    -0.388 A  
HETATM    5  C   UNL     1      -9.440  14.720  66.567  1.00  0.00    -0.293 A  
HETATM    6  C   UNL     1      -8.871  13.606  67.226  1.00  0.00    -0.227 A  
HETATM    7  C   UNL     1      -9.640  11.977  65.545  1.00  0.00    -0.159 A  
HETATM    8  C   UNL     1      -8.972  12.269  66.728  1.00  0.00    -0.209 A  
BRANCH   5   9
HETATM    9  N   UNL     1      -9.406  16.028  67.074  1.00  0.00    -0.213 NA 
HETATM   10  C   UNL     1     -10.519  16.930  66.717  1.00  0.00    -0.260 C  
HETATM   11  C   UNL     1     -10.730  17.937  67.851  1.00  0.00    -0.328 C  
HETATM   12  C   UNL     1      -9.487  18.805  68.159  1.00  0.00    -0.326 C  
HETATM   13  C   UNL     1      -8.292  17.835  68.351  1.00  0.00    -0.295 C  
HETATM   14  C   UNL     1      -8.143  16.785  67.229  1.00  0.00    -0.177 C  
BRANCH  12  15
HETATM   15  N   UNL     1      -9.130  19.894  67.203  1.00  0.00    -0.330 NA 
HETATM   16  C   UNL     1      -8.255  20.962  67.733  1.00  0.00     0.105 C  
HETATM   17  C   UNL     1      -5.702  21.003  65.840  1.00  0.00    -0.245 C  
HETATM   18  C   UNL     1      -8.448  19.352  65.988  1.00  0.00    -0.199 C  
HETATM   19  C   UNL     1      -6.779  20.555  67.971  1.00  0.00    -0.295 C  
HETATM   20  C   UNL     1      -6.956  18.949  66.182  1.00  0.00    -0.249 C  
HETATM   21  N   UNL     1      -6.096  19.975  66.801  1.00  0.00    -0.174 NA 
ENDBRANCH  12  15
ENDBRANCH   5   9
BRANCH   7  22
HETATM   22  N   UNL     1      -9.838  10.682  64.986  1.00  0.00    -0.268 NA 
HETATM   23  H   UNL     1     -10.804  10.584  64.673  1.00  0.00     0.000 HD 
BRANCH  22  24
HETATM   24  C   UNL     1      -9.130   9.497  64.728  1.00  0.00    -0.218 A  
HETATM   25 CL   UNL     1      -6.946   5.659  64.135  1.00  0.00    -0.049 Cl 
HETATM   26  C   UNL     1      -8.316   7.464  65.694  1.00  0.00    -0.140 A  
HETATM   27  C   UNL     1      -7.969   8.034  63.405  1.00  0.00    -0.133 A  
HETATM   28  N   UNL     1      -8.635   9.206  63.520  1.00  0.00    -0.192 NA 
HETATM   29  C   UNL     1      -7.768   7.135  64.448  1.00  0.00    -0.117 A  
HETATM   30  N   UNL     1      -8.987   8.653  65.809  1.00  0.00    -0.195 NA 
BRANCH  26  31
HETATM   31  N   UNL     1      -8.081   6.553  66.875  1.00  0.00    -0.111 NA 
HETATM   32  H   UNL     1      -7.248   5.969  66.817  1.00  0.00     0.000 HD 
BRANCH  31  33
HETATM   33  C   UNL     1      -8.891   6.387  68.113  1.00  0.00    -0.114 A  
HETATM   34  C   UNL     1      -9.119   7.580  68.813  1.00  0.00    -0.135 A  
HETATM   35  C   UNL     1      -9.900   7.601  69.957  1.00  0.00    -0.180 A  
HETATM   36  C   UNL     1     -10.503   6.423  70.413  1.00  0.00    -0.269 A  
HETATM   37  C   UNL     1     -10.337   5.184  69.763  1.00  0.00    -0.332 A  
HETATM   38  C   UNL     1      -9.543   5.094  68.618  1.00  0.00    -0.142 A  
HETATM   39  P   UNL     1      -9.271   3.464  67.830  1.00  0.00    -0.179 P  
HETATM   40  C   UNL     1      -9.782   4.133  66.141  1.00  0.00    -0.205 C  
HETATM   41  O   UNL     1      -9.042   2.086  67.164  1.00  0.00    -0.135 OA 
HETATM   42  C   UNL     1      -7.404   3.663  68.092  1.00  0.00    -0.054 C  
ENDBRANCH  31  33
ENDBRANCH  26  31
ENDBRANCH  22  24
ENDBRANCH   7  22
ENDBRANCH   2   3
TORSDOF 7
ENDMDL
MODEL       93
REMARK 921   NORMALIZED FREE ENERGY PREDICTED BY IDOCK:   -3.62 KCAL/MOL
REMARK 922        TOTAL FREE ENERGY PREDICTED BY IDOCK:   -6.41 KCAL/MOL
REMARK 923 INTER-LIGAND FREE ENERGY PREDICTED BY IDOCK:   -7.60 KCAL/MOL
REMARK 924 INTRA-LIGAND FREE ENERGY PREDICTED BY IDOCK:    1.19 KCAL/MOL
REMARK 927      BINDING AFFINITY PREDICTED BY RF-SCORE:    0.00 PKD
ROOT
HETATM    1  C   UNL     1     -12.326  10.677  70.817  1.00  0.00    -0.376 C  
HETATM    2  O   UNL     1     -11.595  11.159  69.696  1.00  0.00    -0.266 OA 
ENDROOT
BRANCH   2   3
HETATM    3  C   UNL     1     -10.817  10.275  68.971  1.00  0.00    -0.230 A  
HETATM    4  C   UNL     1     -10.272   9.068  69.485  1.00  0.00    -0.205 A  
HETATM    5  C   UNL     1      -9.466   8.204  68.716  1.00  0.00    -0.148 A  
HETATM    6  C   UNL     1      -9.256   8.628  67.383  1.00  0.00    -0.158 A  
HETATM    7  C   UNL     1     -10.607  10.675  67.621  1.00  0.00    -0.246 A  
HETATM    8  C   UNL     1      -9.815   9.832  66.851  1.00  0.00    -0.256 A  
BRANCH   5   9
HETATM    9  N   UNL     1      -8.980   6.996  69.237  1.00  0.00    -0.138 NA 
HETATM   10  C   UNL     1      -9.209   5.768  68.449  1.00  0.00    -0.117 C  
HETATM   11  C   UNL     1      -8.067   4.783  68.714  1.00  0.00    -0.083 C  
HETATM   12  C   UNL     1      -7.919   4.379  70.201  1.00  0.00    -0.059 C  
HETATM   13  C   UNL     1      -7.862   5.693  71.024  1.00  0.00    -0.105 C  
HETATM   14  C   UNL     1      -8.984   6.699  70.687  1.00  0.00    -0.151 C  
BRANCH  12  15
HETATM   15  N   UNL     1      -8.921   3.440  70.783  1.00  0.00    -0.086 NA 
HETATM   16  C   UNL     1      -8.412   2.108  71.176  1.00  0.00    -0.057 C  
HETATM   17  C   UNL     1      -9.092   1.802  74.265  1.00  0.00    -0.064 C  
HETATM   18  C   UNL     1      -9.573   4.019  71.997  1.00  0.00    -0.143 C  
HETATM   19  C   UNL     1      -7.514   2.086  72.439  1.00  0.00    -0.043 C  
HETATM   20  C   UNL     1      -8.709   3.997  73.294  1.00  0.00    -0.095 C  
HETATM   21  N   UNL     1      -8.116   2.693  73.640  1.00  0.00    -0.062 NA 
ENDBRANCH  12  15
ENDBRANCH   5   9
BRANCH   7  22
HETATM   22  N   UNL     1     -11.247  11.868  67.177  1.00  0.00    -0.299 NA 
HETATM   23  H   UNL     1     -12.029  11.635  66.565  1.00  0.00     0.000 HD 
BRANCH  22  24
HETATM   24  C   UNL     1     -11.146  13.262  67.312  1.00  0.00    -0.279 A  
HETATM   25 CL   UNL     1     -10.620  17.677  67.609  1.00  0.00    -0.375 Cl 
HETATM   26  C   UNL     1      -9.739  15.160  66.933  1.00  0.00    -0.239 A  
HETATM   27  C   UNL     1     -11.903  15.337  67.916  1.00  0.00    -0.125 A  
HETATM   28  N   UNL     1     -12.127  14.005  67.839  1.00  0.00    -0.339 NA 
HETATM   29  C   UNL     1     -10.736  15.966  67.495  1.00  0.00    -0.318 A  
HETATM   30  N   UNL     1      -9.966  13.811  66.858  1.00  0.00    -0.258 NA 
BRANCH  26  31
HETATM   31  N   UNL     1      -8.428  15.782  66.511  1.00  0.00    -0.290 NA 
HETATM   32  H   UNL     1      -7.946  15.308  65.748  1.00  0.00     0.000 HD 
BRANCH  31  33
HETATM   33  C   UNL     1      -7.740  16.987  67.050  1.00  0.00    -0.186 A  
HETATM   34  C   UNL     1      -7.952  18.152  66.299  1.00  0.00    -0.271 A  
HETATM   35  C   UNL     1      -7.423  19.367  66.699  1.00  0.00    -0.253 A  
HETATM   36  C   UNL     1      -6.689  19.453  67.888  1.00  0.00    -0.266 A  
HETATM   37  C   UNL     1      -6.440  18.336  68.709  1.00  0.00    -0.228 A  
HETATM   38  C   UNL     1      -6.928  17.078  68.348  1.00  0.00    -0.180 A  
HETATM   39  P   UNL     1      -6.529  15.621  69.381  1.00  0.00    -0.176 P  
HETATM   40  C   UNL     1      -8.348  15.128  69.487  1.00  0.00    -0.151 C  
HETATM   41  O   UNL     1      -6.191  14.389  70.256  1.00  0.00    -0.157 OA 
HETATM   42  C   UNL     1      -5.700  14.803  67.885  1.00  0.00    -0.121 C  
ENDBRANCH  31  33
ENDBRANCH  26  31
ENDBRANCH  22  24
ENDBRANCH   7  22
ENDBRANCH   2   3
TORSDOF 7
ENDMDL
MODEL       94
REMARK 921   NORMALIZED FREE ENERGY PREDICTED BY IDOCK:   -3.59 KCAL/MOL
REMARK 922        TOTAL FREE ENERGY PREDICTED BY IDOCK:   -6.37 KCAL/MOL
REMARK 923 INTER-LIGAND FREE ENERGY PREDICTED BY IDOCK:   -6.40 KCAL/MOL
REMARK 924 INTRA-LIGAND FREE ENERGY PREDICTED BY IDOCK:    0.03 KCAL/MOL
REMARK 927      BINDING AFFINITY PREDICTED BY RF-SCORE:    0.00 PKD
ROOT
HETATM    1  C   UNL     1     -11.772  10.646  70.648  1.00  0.00    -0.356 C  
HETATM    2  O   UNL     1     -10.990  11.402  69.730  1.00  0.00    -0.181 OA 
ENDROOT
BRANCH   2   3
HETATM    3  C   UNL     1     -10.269  10.737  68.756  1.00  0.00    -0.193 A  
HETATM    4  C   UNL     1      -9.565   9.521  68.959  1.00  0.00    -0.166 A  
HETATM    5  C   UNL     1      -8.823   8.885  67.942  1.00  0.00    -0.133 A  
HETATM    6  C   UNL     1      -8.849   9.551  66.695  1.00  0.00    -0.150 A  
HETATM    7  C   UNL     1     -10.295  11.382  67.486  1.00  0.00    -0.195 A  
HETATM    8  C   UNL     1      -9.570  10.766  66.474  1.00  0.00    -0.217 A  
BRANCH   5   9
HETATM    9  N   UNL     1      -8.176   7.660  68.160  1.00  0.00    -0.123 NA 
HETATM   10  C   UNL     1      -7.711   6.911  66.977  1.00  0.00    -0.103 C  
HETATM   11  C   UNL     1      -6.472   6.095  67.356  1.00  0.00    -0.046 C  
HETATM   12  C   UNL     1      -6.713   5.083  68.502  1.00  0.00    -0.050 C  
HETATM   13  C   UNL     1      -7.369   5.868  69.669  1.00  0.00    -0.075 C  
HETATM   14  C   UNL     1      -8.574   6.737  69.247  1.00  0.00    -0.129 C  
BRANCH  12  15
HETATM   15  N   UNL     1      -7.488   3.844  68.202  1.00  0.00    -0.062 NA 
HETATM   16  C   UNL     1      -8.369   3.901  67.016  1.00  0.00    -0.100 C  
HETATM   17  C   UNL     1      -7.418   1.531  65.123  1.00  0.00    -0.057 C  
HETATM   18  C   UNL     1      -6.584   2.670  68.003  1.00  0.00    -0.036 C  
HETATM   19  C   UNL     1      -7.643   3.894  65.647  1.00  0.00    -0.082 C  
HETATM   20  C   UNL     1      -5.850   2.616  66.630  1.00  0.00    -0.023 C  
HETATM   21  N   UNL     1      -6.711   2.770  65.443  1.00  0.00    -0.039 NA 
ENDBRANCH  12  15
ENDBRANCH   5   9
BRANCH   7  22
HETATM   22  N   UNL     1     -11.081  12.564  67.362  1.00  0.00    -0.259 NA 
HETATM   23  H   UNL     1     -11.981  12.338  66.935  1.00  0.00     0.000 HD 
BRANCH  22  24
HETATM   24  C   UNL     1     -11.015  13.939  67.637  1.00  0.00    -0.264 A  
HETATM   25 CL   UNL     1     -10.592  18.311  68.387  1.00  0.00    -0.277 Cl 
HETATM   26  C   UNL     1      -9.632  15.888  67.507  1.00  0.00    -0.221 A  
HETATM   27  C   UNL     1     -11.839  15.931  68.407  1.00  0.00    -0.121 A  
HETATM   28  N   UNL     1     -12.032  14.610  68.190  1.00  0.00    -0.288 NA 
HETATM   29  C   UNL     1     -10.668  16.618  68.101  1.00  0.00    -0.349 A  
HETATM   30  N   UNL     1      -9.828  14.549  67.291  1.00  0.00    -0.233 NA 
BRANCH  26  31
HETATM   31  N   UNL     1      -8.319  16.570  67.206  1.00  0.00    -0.169 NA 
HETATM   32  H   UNL     1      -8.158  16.795  66.225  1.00  0.00     0.000 HD 
BRANCH  31  33
HETATM   33  C   UNL     1      -7.224  16.959  68.137  1.00  0.00    -0.170 A  
HETATM   34  C   UNL     1      -7.070  16.098  69.233  1.00  0.00    -0.220 A  
HETATM   35  C   UNL     1      -6.062  16.296  70.162  1.00  0.00    -0.089 A  
HETATM   36  C   UNL     1      -5.155  17.350  69.996  1.00  0.00    -0.191 A  
HETATM   37  C   UNL     1      -5.229  18.253  68.918  1.00  0.00    -0.176 A  
HETATM   38  C   UNL     1      -6.237  18.121  67.960  1.00  0.00    -0.176 A  
HETATM   39  P   UNL     1      -6.371  19.349  66.610  1.00  0.00    -0.185 P  
HETATM   40  C   UNL     1      -6.408  17.989  65.301  1.00  0.00     0.024 C  
HETATM   41  O   UNL     1      -6.483  20.388  65.467  1.00  0.00    -0.228 OA 
HETATM   42  C   UNL     1      -8.128  19.772  67.185  1.00  0.00    -0.292 C  
ENDBRANCH  31  33
ENDBRANCH  26  31
ENDBRANCH  22  24
ENDBRANCH   7  22
ENDBRANCH   2   3
TORSDOF 7
ENDMDL
MODEL       95
REMARK 921   NORMALIZED FREE ENERGY PREDICTED BY IDOCK:   -3.54 KCAL/MOL
REMARK 922        TOTAL FREE ENERGY PREDICTED BY IDOCK:   -6.31 KCAL/MOL
REMARK 923 INTER-LIGAND FREE ENERGY PREDICTED BY IDOCK:   -8.13 KCAL/MOL
REMARK 924 INTRA-LIGAND FREE ENERGY PREDICTED BY IDOCK:    1.82 KCAL/MOL
REMARK 927      BINDING AFFINITY PREDICTED BY RF-SCORE:    0.00 PKD
ROOT
HETATM    1  C   UNL     1     -11.505  11.612  64.084  1.00  0.00    -0.280 C  
HETATM    2  O   UNL     1     -10.475  10.895  64.752  1.00  0.00    -0.328 OA 
ENDROOT
BRANCH   2   3
HETATM    3  C   UNL     1     -10.519  10.781  66.129  1.00  0.00    -0.214 A  
HETATM    4  C   UNL     1     -10.597   9.552  66.837  1.00  0.00    -0.241 A  
HETATM    5  C   UNL     1     -10.661   9.481  68.244  1.00  0.00    -0.216 A  
HETATM    6  C   UNL     1     -10.625  10.736  68.896  1.00  0.00    -0.246 A  
HETATM    7  C   UNL     1     -10.468  12.033  66.807  1.00  0.00    -0.214 A  
HETATM    8  C   UNL     1     -10.529  11.978  68.194  1.00  0.00    -0.218 A  
BRANCH   5   9
HETATM    9  N   UNL     1     -10.690   8.251  68.917  1.00  0.00    -0.127 NA 
HETATM   10  C   UNL     1     -11.302   8.220  70.260  1.00  0.00    -0.129 C  
HETATM   11  C   UNL     1     -11.909   6.835  70.501  1.00  0.00    -0.418 C  
HETATM   12  C   UNL     1     -10.887   5.677  70.411  1.00  0.00    -0.256 C  
HETATM   13  C   UNL     1     -10.131   5.842  69.066  1.00  0.00    -0.237 C  
HETATM   14  C   UNL     1      -9.590   7.266  68.816  1.00  0.00    -0.142 C  
BRANCH  12  15
HETATM   15  N   UNL     1      -9.922   5.496  71.535  1.00  0.00    -0.171 NA 
HETATM   16  C   UNL     1     -10.068   4.252  72.322  1.00  0.00    -0.182 C  
HETATM   17  C   UNL     1      -7.258   2.779  72.134  1.00  0.00    -0.042 C  
HETATM   18  C   UNL     1      -8.507   5.527  71.051  1.00  0.00    -0.125 C  
HETATM   19  C   UNL     1      -9.623   2.954  71.603  1.00  0.00    -0.152 C  
HETATM   20  C   UNL     1      -8.016   4.232  70.339  1.00  0.00    -0.052 C  
HETATM   21  N   UNL     1      -8.247   2.975  71.075  1.00  0.00    -0.057 NA 
ENDBRANCH  12  15
ENDBRANCH   5   9
BRANCH   7  22
HETATM   22  N   UNL     1     -10.325  13.208  66.015  1.00  0.00    -0.282 NA 
HETATM   23  H   UNL     1     -10.326  12.961  65.025  1.00  0.00     0.000 HD 
BRANCH  22  24
HETATM   24  C   UNL     1     -10.183  14.597  66.160  1.00  0.00    -0.301 A  
HETATM   25 CL   UNL     1      -9.490  18.977  66.599  1.00  0.00    -0.351 Cl 
HETATM   26  C   UNL     1      -8.608  16.376  66.450  1.00  0.00    -0.323 A  
HETATM   27  C   UNL     1     -10.959  16.746  66.309  1.00  0.00     0.149 A  
HETATM   28  N   UNL     1     -11.231  15.430  66.157  1.00  0.00    -0.229 NA 
HETATM   29  C   UNL     1      -9.681  17.274  66.470  1.00  0.00    -0.288 A  
HETATM   30  N   UNL     1      -8.886  15.042  66.299  1.00  0.00    -0.208 NA 
BRANCH  26  31
HETATM   31  N   UNL     1      -7.205  16.886  66.677  1.00  0.00    -0.234 NA 
HETATM   32  H   UNL     1      -6.501  16.532  66.030  1.00  0.00     0.000 HD 
BRANCH  31  33
HETATM   33  C   UNL     1      -6.702  17.832  67.712  1.00  0.00    -0.185 A  
HETATM   34  C   UNL     1      -6.607  19.161  67.275  1.00  0.00    -0.201 A  
HETATM   35  C   UNL     1      -6.205  20.169  68.135  1.00  0.00    -0.295 A  
HETATM   36  C   UNL     1      -5.919  19.874  69.474  1.00  0.00    -0.337 A  
HETATM   37  C   UNL     1      -6.001  18.569  69.998  1.00  0.00    -0.194 A  
HETATM   38  C   UNL     1      -6.378  17.505  69.175  1.00  0.00    -0.235 A  
HETATM   39  P   UNL     1      -6.404  15.804  69.849  1.00  0.00    -0.042 P  
HETATM   40  C   UNL     1      -8.165  15.525  69.230  1.00  0.00    -0.255 C  
HETATM   41  O   UNL     1      -6.425  14.365  70.419  1.00  0.00    -0.174 OA 
HETATM   42  C   UNL     1      -5.142  15.278  68.535  1.00  0.00    -0.099 C  
ENDBRANCH  31  33
ENDBRANCH  26  31
ENDBRANCH  22  24
ENDBRANCH   7  22
ENDBRANCH   2   3
TORSDOF 7
ENDMDL
MODEL       96
REMARK 921   NORMALIZED FREE ENERGY PREDICTED BY IDOCK:   -3.54 KCAL/MOL
REMARK 922        TOTAL FREE ENERGY PREDICTED BY IDOCK:   -6.31 KCAL/MOL
REMARK 923 INTER-LIGAND FREE ENERGY PREDICTED BY IDOCK:   -7.09 KCAL/MOL
REMARK 924 INTRA-LIGAND FREE ENERGY PREDICTED BY IDOCK:    0.78 KCAL/MOL
REMARK 927      BINDING AFFINITY PREDICTED BY RF-SCORE:    0.00 PKD
ROOT
HETATM    1  C   UNL     1      -8.609   9.510  63.416  1.00  0.00    -0.210 C  
HETATM    2  O   UNL     1      -9.042   8.840  64.593  1.00  0.00    -0.027 OA 
ENDROOT
BRANCH   2   3
HETATM    3  C   UNL     1      -9.565   9.582  65.636  1.00  0.00    -0.277 A  
HETATM    4  C   UNL     1      -9.412  10.986  65.785  1.00  0.00    -0.242 A  
HETATM    5  C   UNL     1      -9.944  11.703  66.876  1.00  0.00    -0.202 A  
HETATM    6  C   UNL     1     -10.660  10.911  67.805  1.00  0.00    -0.255 A  
HETATM    7  C   UNL     1     -10.303   8.806  66.574  1.00  0.00    -0.184 A  
HETATM    8  C   UNL     1     -10.836   9.500  67.654  1.00  0.00    -0.253 A  
BRANCH   5   9
HETATM    9  N   UNL     1      -9.816  13.096  66.973  1.00  0.00    -0.238 NA 
HETATM   10  C   UNL     1      -8.456  13.651  67.113  1.00  0.00    -0.174 C  
HETATM   11  C   UNL     1      -8.416  15.044  66.478  1.00  0.00    -0.093 C  
HETATM   12  C   UNL     1      -9.411  16.049  67.104  1.00  0.00    -0.216 C  
HETATM   13  C   UNL     1     -10.804  15.365  67.108  1.00  0.00    -0.321 C  
HETATM   14  C   UNL     1     -10.804  13.934  67.690  1.00  0.00    -0.254 C  
BRANCH  12  15
HETATM   15  N   UNL     1      -9.099  16.609  68.451  1.00  0.00    -0.218 NA 
HETATM   16  C   UNL     1      -8.765  15.624  69.503  1.00  0.00    -0.199 C  
HETATM   17  C   UNL     1      -5.875  16.430  70.552  1.00  0.00     0.034 C  
HETATM   18  C   UNL     1      -7.955  17.569  68.392  1.00  0.00    -0.261 C  
HETATM   19  C   UNL     1      -7.381  14.942  69.359  1.00  0.00    -0.181 C  
HETATM   20  C   UNL     1      -6.544  16.921  68.267  1.00  0.00    -0.147 C  
HETATM   21  N   UNL     1      -6.239  15.867  69.253  1.00  0.00    -0.137 NA 
ENDBRANCH  12  15
ENDBRANCH   5   9
BRANCH   7  22
HETATM   22  N   UNL     1     -10.458   7.415  66.307  1.00  0.00    -0.313 NA 
HETATM   23  H   UNL     1     -10.913   7.286  65.403  1.00  0.00     0.000 HD 
BRANCH  22  24
HETATM   24  C   UNL     1     -10.185   6.167  66.887  1.00  0.00    -0.208 A  
HETATM   25 CL   UNL     1      -9.377   2.302  68.951  1.00  0.00    -0.215 Cl 
HETATM   26  C   UNL     1      -9.929   4.996  68.959  1.00  0.00    -0.181 A  
HETATM   27  C   UNL     1      -9.696   3.931  66.839  1.00  0.00    -0.157 A  
HETATM   28  N   UNL     1      -9.950   5.071  66.157  1.00  0.00    -0.200 NA 
HETATM   29  C   UNL     1      -9.661   3.834  68.227  1.00  0.00    -0.106 A  
HETATM   30  N   UNL     1     -10.183   6.151  68.266  1.00  0.00    -0.158 NA 
BRANCH  26  31
HETATM   31  N   UNL     1      -9.848   4.962  70.467  1.00  0.00    -0.209 NA 
HETATM   32  H   UNL     1     -10.659   4.564  70.939  1.00  0.00     0.000 HD 
BRANCH  31  33
HETATM   33  C   UNL     1      -8.752   5.426  71.362  1.00  0.00    -0.131 A  
HETATM   34  C   UNL     1      -7.827   6.278  70.742  1.00  0.00    -0.106 A  
HETATM   35  C   UNL     1      -6.779   6.837  71.454  1.00  0.00    -0.061 A  
HETATM   36  C   UNL     1      -6.650   6.580  72.825  1.00  0.00    -0.064 A  
HETATM   37  C   UNL     1      -7.542   5.748  73.529  1.00  0.00    -0.101 A  
HETATM   38  C   UNL     1      -8.606   5.137  72.862  1.00  0.00    -0.115 A  
HETATM   39  P   UNL     1      -9.709   3.994  73.771  1.00  0.00    -0.118 P  
HETATM   40  C   UNL     1     -11.246   4.915  73.175  1.00  0.00    -0.326 C  
HETATM   41  O   UNL     1     -10.643   3.028  74.541  1.00  0.00    -0.176 OA 
HETATM   42  C   UNL     1      -9.249   2.607  72.562  1.00  0.00    -0.084 C  
ENDBRANCH  31  33
ENDBRANCH  26  31
ENDBRANCH  22  24
ENDBRANCH   7  22
ENDBRANCH   2   3
TORSDOF 7
ENDMDL
MODEL       97
REMARK 921   NORMALIZED FREE ENERGY PREDICTED BY IDOCK:   -3.35 KCAL/MOL
REMARK 922        TOTAL FREE ENERGY PREDICTED BY IDOCK:   -6.03 KCAL/MOL
REMARK 923 INTER-LIGAND FREE ENERGY PREDICTED BY IDOCK:   -5.12 KCAL/MOL
REMARK 924 INTRA-LIGAND FREE ENERGY PREDICTED BY IDOCK:   -0.91 KCAL/MOL
REMARK 927      BINDING AFFINITY PREDICTED BY RF-SCORE:    0.00 PKD
ROOT
HETATM    1  C   UNL     1     -11.514  11.787  64.125  1.00  0.00    -0.327 C  
HETATM    2  O   UNL     1     -10.867  10.867  64.996  1.00  0.00    -0.208 OA 
ENDROOT
BRANCH   2   3
HETATM    3  C   UNL     1     -10.128  11.355  66.059  1.00  0.00    -0.234 A  
HETATM    4  C   UNL     1      -9.759  12.715  66.230  1.00  0.00    -0.260 A  
HETATM    5  C   UNL     1      -8.985  13.168  67.318  1.00  0.00    -0.216 A  
HETATM    6  C   UNL     1      -8.619  12.157  68.237  1.00  0.00    -0.175 A  
HETATM    7  C   UNL     1      -9.762  10.355  67.005  1.00  0.00    -0.178 A  
HETATM    8  C   UNL     1      -9.000  10.787  68.084  1.00  0.00    -0.140 A  
BRANCH   5   9
HETATM    9  N   UNL     1      -8.675  14.525  67.486  1.00  0.00    -0.177 NA 
HETATM   10  C   UNL     1      -7.537  15.068  66.718  1.00  0.00     0.309 C  
HETATM   11  C   UNL     1      -7.791  16.549  66.427  1.00  0.00    -0.324 C  
HETATM   12  C   UNL     1      -7.972  17.417  67.695  1.00  0.00    -0.193 C  
HETATM   13  C   UNL     1      -9.049  16.721  68.570  1.00  0.00    -0.241 C  
HETATM   14  C   UNL     1      -8.806  15.213  68.790  1.00  0.00    -0.196 C  
BRANCH  12  15
HETATM   15  N   UNL     1      -6.765  17.741  68.510  1.00  0.00    -0.209 NA 
HETATM   16  C   UNL     1      -5.686  18.470  67.809  1.00  0.00    -0.167 C  
HETATM   17  C   UNL     1      -5.232  21.141  69.471  1.00  0.00    -0.288 C  
HETATM   18  C   UNL     1      -7.119  18.559  69.710  1.00  0.00     0.298 C  
HETATM   19  C   UNL     1      -5.987  19.956  67.489  1.00  0.00    -0.181 C  
HETATM   20  C   UNL     1      -7.410  20.063  69.432  1.00  0.00    -0.029 C  
HETATM   21  N   UNL     1      -6.383  20.775  68.648  1.00  0.00    -0.283 NA 
ENDBRANCH  12  15
ENDBRANCH   5   9
BRANCH   7  22
HETATM   22  N   UNL     1     -10.233   9.029  66.782  1.00  0.00    -0.271 NA 
HETATM   23  H   UNL     1     -11.046   9.050  66.165  1.00  0.00     0.000 HD 
BRANCH  22  24
HETATM   24  C   UNL     1      -9.937   7.704  67.138  1.00  0.00    -0.229 A  
HETATM   25 CL   UNL     1      -8.957   3.577  68.501  1.00  0.00    -0.163 Cl 
HETATM   26  C   UNL     1      -9.094   6.297  68.881  1.00  0.00    -0.124 A  
HETATM   27  C   UNL     1      -9.811   5.448  66.772  1.00  0.00    -0.171 A  
HETATM   28  N   UNL     1     -10.142   6.675  66.308  1.00  0.00     0.034 NA 
HETATM   29  C   UNL     1      -9.277   5.199  68.033  1.00  0.00    -0.116 A  
HETATM   30  N   UNL     1      -9.426   7.540  68.408  1.00  0.00    -0.148 NA 
BRANCH  26  31
HETATM   31  N   UNL     1      -8.464   6.093  70.239  1.00  0.00    -0.124 NA 
HETATM   32  H   UNL     1      -8.620   5.178  70.659  1.00  0.00     0.000 HD 
BRANCH  31  33
HETATM   33  C   UNL     1      -7.649   7.038  71.051  1.00  0.00    -0.086 A  
HETATM   34  C   UNL     1      -7.741   8.375  70.639  1.00  0.00    -0.083 A  
HETATM   35  C   UNL     1      -7.083   9.382  71.325  1.00  0.00     0.045 A  
HETATM   36  C   UNL     1      -6.338   9.077  72.470  1.00  0.00     0.083 A  
HETATM   37  C   UNL     1      -6.204   7.763  72.961  1.00  0.00    -0.063 A  
HETATM   38  C   UNL     1      -6.825   6.701  72.300  1.00  0.00    -0.067 A  
HETATM   39  P   UNL     1      -6.577   4.990  72.902  1.00  0.00    -0.065 P  
HETATM   40  C   UNL     1      -8.437   4.673  72.936  1.00  0.00    -0.110 C  
HETATM   41  O   UNL     1      -6.367   3.543  73.412  1.00  0.00    -0.021 OA 
HETATM   42  C   UNL     1      -5.847   4.516  71.217  1.00  0.00    -0.016 C  
ENDBRANCH  31  33
ENDBRANCH  26  31
ENDBRANCH  22  24
ENDBRANCH   7  22
ENDBRANCH   2   3
TORSDOF 7
ENDMDL
MODEL       98
REMARK 921   NORMALIZED FREE ENERGY PREDICTED BY IDOCK:   -3.30 KCAL/MOL
REMARK 922        TOTAL FREE ENERGY PREDICTED BY IDOCK:   -5.96 KCAL/MOL
REMARK 923 INTER-LIGAND FREE ENERGY PREDICTED BY IDOCK:   -6.77 KCAL/MOL
REMARK 924 INTRA-LIGAND FREE ENERGY PREDICTED BY IDOCK:    0.82 KCAL/MOL
REMARK 927      BINDING AFFINITY PREDICTED BY RF-SCORE:    0.00 PKD
ROOT
HETATM    1  C   UNL     1     -11.419  11.355  66.884  1.00  0.00    -0.119 C  
HETATM    2  O   UNL     1     -10.838  11.035  68.142  1.00  0.00    -0.193 OA 
ENDROOT
BRANCH   2   3
HETATM    3  C   UNL     1      -9.828  10.093  68.195  1.00  0.00    -0.144 A  
HETATM    4  C   UNL     1      -9.998   8.749  68.621  1.00  0.00    -0.197 A  
HETATM    5  C   UNL     1      -8.935   7.824  68.680  1.00  0.00    -0.133 A  
HETATM    6  C   UNL     1      -7.685   8.340  68.265  1.00  0.00    -0.106 A  
HETATM    7  C   UNL     1      -8.564  10.588  67.765  1.00  0.00    -0.118 A  
HETATM    8  C   UNL     1      -7.507   9.686  67.817  1.00  0.00    -0.087 A  
BRANCH   5   9
HETATM    9  N   UNL     1      -9.141   6.491  69.061  1.00  0.00    -0.132 NA 
HETATM   10  C   UNL     1      -9.366   6.214  70.494  1.00  0.00    -0.161 C  
HETATM   11  C   UNL     1     -10.262   4.979  70.631  1.00  0.00    -0.306 C  
HETATM   12  C   UNL     1      -9.675   3.703  69.981  1.00  0.00    -0.109 C  
HETATM   13  C   UNL     1      -9.280   4.075  68.527  1.00  0.00    -0.206 C  
HETATM   14  C   UNL     1      -8.436   5.363  68.412  1.00  0.00    -0.096 C  
BRANCH  12  15
HETATM   15  N   UNL     1      -8.546   3.013  70.670  1.00  0.00    -0.064 NA 
HETATM   16  C   UNL     1      -8.003   3.692  71.866  1.00  0.00    -0.063 C  
HETATM   17  C   UNL     1      -8.282   1.602  74.245  1.00  0.00    -0.045 C  
HETATM   18  C   UNL     1      -8.932   1.635  71.105  1.00  0.00    -0.068 C  
HETATM   19  C   UNL     1      -8.913   3.662  73.119  1.00  0.00    -0.098 C  
HETATM   20  C   UNL     1      -9.833   1.561  72.373  1.00  0.00    -0.104 C  
HETATM   21  N   UNL     1      -9.346   2.317  73.542  1.00  0.00    -0.082 NA 
ENDBRANCH  12  15
ENDBRANCH   5   9
BRANCH   7  22
HETATM   22  N   UNL     1      -8.504  11.931  67.294  1.00  0.00    -0.164 NA 
HETATM   23  H   UNL     1      -9.242  12.089  66.607  1.00  0.00     0.000 HD 
BRANCH  22  24
HETATM   24  C   UNL     1      -7.757  13.106  67.472  1.00  0.00    -0.166 A  
HETATM   25 CL   UNL     1      -5.569  16.960  67.931  1.00  0.00    -0.120 Cl 
HETATM   26  C   UNL     1      -7.644  15.440  66.957  1.00  0.00    -0.160 A  
HETATM   27  C   UNL     1      -5.998  14.331  68.277  1.00  0.00    -0.120 A  
HETATM   28  N   UNL     1      -6.625  13.136  68.186  1.00  0.00    -0.093 NA 
HETATM   29  C   UNL     1      -6.448  15.505  67.680  1.00  0.00    -0.168 A  
HETATM   30  N   UNL     1      -8.277  14.228  66.862  1.00  0.00    -0.084 NA 
BRANCH  26  31
HETATM   31  N   UNL     1      -8.149  16.670  66.241  1.00  0.00    -0.327 NA 
HETATM   32  H   UNL     1      -8.222  16.587  65.227  1.00  0.00     0.000 HD 
BRANCH  31  33
HETATM   33  C   UNL     1      -8.557  17.988  66.803  1.00  0.00    -0.255 A  
HETATM   34  C   UNL     1      -7.745  19.058  66.402  1.00  0.00    -0.289 A  
HETATM   35  C   UNL     1      -8.024  20.355  66.798  1.00  0.00    -0.295 A  
HETATM   36  C   UNL     1      -9.152  20.619  67.585  1.00  0.00    -0.287 A  
HETATM   37  C   UNL     1     -10.027  19.605  68.021  1.00  0.00    -0.541 A  
HETATM   38  C   UNL     1      -9.787  18.274  67.674  1.00  0.00    -0.320 A  
HETATM   39  P   UNL     1     -10.887  16.959  68.314  1.00  0.00    -0.219 P  
HETATM   40  C   UNL     1     -11.150  16.259  66.581  1.00  0.00     0.104 C  
HETATM   41  O   UNL     1     -11.817  15.846  68.855  1.00  0.00    -0.397 OA 
HETATM   42  C   UNL     1      -9.396  16.135  69.148  1.00  0.00    -0.238 C  
ENDBRANCH  31  33
ENDBRANCH  26  31
ENDBRANCH  22  24
ENDBRANCH   7  22
ENDBRANCH   2   3
TORSDOF 7
ENDMDL
MODEL       99
REMARK 921   NORMALIZED FREE ENERGY PREDICTED BY IDOCK:   -3.27 KCAL/MOL
REMARK 922        TOTAL FREE ENERGY PREDICTED BY IDOCK:   -5.92 KCAL/MOL
REMARK 923 INTER-LIGAND FREE ENERGY PREDICTED BY IDOCK:   -5.39 KCAL/MOL
REMARK 924 INTRA-LIGAND FREE ENERGY PREDICTED BY IDOCK:   -0.53 KCAL/MOL
REMARK 927      BINDING AFFINITY PREDICTED BY RF-SCORE:    0.00 PKD
ROOT
HETATM    1  C   UNL     1      -7.949   9.256  64.910  1.00  0.00    -0.121 C  
HETATM    2  O   UNL     1      -7.750  10.166  65.984  1.00  0.00    -0.109 OA 
ENDROOT
BRANCH   2   3
HETATM    3  C   UNL     1      -7.640   9.674  67.271  1.00  0.00    -0.091 A  
HETATM    4  C   UNL     1      -7.831   8.315  67.636  1.00  0.00    -0.106 A  
HETATM    5  C   UNL     1      -7.730   7.857  68.966  1.00  0.00    -0.101 A  
HETATM    6  C   UNL     1      -7.408   8.861  69.908  1.00  0.00    -0.054 A  
HETATM    7  C   UNL     1      -7.301  10.666  68.235  1.00  0.00    -0.089 A  
HETATM    8  C   UNL     1      -7.196  10.229  69.550  1.00  0.00    -0.122 A  
BRANCH   5   9
HETATM    9  N   UNL     1      -7.877   6.500  69.289  1.00  0.00    -0.108 NA 
HETATM   10  C   UNL     1      -8.289   6.165  70.666  1.00  0.00    -0.126 C  
HETATM   11  C   UNL     1      -9.087   4.858  70.646  1.00  0.00    -0.174 C  
HETATM   12  C   UNL     1      -8.305   3.653  70.072  1.00  0.00    -0.055 C  
HETATM   13  C   UNL     1      -7.730   4.098  68.700  1.00  0.00    -0.062 C  
HETATM   14  C   UNL     1      -6.990   5.453  68.734  1.00  0.00    -0.060 C  
BRANCH  12  15
HETATM   15  N   UNL     1      -7.237   3.037  70.912  1.00  0.00    -0.033 NA 
HETATM   16  C   UNL     1      -6.906   3.747  72.166  1.00  0.00    -0.026 C  
HETATM   17  C   UNL     1      -7.367   1.637  74.498  1.00  0.00    -0.028 C  
HETATM   18  C   UNL     1      -7.586   1.635  71.298  1.00  0.00    -0.032 C  
HETATM   19  C   UNL     1      -7.974   3.653  73.285  1.00  0.00    -0.079 C  
HETATM   20  C   UNL     1      -8.644   1.499  72.434  1.00  0.00    -0.053 C  
HETATM   21  N   UNL     1      -8.371   2.282  73.653  1.00  0.00    -0.062 NA 
ENDBRANCH  12  15
ENDBRANCH   5   9
BRANCH   7  22
HETATM   22  N   UNL     1      -7.066  11.991  67.765  1.00  0.00    -0.098 NA 
HETATM   23  H   UNL     1      -7.239  12.038  66.761  1.00  0.00     0.000 HD 
BRANCH  22  24
HETATM   24  C   UNL     1      -6.673  13.251  68.241  1.00  0.00    -0.103 A  
HETATM   25 CL   UNL     1      -5.621  17.350  69.637  1.00  0.00    -0.200 Cl 
HETATM   26  C   UNL     1      -7.095  15.604  68.107  1.00  0.00    -0.118 A  
HETATM   27  C   UNL     1      -5.405  14.675  69.509  1.00  0.00    -0.091 A  
HETATM   28  N   UNL     1      -5.689  13.407  69.135  1.00  0.00    -0.075 NA 
HETATM   29  C   UNL     1      -6.059  15.805  69.026  1.00  0.00    -0.116 A  
HETATM   30  N   UNL     1      -7.379  14.318  67.726  1.00  0.00    -0.156 NA 
BRANCH  26  31
HETATM   31  N   UNL     1      -7.801  16.796  67.506  1.00  0.00    -0.165 NA 
HETATM   32  H   UNL     1      -8.788  16.885  67.743  1.00  0.00     0.000 HD 
BRANCH  31  33
HETATM   33  C   UNL     1      -7.260  17.862  66.617  1.00  0.00    -0.219 A  
HETATM   34  C   UNL     1      -6.130  17.477  65.883  1.00  0.00    -0.115 A  
HETATM   35  C   UNL     1      -5.541  18.338  64.972  1.00  0.00    -0.138 A  
HETATM   36  C   UNL     1      -6.094  19.605  64.749  1.00  0.00    -0.316 A  
HETATM   37  C   UNL     1      -7.235  20.066  65.434  1.00  0.00    -0.258 A  
HETATM   38  C   UNL     1      -7.861  19.253  66.381  1.00  0.00    -0.291 A  
HETATM   39  P   UNL     1      -9.294  19.896  67.322  1.00  0.00    -0.401 P  
HETATM   40  C   UNL     1     -10.330  18.380  66.887  1.00  0.00    -0.390 C  
HETATM   41  O   UNL     1     -10.505  20.440  68.117  1.00  0.00    -0.251 OA 
HETATM   42  C   UNL     1      -8.343  19.615  68.938  1.00  0.00    -0.200 C  
ENDBRANCH  31  33
ENDBRANCH  26  31
ENDBRANCH  22  24
ENDBRANCH   7  22
ENDBRANCH   2   3
TORSDOF 7
ENDMDL
MODEL      100
REMARK 921   NORMALIZED FREE ENERGY PREDICTED BY IDOCK:   -3.27 KCAL/MOL
REMARK 922        TOTAL FREE ENERGY PREDICTED BY IDOCK:   -5.92 KCAL/MOL
REMARK 923 INTER-LIGAND FREE ENERGY PREDICTED BY IDOCK:   -5.89 KCAL/MOL
REMARK 924 INTRA-LIGAND FREE ENERGY PREDICTED BY IDOCK:   -0.03 KCAL/MOL
REMARK 927      BINDING AFFINITY PREDICTED BY RF-SCORE:    0.00 PKD
ROOT
HETATM    1  C   UNL     1     -11.406   8.202  67.974  1.00  0.00     0.935 C  
HETATM    2  O   UNL     1     -10.219   8.982  68.049  1.00  0.00    -0.192 OA 
ENDROOT
BRANCH   2   3
HETATM    3  C   UNL     1      -9.998   9.963  67.101  1.00  0.00    -0.200 A  
HETATM    4  C   UNL     1     -10.043  11.359  67.356  1.00  0.00    -0.208 A  
HETATM    5  C   UNL     1      -9.831  12.328  66.354  1.00  0.00    -0.230 A  
HETATM    6  C   UNL     1      -9.555  11.796  65.073  1.00  0.00    -0.150 A  
HETATM    7  C   UNL     1      -9.703   9.448  65.806  1.00  0.00    -0.284 A  
HETATM    8  C   UNL     1      -9.491  10.393  64.809  1.00  0.00    -0.329 A  
BRANCH   5   9
HETATM    9  N   UNL     1      -9.835  13.700  66.646  1.00  0.00    -0.276 NA 
HETATM   10  C   UNL     1      -8.542  14.411  66.615  1.00  0.00    -0.019 C  
HETATM   11  C   UNL     1      -8.782  15.869  66.213  1.00  0.00    -0.372 C  
HETATM   12  C   UNL     1      -9.729  16.635  67.167  1.00  0.00    -0.250 C  
HETATM   13  C   UNL     1     -11.010  15.774  67.323  1.00  0.00    -0.259 C  
HETATM   14  C   UNL     1     -10.738  14.292  67.660  1.00  0.00    -0.258 C  
BRANCH  12  15
HETATM   15  N   UNL     1      -9.208  17.046  68.503  1.00  0.00    -0.259 NA 
HETATM   16  C   UNL     1      -7.736  17.114  68.634  1.00  0.00    -0.260 C  
HETATM   17  C   UNL     1      -7.089  20.092  69.537  1.00  0.00    -0.113 C  
HETATM   18  C   UNL     1      -9.731  18.387  68.905  1.00  0.00    -0.291 C  
HETATM   19  C   UNL     1      -7.058  18.298  67.898  1.00  0.00    -0.223 C  
HETATM   20  C   UNL     1      -9.061  19.605  68.202  1.00  0.00    -0.329 C  
HETATM   21  N   UNL     1      -7.587  19.630  68.243  1.00  0.00    -0.309 NA 
ENDBRANCH  12  15
ENDBRANCH   5   9
BRANCH   7  22
HETATM   22  N   UNL     1      -9.617   8.034  65.660  1.00  0.00    -0.356 NA 
HETATM   23  H   UNL     1     -10.550   7.641  65.536  1.00  0.00     0.000 HD 
BRANCH  22  24
HETATM   24  C   UNL     1      -8.660   7.007  65.633  1.00  0.00    -0.111 A  
HETATM   25 CL   UNL     1      -5.649   3.726  65.792  1.00  0.00    -0.017 Cl 
HETATM   26  C   UNL     1      -7.312   5.563  66.986  1.00  0.00    -0.080 A  
HETATM   27  C   UNL     1      -7.266   5.512  64.602  1.00  0.00    -0.062 A  
HETATM   28  N   UNL     1      -8.189   6.495  64.490  1.00  0.00    -0.077 NA 
HETATM   29  C   UNL     1      -6.784   5.017  65.810  1.00  0.00    -0.053 A  
HETATM   30  N   UNL     1      -8.245   6.561  66.870  1.00  0.00    -0.112 NA 
BRANCH  26  31
HETATM   31  N   UNL     1      -6.785   5.104  68.324  1.00  0.00    -0.053 NA 
HETATM   32  H   UNL     1      -5.862   4.671  68.304  1.00  0.00     0.000 HD 
BRANCH  31  33
HETATM   33  C   UNL     1      -7.419   5.192  69.668  1.00  0.00    -0.061 A  
HETATM   34  C   UNL     1      -7.012   6.302  70.422  1.00  0.00    -0.063 A  
HETATM   35  C   UNL     1      -7.551   6.555  71.672  1.00  0.00    -0.094 A  
HETATM   36  C   UNL     1      -8.543   5.712  72.189  1.00  0.00    -0.126 A  
HETATM   37  C   UNL     1      -9.018   4.583  71.493  1.00  0.00    -0.164 A  
HETATM   38  C   UNL     1      -8.499   4.263  70.238  1.00  0.00    -0.069 A  
HETATM   39  P   UNL     1      -9.067   2.749  69.381  1.00  0.00    -0.125 P  
HETATM   40  C   UNL     1      -9.449   3.717  67.806  1.00  0.00    -0.179 C  
HETATM   41  O   UNL     1      -9.549   1.468  68.656  1.00  0.00    -0.172 OA 
HETATM   42  C   UNL     1      -7.283   2.107  69.356  1.00  0.00    -0.043 C  
ENDBRANCH  31  33
ENDBRANCH  26  31
ENDBRANCH  22  24
ENDBRANCH   7  22
ENDBRANCH   2   3
TORSDOF 7
ENDMDL
MODEL      101
REMARK 921   NORMALIZED FREE ENERGY PREDICTED BY IDOCK:   -3.20 KCAL/MOL
REMARK 922        TOTAL FREE ENERGY PREDICTED BY IDOCK:   -5.82 KCAL/MOL
REMARK 923 INTER-LIGAND FREE ENERGY PREDICTED BY IDOCK:   -6.61 KCAL/MOL
REMARK 924 INTRA-LIGAND FREE ENERGY PREDICTED BY IDOCK:    0.79 KCAL/MOL
REMARK 927      BINDING AFFINITY PREDICTED BY RF-SCORE:    0.00 PKD
ROOT
HETATM    1  C   UNL     1      -5.179  13.703  71.018  1.00  0.00    -0.151 C  
HETATM    2  O   UNL     1      -6.200  13.515  70.045  1.00  0.00    -0.138 OA 
ENDROOT
BRANCH   2   3
HETATM    3  C   UNL     1      -6.109  12.444  69.174  1.00  0.00    -0.087 A  
HETATM    4  C   UNL     1      -6.415  11.099  69.512  1.00  0.00    -0.117 A  
HETATM    5  C   UNL     1      -6.289  10.033  68.598  1.00  0.00    -0.048 A  
HETATM    6  C   UNL     1      -5.848  10.414  67.310  1.00  0.00    -0.052 A  
HETATM    7  C   UNL     1      -5.682  12.809  67.866  1.00  0.00    -0.116 A  
HETATM    8  C   UNL     1      -5.555  11.768  66.954  1.00  0.00    -0.128 A  
BRANCH   5   9
HETATM    9  N   UNL     1      -6.643   8.721  68.946  1.00  0.00    -0.052 NA 
HETATM   10  C   UNL     1      -6.359   7.652  67.968  1.00  0.00    -0.049 C  
HETATM   11  C   UNL     1      -6.095   6.344  68.719  1.00  0.00    -0.029 C  
HETATM   12  C   UNL     1      -7.273   5.882  69.608  1.00  0.00    -0.070 C  
HETATM   13  C   UNL     1      -7.668   7.087  70.502  1.00  0.00    -0.095 C  
HETATM   14  C   UNL     1      -7.861   8.410  69.729  1.00  0.00    -0.099 C  
BRANCH  12  15
HETATM   15  N   UNL     1      -8.478   5.305  68.944  1.00  0.00    -0.092 NA 
HETATM   16  C   UNL     1      -9.090   6.129  67.880  1.00  0.00    -0.117 C  
HETATM   17  C   UNL     1      -9.079   4.314  65.271  1.00  0.00    -0.143 C  
HETATM   18  C   UNL     1      -8.180   3.975  68.330  1.00  0.00    -0.083 C  
HETATM   19  C   UNL     1      -8.284   6.215  66.559  1.00  0.00    -0.111 C  
HETATM   20  C   UNL     1      -7.387   4.019  66.990  1.00  0.00    -0.072 C  
HETATM   21  N   UNL     1      -7.937   4.916  65.956  1.00  0.00    -0.106 NA 
ENDBRANCH  12  15
ENDBRANCH   5   9
BRANCH   7  22
HETATM   22  N   UNL     1      -5.461  14.191  67.603  1.00  0.00    -0.338 NA 
HETATM   23  H   UNL     1      -4.472  14.414  67.726  1.00  0.00     0.000 HD 
BRANCH  22  24
HETATM   24  C   UNL     1      -6.166  15.346  67.230  1.00  0.00     0.134 A  
HETATM   25 CL   UNL     1      -8.606  18.916  66.155  1.00  0.00    -0.254 Cl 
HETATM   26  C   UNL     1      -8.330  16.368  67.152  1.00  0.00    -0.187 A  
HETATM   27  C   UNL     1      -6.360  17.457  66.366  1.00  0.00    -0.233 A  
HETATM   28  N   UNL     1      -5.565  16.410  66.685  1.00  0.00    -0.277 NA 
HETATM   29  C   UNL     1      -7.738  17.490  66.562  1.00  0.00    -0.275 A  
HETATM   30  N   UNL     1      -7.524  15.306  67.470  1.00  0.00    -0.173 NA 
BRANCH  26  31
HETATM   31  N   UNL     1      -9.828  16.326  67.336  1.00  0.00    -0.239 NA 
HETATM   32  H   UNL     1     -10.178  16.784  68.177  1.00  0.00     0.000 HD 
BRANCH  31  33
HETATM   33  C   UNL     1     -10.868  15.711  66.465  1.00  0.00    -0.260 A  
HETATM   34  C   UNL     1     -10.983  16.308  65.202  1.00  0.00    -0.285 A  
HETATM   35  C   UNL     1     -11.869  15.817  64.257  1.00  0.00    -0.120 A  
HETATM   36  C   UNL     1     -12.644  14.687  64.545  1.00  0.00    -0.174 A  
HETATM   37  C   UNL     1     -12.581  14.019  65.784  1.00  0.00    -0.512 A  
HETATM   38  C   UNL     1     -11.724  14.479  66.786  1.00  0.00    -0.377 A  
HETATM   39  P   UNL     1     -11.711  13.650  68.418  1.00  0.00    -0.378 P  
HETATM   40  C   UNL     1      -9.834  13.457  68.367  1.00  0.00    -0.216 C  
HETATM   41  O   UNL     1     -11.700  12.949  69.798  1.00  0.00    -0.307 OA 
HETATM   42  C   UNL     1     -12.193  15.289  69.240  1.00  0.00    -0.184 C  
ENDBRANCH  31  33
ENDBRANCH  26  31
ENDBRANCH  22  24
ENDBRANCH   7  22
ENDBRANCH   2   3
TORSDOF 7
ENDMDL
MODEL      102
REMARK 921   NORMALIZED FREE ENERGY PREDICTED BY IDOCK:   -3.14 KCAL/MOL
REMARK 922        TOTAL FREE ENERGY PREDICTED BY IDOCK:   -5.74 KCAL/MOL
REMARK 923 INTER-LIGAND FREE ENERGY PREDICTED BY IDOCK:   -6.19 KCAL/MOL
REMARK 924 INTRA-LIGAND FREE ENERGY PREDICTED BY IDOCK:    0.45 KCAL/MOL
REMARK 927      BINDING AFFINITY PREDICTED BY RF-SCORE:    0.00 PKD
ROOT
HETATM    1  C   UNL     1      -8.003  10.309  64.332  1.00  0.00    -0.135 C  
HETATM    2  O   UNL     1      -8.934  10.705  65.331  1.00  0.00    -0.177 OA 
ENDROOT
BRANCH   2   3
HETATM    3  C   UNL     1      -8.467  11.311  66.483  1.00  0.00    -0.171 A  
HETATM    4  C   UNL     1      -8.344  12.714  66.665  1.00  0.00     0.074 A  
HETATM    5  C   UNL     1      -7.843  13.291  67.850  1.00  0.00    -0.152 A  
HETATM    6  C   UNL     1      -7.486  12.358  68.852  1.00  0.00     0.001 A  
HETATM    7  C   UNL     1      -8.117  10.389  67.511  1.00  0.00    -0.107 A  
HETATM    8  C   UNL     1      -7.623  10.944  68.685  1.00  0.00    -0.114 A  
BRANCH   5   9
HETATM    9  N   UNL     1      -7.776  14.682  68.019  1.00  0.00    -0.120 NA 
HETATM   10  C   UNL     1      -9.016  15.457  67.819  1.00  0.00    -0.173 C  
HETATM   11  C   UNL     1      -8.978  16.701  68.710  1.00  0.00    -0.253 C  
HETATM   12  C   UNL     1      -7.776  17.636  68.432  1.00  0.00    -0.269 C  
HETATM   13  C   UNL     1      -6.499  16.756  68.472  1.00  0.00    -0.155 C  
HETATM   14  C   UNL     1      -6.589  15.472  67.619  1.00  0.00    -0.169 C  
BRANCH  12  15
HETATM   15  N   UNL     1      -7.800  18.471  67.196  1.00  0.00    -0.227 NA 
HETATM   16  C   UNL     1      -8.607  17.948  66.073  1.00  0.00     0.005 C  
HETATM   17  C   UNL     1     -10.730  20.217  65.408  1.00  0.00     0.017 C  
HETATM   18  C   UNL     1      -8.308  19.849  67.477  1.00  0.00    -0.324 C  
HETATM   19  C   UNL     1     -10.143  18.022  66.268  1.00  0.00    -0.363 C  
HETATM   20  C   UNL     1      -9.850  19.969  67.660  1.00  0.00    -0.413 C  
HETATM   21  N   UNL     1     -10.665  19.361  66.591  1.00  0.00    -0.446 NA 
ENDBRANCH  12  15
ENDBRANCH   5   9
BRANCH   7  22
HETATM   22  N   UNL     1      -8.336   9.004  67.260  1.00  0.00    -0.111 NA 
HETATM   23  H   UNL     1      -9.124   8.888  66.621  1.00  0.00     0.000 HD 
BRANCH  22  24
HETATM   24  C   UNL     1      -7.816   7.748  67.609  1.00  0.00    -0.123 A  
HETATM   25 CL   UNL     1      -6.282   3.780  68.934  1.00  0.00    -0.028 Cl 
HETATM   26  C   UNL     1      -7.576   6.164  69.388  1.00  0.00    -0.098 A  
HETATM   27  C   UNL     1      -6.707   5.787  67.199  1.00  0.00    -0.062 A  
HETATM   28  N   UNL     1      -7.162   6.973  66.735  1.00  0.00    -0.074 NA 
HETATM   29  C   UNL     1      -6.871   5.336  68.506  1.00  0.00    -0.056 A  
HETATM   30  N   UNL     1      -8.033   7.367  68.916  1.00  0.00    -0.124 NA 
BRANCH  26  31
HETATM   31  N   UNL     1      -7.734   5.751  70.832  1.00  0.00    -0.095 NA 
HETATM   32  H   UNL     1      -6.927   5.283  71.243  1.00  0.00     0.000 HD 
BRANCH  31  33
HETATM   33  C   UNL     1      -8.899   5.931  71.741  1.00  0.00    -0.139 A  
HETATM   34  C   UNL     1      -9.215   7.270  72.010  1.00  0.00    -0.149 A  
HETATM   35  C   UNL     1     -10.305   7.604  72.796  1.00  0.00    -0.351 A  
HETATM   36  C   UNL     1     -11.131   6.597  73.310  1.00  0.00    -0.152 A  
HETATM   37  C   UNL     1     -10.893   5.228  73.078  1.00  0.00    -0.332 A  
HETATM   38  C   UNL     1      -9.797   4.826  72.312  1.00  0.00    -0.168 A  
HETATM   39  P   UNL     1      -9.455   3.043  72.086  1.00  0.00    -0.150 P  
HETATM   40  C   UNL     1      -9.351   3.243  70.212  1.00  0.00    -0.172 C  
HETATM   41  O   UNL     1      -9.165   1.534  71.895  1.00  0.00    -0.073 OA 
HETATM   42  C   UNL     1      -7.749   3.282  72.880  1.00  0.00    -0.060 C  
ENDBRANCH  31  33
ENDBRANCH  26  31
ENDBRANCH  22  24
ENDBRANCH   7  22
ENDBRANCH   2   3
TORSDOF 7
ENDMDL
MODEL      103
REMARK 921   NORMALIZED FREE ENERGY PREDICTED BY IDOCK:   -3.09 KCAL/MOL
REMARK 922        TOTAL FREE ENERGY PREDICTED BY IDOCK:   -5.66 KCAL/MOL
REMARK 923 INTER-LIGAND FREE ENERGY PREDICTED BY IDOCK:   -8.25 KCAL/MOL
REMARK 924 INTRA-LIGAND FREE ENERGY PREDICTED BY IDOCK:    2.58 KCAL/MOL
REMARK 927      BINDING AFFINITY PREDICTED BY RF-SCORE:    0.00 PKD
ROOT
HETATM    1  C   UNL     1     -12.110  10.414  69.890  1.00  0.00    -0.181 C  
HETATM    2  O   UNL     1     -10.712  10.432  69.629  1.00  0.00    -0.233 OA 
ENDROOT
BRANCH   2   3
HETATM    3  C   UNL     1     -10.223   9.739  68.537  1.00  0.00    -0.186 A  
HETATM    4  C   UNL     1     -10.021   8.334  68.495  1.00  0.00    -0.206 A  
HETATM    5  C   UNL     1      -9.500   7.669  67.367  1.00  0.00    -0.143 A  
HETATM    6  C   UNL     1      -9.208   8.514  66.271  1.00  0.00    -0.262 A  
HETATM    7  C   UNL     1      -9.937  10.570  67.416  1.00  0.00    -0.179 A  
HETATM    8  C   UNL     1      -9.424   9.927  66.296  1.00  0.00    -0.245 A  
BRANCH   5   9
HETATM    9  N   UNL     1      -9.354   6.274  67.338  1.00  0.00    -0.115 NA 
HETATM   10  C   UNL     1      -8.179   5.693  68.017  1.00  0.00    -0.100 C  
HETATM   11  C   UNL     1      -8.537   4.295  68.527  1.00  0.00    -0.109 C  
HETATM   12  C   UNL     1      -8.983   3.316  67.415  1.00  0.00    -0.151 C  
HETATM   13  C   UNL     1     -10.097   4.027  66.604  1.00  0.00     0.042 C  
HETATM   14  C   UNL     1      -9.738   5.462  66.161  1.00  0.00    -0.145 C  
BRANCH  12  15
HETATM   15  N   UNL     1      -7.942   2.761  66.501  1.00  0.00    -0.080 NA 
HETATM   16  C   UNL     1      -8.305   1.523  65.779  1.00  0.00    -0.089 C  
HETATM   17  C   UNL     1      -7.996   2.205  62.690  1.00  0.00    -0.059 C  
HETATM   18  C   UNL     1      -7.543   3.757  65.460  1.00  0.00    -0.081 C  
HETATM   19  C   UNL     1      -9.347   1.696  64.645  1.00  0.00    -0.118 C  
HETATM   20  C   UNL     1      -8.555   3.946  64.292  1.00  0.00    -0.104 C  
HETATM   21  N   UNL     1      -8.999   2.705  63.629  1.00  0.00    -0.092 NA 
ENDBRANCH  12  15
ENDBRANCH   5   9
BRANCH   7  22
HETATM   22  N   UNL     1     -10.233  11.959  67.530  1.00  0.00    -0.195 NA 
HETATM   23  H   UNL     1     -10.095  12.265  68.494  1.00  0.00     0.000 HD 
BRANCH  22  24
HETATM   24  C   UNL     1     -10.654  13.042  66.742  1.00  0.00    -0.262 A  
HETATM   25 CL   UNL     1     -11.772  16.585  64.283  1.00  0.00     0.074 Cl 
HETATM   26  C   UNL     1     -10.109  15.260  66.027  1.00  0.00    -0.318 A  
HETATM   27  C   UNL     1     -12.079  14.123  65.313  1.00  0.00    -0.405 A  
HETATM   28  N   UNL     1     -11.785  13.013  66.027  1.00  0.00    -0.372 NA 
HETATM   29  C   UNL     1     -11.294  15.272  65.282  1.00  0.00    -0.282 A  
HETATM   30  N   UNL     1      -9.815  14.135  66.753  1.00  0.00    -0.264 NA 
BRANCH  26  31
HETATM   31  N   UNL     1      -9.247  16.499  66.076  1.00  0.00    -0.448 NA 
HETATM   32  H   UNL     1      -8.376  16.447  65.549  1.00  0.00     0.000 HD 
BRANCH  31  33
HETATM   33  C   UNL     1      -9.488  17.787  66.783  1.00  0.00    -0.285 A  
HETATM   34  C   UNL     1     -10.636  18.470  66.355  1.00  0.00    -0.365 A  
HETATM   35  C   UNL     1     -11.026  19.658  66.951  1.00  0.00    -0.389 A  
HETATM   36  C   UNL     1     -10.288  20.178  68.021  1.00  0.00    -0.449 A  
HETATM   37  C   UNL     1      -9.131  19.550  68.522  1.00  0.00    -0.406 A  
HETATM   38  C   UNL     1      -8.673  18.362  67.949  1.00  0.00    -0.283 A  
HETATM   39  P   UNL     1      -7.124  17.600  68.556  1.00  0.00    -0.255 P  
HETATM   40  C   UNL     1      -7.970  15.928  68.784  1.00  0.00    -0.188 C  
HETATM   41  O   UNL     1      -5.814  16.956  69.070  1.00  0.00    -0.142 OA 
HETATM   42  C   UNL     1      -6.385  17.745  66.816  1.00  0.00    -0.174 C  
ENDBRANCH  31  33
ENDBRANCH  26  31
ENDBRANCH  22  24
ENDBRANCH   7  22
ENDBRANCH   2   3
TORSDOF 7
ENDMDL
MODEL      104
REMARK 921   NORMALIZED FREE ENERGY PREDICTED BY IDOCK:   -3.07 KCAL/MOL
REMARK 922        TOTAL FREE ENERGY PREDICTED BY IDOCK:   -5.64 KCAL/MOL
REMARK 923 INTER-LIGAND FREE ENERGY PREDICTED BY IDOCK:   -4.95 KCAL/MOL
REMARK 924 INTRA-LIGAND FREE ENERGY PREDICTED BY IDOCK:   -0.69 KCAL/MOL
REMARK 927      BINDING AFFINITY PREDICTED BY RF-SCORE:    0.00 PKD
ROOT
HETATM    1  C   UNL     1      -8.099   9.835  64.382  1.00  0.00    -0.150 C  
HETATM    2  O   UNL     1      -8.866   9.707  65.573  1.00  0.00    -0.151 OA 
ENDROOT
BRANCH   2   3
HETATM    3  C   UNL     1      -8.363  10.220  66.754  1.00  0.00    -0.124 A  
HETATM    4  C   UNL     1      -8.233  11.605  67.043  1.00  0.00    -0.170 A  
HETATM    5  C   UNL     1      -7.695  12.087  68.254  1.00  0.00    -0.127 A  
HETATM    6  C   UNL     1      -7.309  11.078  69.167  1.00  0.00    -0.121 A  
HETATM    7  C   UNL     1      -7.983   9.221  67.694  1.00  0.00    -0.103 A  
HETATM    8  C   UNL     1      -7.453   9.682  68.893  1.00  0.00    -0.075 A  
BRANCH   5   9
HETATM    9  N   UNL     1      -7.621  13.460  68.530  1.00  0.00    -0.129 NA 
HETATM   10  C   UNL     1      -7.563  14.388  67.383  1.00  0.00    -0.172 C  
HETATM   11  C   UNL     1      -8.216  15.715  67.780  1.00  0.00    -0.155 C  
HETATM   12  C   UNL     1      -7.547  16.406  68.992  1.00  0.00    -0.232 C  
HETATM   13  C   UNL     1      -7.458  15.349  70.125  1.00  0.00     0.275 C  
HETATM   14  C   UNL     1      -6.860  13.997  69.681  1.00  0.00    -0.017 C  
BRANCH  12  15
HETATM   15  N   UNL     1      -6.226  17.069  68.789  1.00  0.00    -0.160 NA 
HETATM   16  C   UNL     1      -5.623  16.918  67.447  1.00  0.00    -0.154 C  
HETATM   17  C   UNL     1      -5.177  19.873  66.366  1.00  0.00    -0.165 C  
HETATM   18  C   UNL     1      -6.305  18.538  69.055  1.00  0.00    -0.237 C  
HETATM   19  C   UNL     1      -6.309  17.724  66.315  1.00  0.00    -0.234 C  
HETATM   20  C   UNL     1      -6.971  19.386  67.931  1.00  0.00    -0.246 C  
HETATM   21  N   UNL     1      -6.441  19.169  66.572  1.00  0.00    -0.187 NA 
ENDBRANCH  12  15
ENDBRANCH   5   9
BRANCH   7  22
HETATM   22  N   UNL     1      -8.211   7.859  67.341  1.00  0.00    -0.122 NA 
HETATM   23  H   UNL     1      -8.840   7.811  66.539  1.00  0.00     0.000 HD 
BRANCH  22  24
HETATM   24  C   UNL     1      -7.848   6.564  67.742  1.00  0.00    -0.111 A  
HETATM   25 CL   UNL     1      -6.806   2.497  69.233  1.00  0.00    -0.033 Cl 
HETATM   26  C   UNL     1      -7.780   5.044  69.590  1.00  0.00    -0.064 A  
HETATM   27  C   UNL     1      -7.003   4.462  67.413  1.00  0.00    -0.063 A  
HETATM   28  N   UNL     1      -7.312   5.675  66.899  1.00  0.00    -0.078 NA 
HETATM   29  C   UNL     1      -7.200   4.095  68.740  1.00  0.00    -0.055 A  
HETATM   30  N   UNL     1      -8.090   6.273  69.068  1.00  0.00    -0.109 NA 
BRANCH  26  31
HETATM   31  N   UNL     1      -7.966   4.719  71.053  1.00  0.00    -0.082 NA 
HETATM   32  H   UNL     1      -7.419   3.931  71.398  1.00  0.00     0.000 HD 
BRANCH  31  33
HETATM   33  C   UNL     1      -8.833   5.386  72.064  1.00  0.00    -0.134 A  
HETATM   34  C   UNL     1     -10.201   5.124  71.907  1.00  0.00    -0.269 A  
HETATM   35  C   UNL     1     -11.133   5.628  72.798  1.00  0.00    -0.334 A  
HETATM   36  C   UNL     1     -10.711   6.386  73.897  1.00  0.00    -0.129 A  
HETATM   37  C   UNL     1      -9.355   6.685  74.137  1.00  0.00    -0.232 A  
HETATM   38  C   UNL     1      -8.370   6.225  73.262  1.00  0.00    -0.115 A  
HETATM   39  P   UNL     1      -6.621   6.688  73.541  1.00  0.00    -0.064 P  
HETATM   40  C   UNL     1      -6.068   4.887  73.433  1.00  0.00    -0.037 C  
HETATM   41  O   UNL     1      -5.142   7.081  73.777  1.00  0.00    -0.041 OA 
HETATM   42  C   UNL     1      -6.578   7.505  71.830  1.00  0.00    -0.042 C  
ENDBRANCH  31  33
ENDBRANCH  26  31
ENDBRANCH  22  24
ENDBRANCH   7  22
ENDBRANCH   2   3
TORSDOF 7
ENDMDL
MODEL      105
REMARK 921   NORMALIZED FREE ENERGY PREDICTED BY IDOCK:   -3.04 KCAL/MOL
REMARK 922        TOTAL FREE ENERGY PREDICTED BY IDOCK:   -5.60 KCAL/MOL
REMARK 923 INTER-LIGAND FREE ENERGY PREDICTED BY IDOCK:   -7.78 KCAL/MOL
REMARK 924 INTRA-LIGAND FREE ENERGY PREDICTED BY IDOCK:    2.18 KCAL/MOL
REMARK 927      BINDING AFFINITY PREDICTED BY RF-SCORE:    0.00 PKD
ROOT
HETATM    1  C   UNL     1     -10.286  11.090  68.692  1.00  0.00    -0.199 C  
HETATM    2  O   UNL     1     -11.626  10.741  69.016  1.00  0.00    -0.280 OA 
ENDROOT
BRANCH   2   3
HETATM    3  C   UNL     1     -11.867   9.979  70.145  1.00  0.00    -0.173 A  
HETATM    4  C   UNL     1     -11.367   8.667  70.358  1.00  0.00    -0.203 A  
HETATM    5  C   UNL     1     -11.655   7.916  71.516  1.00  0.00    -0.270 A  
HETATM    6  C   UNL     1     -12.472   8.583  72.459  1.00  0.00    -0.358 A  
HETATM    7  C   UNL     1     -12.675  10.638  71.115  1.00  0.00    -0.422 A  
HETATM    8  C   UNL     1     -12.966   9.910  72.263  1.00  0.00    -0.387 A  
BRANCH   5   9
HETATM    9  N   UNL     1     -11.109   6.641  71.719  1.00  0.00    -0.240 NA 
HETATM   10  C   UNL     1     -10.770   6.253  73.102  1.00  0.00    -0.261 C  
HETATM   11  C   UNL     1     -10.918   4.736  73.247  1.00  0.00    -0.390 C  
HETATM   12  C   UNL     1     -10.019   3.922  72.286  1.00  0.00    -0.167 C  
HETATM   13  C   UNL     1     -10.265   4.476  70.857  1.00  0.00    -0.170 C  
HETATM   14  C   UNL     1     -10.178   6.014  70.753  1.00  0.00    -0.204 C  
BRANCH  12  15
HETATM   15  N   UNL     1      -8.557   3.849  72.575  1.00  0.00    -0.097 NA 
HETATM   16  C   UNL     1      -7.673   4.577  71.640  1.00  0.00    -0.083 C  
HETATM   17  C   UNL     1      -6.031   6.628  73.430  1.00  0.00    -0.058 C  
HETATM   18  C   UNL     1      -8.244   4.364  73.943  1.00  0.00    -0.100 C  
HETATM   19  C   UNL     1      -7.715   6.122  71.753  1.00  0.00    -0.101 C  
HETATM   20  C   UNL     1      -8.258   5.915  74.093  1.00  0.00    -0.103 C  
HETATM   21  N   UNL     1      -7.455   6.655  73.102  1.00  0.00    -0.088 NA 
ENDBRANCH  12  15
ENDBRANCH   5   9
BRANCH   7  22
HETATM   22  N   UNL     1     -13.077  11.978  70.842  1.00  0.00     0.027 NA 
HETATM   23  H   UNL     1     -13.976  11.978  70.360  1.00  0.00     0.000 HD 
BRANCH  22  24
HETATM   24  C   UNL     1     -12.632  13.297  71.023  1.00  0.00    -0.324 A  
HETATM   25 CL   UNL     1     -11.174  17.494  71.356  1.00  0.00     1.393 Cl 
HETATM   26  C   UNL     1     -11.566  15.157  69.959  1.00  0.00    -0.294 A  
HETATM   27  C   UNL     1     -12.297  15.214  72.228  1.00  0.00    -0.363 A  
HETATM   28  N   UNL     1     -12.772  13.949  72.184  1.00  0.00    -0.269 NA 
HETATM   29  C   UNL     1     -11.679  15.863  71.163  1.00  0.00    -0.442 A  
HETATM   30  N   UNL     1     -12.045  13.874  69.917  1.00  0.00    -0.328 NA 
BRANCH  26  31
HETATM   31  N   UNL     1     -10.854  15.791  68.788  1.00  0.00    -0.258 NA 
HETATM   32  H   UNL     1     -11.456  16.097  68.024  1.00  0.00     0.000 HD 
BRANCH  31  33
HETATM   33  C   UNL     1      -9.398  16.033  68.589  1.00  0.00    -0.214 A  
HETATM   34  C   UNL     1      -8.572  15.297  69.450  1.00  0.00    -0.226 A  
HETATM   35  C   UNL     1      -7.192  15.372  69.355  1.00  0.00    -0.203 A  
HETATM   36  C   UNL     1      -6.602  16.168  68.366  1.00  0.00    -0.127 A  
HETATM   37  C   UNL     1      -7.357  16.929  67.453  1.00  0.00    -0.186 A  
HETATM   38  C   UNL     1      -8.752  16.914  67.512  1.00  0.00    -0.208 A  
HETATM   39  P   UNL     1      -9.719  17.970  66.372  1.00  0.00    -0.261 P  
HETATM   40  C   UNL     1     -10.779  16.507  65.826  1.00  0.00    -0.225 C  
HETATM   41  O   UNL     1     -10.537  18.864  65.408  1.00  0.00    -0.531 OA 
HETATM   42  C   UNL     1     -10.500  18.843  67.864  1.00  0.00    -0.388 C  
ENDBRANCH  31  33
ENDBRANCH  26  31
ENDBRANCH  22  24
ENDBRANCH   7  22
ENDBRANCH   2   3
TORSDOF 7
ENDMDL
MODEL      106
REMARK 921   NORMALIZED FREE ENERGY PREDICTED BY IDOCK:   -3.04 KCAL/MOL
REMARK 922        TOTAL FREE ENERGY PREDICTED BY IDOCK:   -5.60 KCAL/MOL
REMARK 923 INTER-LIGAND FREE ENERGY PREDICTED BY IDOCK:   -6.86 KCAL/MOL
REMARK 924 INTRA-LIGAND FREE ENERGY PREDICTED BY IDOCK:    1.27 KCAL/MOL
REMARK 927      BINDING AFFINITY PREDICTED BY RF-SCORE:    0.00 PKD
ROOT
HETATM    1  C   UNL     1      -9.649   9.537  69.987  1.00  0.00    -0.238 C  
HETATM    2  O   UNL     1      -9.449  10.549  69.008  1.00  0.00    -0.187 OA 
ENDROOT
BRANCH   2   3
HETATM    3  C   UNL     1      -9.360  10.188  67.677  1.00  0.00    -0.148 A  
HETATM    4  C   UNL     1      -8.515   9.165  67.171  1.00  0.00    -0.120 A  
HETATM    5  C   UNL     1      -8.440   8.842  65.801  1.00  0.00    -0.148 A  
HETATM    6  C   UNL     1      -9.288   9.610  64.970  1.00  0.00    -0.319 A  
HETATM    7  C   UNL     1     -10.219  10.939  66.824  1.00  0.00    -0.231 A  
HETATM    8  C   UNL     1     -10.157  10.629  65.470  1.00  0.00    -0.343 A  
BRANCH   5   9
HETATM    9  N   UNL     1      -7.630   7.795  65.336  1.00  0.00    -0.084 NA 
HETATM   10  C   UNL     1      -8.029   7.123  64.084  1.00  0.00    -0.085 C  
HETATM   11  C   UNL     1      -6.777   6.610  63.369  1.00  0.00    -0.048 C  
HETATM   12  C   UNL     1      -5.941   5.612  64.205  1.00  0.00    -0.025 C  
HETATM   13  C   UNL     1      -5.689   6.275  65.585  1.00  0.00    -0.021 C  
HETATM   14  C   UNL     1      -6.959   6.846  66.253  1.00  0.00    -0.069 C  
BRANCH  12  15
HETATM   15  N   UNL     1      -6.461   4.224  64.377  1.00  0.00    -0.040 NA 
HETATM   16  C   UNL     1      -7.640   4.077  65.258  1.00  0.00    -0.081 C  
HETATM   17  C   UNL     1      -9.881   2.700  63.474  1.00  0.00    -0.124 C  
HETATM   18  C   UNL     1      -6.833   3.613  63.065  1.00  0.00    -0.035 C  
HETATM   19  C   UNL     1      -8.974   4.608  64.676  1.00  0.00    -0.151 C  
HETATM   20  C   UNL     1      -8.179   4.106  62.456  1.00  0.00    -0.076 C  
HETATM   21  N   UNL     1      -9.343   4.055  63.361  1.00  0.00    -0.135 NA 
ENDBRANCH  12  15
ENDBRANCH   5   9
BRANCH   7  22
HETATM   22  N   UNL     1     -11.079  11.899  67.431  1.00  0.00    -0.261 NA 
HETATM   23  H   UNL     1     -12.011  11.503  67.549  1.00  0.00     0.000 HD 
BRANCH  22  24
HETATM   24  C   UNL     1     -11.053  13.216  67.917  1.00  0.00    -0.262 A  
HETATM   25 CL   UNL     1     -10.776  17.437  69.318  1.00  0.00    -0.114 Cl 
HETATM   26  C   UNL     1      -9.798  15.254  67.961  1.00  0.00    -0.216 A  
HETATM   27  C   UNL     1     -11.887  15.002  69.082  1.00  0.00    -0.308 A  
HETATM   28  N   UNL     1     -12.034  13.720  68.675  1.00  0.00    -0.365 NA 
HETATM   29  C   UNL     1     -10.796  15.808  68.771  1.00  0.00    -0.274 A  
HETATM   30  N   UNL     1      -9.947  13.954  67.552  1.00  0.00    -0.237 NA 
BRANCH  26  31
HETATM   31  N   UNL     1      -8.565  16.063  67.639  1.00  0.00    -0.164 NA 
HETATM   32  H   UNL     1      -8.534  16.458  66.699  1.00  0.00     0.000 HD 
BRANCH  31  33
HETATM   33  C   UNL     1      -7.387  16.368  68.497  1.00  0.00    -0.181 A  
HETATM   34  C   UNL     1      -7.117  15.393  69.467  1.00  0.00    -0.200 A  
HETATM   35  C   UNL     1      -6.023  15.505  70.310  1.00  0.00    -0.109 A  
HETATM   36  C   UNL     1      -5.147  16.588  70.177  1.00  0.00    -0.175 A  
HETATM   37  C   UNL     1      -5.336  17.605  69.221  1.00  0.00    -0.182 A  
HETATM   38  C   UNL     1      -6.432  17.561  68.357  1.00  0.00    -0.183 A  
HETATM   39  P   UNL     1      -6.710  18.930  67.175  1.00  0.00    -0.200 P  
HETATM   40  C   UNL     1      -6.865  17.724  65.730  1.00  0.00    -0.176 C  
HETATM   41  O   UNL     1      -6.944  20.088  66.174  1.00  0.00    -0.228 OA 
HETATM   42  C   UNL     1      -8.404  19.251  67.963  1.00  0.00    -0.315 C  
ENDBRANCH  31  33
ENDBRANCH  26  31
ENDBRANCH  22  24
ENDBRANCH   7  22
ENDBRANCH   2   3
TORSDOF 7
ENDMDL
MODEL      107
REMARK 921   NORMALIZED FREE ENERGY PREDICTED BY IDOCK:   -2.95 KCAL/MOL
REMARK 922        TOTAL FREE ENERGY PREDICTED BY IDOCK:   -5.47 KCAL/MOL
REMARK 923 INTER-LIGAND FREE ENERGY PREDICTED BY IDOCK:   -6.51 KCAL/MOL
REMARK 924 INTRA-LIGAND FREE ENERGY PREDICTED BY IDOCK:    1.04 KCAL/MOL
REMARK 927      BINDING AFFINITY PREDICTED BY RF-SCORE:    0.00 PKD
ROOT
HETATM    1  C   UNL     1      -5.174  12.222  68.658  1.00  0.00    -0.050 C  
HETATM    2  O   UNL     1      -6.249  11.291  68.681  1.00  0.00    -0.043 OA 
ENDROOT
BRANCH   2   3
HETATM    3  C   UNL     1      -7.537  11.746  68.461  1.00  0.00    -0.131 A  
HETATM    4  C   UNL     1      -7.888  13.106  68.251  1.00  0.00    -0.143 A  
HETATM    5  C   UNL     1      -9.218  13.530  68.051  1.00  0.00    -0.209 A  
HETATM    6  C   UNL     1     -10.174  12.488  68.061  1.00  0.00    -0.225 A  
HETATM    7  C   UNL     1      -8.514  10.710  68.451  1.00  0.00    -0.132 A  
HETATM    8  C   UNL     1      -9.829  11.114  68.253  1.00  0.00    -0.195 A  
BRANCH   5   9
HETATM    9  N   UNL     1      -9.530  14.874  67.799  1.00  0.00    -0.201 NA 
HETATM   10  C   UNL     1     -10.119  15.207  66.487  1.00  0.00    -0.269 C  
HETATM   11  C   UNL     1     -11.033  16.426  66.643  1.00  0.00     0.024 C  
HETATM   12  C   UNL     1     -10.313  17.686  67.181  1.00  0.00    -0.343 C  
HETATM   13  C   UNL     1      -9.554  17.261  68.466  1.00  0.00    -0.291 C  
HETATM   14  C   UNL     1      -8.694  15.989  68.300  1.00  0.00    -0.177 C  
BRANCH  12  15
HETATM   15  N   UNL     1      -9.407  18.431  66.259  1.00  0.00    -0.454 NA 
HETATM   16  C   UNL     1      -9.601  19.896  66.203  1.00  0.00    -0.397 C  
HETATM   17  C   UNL     1      -6.795  21.167  66.987  1.00  0.00    -0.286 C  
HETATM   18  C   UNL     1      -7.970  18.207  66.606  1.00  0.00    -0.251 C  
HETATM   19  C   UNL     1      -9.129  20.678  67.455  1.00  0.00    -0.259 C  
HETATM   20  C   UNL     1      -7.452  18.991  67.848  1.00  0.00    -0.251 C  
HETATM   21  N   UNL     1      -7.728  20.440  67.846  1.00  0.00    -0.231 NA 
ENDBRANCH  12  15
ENDBRANCH   5   9
BRANCH   7  22
HETATM   22  N   UNL     1      -8.058   9.369  68.607  1.00  0.00    -0.103 NA 
HETATM   23  H   UNL     1      -7.044   9.360  68.722  1.00  0.00     0.000 HD 
BRANCH  22  24
HETATM   24  C   UNL     1      -8.556   8.058  68.652  1.00  0.00    -0.128 A  
HETATM   25 CL   UNL     1     -10.014   3.848  68.585  1.00  0.00     0.012 Cl 
HETATM   26  C   UNL     1      -8.737   6.000  67.443  1.00  0.00    -0.104 A  
HETATM   27  C   UNL     1      -9.652   6.299  69.624  1.00  0.00    -0.145 A  
HETATM   28  N   UNL     1      -9.221   7.578  69.709  1.00  0.00    -0.148 NA 
HETATM   29  C   UNL     1      -9.453   5.471  68.523  1.00  0.00    -0.122 A  
HETATM   30  N   UNL     1      -8.305   7.297  67.529  1.00  0.00    -0.116 NA 
BRANCH  26  31
HETATM   31  N   UNL     1      -8.541   5.166  66.199  1.00  0.00    -0.115 NA 
HETATM   32  H   UNL     1      -8.702   4.166  66.314  1.00  0.00     0.000 HD 
BRANCH  31  33
HETATM   33  C   UNL     1      -8.146   5.595  64.829  1.00  0.00    -0.128 A  
HETATM   34  C   UNL     1      -7.683   6.916  64.754  1.00  0.00    -0.115 A  
HETATM   35  C   UNL     1      -7.228   7.448  63.559  1.00  0.00    -0.076 A  
HETATM   36  C   UNL     1      -7.195   6.652  62.407  1.00  0.00    -0.047 A  
HETATM   37  C   UNL     1      -7.629   5.312  62.397  1.00  0.00    -0.060 A  
HETATM   38  C   UNL     1      -8.120   4.726  63.566  1.00  0.00    -0.101 A  
HETATM   39  P   UNL     1      -8.756   3.010  63.520  1.00  0.00    -0.088 P  
HETATM   40  C   UNL     1      -7.672   2.510  64.982  1.00  0.00    -0.077 C  
HETATM   41  O   UNL     1      -9.293   1.559  63.481  1.00  0.00    -0.091 OA 
HETATM   42  C   UNL     1     -10.443   3.632  64.120  1.00  0.00    -0.247 C  
ENDBRANCH  31  33
ENDBRANCH  26  31
ENDBRANCH  22  24
ENDBRANCH   7  22
ENDBRANCH   2   3
TORSDOF 7
ENDMDL
MODEL      108
REMARK 921   NORMALIZED FREE ENERGY PREDICTED BY IDOCK:   -2.92 KCAL/MOL
REMARK 922        TOTAL FREE ENERGY PREDICTED BY IDOCK:   -5.43 KCAL/MOL
REMARK 923 INTER-LIGAND FREE ENERGY PREDICTED BY IDOCK:   -4.81 KCAL/MOL
REMARK 924 INTRA-LIGAND FREE ENERGY PREDICTED BY IDOCK:   -0.62 KCAL/MOL
REMARK 927      BINDING AFFINITY PREDICTED BY RF-SCORE:    0.00 PKD
ROOT
HETATM    1  C   UNL     1      -9.816   8.222  70.288  1.00  0.00    -0.184 C  
HETATM    2  O   UNL     1      -8.396   8.171  70.246  1.00  0.00    -0.119 OA 
ENDROOT
BRANCH   2   3
HETATM    3  C   UNL     1      -7.695   9.287  69.828  1.00  0.00    -0.096 A  
HETATM    4  C   UNL     1      -8.283  10.542  69.521  1.00  0.00    -0.092 A  
HETATM    5  C   UNL     1      -7.533  11.651  69.077  1.00  0.00    -0.051 A  
HETATM    6  C   UNL     1      -6.142  11.415  68.976  1.00  0.00    -0.054 A  
HETATM    7  C   UNL     1      -6.289   9.076  69.735  1.00  0.00    -0.038 A  
HETATM    8  C   UNL     1      -5.537  10.161  69.300  1.00  0.00    -0.038 A  
BRANCH   5   9
HETATM    9  N   UNL     1      -8.135  12.892  68.825  1.00  0.00     0.009 NA 
HETATM   10  C   UNL     1      -9.248  12.931  67.857  1.00  0.00    -0.208 C  
HETATM   11  C   UNL     1     -10.207  14.061  68.241  1.00  0.00    -0.249 C  
HETATM   12  C   UNL     1      -9.548  15.460  68.272  1.00  0.00    -0.205 C  
HETATM   13  C   UNL     1      -8.277  15.344  69.154  1.00  0.00    -0.243 C  
HETATM   14  C   UNL     1      -7.362  14.155  68.790  1.00  0.00    -0.128 C  
BRANCH  12  15
HETATM   15  N   UNL     1      -9.226  16.120  66.973  1.00  0.00    -0.205 NA 
HETATM   16  C   UNL     1     -10.320  16.896  66.349  1.00  0.00    -0.300 C  
HETATM   17  C   UNL     1      -9.191  19.846  65.997  1.00  0.00    -0.273 C  
HETATM   18  C   UNL     1      -8.067  17.055  67.108  1.00  0.00    -0.191 C  
HETATM   19  C   UNL     1     -10.670  18.232  67.051  1.00  0.00    -0.276 C  
HETATM   20  C   UNL     1      -8.383  18.418  67.791  1.00  0.00    -0.262 C  
HETATM   21  N   UNL     1      -9.536  19.154  67.237  1.00  0.00    -0.307 NA 
ENDBRANCH  12  15
ENDBRANCH   5   9
BRANCH   7  22
HETATM   22  N   UNL     1      -5.785   7.802  70.126  1.00  0.00    -0.023 NA 
HETATM   23  H   UNL     1      -4.778   7.861  70.279  1.00  0.00     0.000 HD 
BRANCH  22  24
HETATM   24  C   UNL     1      -6.228   6.492  70.367  1.00  0.00    -0.035 A  
HETATM   25 CL   UNL     1      -7.612   2.289  70.890  1.00  0.00    -0.033 Cl 
HETATM   26  C   UNL     1      -6.909   4.444  69.332  1.00  0.00    -0.046 A  
HETATM   27  C   UNL     1      -6.834   4.731  71.698  1.00  0.00    -0.043 A  
HETATM   28  N   UNL     1      -6.398   6.008  71.602  1.00  0.00    -0.047 NA 
HETATM   29  C   UNL     1      -7.116   3.910  70.609  1.00  0.00    -0.034 A  
HETATM   30  N   UNL     1      -6.471   5.739  69.237  1.00  0.00    -0.044 NA 
BRANCH  26  31
HETATM   31  N   UNL     1      -7.253   3.619  68.115  1.00  0.00    -0.051 NA 
HETATM   32  H   UNL     1      -6.739   2.744  68.021  1.00  0.00     0.000 HD 
BRANCH  31  33
HETATM   33  C   UNL     1      -8.237   3.900  67.033  1.00  0.00    -0.099 A  
HETATM   34  C   UNL     1      -9.476   4.368  67.492  1.00  0.00    -0.201 A  
HETATM   35  C   UNL     1     -10.479   4.724  66.606  1.00  0.00    -0.216 A  
HETATM   36  C   UNL     1     -10.252   4.651  65.226  1.00  0.00    -0.121 A  
HETATM   37  C   UNL     1      -9.032   4.204  64.680  1.00  0.00    -0.141 A  
HETATM   38  C   UNL     1      -7.990   3.809  65.521  1.00  0.00    -0.093 A  
HETATM   39  P   UNL     1      -6.441   3.155  64.799  1.00  0.00    -0.032 P  
HETATM   40  C   UNL     1      -5.395   4.355  65.814  1.00  0.00    -0.009 C  
HETATM   41  O   UNL     1      -5.131   2.601  64.187  1.00  0.00    -0.007 OA 
HETATM   42  C   UNL     1      -6.701   1.531  65.743  1.00  0.00    -0.027 C  
ENDBRANCH  31  33
ENDBRANCH  26  31
ENDBRANCH  22  24
ENDBRANCH   7  22
ENDBRANCH   2   3
TORSDOF 7
ENDMDL
MODEL      109
REMARK 921   NORMALIZED FREE ENERGY PREDICTED BY IDOCK:   -2.90 KCAL/MOL
REMARK 922        TOTAL FREE ENERGY PREDICTED BY IDOCK:   -5.40 KCAL/MOL
REMARK 923 INTER-LIGAND FREE ENERGY PREDICTED BY IDOCK:   -7.47 KCAL/MOL
REMARK 924 INTRA-LIGAND FREE ENERGY PREDICTED BY IDOCK:    2.07 KCAL/MOL
REMARK 927      BINDING AFFINITY PREDICTED BY RF-SCORE:    0.00 PKD
ROOT
HETATM    1  C   UNL     1     -10.263  10.396  68.222  1.00  0.00    -0.160 C  
HETATM    2  O   UNL     1     -11.463   9.866  68.771  1.00  0.00    -0.068 OA 
ENDROOT
BRANCH   2   3
HETATM    3  C   UNL     1     -11.387   9.016  69.859  1.00  0.00    -0.001 A  
HETATM    4  C   UNL     1     -10.607   7.830  69.904  1.00  0.00    -0.239 A  
HETATM    5  C   UNL     1     -10.573   6.978  71.027  1.00  0.00    -0.218 A  
HETATM    6  C   UNL     1     -11.369   7.409  72.114  1.00  0.00    -0.311 A  
HETATM    7  C   UNL     1     -12.169   9.440  70.971  1.00  0.00    -0.279 A  
HETATM    8  C   UNL     1     -12.144   8.610  72.085  1.00  0.00    -0.451 A  
BRANCH   5   9
HETATM    9  N   UNL     1      -9.757   5.838  71.061  1.00  0.00    -0.167 NA 
HETATM   10  C   UNL     1      -8.299   6.042  71.168  1.00  0.00    -0.124 C  
HETATM   11  C   UNL     1      -7.680   4.854  71.910  1.00  0.00    -0.103 C  
HETATM   12  C   UNL     1      -7.926   3.489  71.225  1.00  0.00    -0.060 C  
HETATM   13  C   UNL     1      -9.451   3.381  70.961  1.00  0.00    -0.227 C  
HETATM   14  C   UNL     1     -10.063   4.622  70.274  1.00  0.00    -0.206 C  
BRANCH  12  15
HETATM   15  N   UNL     1      -7.157   3.169  69.987  1.00  0.00    -0.040 NA 
HETATM   16  C   UNL     1      -7.845   3.439  68.706  1.00  0.00    -0.054 C  
HETATM   17  C   UNL     1      -5.961   5.449  67.122  1.00  0.00    -0.026 C  
HETATM   18  C   UNL     1      -5.864   3.918  69.938  1.00  0.00    -0.018 C  
HETATM   19  C   UNL     1      -8.002   4.935  68.338  1.00  0.00    -0.085 C  
HETATM   20  C   UNL     1      -5.977   5.422  69.552  1.00  0.00    -0.020 C  
HETATM   21  N   UNL     1      -6.746   5.708  68.327  1.00  0.00    -0.052 NA 
ENDBRANCH  12  15
ENDBRANCH   5   9
BRANCH   7  22
HETATM   22  N   UNL     1     -12.868  10.676  70.855  1.00  0.00    -0.381 NA 
HETATM   23  H   UNL     1     -13.828  10.504  70.557  1.00  0.00     0.000 HD 
BRANCH  22  24
HETATM   24  C   UNL     1     -12.658  12.054  71.019  1.00  0.00    -0.273 A  
HETATM   25 CL   UNL     1     -11.948  16.444  71.297  1.00  0.00    -0.242 Cl 
HETATM   26  C   UNL     1     -11.926  14.057  69.931  1.00  0.00    -0.336 A  
HETATM   27  C   UNL     1     -12.663  14.017  72.198  1.00  0.00    -0.260 A  
HETATM   28  N   UNL     1     -12.912  12.687  72.170  1.00  0.00    -0.292 NA 
HETATM   29  C   UNL     1     -12.163  14.748  71.125  1.00  0.00    -0.325 A  
HETATM   30  N   UNL     1     -12.175  12.710  69.906  1.00  0.00    -0.221 NA 
BRANCH  26  31
HETATM   31  N   UNL     1     -11.329  14.789  68.752  1.00  0.00    -0.267 NA 
HETATM   32  H   UNL     1     -11.998  15.109  68.053  1.00  0.00     0.000 HD 
BRANCH  31  33
HETATM   33  C   UNL     1      -9.904  15.110  68.465  1.00  0.00    -0.220 A  
HETATM   34  C   UNL     1      -9.023  14.787  69.507  1.00  0.00     0.115 A  
HETATM   35  C   UNL     1      -7.657  14.977  69.374  1.00  0.00    -0.195 A  
HETATM   36  C   UNL     1      -7.133  15.467  68.172  1.00  0.00    -0.128 A  
HETATM   37  C   UNL     1      -7.945  15.803  67.071  1.00  0.00    -0.272 A  
HETATM   38  C   UNL     1      -9.332  15.656  67.151  1.00  0.00    -0.218 A  
HETATM   39  P   UNL     1     -10.380  16.173  65.743  1.00  0.00    -0.340 P  
HETATM   40  C   UNL     1     -11.265  14.506  65.718  1.00  0.00    -0.334 C  
HETATM   41  O   UNL     1     -11.267  16.610  64.552  1.00  0.00    -0.909 OA 
HETATM   42  C   UNL     1     -11.284  17.393  66.880  1.00  0.00     0.534 C  
ENDBRANCH  31  33
ENDBRANCH  26  31
ENDBRANCH  22  24
ENDBRANCH   7  22
ENDBRANCH   2   3
TORSDOF 7
ENDMDL
MODEL      110
REMARK 921   NORMALIZED FREE ENERGY PREDICTED BY IDOCK:   -2.70 KCAL/MOL
REMARK 922        TOTAL FREE ENERGY PREDICTED BY IDOCK:   -5.11 KCAL/MOL
REMARK 923 INTER-LIGAND FREE ENERGY PREDICTED BY IDOCK:   -5.69 KCAL/MOL
REMARK 924 INTRA-LIGAND FREE ENERGY PREDICTED BY IDOCK:    0.58 KCAL/MOL
REMARK 927      BINDING AFFINITY PREDICTED BY RF-SCORE:    0.00 PKD
ROOT
HETATM    1  C   UNL     1      -5.722   8.967  73.884  1.00  0.00    -0.109 C  
HETATM    2  O   UNL     1      -5.890   9.850  72.781  1.00  0.00    -0.283 OA 
ENDROOT
BRANCH   2   3
HETATM    3  C   UNL     1      -5.986   9.322  71.507  1.00  0.00    -0.070 A  
HETATM    4  C   UNL     1      -6.363   7.986  71.211  1.00  0.00    -0.035 A  
HETATM    5  C   UNL     1      -6.428   7.482  69.895  1.00  0.00    -0.034 A  
HETATM    6  C   UNL     1      -6.101   8.422  68.891  1.00  0.00    -0.044 A  
HETATM    7  C   UNL     1      -5.675  10.257  70.478  1.00  0.00    -0.085 A  
HETATM    8  C   UNL     1      -5.737   9.775  69.177  1.00  0.00    -0.035 A  
BRANCH   5   9
HETATM    9  N   UNL     1      -6.849   6.171  69.631  1.00  0.00    -0.062 NA 
HETATM   10  C   UNL     1      -6.792   5.701  68.232  1.00  0.00    -0.063 C  
HETATM   11  C   UNL     1      -6.550   4.189  68.221  1.00  0.00    -0.046 C  
HETATM   12  C   UNL     1      -7.640   3.374  68.958  1.00  0.00    -0.052 C  
HETATM   13  C   UNL     1      -7.806   4.006  70.365  1.00  0.00    -0.051 C  
HETATM   14  C   UNL     1      -7.978   5.540  70.352  1.00  0.00    -0.102 C  
BRANCH  12  15
HETATM   15  N   UNL     1      -8.967   3.208  68.297  1.00  0.00    -0.123 NA 
HETATM   16  C   UNL     1      -9.521   4.412  67.641  1.00  0.00    -0.165 C  
HETATM   17  C   UNL     1      -9.994   3.598  64.606  1.00  0.00    -0.180 C  
HETATM   18  C   UNL     1      -8.930   2.137  67.255  1.00  0.00    -0.144 C  
HETATM   19  C   UNL     1      -8.814   4.839  66.330  1.00  0.00    -0.114 C  
HETATM   20  C   UNL     1      -8.244   2.533  65.914  1.00  0.00    -0.088 C  
HETATM   21  N   UNL     1      -8.723   3.787  65.301  1.00  0.00    -0.114 NA 
ENDBRANCH  12  15
ENDBRANCH   5   9
BRANCH   7  22
HETATM   22  N   UNL     1      -5.370  11.593  70.869  1.00  0.00    -0.185 NA 
HETATM   23  H   UNL     1      -4.729  11.584  71.663  1.00  0.00     0.000 HD 
BRANCH  22  24
HETATM   24  C   UNL     1      -5.668  12.917  70.512  1.00  0.00    -0.171 A  
HETATM   25 CL   UNL     1      -6.789  17.034  69.226  1.00  0.00    -0.236 Cl 
HETATM   26  C   UNL     1      -6.924  14.295  69.010  1.00  0.00    -0.112 A  
HETATM   27  C   UNL     1      -5.507  15.193  70.705  1.00  0.00    -0.134 A  
HETATM   28  N   UNL     1      -5.141  13.969  71.150  1.00  0.00    -0.116 NA 
HETATM   29  C   UNL     1      -6.377  15.418  69.642  1.00  0.00    -0.160 A  
HETATM   30  N   UNL     1      -6.549  13.056  69.460  1.00  0.00    -0.074 NA 
BRANCH  26  31
HETATM   31  N   UNL     1      -7.828  14.479  67.815  1.00  0.00    -0.145 NA 
HETATM   32  H   UNL     1      -7.630  15.296  67.239  1.00  0.00     0.000 HD 
BRANCH  31  33
HETATM   33  C   UNL     1      -8.969  13.638  67.358  1.00  0.00    -0.218 A  
HETATM   34  C   UNL     1      -8.611  12.327  67.011  1.00  0.00    -0.191 A  
HETATM   35  C   UNL     1      -9.567  11.406  66.616  1.00  0.00    -0.211 A  
HETATM   36  C   UNL     1     -10.919  11.768  66.590  1.00  0.00    -0.342 A  
HETATM   37  C   UNL     1     -11.366  13.059  66.935  1.00  0.00    -0.352 A  
HETATM   38  C   UNL     1     -10.449  14.039  67.320  1.00  0.00    -0.268 A  
HETATM   39  P   UNL     1     -11.035  15.733  67.687  1.00  0.00    -0.226 P  
HETATM   40  C   UNL     1     -10.139  15.743  69.348  1.00  0.00    -0.268 C  
HETATM   41  O   UNL     1     -11.531  17.167  67.998  1.00  0.00     0.037 OA 
HETATM   42  C   UNL     1      -9.910  16.406  66.317  1.00  0.00    -0.314 C  
ENDBRANCH  31  33
ENDBRANCH  26  31
ENDBRANCH  22  24
ENDBRANCH   7  22
ENDBRANCH   2   3
TORSDOF 7
ENDMDL
MODEL      111
REMARK 921   NORMALIZED FREE ENERGY PREDICTED BY IDOCK:   -2.55 KCAL/MOL
REMARK 922        TOTAL FREE ENERGY PREDICTED BY IDOCK:   -4.90 KCAL/MOL
REMARK 923 INTER-LIGAND FREE ENERGY PREDICTED BY IDOCK:   -7.34 KCAL/MOL
REMARK 924 INTRA-LIGAND FREE ENERGY PREDICTED BY IDOCK:    2.44 KCAL/MOL
REMARK 927      BINDING AFFINITY PREDICTED BY RF-SCORE:    0.00 PKD
ROOT
HETATM    1  C   UNL     1      -9.972   9.080  66.703  1.00  0.00    -0.278 C  
HETATM    2  O   UNL     1     -10.920   8.961  67.756  1.00  0.00    -0.112 OA 
ENDROOT
BRANCH   2   3
HETATM    3  C   UNL     1     -10.581   8.243  68.888  1.00  0.00    -0.139 A  
HETATM    4  C   UNL     1      -9.739   7.099  68.898  1.00  0.00    -0.146 A  
HETATM    5  C   UNL     1      -9.434   6.383  70.074  1.00  0.00    -0.156 A  
HETATM    6  C   UNL     1     -10.023   6.906  71.248  1.00  0.00    -0.189 A  
HETATM    7  C   UNL     1     -11.151   8.763  70.085  1.00  0.00    -0.202 A  
HETATM    8  C   UNL     1     -10.857   8.067  71.252  1.00  0.00    -0.267 A  
BRANCH   5   9
HETATM    9  N   UNL     1      -8.562   5.285  70.060  1.00  0.00    -0.111 NA 
HETATM   10  C   UNL     1      -7.780   5.046  68.831  1.00  0.00    -0.077 C  
HETATM   11  C   UNL     1      -6.452   4.380  69.204  1.00  0.00    -0.036 C  
HETATM   12  C   UNL     1      -6.613   3.029  69.941  1.00  0.00    -0.033 C  
HETATM   13  C   UNL     1      -7.586   3.271  71.125  1.00  0.00    -0.040 C  
HETATM   14  C   UNL     1      -8.886   4.007  70.734  1.00  0.00    -0.084 C  
BRANCH  12  15
HETATM   15  N   UNL     1      -7.037   1.837  69.150  1.00  0.00    -0.036 NA 
HETATM   16  C   UNL     1      -8.490   1.702  68.906  1.00  0.00    -0.054 C  
HETATM   17  C   UNL     1      -8.825   1.595  65.747  1.00  0.00    -0.124 C  
HETATM   18  C   UNL     1      -6.378   1.808  67.809  1.00  0.00    -0.025 C  
HETATM   19  C   UNL     1      -9.089   2.708  67.891  1.00  0.00    -0.184 C  
HETATM   20  C   UNL     1      -6.965   2.792  66.754  1.00  0.00    -0.049 C  
HETATM   21  N   UNL     1      -8.427   2.733  66.574  1.00  0.00    -0.097 NA 
ENDBRANCH  12  15
ENDBRANCH   5   9
BRANCH   7  22
HETATM   22  N   UNL     1     -11.929   9.952  69.985  1.00  0.00    -0.461 NA 
HETATM   23  H   UNL     1     -12.909   9.712  69.829  1.00  0.00     0.000 HD 
BRANCH  22  24
HETATM   24  C   UNL     1     -11.781  11.347  70.032  1.00  0.00    -0.334 A  
HETATM   25 CL   UNL     1     -11.193  15.763  69.963  1.00  0.00    -0.311 Cl 
HETATM   26  C   UNL     1     -10.748  13.233  68.981  1.00  0.00    -0.121 A  
HETATM   27  C   UNL     1     -12.152  13.434  70.897  1.00  0.00    -0.183 A  
HETATM   28  N   UNL     1     -12.380  12.102  70.960  1.00  0.00    -0.313 NA 
HETATM   29  C   UNL     1     -11.344  14.051  69.947  1.00  0.00    -0.145 A  
HETATM   30  N   UNL     1     -10.977  11.883  69.049  1.00  0.00    -0.228 NA 
BRANCH  26  31
HETATM   31  N   UNL     1      -9.815  13.842  67.961  1.00  0.00    -0.232 NA 
HETATM   32  H   UNL     1      -8.962  13.314  67.779  1.00  0.00     0.000 HD 
BRANCH  31  33
HETATM   33  C   UNL     1      -9.962  15.104  67.184  1.00  0.00    -0.237 A  
HETATM   34  C   UNL     1      -9.240  16.186  67.706  1.00  0.00    -0.202 A  
HETATM   35  C   UNL     1      -9.232  17.415  67.068  1.00  0.00    -0.252 A  
HETATM   36  C   UNL     1      -9.926  17.582  65.864  1.00  0.00    -0.155 A  
HETATM   37  C   UNL     1     -10.666  16.545  65.264  1.00  0.00    -0.269 A  
HETATM   38  C   UNL     1     -10.732  15.289  65.870  1.00  0.00    -0.334 A  
HETATM   39  P   UNL     1     -11.762  13.974  65.122  1.00  0.00    -0.393 P  
HETATM   40  C   UNL     1     -10.327  12.749  65.162  1.00  0.00    -0.295 C  
HETATM   41  O   UNL     1     -12.634  12.863  64.488  1.00  0.00    -0.590 OA 
HETATM   42  C   UNL     1     -12.774  13.873  66.722  1.00  0.00     0.154 C  
ENDBRANCH  31  33
ENDBRANCH  26  31
ENDBRANCH  22  24
ENDBRANCH   7  22
ENDBRANCH   2   3
TORSDOF 7
ENDMDL
MODEL      112
REMARK 921   NORMALIZED FREE ENERGY PREDICTED BY IDOCK:   -2.54 KCAL/MOL
REMARK 922        TOTAL FREE ENERGY PREDICTED BY IDOCK:   -4.90 KCAL/MOL
REMARK 923 INTER-LIGAND FREE ENERGY PREDICTED BY IDOCK:   -3.91 KCAL/MOL
REMARK 924 INTRA-LIGAND FREE ENERGY PREDICTED BY IDOCK:   -0.98 KCAL/MOL
REMARK 927      BINDING AFFINITY PREDICTED BY RF-SCORE:    0.00 PKD
ROOT
HETATM    1  C   UNL     1      -9.752   9.534  70.340  1.00  0.00    -0.271 C  
HETATM    2  O   UNL     1      -8.411   9.120  70.106  1.00  0.00    -0.139 OA 
ENDROOT
BRANCH   2   3
HETATM    3  C   UNL     1      -7.477  10.058  69.708  1.00  0.00    -0.151 A  
HETATM    4  C   UNL     1      -7.774  11.411  69.395  1.00  0.00     0.148 A  
HETATM    5  C   UNL     1      -6.793  12.332  68.972  1.00  0.00    -0.094 A  
HETATM    6  C   UNL     1      -5.484  11.802  68.900  1.00  0.00    -0.050 A  
HETATM    7  C   UNL     1      -6.149   9.549  69.643  1.00  0.00    -0.039 A  
HETATM    8  C   UNL     1      -5.172  10.446  69.229  1.00  0.00    -0.038 A  
BRANCH   5   9
HETATM    9  N   UNL     1      -7.108  13.674  68.715  1.00  0.00    -0.101 NA 
HETATM   10  C   UNL     1      -8.241  14.267  69.453  1.00  0.00     0.300 C  
HETATM   11  C   UNL     1      -7.988  15.765  69.640  1.00  0.00    -0.027 C  
HETATM   12  C   UNL     1      -7.819  16.544  68.314  1.00  0.00    -0.175 C  
HETATM   13  C   UNL     1      -6.748  15.792  67.480  1.00  0.00    -0.220 C  
HETATM   14  C   UNL     1      -6.989  14.271  67.365  1.00  0.00    -0.051 C  
BRANCH  12  15
HETATM   15  N   UNL     1      -9.034  16.809  67.489  1.00  0.00    -0.204 NA 
HETATM   16  C   UNL     1     -10.054  17.689  68.100  1.00  0.00    -0.347 C  
HETATM   17  C   UNL     1     -10.427  20.110  66.075  1.00  0.00    -0.337 C  
HETATM   18  C   UNL     1      -8.677  17.424  66.174  1.00  0.00    -0.147 C  
HETATM   19  C   UNL     1      -9.670  19.187  68.192  1.00  0.00    -0.361 C  
HETATM   20  C   UNL     1      -8.304  18.935  66.221  1.00  0.00    -0.260 C  
HETATM   21  N   UNL     1      -9.271  19.807  66.915  1.00  0.00    -0.340 NA 
ENDBRANCH  12  15
ENDBRANCH   5   9
BRANCH   7  22
HETATM   22  N   UNL     1      -5.939   8.196  70.038  1.00  0.00    -0.022 NA 
HETATM   23  H   UNL     1      -5.098   8.129  70.612  1.00  0.00     0.000 HD 
BRANCH  22  24
HETATM   24  C   UNL     1      -6.518   6.926  69.890  1.00  0.00    -0.043 A  
HETATM   25 CL   UNL     1      -8.239   2.873  69.206  1.00  0.00    -0.070 Cl 
HETATM   26  C   UNL     1      -6.838   5.093  68.385  1.00  0.00    -0.056 A  
HETATM   27  C   UNL     1      -7.716   5.109  70.601  1.00  0.00    -0.079 A  
HETATM   28  N   UNL     1      -7.205   6.332  70.873  1.00  0.00    -0.069 NA 
HETATM   29  C   UNL     1      -7.578   4.449  69.384  1.00  0.00    -0.055 A  
HETATM   30  N   UNL     1      -6.324   6.333  68.661  1.00  0.00    -0.039 NA 
BRANCH  26  31
HETATM   31  N   UNL     1      -6.703   4.449  67.025  1.00  0.00    -0.050 NA 
HETATM   32  H   UNL     1      -6.633   3.432  67.028  1.00  0.00     0.000 HD 
BRANCH  31  33
HETATM   33  C   UNL     1      -6.658   5.087  65.681  1.00  0.00    -0.041 A  
HETATM   34  C   UNL     1      -5.461   5.762  65.407  1.00  0.00    -0.013 A  
HETATM   35  C   UNL     1      -5.243   6.364  64.178  1.00  0.00    -0.021 A  
HETATM   36  C   UNL     1      -6.215   6.275  63.174  1.00  0.00    -0.026 A  
HETATM   37  C   UNL     1      -7.440   5.605  63.361  1.00  0.00    -0.066 A  
HETATM   38  C   UNL     1      -7.728   4.998  64.585  1.00  0.00    -0.081 A  
HETATM   39  P   UNL     1      -9.356   4.201  64.840  1.00  0.00    -0.180 P  
HETATM   40  C   UNL     1      -8.544   2.607  65.441  1.00  0.00    -0.107 C  
HETATM   41  O   UNL     1     -10.733   3.527  65.056  1.00  0.00     0.171 OA 
HETATM   42  C   UNL     1      -9.688   5.373  66.294  1.00  0.00    -0.162 C  
ENDBRANCH  31  33
ENDBRANCH  26  31
ENDBRANCH  22  24
ENDBRANCH   7  22
ENDBRANCH   2   3
TORSDOF 7
ENDMDL
MODEL      113
REMARK 921   NORMALIZED FREE ENERGY PREDICTED BY IDOCK:   -2.44 KCAL/MOL
REMARK 922        TOTAL FREE ENERGY PREDICTED BY IDOCK:   -4.75 KCAL/MOL
REMARK 923 INTER-LIGAND FREE ENERGY PREDICTED BY IDOCK:   -7.39 KCAL/MOL
REMARK 924 INTRA-LIGAND FREE ENERGY PREDICTED BY IDOCK:    2.63 KCAL/MOL
REMARK 927      BINDING AFFINITY PREDICTED BY RF-SCORE:    0.00 PKD
ROOT
HETATM    1  C   UNL     1     -12.601  12.970  64.979  1.00  0.00    -0.454 C  
HETATM    2  O   UNL     1     -11.257  12.515  64.873  1.00  0.00    -0.290 OA 
ENDROOT
BRANCH   2   3
HETATM    3  C   UNL     1     -10.327  12.944  65.802  1.00  0.00    -0.284 A  
HETATM    4  C   UNL     1     -10.149  14.294  66.204  1.00  0.00    -0.325 A  
HETATM    5  C   UNL     1      -9.174  14.691  67.141  1.00  0.00    -0.221 A  
HETATM    6  C   UNL     1      -8.395  13.632  67.662  1.00  0.00    -0.182 A  
HETATM    7  C   UNL     1      -9.543  11.890  66.351  1.00  0.00    -0.225 A  
HETATM    8  C   UNL     1      -8.578  12.267  67.277  1.00  0.00    -0.183 A  
BRANCH   5   9
HETATM    9  N   UNL     1      -9.052  16.026  67.554  1.00  0.00    -0.198 NA 
HETATM   10  C   UNL     1     -10.234  16.898  67.412  1.00  0.00    -0.298 C  
HETATM   11  C   UNL     1     -10.202  17.968  68.507  1.00  0.00    -0.392 C  
HETATM   12  C   UNL     1      -8.939  18.861  68.475  1.00  0.00    -0.351 C  
HETATM   13  C   UNL     1      -7.712  17.912  68.443  1.00  0.00    -0.292 C  
HETATM   14  C   UNL     1      -7.802  16.800  67.376  1.00  0.00    -0.171 C  
BRANCH  12  15
HETATM   15  N   UNL     1      -8.830  19.895  67.404  1.00  0.00    -0.325 NA 
HETATM   16  C   UNL     1      -7.880  20.999  67.662  1.00  0.00     0.021 C  
HETATM   17  C   UNL     1      -5.823  20.950  65.241  1.00  0.00    -0.238 C  
HETATM   18  C   UNL     1      -8.428  19.288  66.098  1.00  0.00    -0.269 C  
HETATM   19  C   UNL     1      -6.381  20.619  67.583  1.00  0.00    -0.282 C  
HETATM   20  C   UNL     1      -6.923  18.910  65.971  1.00  0.00    -0.262 C  
HETATM   21  N   UNL     1      -5.967  19.977  66.322  1.00  0.00    -0.168 NA 
ENDBRANCH  12  15
ENDBRANCH   5   9
BRANCH   7  22
HETATM   22  N   UNL     1      -9.837  10.560  65.934  1.00  0.00    -0.222 NA 
HETATM   23  H   UNL     1     -10.843  10.395  65.988  1.00  0.00     0.000 HD 
BRANCH  22  24
HETATM   24  C   UNL     1      -9.188   9.404  65.473  1.00  0.00    -0.232 A  
HETATM   25 CL   UNL     1      -7.181   5.626  64.226  1.00  0.00    -0.053 Cl 
HETATM   26  C   UNL     1      -8.395   7.233  66.099  1.00  0.00    -0.133 A  
HETATM   27  C   UNL     1      -8.156   8.107  63.893  1.00  0.00    -0.114 A  
HETATM   28  N   UNL     1      -8.772   9.270  64.209  1.00  0.00    -0.195 NA 
HETATM   29  C   UNL     1      -7.930   7.066  64.789  1.00  0.00    -0.122 A  
HETATM   30  N   UNL     1      -9.016   8.413  66.417  1.00  0.00    -0.160 NA 
BRANCH  26  31
HETATM   31  N   UNL     1      -8.127   6.160  67.127  1.00  0.00    -0.106 NA 
HETATM   32  H   UNL     1      -7.799   6.495  68.032  1.00  0.00     0.000 HD 
BRANCH  31  33
HETATM   33  C   UNL     1      -8.274   4.683  67.008  1.00  0.00    -0.106 A  
HETATM   34  C   UNL     1      -9.194   4.276  66.033  1.00  0.00    -0.145 A  
HETATM   35  C   UNL     1      -9.406   2.933  65.765  1.00  0.00    -0.062 A  
HETATM   36  C   UNL     1      -8.670   1.959  66.450  1.00  0.00    -0.118 A  
HETATM   37  C   UNL     1      -7.717   2.282  67.436  1.00  0.00    -0.061 A  
HETATM   38  C   UNL     1      -7.475   3.617  67.768  1.00  0.00    -0.066 A  
HETATM   39  P   UNL     1      -6.293   4.018  69.106  1.00  0.00    -0.030 P  
HETATM   40  C   UNL     1      -5.359   5.225  67.996  1.00  0.00    -0.011 C  
HETATM   41  O   UNL     1      -5.293   4.357  70.239  1.00  0.00    -0.003 OA 
HETATM   42  C   UNL     1      -7.679   4.908  70.046  1.00  0.00    -0.059 C  
ENDBRANCH  31  33
ENDBRANCH  26  31
ENDBRANCH  22  24
ENDBRANCH   7  22
ENDBRANCH   2   3
TORSDOF 7
ENDMDL
MODEL      114
REMARK 921   NORMALIZED FREE ENERGY PREDICTED BY IDOCK:   -2.41 KCAL/MOL
REMARK 922        TOTAL FREE ENERGY PREDICTED BY IDOCK:   -4.71 KCAL/MOL
REMARK 923 INTER-LIGAND FREE ENERGY PREDICTED BY IDOCK:   -6.84 KCAL/MOL
REMARK 924 INTRA-LIGAND FREE ENERGY PREDICTED BY IDOCK:    2.13 KCAL/MOL
REMARK 927      BINDING AFFINITY PREDICTED BY RF-SCORE:    0.00 PKD
ROOT
HETATM    1  C   UNL     1      -9.522   9.341  65.154  1.00  0.00    -0.114 C  
HETATM    2  O   UNL     1      -8.631   9.699  66.202  1.00  0.00    -0.124 OA 
ENDROOT
BRANCH   2   3
HETATM    3  C   UNL     1      -9.041   9.550  67.514  1.00  0.00    -0.130 A  
HETATM    4  C   UNL     1      -9.124   8.309  68.199  1.00  0.00    -0.134 A  
HETATM    5  C   UNL     1      -9.569   8.199  69.533  1.00  0.00    -0.168 A  
HETATM    6  C   UNL     1      -9.911   9.430  70.140  1.00  0.00    -0.269 A  
HETATM    7  C   UNL     1      -9.376  10.780  68.150  1.00  0.00    -0.155 A  
HETATM    8  C   UNL     1      -9.814  10.686  69.465  1.00  0.00    -0.115 A  
BRANCH   5   9
HETATM    9  N   UNL     1      -9.596   6.965  70.198  1.00  0.00    -0.162 NA 
HETATM   10  C   UNL     1      -8.374   6.139  70.161  1.00  0.00    -0.128 C  
HETATM   11  C   UNL     1      -8.297   5.301  71.440  1.00  0.00    -0.121 C  
HETATM   12  C   UNL     1      -9.507   4.359  71.648  1.00  0.00    -0.153 C  
HETATM   13  C   UNL     1     -10.786   5.226  71.502  1.00  0.00    -0.221 C  
HETATM   14  C   UNL     1     -10.807   6.113  70.239  1.00  0.00    -0.319 C  
BRANCH  12  15
HETATM   15  N   UNL     1      -9.604   3.134  70.802  1.00  0.00    -0.167 NA 
HETATM   16  C   UNL     1      -9.521   3.346  69.341  1.00  0.00    -0.151 C  
HETATM   17  C   UNL     1      -7.074   1.574  68.352  1.00  0.00    -0.039 C  
HETATM   18  C   UNL     1      -8.539   2.144  71.148  1.00  0.00    -0.058 C  
HETATM   19  C   UNL     1      -8.117   3.722  68.803  1.00  0.00    -0.069 C  
HETATM   20  C   UNL     1      -7.116   2.478  70.609  1.00  0.00    -0.033 C  
HETATM   21  N   UNL     1      -7.039   2.786  69.168  1.00  0.00    -0.044 NA 
ENDBRANCH  12  15
ENDBRANCH   5   9
BRANCH   7  22
HETATM   22  N   UNL     1      -9.199  11.980  67.403  1.00  0.00    -0.175 NA 
HETATM   23  H   UNL     1      -9.932  12.059  66.697  1.00  0.00     0.000 HD 
BRANCH  22  24
HETATM   24  C   UNL     1      -8.342  13.089  67.328  1.00  0.00    -0.185 A  
HETATM   25 CL   UNL     1      -5.814  16.746  67.029  1.00  0.00    -0.206 Cl 
HETATM   26  C   UNL     1      -8.186  15.393  66.699  1.00  0.00    -0.164 A  
HETATM   27  C   UNL     1      -6.342  14.172  67.590  1.00  0.00    -0.111 A  
HETATM   28  N   UNL     1      -7.063  13.035  67.718  1.00  0.00    -0.123 NA 
HETATM   29  C   UNL     1      -6.839  15.368  67.081  1.00  0.00     0.006 A  
HETATM   30  N   UNL     1      -8.914  14.239  66.827  1.00  0.00    -0.248 NA 
BRANCH  26  31
HETATM   31  N   UNL     1      -8.764  16.647  66.087  1.00  0.00    -0.427 NA 
HETATM   32  H   UNL     1      -8.976  16.589  65.092  1.00  0.00     0.000 HD 
BRANCH  31  33
HETATM   33  C   UNL     1      -9.068  17.956  66.729  1.00  0.00    -0.268 A  
HETATM   34  C   UNL     1      -8.376  19.041  66.173  1.00  0.00    -0.230 A  
HETATM   35  C   UNL     1      -8.589  20.333  66.626  1.00  0.00    -0.303 A  
HETATM   36  C   UNL     1      -9.533  20.574  67.632  1.00  0.00    -0.456 A  
HETATM   37  C   UNL     1     -10.280  19.544  68.235  1.00  0.00    -0.552 A  
HETATM   38  C   UNL     1     -10.094  18.218  67.839  1.00  0.00    -0.361 A  
HETATM   39  P   UNL     1     -11.012  16.881  68.687  1.00  0.00    -0.078 P  
HETATM   40  C   UNL     1     -11.620  16.179  67.043  1.00  0.00     0.521 C  
HETATM   41  O   UNL     1     -11.790  15.751  69.405  1.00  0.00    -0.360 OA 
HETATM   42  C   UNL     1      -9.366  16.084  69.187  1.00  0.00    -0.251 C  
ENDBRANCH  31  33
ENDBRANCH  26  31
ENDBRANCH  22  24
ENDBRANCH   7  22
ENDBRANCH   2   3
TORSDOF 7
ENDMDL
MODEL      115
REMARK 921   NORMALIZED FREE ENERGY PREDICTED BY IDOCK:   -2.36 KCAL/MOL
REMARK 922        TOTAL FREE ENERGY PREDICTED BY IDOCK:   -4.63 KCAL/MOL
REMARK 923 INTER-LIGAND FREE ENERGY PREDICTED BY IDOCK:   -5.96 KCAL/MOL
REMARK 924 INTRA-LIGAND FREE ENERGY PREDICTED BY IDOCK:    1.33 KCAL/MOL
REMARK 927      BINDING AFFINITY PREDICTED BY RF-SCORE:    0.00 PKD
ROOT
HETATM    1  C   UNL     1     -12.578  12.801  65.111  1.00  0.00    -0.444 C  
HETATM    2  O   UNL     1     -11.270  12.256  64.985  1.00  0.00    -0.305 OA 
ENDROOT
BRANCH   2   3
HETATM    3  C   UNL     1     -10.311  12.589  65.924  1.00  0.00    -0.263 A  
HETATM    4  C   UNL     1     -10.147  13.881  66.490  1.00  0.00    -0.286 A  
HETATM    5  C   UNL     1      -9.141  14.183  67.430  1.00  0.00    -0.198 A  
HETATM    6  C   UNL     1      -8.316  13.088  67.778  1.00  0.00    -0.175 A  
HETATM    7  C   UNL     1      -9.479  11.496  66.301  1.00  0.00    -0.217 A  
HETATM    8  C   UNL     1      -8.484  11.779  67.229  1.00  0.00    -0.160 A  
BRANCH   5   9
HETATM    9  N   UNL     1      -9.032  15.457  68.006  1.00  0.00    -0.170 NA 
HETATM   10  C   UNL     1     -10.194  16.361  67.896  1.00  0.00    -0.268 C  
HETATM   11  C   UNL     1     -10.221  17.292  69.111  1.00  0.00    -0.283 C  
HETATM   12  C   UNL     1      -8.950  18.161  69.265  1.00  0.00     0.270 C  
HETATM   13  C   UNL     1      -7.733  17.200  69.196  1.00  0.00    -0.094 C  
HETATM   14  C   UNL     1      -7.766  16.224  68.000  1.00  0.00    -0.148 C  
BRANCH  12  15
HETATM   15  N   UNL     1      -8.762  19.312  68.334  1.00  0.00    -0.346 NA 
HETATM   16  C   UNL     1      -8.479  18.968  66.924  1.00  0.00    -0.290 C  
HETATM   17  C   UNL     1     -10.767  20.368  65.220  1.00  0.00     0.390 C  
HETATM   18  C   UNL     1      -9.961  20.204  68.320  1.00  0.00    -0.319 C  
HETATM   19  C   UNL     1      -9.677  18.394  66.127  1.00  0.00    -0.229 C  
HETATM   20  C   UNL     1     -11.181  19.672  67.512  1.00  0.00     0.149 C  
HETATM   21  N   UNL     1     -10.888  19.234  66.134  1.00  0.00    -0.338 NA 
ENDBRANCH  12  15
ENDBRANCH   5   9
BRANCH   7  22
HETATM   22  N   UNL     1      -9.760  10.222  65.728  1.00  0.00    -0.220 NA 
HETATM   23  H   UNL     1     -10.701   9.926  65.989  1.00  0.00     0.000 HD 
BRANCH  22  24
HETATM   24  C   UNL     1      -9.159   9.244  64.921  1.00  0.00    -0.170 A  
HETATM   25 CL   UNL     1      -7.243   5.990  62.555  1.00  0.00    -0.048 Cl 
HETATM   26  C   UNL     1      -8.098   7.098  64.923  1.00  0.00    -0.107 A  
HETATM   27  C   UNL     1      -8.434   8.368  62.934  1.00  0.00    -0.057 A  
HETATM   28  N   UNL     1      -9.037   9.382  63.596  1.00  0.00    -0.124 NA 
HETATM   29  C   UNL     1      -7.938   7.217  63.538  1.00  0.00    -0.066 A  
HETATM   30  N   UNL     1      -8.707   8.128  65.592  1.00  0.00    -0.162 NA 
BRANCH  26  31
HETATM   31  N   UNL     1      -7.529   5.897  65.639  1.00  0.00    -0.079 NA 
HETATM   32  H   UNL     1      -6.705   5.480  65.206  1.00  0.00     0.000 HD 
BRANCH  31  33
HETATM   33  C   UNL     1      -7.997   5.233  66.887  1.00  0.00    -0.101 A  
HETATM   34  C   UNL     1      -7.727   5.956  68.057  1.00  0.00    -0.100 A  
HETATM   35  C   UNL     1      -8.146   5.498  69.294  1.00  0.00    -0.095 A  
HETATM   36  C   UNL     1      -8.881   4.310  69.388  1.00  0.00    -0.138 A  
HETATM   37  C   UNL     1      -9.208   3.529  68.262  1.00  0.00    -0.225 A  
HETATM   38  C   UNL     1      -8.795   3.926  66.989  1.00  0.00    -0.126 A  
HETATM   39  P   UNL     1      -9.157   2.861  65.545  1.00  0.00    -0.091 P  
HETATM   40  C   UNL     1      -9.912   4.308  64.597  1.00  0.00    -0.128 C  
HETATM   41  O   UNL     1      -9.463   1.960  64.324  1.00  0.00    -0.131 OA 
HETATM   42  C   UNL     1      -7.298   2.728  65.193  1.00  0.00    -0.067 C  
ENDBRANCH  31  33
ENDBRANCH  26  31
ENDBRANCH  22  24
ENDBRANCH   7  22
ENDBRANCH   2   3
TORSDOF 7
ENDMDL
MODEL      116
REMARK 921   NORMALIZED FREE ENERGY PREDICTED BY IDOCK:   -2.16 KCAL/MOL
REMARK 922        TOTAL FREE ENERGY PREDICTED BY IDOCK:   -4.35 KCAL/MOL
REMARK 923 INTER-LIGAND FREE ENERGY PREDICTED BY IDOCK:   -5.87 KCAL/MOL
REMARK 924 INTRA-LIGAND FREE ENERGY PREDICTED BY IDOCK:    1.52 KCAL/MOL
REMARK 927      BINDING AFFINITY PREDICTED BY RF-SCORE:    0.00 PKD
ROOT
HETATM    1  C   UNL     1     -13.574   7.950  72.247  1.00  0.00    -0.020 C  
HETATM    2  O   UNL     1     -12.259   8.488  72.176  1.00  0.00    -0.336 OA 
ENDROOT
BRANCH   2   3
HETATM    3  C   UNL     1     -11.822   9.040  70.986  1.00  0.00    -0.285 A  
HETATM    4  C   UNL     1     -11.990  10.400  70.616  1.00  0.00    -0.448 A  
HETATM    5  C   UNL     1     -11.546  10.919  69.382  1.00  0.00    -0.316 A  
HETATM    6  C   UNL     1     -10.904   9.975  68.547  1.00  0.00    -0.270 A  
HETATM    7  C   UNL     1     -11.158   8.110  70.137  1.00  0.00    -0.187 A  
HETATM    8  C   UNL     1     -10.714   8.607  68.917  1.00  0.00    -0.109 A  
BRANCH   5   9
HETATM    9  N   UNL     1     -11.685  12.277  69.062  1.00  0.00    -0.309 NA 
HETATM   10  C   UNL     1     -10.803  12.829  68.016  1.00  0.00    -0.233 C  
HETATM   11  C   UNL     1     -11.527  13.974  67.302  1.00  0.00    -0.372 C  
HETATM   12  C   UNL     1     -11.944  15.133  68.239  1.00  0.00    -0.159 C  
HETATM   13  C   UNL     1     -12.717  14.500  69.426  1.00  0.00     0.206 C  
HETATM   14  C   UNL     1     -11.997  13.303  70.083  1.00  0.00    -0.318 C  
BRANCH  12  15
HETATM   15  N   UNL     1     -10.885  16.058  68.737  1.00  0.00    -0.282 NA 
HETATM   16  C   UNL     1      -9.993  15.519  69.786  1.00  0.00    -0.274 C  
HETATM   17  C   UNL     1      -7.046  15.763  68.620  1.00  0.00    -0.129 C  
HETATM   18  C   UNL     1      -9.999  16.523  67.625  1.00  0.00    -0.254 C  
HETATM   19  C   UNL     1      -8.974  14.454  69.309  1.00  0.00     0.201 C  
HETATM   20  C   UNL     1      -8.947  15.486  67.131  1.00  0.00    -0.214 C  
HETATM   21  N   UNL     1      -8.118  14.871  68.184  1.00  0.00    -0.131 NA 
ENDBRANCH  12  15
ENDBRANCH   5   9
BRANCH   7  22
HETATM   22  N   UNL     1     -10.979   6.782  70.621  1.00  0.00    -0.252 NA 
HETATM   23  H   UNL     1     -11.859   6.430  70.999  1.00  0.00     0.000 HD 
BRANCH  22  24
HETATM   24  C   UNL     1      -9.981   5.803  70.746  1.00  0.00    -0.193 A  
HETATM   25 CL   UNL     1      -6.673   2.827  70.985  1.00  0.00    -0.031 Cl 
HETATM   26  C   UNL     1      -7.877   5.046  69.893  1.00  0.00    -0.070 A  
HETATM   27  C   UNL     1      -9.025   3.935  71.662  1.00  0.00    -0.111 A  
HETATM   28  N   UNL     1     -10.052   4.816  71.647  1.00  0.00    -0.192 NA 
HETATM   29  C   UNL     1      -7.927   3.990  70.810  1.00  0.00    -0.059 A  
HETATM   30  N   UNL     1      -8.919   5.936  69.877  1.00  0.00    -0.138 NA 
BRANCH  26  31
HETATM   31  N   UNL     1      -6.736   5.122  68.905  1.00  0.00    -0.048 NA 
HETATM   32  H   UNL     1      -5.844   4.762  69.240  1.00  0.00     0.000 HD 
BRANCH  31  33
HETATM   33  C   UNL     1      -6.729   5.649  67.513  1.00  0.00    -0.059 A  
HETATM   34  C   UNL     1      -6.596   7.042  67.428  1.00  0.00    -0.055 A  
HETATM   35  C   UNL     1      -6.520   7.681  66.201  1.00  0.00    -0.046 A  
HETATM   36  C   UNL     1      -6.543   6.930  65.020  1.00  0.00    -0.043 A  
HETATM   37  C   UNL     1      -6.661   5.526  65.015  1.00  0.00    -0.044 A  
HETATM   38  C   UNL     1      -6.765   4.826  66.219  1.00  0.00    -0.050 A  
HETATM   39  P   UNL     1      -6.999   3.012  66.195  1.00  0.00    -0.059 P  
HETATM   40  C   UNL     1      -5.561   2.754  67.389  1.00  0.00    -0.018 C  
HETATM   41  O   UNL     1      -7.198   1.476  66.174  1.00  0.00    -0.049 OA 
HETATM   42  C   UNL     1      -8.628   3.222  67.144  1.00  0.00    -0.111 C  
ENDBRANCH  31  33
ENDBRANCH  26  31
ENDBRANCH  22  24
ENDBRANCH   7  22
ENDBRANCH   2   3
TORSDOF 7
ENDMDL
MODEL      117
REMARK 921   NORMALIZED FREE ENERGY PREDICTED BY IDOCK:   -2.15 KCAL/MOL
REMARK 922        TOTAL FREE ENERGY PREDICTED BY IDOCK:   -4.34 KCAL/MOL
REMARK 923 INTER-LIGAND FREE ENERGY PREDICTED BY IDOCK:   -5.10 KCAL/MOL
REMARK 924 INTRA-LIGAND FREE ENERGY PREDICTED BY IDOCK:    0.76 KCAL/MOL
REMARK 927      BINDING AFFINITY PREDICTED BY RF-SCORE:    0.00 PKD
ROOT
HETATM    1  C   UNL     1      -5.161   9.838  69.850  1.00  0.00    -0.033 C  
HETATM    2  O   UNL     1      -6.298  10.563  69.397  1.00  0.00    -0.046 OA 
ENDROOT
BRANCH   2   3
HETATM    3  C   UNL     1      -7.004  10.092  68.305  1.00  0.00    -0.070 A  
HETATM    4  C   UNL     1      -7.489   8.765  68.167  1.00  0.00    -0.092 A  
HETATM    5  C   UNL     1      -8.189   8.320  67.027  1.00  0.00    -0.104 A  
HETATM    6  C   UNL     1      -8.382   9.309  66.035  1.00  0.00    -0.117 A  
HETATM    7  C   UNL     1      -7.225  11.078  67.301  1.00  0.00    -0.102 A  
HETATM    8  C   UNL     1      -7.914  10.653  66.172  1.00  0.00    -0.151 A  
BRANCH   5   9
HETATM    9  N   UNL     1      -8.696   7.015  66.938  1.00  0.00    -0.119 NA 
HETATM   10  C   UNL     1      -8.767   6.222  68.181  1.00  0.00    -0.115 C  
HETATM   11  C   UNL     1      -9.938   5.240  68.081  1.00  0.00    -0.209 C  
HETATM   12  C   UNL     1      -9.835   4.258  66.890  1.00  0.00    -0.193 C  
HETATM   13  C   UNL     1      -9.579   5.113  65.619  1.00  0.00    -0.104 C  
HETATM   14  C   UNL     1      -8.439   6.143  65.770  1.00  0.00    -0.147 C  
BRANCH  12  15
HETATM   15  N   UNL     1      -8.850   3.141  66.976  1.00  0.00    -0.129 NA 
HETATM   16  C   UNL     1      -7.501   3.499  67.464  1.00  0.00    -0.066 C  
HETATM   17  C   UNL     1      -6.993   1.668  70.012  1.00  0.00    -0.033 C  
HETATM   18  C   UNL     1      -9.345   2.044  67.864  1.00  0.00    -0.168 C  
HETATM   19  C   UNL     1      -7.407   3.827  68.976  1.00  0.00    -0.053 C  
HETATM   20  C   UNL     1      -9.249   2.328  69.392  1.00  0.00    -0.120 C  
HETATM   21  N   UNL     1      -7.930   2.781  69.873  1.00  0.00    -0.042 NA 
ENDBRANCH  12  15
ENDBRANCH   5   9
BRANCH   7  22
HETATM   22  N   UNL     1      -6.757  12.399  67.557  1.00  0.00    -0.132 NA 
HETATM   23  H   UNL     1      -5.777  12.478  67.284  1.00  0.00     0.000 HD 
BRANCH  22  24
HETATM   24  C   UNL     1      -7.212  13.626  68.064  1.00  0.00    -0.130 A  
HETATM   25 CL   UNL     1      -8.643  17.614  69.445  1.00  0.00     0.312 Cl 
HETATM   26  C   UNL     1      -7.587  15.932  67.542  1.00  0.00    -0.161 A  
HETATM   27  C   UNL     1      -8.065  15.001  69.684  1.00  0.00    -0.049 A  
HETATM   28  N   UNL     1      -7.659  13.764  69.318  1.00  0.00     0.106 NA 
HETATM   29  C   UNL     1      -8.042  16.117  68.853  1.00  0.00    -0.228 A  
HETATM   30  N   UNL     1      -7.172  14.679  67.174  1.00  0.00    -0.131 NA 
BRANCH  26  31
HETATM   31  N   UNL     1      -7.486  17.119  66.614  1.00  0.00    -0.229 NA 
HETATM   32  H   UNL     1      -6.582  17.244  66.161  1.00  0.00     0.000 HD 
BRANCH  31  33
HETATM   33  C   UNL     1      -8.519  18.133  66.266  1.00  0.00    -0.185 A  
HETATM   34  C   UNL     1      -9.822  17.621  66.188  1.00  0.00    -0.253 A  
HETATM   35  C   UNL     1     -10.902  18.447  65.924  1.00  0.00    -0.047 A  
HETATM   36  C   UNL     1     -10.705  19.824  65.765  1.00  0.00    -0.474 A  
HETATM   37  C   UNL     1      -9.433  20.424  65.842  1.00  0.00    -0.092 A  
HETATM   38  C   UNL     1      -8.302  19.641  66.082  1.00  0.00    -0.335 A  
HETATM   39  P   UNL     1      -6.646  20.421  66.098  1.00  0.00    -0.226 P  
HETATM   40  C   UNL     1      -6.237  19.648  67.771  1.00  0.00    -0.201 C  
HETATM   41  O   UNL     1      -5.246  21.081  66.112  1.00  0.00    -0.186 OA 
HETATM   42  C   UNL     1      -6.108  19.279  64.683  1.00  0.00    -0.247 C  
ENDBRANCH  31  33
ENDBRANCH  26  31
ENDBRANCH  22  24
ENDBRANCH   7  22
ENDBRANCH   2   3
TORSDOF 7
ENDMDL
MODEL      118
REMARK 921   NORMALIZED FREE ENERGY PREDICTED BY IDOCK:   -2.15 KCAL/MOL
REMARK 922        TOTAL FREE ENERGY PREDICTED BY IDOCK:   -4.34 KCAL/MOL
REMARK 923 INTER-LIGAND FREE ENERGY PREDICTED BY IDOCK:   -6.04 KCAL/MOL
REMARK 924 INTRA-LIGAND FREE ENERGY PREDICTED BY IDOCK:    1.70 KCAL/MOL
REMARK 927      BINDING AFFINITY PREDICTED BY RF-SCORE:    0.00 PKD
ROOT
HETATM    1  C   UNL     1      -8.568   9.443  64.933  1.00  0.00    -0.176 C  
HETATM    2  O   UNL     1      -7.590   9.820  65.895  1.00  0.00    -0.098 OA 
ENDROOT
BRANCH   2   3
HETATM    3  C   UNL     1      -7.689   9.325  67.182  1.00  0.00    -0.095 A  
HETATM    4  C   UNL     1      -7.913   7.961  67.509  1.00  0.00    -0.123 A  
HETATM    5  C   UNL     1      -8.028   7.501  68.837  1.00  0.00    -0.126 A  
HETATM    6  C   UNL     1      -7.885   8.507  69.821  1.00  0.00    -0.094 A  
HETATM    7  C   UNL     1      -7.531  10.320  68.189  1.00  0.00    -0.086 A  
HETATM    8  C   UNL     1      -7.640   9.880  69.503  1.00  0.00    -0.125 A  
BRANCH   5   9
HETATM    9  N   UNL     1      -8.204   6.141  69.131  1.00  0.00    -0.112 NA 
HETATM   10  C   UNL     1      -6.997   5.294  69.202  1.00  0.00    -0.056 C  
HETATM   11  C   UNL     1      -7.243   4.155  70.196  1.00  0.00    -0.042 C  
HETATM   12  C   UNL     1      -8.444   3.251  69.830  1.00  0.00    -0.053 C  
HETATM   13  C   UNL     1      -9.658   4.187  69.584  1.00  0.00    -0.277 C  
HETATM   14  C   UNL     1      -9.363   5.367  68.633  1.00  0.00    -0.118 C  
BRANCH  12  15
HETATM   15  N   UNL     1      -8.289   2.288  68.702  1.00  0.00    -0.056 NA 
HETATM   16  C   UNL     1      -8.450   2.848  67.342  1.00  0.00    -0.094 C  
HETATM   17  C   UNL     1      -5.738   2.203  65.816  1.00  0.00    -0.017 C  
HETATM   18  C   UNL     1      -6.949   1.625  68.730  1.00  0.00    -0.036 C  
HETATM   19  C   UNL     1      -7.292   3.755  66.855  1.00  0.00    -0.071 C  
HETATM   20  C   UNL     1      -5.760   2.498  68.229  1.00  0.00    -0.023 C  
HETATM   21  N   UNL     1      -5.954   3.141  66.916  1.00  0.00    -0.023 NA 
ENDBRANCH  12  15
ENDBRANCH   5   9
BRANCH   7  22
HETATM   22  N   UNL     1      -7.245  11.650  67.766  1.00  0.00    -0.094 NA 
HETATM   23  H   UNL     1      -7.270  11.702  66.747  1.00  0.00     0.000 HD 
BRANCH  22  24
HETATM   24  C   UNL     1      -6.938  12.911  68.301  1.00  0.00    -0.099 A  
HETATM   25 CL   UNL     1      -6.140  17.010  69.854  1.00  0.00    -0.224 Cl 
HETATM   26  C   UNL     1      -7.346  15.261  68.107  1.00  0.00    -0.114 A  
HETATM   27  C   UNL     1      -5.893  14.337  69.755  1.00  0.00    -0.112 A  
HETATM   28  N   UNL     1      -6.107  13.068  69.338  1.00  0.00    -0.102 NA 
HETATM   29  C   UNL     1      -6.468  15.464  69.178  1.00  0.00    -0.128 A  
HETATM   30  N   UNL     1      -7.560  13.975  67.684  1.00  0.00    -0.165 NA 
BRANCH  26  31
HETATM   31  N   UNL     1      -7.955  16.452  67.406  1.00  0.00    -0.148 NA 
HETATM   32  H   UNL     1      -8.972  16.511  67.447  1.00  0.00     0.000 HD 
BRANCH  31  33
HETATM   33  C   UNL     1      -7.282  17.554  66.663  1.00  0.00    -0.234 A  
HETATM   34  C   UNL     1      -5.980  17.250  66.243  1.00  0.00    -0.176 A  
HETATM   35  C   UNL     1      -5.240  18.151  65.495  1.00  0.00    -0.215 A  
HETATM   36  C   UNL     1      -5.805  19.376  65.118  1.00  0.00    -0.257 A  
HETATM   37  C   UNL     1      -7.110  19.755  65.487  1.00  0.00    -0.313 A  
HETATM   38  C   UNL     1      -7.898  18.900  66.260  1.00  0.00    -0.279 A  
HETATM   39  P   UNL     1      -9.561  19.440  66.799  1.00  0.00    -0.401 P  
HETATM   40  C   UNL     1     -10.349  17.854  66.144  1.00  0.00    -0.352 C  
HETATM   41  O   UNL     1     -10.969  19.896  67.255  1.00  0.00    -0.354 OA 
HETATM   42  C   UNL     1      -9.032  19.225  68.607  1.00  0.00    -0.374 C  
ENDBRANCH  31  33
ENDBRANCH  26  31
ENDBRANCH  22  24
ENDBRANCH   7  22
ENDBRANCH   2   3
TORSDOF 7
ENDMDL
MODEL      119
REMARK 921   NORMALIZED FREE ENERGY PREDICTED BY IDOCK:   -2.13 KCAL/MOL
REMARK 922        TOTAL FREE ENERGY PREDICTED BY IDOCK:   -4.31 KCAL/MOL
REMARK 923 INTER-LIGAND FREE ENERGY PREDICTED BY IDOCK:   -6.43 KCAL/MOL
REMARK 924 INTRA-LIGAND FREE ENERGY PREDICTED BY IDOCK:    2.12 KCAL/MOL
REMARK 927      BINDING AFFINITY PREDICTED BY RF-SCORE:    0.00 PKD
ROOT
HETATM    1  C   UNL     1      -5.126  10.431  69.942  1.00  0.00    -0.038 C  
HETATM    2  O   UNL     1      -6.223  11.065  69.296  1.00  0.00    -0.048 OA 
ENDROOT
BRANCH   2   3
HETATM    3  C   UNL     1      -6.853  10.416  68.250  1.00  0.00    -0.065 A  
HETATM    4  C   UNL     1      -7.522   9.168  68.359  1.00  0.00    -0.082 A  
HETATM    5  C   UNL     1      -8.135   8.529  67.261  1.00  0.00    -0.105 A  
HETATM    6  C   UNL     1      -8.044   9.241  66.043  1.00  0.00    -0.110 A  
HETATM    7  C   UNL     1      -6.787  11.124  67.016  1.00  0.00    -0.119 A  
HETATM    8  C   UNL     1      -7.389  10.507  65.926  1.00  0.00    -0.142 A  
BRANCH   5   9
HETATM    9  N   UNL     1      -8.829   7.319  67.409  1.00  0.00    -0.120 NA 
HETATM   10  C   UNL     1      -8.483   6.467  68.564  1.00  0.00    -0.124 C  
HETATM   11  C   UNL     1      -9.721   5.671  68.987  1.00  0.00    -0.187 C  
HETATM   12  C   UNL     1     -10.293   4.762  67.873  1.00  0.00     0.075 C  
HETATM   13  C   UNL     1     -10.477   5.649  66.613  1.00  0.00    -0.340 C  
HETATM   14  C   UNL     1      -9.237   6.494  66.249  1.00  0.00    -0.133 C  
BRANCH  12  15
HETATM   15  N   UNL     1      -9.555   3.511  67.530  1.00  0.00    -0.186 NA 
HETATM   16  C   UNL     1      -8.121   3.672  67.208  1.00  0.00    -0.090 C  
HETATM   17  C   UNL     1      -6.563   1.815  69.264  1.00  0.00    -0.029 C  
HETATM   18  C   UNL     1      -9.631   2.511  68.639  1.00  0.00    -0.018 C  
HETATM   19  C   UNL     1      -7.202   3.999  68.411  1.00  0.00    -0.055 C  
HETATM   20  C   UNL     1      -8.706   2.794  69.860  1.00  0.00    -0.070 C  
HETATM   21  N   UNL     1      -7.290   3.053  69.538  1.00  0.00    -0.044 NA 
ENDBRANCH  12  15
ENDBRANCH   5   9
BRANCH   7  22
HETATM   22  N   UNL     1      -6.151  12.399  67.019  1.00  0.00    -0.428 NA 
HETATM   23  H   UNL     1      -5.349  12.387  66.388  1.00  0.00     0.000 HD 
BRANCH  22  24
HETATM   24  C   UNL     1      -6.273  13.665  67.611  1.00  0.00    -0.119 A  
HETATM   25 CL   UNL     1      -6.814  17.750  69.307  1.00  0.00    -0.227 Cl 
HETATM   26  C   UNL     1      -7.135  15.879  67.317  1.00  0.00    -0.207 A  
HETATM   27  C   UNL     1      -5.960  15.203  69.278  1.00  0.00    -0.106 A  
HETATM   28  N   UNL     1      -5.778  13.942  68.823  1.00  0.00    -0.081 NA 
HETATM   29  C   UNL     1      -6.614  16.209  68.573  1.00  0.00    -0.122 A  
HETATM   30  N   UNL     1      -6.947  14.602  66.856  1.00  0.00     0.183 NA 
BRANCH  26  31
HETATM   31  N   UNL     1      -7.804  16.946  66.484  1.00  0.00    -0.265 NA 
HETATM   32  H   UNL     1      -7.556  16.947  65.495  1.00  0.00     0.000 HD 
BRANCH  31  33
HETATM   33  C   UNL     1      -8.773  17.997  66.900  1.00  0.00    -0.251 A  
HETATM   34  C   UNL     1      -8.233  19.290  66.942  1.00  0.00    -0.296 A  
HETATM   35  C   UNL     1      -9.020  20.385  67.260  1.00  0.00    -0.460 A  
HETATM   36  C   UNL     1     -10.386  20.213  67.513  1.00  0.00    -0.472 A  
HETATM   37  C   UNL     1     -11.012  18.952  67.479  1.00  0.00    -0.312 A  
HETATM   38  C   UNL     1     -10.268  17.807  67.187  1.00  0.00    -0.353 A  
HETATM   39  P   UNL     1     -11.077  16.166  67.225  1.00  0.00     0.102 P  
HETATM   40  C   UNL     1     -10.428  15.744  65.504  1.00  0.00    -0.403 C  
HETATM   41  O   UNL     1     -11.762  14.778  67.258  1.00  0.00    -0.379 OA 
HETATM   42  C   UNL     1      -9.851  15.606  68.559  1.00  0.00    -0.205 C  
ENDBRANCH  31  33
ENDBRANCH  26  31
ENDBRANCH  22  24
ENDBRANCH   7  22
ENDBRANCH   2   3
TORSDOF 7
ENDMDL
MODEL      120
REMARK 921   NORMALIZED FREE ENERGY PREDICTED BY IDOCK:   -2.12 KCAL/MOL
REMARK 922        TOTAL FREE ENERGY PREDICTED BY IDOCK:   -4.29 KCAL/MOL
REMARK 923 INTER-LIGAND FREE ENERGY PREDICTED BY IDOCK:   -6.80 KCAL/MOL
REMARK 924 INTRA-LIGAND FREE ENERGY PREDICTED BY IDOCK:    2.51 KCAL/MOL
REMARK 927      BINDING AFFINITY PREDICTED BY RF-SCORE:    0.00 PKD
ROOT
HETATM    1  C   UNL     1     -13.111  10.257  70.839  1.00  0.00    -0.344 C  
HETATM    2  O   UNL     1     -11.706  10.178  70.628  1.00  0.00    -0.287 OA 
ENDROOT
BRANCH   2   3
HETATM    3  C   UNL     1     -11.141  10.895  69.590  1.00  0.00    -0.266 A  
HETATM    4  C   UNL     1     -10.969  12.305  69.581  1.00  0.00     0.087 A  
HETATM    5  C   UNL     1     -10.406  13.001  68.492  1.00  0.00    -0.239 A  
HETATM    6  C   UNL     1     -10.011  12.178  67.411  1.00  0.00    -0.206 A  
HETATM    7  C   UNL     1     -10.722  10.083  68.498  1.00  0.00    -0.231 A  
HETATM    8  C   UNL     1     -10.164  10.756  67.417  1.00  0.00    -0.241 A  
BRANCH   5   9
HETATM    9  N   UNL     1     -10.206  14.388  68.531  1.00  0.00    -0.238 NA 
HETATM   10  C   UNL     1     -10.827  15.200  67.466  1.00  0.00    -0.301 C  
HETATM   11  C   UNL     1     -11.153  16.589  68.021  1.00  0.00    -0.275 C  
HETATM   12  C   UNL     1      -9.920  17.358  68.554  1.00  0.00    -0.331 C  
HETATM   13  C   UNL     1      -9.185  16.409  69.538  1.00  0.00     0.070 C  
HETATM   14  C   UNL     1      -8.931  14.992  68.978  1.00  0.00    -0.205 C  
BRANCH  12  15
HETATM   15  N   UNL     1      -8.962  17.932  67.566  1.00  0.00    -0.247 NA 
HETATM   16  C   UNL     1      -7.725  18.519  68.126  1.00  0.00    -0.284 C  
HETATM   17  C   UNL     1      -5.327  16.957  66.744  1.00  0.00    -0.105 C  
HETATM   18  C   UNL     1      -8.529  16.909  66.566  1.00  0.00    -0.271 C  
HETATM   19  C   UNL     1      -6.696  17.501  68.677  1.00  0.00    -0.211 C  
HETATM   20  C   UNL     1      -7.479  15.877  67.076  1.00  0.00    -0.219 C  
HETATM   21  N   UNL     1      -6.286  16.453  67.725  1.00  0.00    -0.129 NA 
ENDBRANCH  12  15
ENDBRANCH   5   9
BRANCH   7  22
HETATM   22  N   UNL     1     -10.877   8.673  68.624  1.00  0.00    -0.438 NA 
HETATM   23  H   UNL     1     -11.602   8.464  69.311  1.00  0.00     0.000 HD 
BRANCH  22  24
HETATM   24  C   UNL     1     -10.351   7.478  68.107  1.00  0.00    -0.200 A  
HETATM   25 CL   UNL     1      -8.619   3.623  66.696  1.00  0.00    -0.107 Cl 
HETATM   26  C   UNL     1      -9.068   5.526  68.630  1.00  0.00    -0.117 A  
HETATM   27  C   UNL     1      -9.974   5.931  66.462  1.00  0.00    -0.153 A  
HETATM   28  N   UNL     1     -10.537   7.103  66.836  1.00  0.00    -0.315 NA 
HETATM   29  C   UNL     1      -9.226   5.112  67.302  1.00  0.00    -0.115 A  
HETATM   30  N   UNL     1      -9.635   6.716  69.006  1.00  0.00    -0.134 NA 
BRANCH  26  31
HETATM   31  N   UNL     1      -8.217   4.706  69.570  1.00  0.00    -0.068 NA 
HETATM   32  H   UNL     1      -8.312   3.696  69.476  1.00  0.00     0.000 HD 
BRANCH  31  33
HETATM   33  C   UNL     1      -7.260   5.162  70.616  1.00  0.00    -0.067 A  
HETATM   34  C   UNL     1      -6.316   6.093  70.161  1.00  0.00    -0.032 A  
HETATM   35  C   UNL     1      -5.389   6.652  71.025  1.00  0.00    -0.023 A  
HETATM   36  C   UNL     1      -5.407   6.315  72.384  1.00  0.00    -0.031 A  
HETATM   37  C   UNL     1      -6.330   5.400  72.926  1.00  0.00    -0.059 A  
HETATM   38  C   UNL     1      -7.275   4.784  72.102  1.00  0.00    -0.079 A  
HETATM   39  P   UNL     1      -8.414   3.537  72.806  1.00  0.00    -0.082 P  
HETATM   40  C   UNL     1      -9.917   4.422  72.084  1.00  0.00    -0.185 C  
HETATM   41  O   UNL     1      -9.378   2.481  73.401  1.00  0.00    -0.083 OA 
HETATM   42  C   UNL     1      -7.743   2.252  71.582  1.00  0.00    -0.041 C  
ENDBRANCH  31  33
ENDBRANCH  26  31
ENDBRANCH  22  24
ENDBRANCH   7  22
ENDBRANCH   2   3
TORSDOF 7
ENDMDL
MODEL      121
REMARK 921   NORMALIZED FREE ENERGY PREDICTED BY IDOCK:   -2.05 KCAL/MOL
REMARK 922        TOTAL FREE ENERGY PREDICTED BY IDOCK:   -4.20 KCAL/MOL
REMARK 923 INTER-LIGAND FREE ENERGY PREDICTED BY IDOCK:   -5.96 KCAL/MOL
REMARK 924 INTRA-LIGAND FREE ENERGY PREDICTED BY IDOCK:    1.76 KCAL/MOL
REMARK 927      BINDING AFFINITY PREDICTED BY RF-SCORE:    0.00 PKD
ROOT
HETATM    1  C   UNL     1      -7.973   9.419  71.145  1.00  0.00     0.131 C  
HETATM    2  O   UNL     1      -7.214   9.290  69.949  1.00  0.00    -0.058 OA 
ENDROOT
BRANCH   2   3
HETATM    3  C   UNL     1      -7.385  10.221  68.941  1.00  0.00    -0.090 A  
HETATM    4  C   UNL     1      -7.577  11.613  69.151  1.00  0.00     0.044 A  
HETATM    5  C   UNL     1      -7.769  12.527  68.094  1.00  0.00    -0.141 A  
HETATM    6  C   UNL     1      -7.738  11.947  66.804  1.00  0.00    -0.051 A  
HETATM    7  C   UNL     1      -7.342   9.660  67.633  1.00  0.00    -0.090 A  
HETATM    8  C   UNL     1      -7.528  10.550  66.582  1.00  0.00    -0.120 A  
BRANCH   5   9
HETATM    9  N   UNL     1      -7.910  13.902  68.329  1.00  0.00    -0.136 NA 
HETATM   10  C   UNL     1      -9.206  14.525  67.997  1.00  0.00    -0.190 C  
HETATM   11  C   UNL     1      -9.448  15.709  68.937  1.00  0.00    -0.228 C  
HETATM   12  C   UNL     1      -8.357  16.803  68.862  1.00  0.00    -0.222 C  
HETATM   13  C   UNL     1      -6.988  16.092  69.034  1.00  0.00    -0.165 C  
HETATM   14  C   UNL     1      -6.798  14.859  68.124  1.00  0.00    -0.130 C  
BRANCH  12  15
HETATM   15  N   UNL     1      -8.334  17.700  67.670  1.00  0.00    -0.223 NA 
HETATM   16  C   UNL     1      -8.319  19.152  67.950  1.00  0.00    -0.298 C  
HETATM   17  C   UNL     1      -5.710  20.278  66.526  1.00  0.00    -0.171 C  
HETATM   18  C   UNL     1      -7.148  17.425  66.801  1.00  0.00    -0.209 C  
HETATM   19  C   UNL     1      -6.987  19.707  68.513  1.00  0.00    -0.310 C  
HETATM   20  C   UNL     1      -5.792  17.984  67.324  1.00  0.00    -0.133 C  
HETATM   21  N   UNL     1      -5.795  19.410  67.699  1.00  0.00    -0.194 NA 
ENDBRANCH  12  15
ENDBRANCH   5   9
BRANCH   7  22
HETATM   22  N   UNL     1      -7.080   8.264  67.520  1.00  0.00    -0.082 NA 
HETATM   23  H   UNL     1      -6.139   8.117  67.154  1.00  0.00     0.000 HD 
BRANCH  22  24
HETATM   24  C   UNL     1      -7.701   7.027  67.752  1.00  0.00    -0.112 A  
HETATM   25 CL   UNL     1      -9.628   3.130  68.728  1.00  0.00    -0.177 Cl 
HETATM   26  C   UNL     1      -8.161   5.356  69.403  1.00  0.00    -0.096 A  
HETATM   27  C   UNL     1      -8.900   5.174  67.144  1.00  0.00    -0.109 A  
HETATM   28  N   UNL     1      -8.349   6.358  66.791  1.00  0.00    -0.110 NA 
HETATM   29  C   UNL     1      -8.830   4.620  68.418  1.00  0.00    -0.105 A  
HETATM   30  N   UNL     1      -7.600   6.554  69.043  1.00  0.00    -0.098 NA 
BRANCH  26  31
HETATM   31  N   UNL     1      -8.005   4.777  70.789  1.00  0.00    -0.079 NA 
HETATM   32  H   UNL     1      -7.101   4.938  71.230  1.00  0.00     0.000 HD 
BRANCH  31  33
HETATM   33  C   UNL     1      -8.985   4.006  71.604  1.00  0.00    -0.118 A  
HETATM   34  C   UNL     1      -8.744   2.625  71.632  1.00  0.00    -0.112 A  
HETATM   35  C   UNL     1      -9.536   1.776  72.388  1.00  0.00    -0.138 A  
HETATM   36  C   UNL     1     -10.575   2.299  73.167  1.00  0.00    -0.250 A  
HETATM   37  C   UNL     1     -10.877   3.674  73.207  1.00  0.00    -0.290 A  
HETATM   38  C   UNL     1     -10.130   4.578  72.449  1.00  0.00    -0.183 A  
HETATM   39  P   UNL     1     -10.583   6.351  72.448  1.00  0.00    -0.234 P  
HETATM   40  C   UNL     1      -8.814   6.862  72.861  1.00  0.00    -0.126 C  
HETATM   41  O   UNL     1     -10.967   7.851  72.447  1.00  0.00    -0.271 OA 
HETATM   42  C   UNL     1     -10.835   6.273  70.570  1.00  0.00    -0.288 C  
ENDBRANCH  31  33
ENDBRANCH  26  31
ENDBRANCH  22  24
ENDBRANCH   7  22
ENDBRANCH   2   3
TORSDOF 7
ENDMDL
MODEL      122
REMARK 921   NORMALIZED FREE ENERGY PREDICTED BY IDOCK:   -1.81 KCAL/MOL
REMARK 922        TOTAL FREE ENERGY PREDICTED BY IDOCK:   -3.86 KCAL/MOL
REMARK 923 INTER-LIGAND FREE ENERGY PREDICTED BY IDOCK:   -3.72 KCAL/MOL
REMARK 924 INTRA-LIGAND FREE ENERGY PREDICTED BY IDOCK:   -0.15 KCAL/MOL
REMARK 927      BINDING AFFINITY PREDICTED BY RF-SCORE:    0.00 PKD
ROOT
HETATM    1  C   UNL     1     -10.182   9.354  70.627  1.00  0.00    -0.288 C  
HETATM    2  O   UNL     1      -8.795   9.537  70.881  1.00  0.00    -0.229 OA 
ENDROOT
BRANCH   2   3
HETATM    3  C   UNL     1      -7.877   9.097  69.945  1.00  0.00    -0.091 A  
HETATM    4  C   UNL     1      -7.832   7.780  69.415  1.00  0.00    -0.115 A  
HETATM    5  C   UNL     1      -6.864   7.366  68.476  1.00  0.00    -0.073 A  
HETATM    6  C   UNL     1      -5.950   8.374  68.092  1.00  0.00    -0.046 A  
HETATM    7  C   UNL     1      -6.955  10.102  69.533  1.00  0.00    -0.086 A  
HETATM    8  C   UNL     1      -5.997   9.707  68.607  1.00  0.00    -0.042 A  
BRANCH   5   9
HETATM    9  N   UNL     1      -6.873   6.072  67.935  1.00  0.00    -0.061 NA 
HETATM   10  C   UNL     1      -7.240   5.927  66.512  1.00  0.00    -0.074 C  
HETATM   11  C   UNL     1      -6.516   4.709  65.931  1.00  0.00    -0.040 C  
HETATM   12  C   UNL     1      -6.845   3.380  66.650  1.00  0.00    -0.053 C  
HETATM   13  C   UNL     1      -6.623   3.618  68.167  1.00  0.00    -0.041 C  
HETATM   14  C   UNL     1      -7.306   4.890  68.714  1.00  0.00    -0.061 C  
BRANCH  12  15
HETATM   15  N   UNL     1      -8.178   2.755  66.408  1.00  0.00    -0.083 NA 
HETATM   16  C   UNL     1      -9.226   3.648  65.869  1.00  0.00    -0.161 C  
HETATM   17  C   UNL     1     -10.181   2.312  63.148  1.00  0.00    -0.128 C  
HETATM   18  C   UNL     1      -8.077   1.602  65.462  1.00  0.00    -0.076 C  
HETATM   19  C   UNL     1      -9.046   4.067  64.388  1.00  0.00    -0.142 C  
HETATM   20  C   UNL     1      -7.914   1.981  63.960  1.00  0.00    -0.069 C  
HETATM   21  N   UNL     1      -8.898   2.949  63.439  1.00  0.00    -0.092 NA 
ENDBRANCH  12  15
ENDBRANCH   5   9
BRANCH   7  22
HETATM   22  N   UNL     1      -7.119  11.410  70.072  1.00  0.00    -0.414 NA 
HETATM   23  H   UNL     1      -7.736  11.375  70.885  1.00  0.00     0.000 HD 
BRANCH  22  24
HETATM   24  C   UNL     1      -6.705  12.732  69.844  1.00  0.00     0.250 A  
HETATM   25 CL   UNL     1      -5.621  17.000  69.162  1.00  0.00    -0.149 Cl 
HETATM   26  C   UNL     1      -7.453  14.989  69.568  1.00  0.00    -0.194 A  
HETATM   27  C   UNL     1      -5.151  14.373  69.478  1.00  0.00    -0.090 A  
HETATM   28  N   UNL     1      -5.417  13.065  69.697  1.00  0.00    -0.083 NA 
HETATM   29  C   UNL     1      -6.118  15.371  69.392  1.00  0.00    -0.120 A  
HETATM   30  N   UNL     1      -7.721  13.662  69.787  1.00  0.00     0.745 NA 
BRANCH  26  31
HETATM   31  N   UNL     1      -8.548  16.019  69.428  1.00  0.00    -0.217 NA 
HETATM   32  H   UNL     1      -8.242  16.943  69.125  1.00  0.00     0.000 HD 
BRANCH  31  33
HETATM   33  C   UNL     1     -10.010  15.880  69.670  1.00  0.00    -0.255 A  
HETATM   34  C   UNL     1     -10.335  15.341  70.924  1.00  0.00     0.317 A  
HETATM   35  C   UNL     1     -11.654  15.197  71.320  1.00  0.00    -0.406 A  
HETATM   36  C   UNL     1     -12.688  15.622  70.478  1.00  0.00    -0.391 A  
HETATM   37  C   UNL     1     -12.450  16.185  69.209  1.00  0.00     0.622 A  
HETATM   38  C   UNL     1     -11.143  16.337  68.742  1.00  0.00    -0.355 A  
HETATM   39  P   UNL     1     -10.852  16.995  67.060  1.00  0.00     0.169 P  
HETATM   40  C   UNL     1      -9.644  18.289  67.714  1.00  0.00    -0.283 C  
HETATM   41  O   UNL     1     -10.607  17.552  65.636  1.00  0.00    -0.549 OA 
HETATM   42  C   UNL     1      -9.939  15.396  66.605  1.00  0.00    -0.260 C  
ENDBRANCH  31  33
ENDBRANCH  26  31
ENDBRANCH  22  24
ENDBRANCH   7  22
ENDBRANCH   2   3
TORSDOF 7
ENDMDL
MODEL      123
REMARK 921   NORMALIZED FREE ENERGY PREDICTED BY IDOCK:   -1.71 KCAL/MOL
REMARK 922        TOTAL FREE ENERGY PREDICTED BY IDOCK:   -3.72 KCAL/MOL
REMARK 923 INTER-LIGAND FREE ENERGY PREDICTED BY IDOCK:   -5.32 KCAL/MOL
REMARK 924 INTRA-LIGAND FREE ENERGY PREDICTED BY IDOCK:    1.60 KCAL/MOL
REMARK 927      BINDING AFFINITY PREDICTED BY RF-SCORE:    0.00 PKD
ROOT
HETATM    1  C   UNL     1      -8.667  10.068  65.598  1.00  0.00    -0.155 C  
HETATM    2  O   UNL     1      -7.687  10.295  66.604  1.00  0.00    -0.107 OA 
ENDROOT
BRANCH   2   3
HETATM    3  C   UNL     1      -7.846   9.705  67.844  1.00  0.00    -0.087 A  
HETATM    4  C   UNL     1      -8.297   8.375  68.054  1.00  0.00    -0.128 A  
HETATM    5  C   UNL     1      -8.466   7.817  69.338  1.00  0.00    -0.134 A  
HETATM    6  C   UNL     1      -8.135   8.687  70.403  1.00  0.00    -0.107 A  
HETATM    7  C   UNL     1      -7.503  10.559  68.930  1.00  0.00    -0.104 A  
HETATM    8  C   UNL     1      -7.663  10.022  70.202  1.00  0.00    -0.158 A  
BRANCH   5   9
HETATM    9  N   UNL     1      -8.868   6.486  69.514  1.00  0.00    -0.137 NA 
HETATM   10  C   UNL     1      -7.831   5.439  69.427  1.00  0.00    -0.089 C  
HETATM   11  C   UNL     1      -8.229   4.264  70.324  1.00  0.00    -0.069 C  
HETATM   12  C   UNL     1      -9.589   3.624  69.953  1.00  0.00    -0.168 C  
HETATM   13  C   UNL     1     -10.625   4.776  69.875  1.00  0.00     0.255 C  
HETATM   14  C   UNL     1     -10.170   5.979  69.021  1.00  0.00    -0.193 C  
BRANCH  12  15
HETATM   15  N   UNL     1      -9.661   2.771  68.732  1.00  0.00    -0.094 NA 
HETATM   16  C   UNL     1      -9.568   3.480  67.437  1.00  0.00    -0.125 C  
HETATM   17  C   UNL     1      -7.087   2.193  65.925  1.00  0.00    -0.055 C  
HETATM   18  C   UNL     1      -8.583   1.735  68.725  1.00  0.00    -0.063 C  
HETATM   19  C   UNL     1      -8.167   4.037  67.083  1.00  0.00    -0.099 C  
HETATM   20  C   UNL     1      -7.161   2.251  68.354  1.00  0.00    -0.047 C  
HETATM   21  N   UNL     1      -7.077   3.044  67.113  1.00  0.00    -0.053 NA 
ENDBRANCH  12  15
ENDBRANCH   5   9
BRANCH   7  22
HETATM   22  N   UNL     1      -6.999  11.855  68.619  1.00  0.00    -0.088 NA 
HETATM   23  H   UNL     1      -6.994  11.991  67.608  1.00  0.00     0.000 HD 
BRANCH  22  24
HETATM   24  C   UNL     1      -6.508  13.004  69.258  1.00  0.00    -0.103 A  
HETATM   25 CL   UNL     1      -5.133  16.780  71.183  1.00  0.00    -0.191 Cl 
HETATM   26  C   UNL     1      -6.729  15.381  69.434  1.00  0.00    -0.166 A  
HETATM   27  C   UNL     1      -5.140  14.137  70.703  1.00  0.00    -0.105 A  
HETATM   28  N   UNL     1      -5.525  12.957  70.165  1.00  0.00    -0.111 NA 
HETATM   29  C   UNL     1      -5.691  15.371  70.373  1.00  0.00    -0.127 A  
HETATM   30  N   UNL     1      -7.115  14.185  68.887  1.00  0.00    -0.107 NA 
BRANCH  26  31
HETATM   31  N   UNL     1      -7.325  16.698  68.996  1.00  0.00    -0.223 NA 
HETATM   32  H   UNL     1      -6.726  17.513  69.125  1.00  0.00     0.000 HD 
BRANCH  31  33
HETATM   33  C   UNL     1      -8.661  16.976  68.401  1.00  0.00    -0.247 A  
HETATM   34  C   UNL     1      -9.617  15.980  68.647  1.00  0.00    -0.222 A  
HETATM   35  C   UNL     1     -10.922  16.116  68.206  1.00  0.00    -0.340 A  
HETATM   36  C   UNL     1     -11.314  17.277  67.530  1.00  0.00     0.402 A  
HETATM   37  C   UNL     1     -10.423  18.332  67.252  1.00  0.00    -0.419 A  
HETATM   38  C   UNL     1      -9.087  18.245  67.652  1.00  0.00    -0.263 A  
HETATM   39  P   UNL     1      -7.922  19.586  67.214  1.00  0.00    -0.292 P  
HETATM   40  C   UNL     1      -7.346  19.746  69.005  1.00  0.00    -0.279 C  
HETATM   41  O   UNL     1      -6.936  20.721  66.844  1.00  0.00    -0.282 OA 
HETATM   42  C   UNL     1      -6.851  18.333  66.276  1.00  0.00    -0.240 C  
ENDBRANCH  31  33
ENDBRANCH  26  31
ENDBRANCH  22  24
ENDBRANCH   7  22
ENDBRANCH   2   3
TORSDOF 7
ENDMDL
MODEL      124
REMARK 921   NORMALIZED FREE ENERGY PREDICTED BY IDOCK:   -1.06 KCAL/MOL
REMARK 922        TOTAL FREE ENERGY PREDICTED BY IDOCK:   -2.81 KCAL/MOL
REMARK 923 INTER-LIGAND FREE ENERGY PREDICTED BY IDOCK:   -5.16 KCAL/MOL
REMARK 924 INTRA-LIGAND FREE ENERGY PREDICTED BY IDOCK:    2.36 KCAL/MOL
REMARK 927      BINDING AFFINITY PREDICTED BY RF-SCORE:    0.00 PKD
ROOT
HETATM    1  C   UNL     1     -11.827   6.412  69.160  1.00  0.00     0.528 C  
HETATM    2  O   UNL     1     -11.459   7.622  68.509  1.00  0.00     0.525 OA 
ENDROOT
BRANCH   2   3
HETATM    3  C   UNL     1     -11.486   8.805  69.223  1.00  0.00     0.549 A  
HETATM    4  C   UNL     1     -11.340  10.097  68.652  1.00  0.00    -0.172 A  
HETATM    5  C   UNL     1     -11.353  11.280  69.420  1.00  0.00    -0.292 A  
HETATM    6  C   UNL     1     -11.541  11.076  70.807  1.00  0.00    -0.159 A  
HETATM    7  C   UNL     1     -11.690   8.624  70.621  1.00  0.00    -0.155 A  
HETATM    8  C   UNL     1     -11.708   9.781  71.390  1.00  0.00    -0.475 A  
BRANCH   5   9
HETATM    9  N   UNL     1     -11.253  12.545  68.823  1.00  0.00    -0.256 NA 
HETATM   10  C   UNL     1     -10.546  12.639  67.530  1.00  0.00    -0.221 C  
HETATM   11  C   UNL     1     -11.141  13.791  66.717  1.00  0.00    -0.316 C  
HETATM   12  C   UNL     1     -11.048  15.168  67.416  1.00  0.00    -0.325 C  
HETATM   13  C   UNL     1     -11.636  14.993  68.842  1.00  0.00    -0.349 C  
HETATM   14  C   UNL     1     -11.069  13.782  69.615  1.00  0.00    -0.038 C  
BRANCH  12  15
HETATM   15  N   UNL     1      -9.718  15.843  67.478  1.00  0.00    -0.223 NA 
HETATM   16  C   UNL     1      -9.340  16.642  66.292  1.00  0.00    -0.292 C  
HETATM   17  C   UNL     1      -8.801  19.582  67.371  1.00  0.00    -0.308 C  
HETATM   18  C   UNL     1      -9.625  16.761  68.654  1.00  0.00    -0.255 C  
HETATM   19  C   UNL     1     -10.115  17.971  66.112  1.00  0.00    -0.334 C  
HETATM   20  C   UNL     1     -10.375  18.117  68.504  1.00  0.00    -0.336 C  
HETATM   21  N   UNL     1     -10.077  18.876  67.275  1.00  0.00    -0.337 NA 
ENDBRANCH  12  15
ENDBRANCH   5   9
BRANCH   7  22
HETATM   22  N   UNL     1     -11.892   7.295  71.092  1.00  0.00    -0.299 NA 
HETATM   23  H   UNL     1     -12.753   6.914  70.699  1.00  0.00     0.000 HD 
BRANCH  22  24
HETATM   24  C   UNL     1     -11.285   6.341  71.924  1.00  0.00    -0.283 A  
HETATM   25 CL   UNL     1      -9.144   3.428  74.529  1.00  0.00    -0.098 Cl 
HETATM   26  C   UNL     1      -9.191   5.518  72.742  1.00  0.00    -0.133 A  
HETATM   27  C   UNL     1     -11.286   4.580  73.388  1.00  0.00    -0.315 A  
HETATM   28  N   UNL     1     -11.992   5.448  72.627  1.00  0.00    -0.122 NA 
HETATM   29  C   UNL     1      -9.897   4.558  73.476  1.00  0.00    -0.136 A  
HETATM   30  N   UNL     1      -9.908   6.394  71.969  1.00  0.00    -0.157 NA 
BRANCH  26  31
HETATM   31  N   UNL     1      -7.681   5.504  72.755  1.00  0.00    -0.098 NA 
HETATM   32  H   UNL     1      -7.243   6.191  73.368  1.00  0.00     0.000 HD 
BRANCH  31  33
HETATM   33  C   UNL     1      -6.740   4.630  72.002  1.00  0.00    -0.042 A  
HETATM   34  C   UNL     1      -6.679   3.312  72.474  1.00  0.00    -0.022 A  
HETATM   35  C   UNL     1      -5.889   2.363  71.847  1.00  0.00    -0.009 A  
HETATM   36  C   UNL     1      -5.160   2.705  70.702  1.00  0.00    -0.004 A  
HETATM   37  C   UNL     1      -5.175   4.003  70.153  1.00  0.00    -0.004 A  
HETATM   38  C   UNL     1      -5.934   5.010  70.753  1.00  0.00    -0.018 A  
HETATM   39  P   UNL     1      -5.880   6.709  70.076  1.00  0.00    -0.023 P  
HETATM   40  C   UNL     1      -7.764   6.797  69.996  1.00  0.00    -0.102 C  
HETATM   41  O   UNL     1      -5.834   8.147  69.504  1.00  0.00    -0.026 OA 
HETATM   42  C   UNL     1      -5.252   7.342  71.750  1.00  0.00    -0.035 C  
ENDBRANCH  31  33
ENDBRANCH  26  31
ENDBRANCH  22  24
ENDBRANCH   7  22
ENDBRANCH   2   3
TORSDOF 7
ENDMDL
MODEL      125
REMARK 921   NORMALIZED FREE ENERGY PREDICTED BY IDOCK:   -0.59 KCAL/MOL
REMARK 922        TOTAL FREE ENERGY PREDICTED BY IDOCK:   -2.14 KCAL/MOL
REMARK 923 INTER-LIGAND FREE ENERGY PREDICTED BY IDOCK:   -4.60 KCAL/MOL
REMARK 924 INTRA-LIGAND FREE ENERGY PREDICTED BY IDOCK:    2.47 KCAL/MOL
REMARK 927      BINDING AFFINITY PREDICTED BY RF-SCORE:    0.00 PKD
ROOT
HETATM    1  C   UNL     1      -8.683   9.054  71.020  1.00  0.00    -0.222 C  
HETATM    2  O   UNL     1      -7.369   8.960  70.482  1.00  0.00    -0.059 OA 
ENDROOT
BRANCH   2   3
HETATM    3  C   UNL     1      -7.206   8.526  69.180  1.00  0.00    -0.068 A  
HETATM    4  C   UNL     1      -7.084   7.166  68.790  1.00  0.00    -0.088 A  
HETATM    5  C   UNL     1      -6.897   6.767  67.450  1.00  0.00    -0.073 A  
HETATM    6  C   UNL     1      -6.856   7.833  66.521  1.00  0.00    -0.066 A  
HETATM    7  C   UNL     1      -7.178   9.583  68.226  1.00  0.00    -0.076 A  
HETATM    8  C   UNL     1      -6.996   9.205  66.901  1.00  0.00    -0.081 A  
BRANCH   5   9
HETATM    9  N   UNL     1      -6.827   5.414  67.090  1.00  0.00    -0.062 NA 
HETATM   10  C   UNL     1      -8.097   4.700  66.853  1.00  0.00    -0.103 C  
HETATM   11  C   UNL     1      -7.866   3.597  65.818  1.00  0.00    -0.092 C  
HETATM   12  C   UNL     1      -6.801   2.556  66.236  1.00  0.00    -0.044 C  
HETATM   13  C   UNL     1      -5.533   3.346  66.652  1.00  0.00    -0.017 C  
HETATM   14  C   UNL     1      -5.804   4.499  67.644  1.00  0.00    -0.023 C  
BRANCH  12  15
HETATM   15  N   UNL     1      -7.162   1.555  67.283  1.00  0.00    -0.045 NA 
HETATM   16  C   UNL     1      -6.580   1.780  68.624  1.00  0.00    -0.029 C  
HETATM   17  C   UNL     1      -9.052   1.984  70.611  1.00  0.00    -0.095 C  
HETATM   18  C   UNL     1      -8.642   1.471  67.472  1.00  0.00    -0.087 C  
HETATM   19  C   UNL     1      -7.179   2.969  69.417  1.00  0.00    -0.045 C  
HETATM   20  C   UNL     1      -9.280   2.639  68.282  1.00  0.00    -0.201 C  
HETATM   21  N   UNL     1      -8.644   2.934  69.579  1.00  0.00    -0.062 NA 
ENDBRANCH  12  15
ENDBRANCH   5   9
BRANCH   7  22
HETATM   22  N   UNL     1      -7.372  10.911  68.704  1.00  0.00    -0.093 NA 
HETATM   23  H   UNL     1      -8.093  10.917  69.426  1.00  0.00     0.000 HD 
BRANCH  22  24
HETATM   24  C   UNL     1      -6.891  12.214  68.500  1.00  0.00    -0.086 A  
HETATM   25 CL   UNL     1      -5.550  16.432  67.991  1.00  0.00    -0.110 Cl 
HETATM   26  C   UNL     1      -7.368  14.539  68.810  1.00  0.00    -0.129 A  
HETATM   27  C   UNL     1      -5.365  13.761  67.778  1.00  0.00    -0.028 A  
HETATM   28  N   UNL     1      -5.711  12.460  67.918  1.00  0.00    -0.074 NA 
HETATM   29  C   UNL     1      -6.149  14.834  68.189  1.00  0.00    -0.141 A  
HETATM   30  N   UNL     1      -7.719  13.221  68.949  1.00  0.00    -0.005 NA 
BRANCH  26  31
HETATM   31  N   UNL     1      -8.285  15.665  69.225  1.00  0.00    -0.243 NA 
HETATM   32  H   UNL     1      -7.825  16.552  69.424  1.00  0.00     0.000 HD 
BRANCH  31  33
HETATM   33  C   UNL     1      -9.766  15.664  69.384  1.00  0.00    -0.292 A  
HETATM   34  C   UNL     1     -10.219  14.995  70.530  1.00  0.00     0.249 A  
HETATM   35  C   UNL     1     -11.566  14.951  70.847  1.00  0.00    -0.344 A  
HETATM   36  C   UNL     1     -12.498  15.610  70.035  1.00  0.00    -0.249 A  
HETATM   37  C   UNL     1     -12.127  16.316  68.874  1.00  0.00     0.273 A  
HETATM   38  C   UNL     1     -10.787  16.378  68.488  1.00  0.00    -0.339 A  
HETATM   39  P   UNL     1     -10.329  17.230  66.935  1.00  0.00    -0.243 P  
HETATM   40  C   UNL     1      -9.026  18.267  67.822  1.00  0.00    -0.267 C  
HETATM   41  O   UNL     1      -9.943  17.951  65.620  1.00  0.00    -0.539 OA 
HETATM   42  C   UNL     1      -9.573  15.616  66.287  1.00  0.00    -0.308 C  
ENDBRANCH  31  33
ENDBRANCH  26  31
ENDBRANCH  22  24
ENDBRANCH   7  22
ENDBRANCH   2   3
TORSDOF 7
ENDMDL
MODEL      126
REMARK 921   NORMALIZED FREE ENERGY PREDICTED BY IDOCK:   -0.49 KCAL/MOL
REMARK 922        TOTAL FREE ENERGY PREDICTED BY IDOCK:   -2.00 KCAL/MOL
REMARK 923 INTER-LIGAND FREE ENERGY PREDICTED BY IDOCK:   -7.26 KCAL/MOL
REMARK 924 INTRA-LIGAND FREE ENERGY PREDICTED BY IDOCK:    5.27 KCAL/MOL
REMARK 927      BINDING AFFINITY PREDICTED BY RF-SCORE:    0.00 PKD
ROOT
HETATM    1  C   UNL     1     -11.619  10.512  69.104  1.00  0.00    -0.224 C  
HETATM    2  O   UNL     1     -10.218  10.470  68.866  1.00  0.00    -0.187 OA 
ENDROOT
BRANCH   2   3
HETATM    3  C   UNL     1      -9.742   9.770  67.772  1.00  0.00    -0.141 A  
HETATM    4  C   UNL     1      -9.693   8.354  67.678  1.00  0.00    -0.201 A  
HETATM    5  C   UNL     1      -9.180   7.680  66.551  1.00  0.00    -0.176 A  
HETATM    6  C   UNL     1      -8.733   8.529  65.512  1.00  0.00    -0.208 A  
HETATM    7  C   UNL     1      -9.302  10.607  66.708  1.00  0.00    -0.157 A  
HETATM    8  C   UNL     1      -8.796   9.955  65.589  1.00  0.00    -0.184 A  
BRANCH   5   9
HETATM    9  N   UNL     1      -9.186   6.280  66.467  1.00  0.00    -0.151 NA 
HETATM   10  C   UNL     1     -10.492   5.594  66.538  1.00  0.00    -0.249 C  
HETATM   11  C   UNL     1     -10.422   4.297  65.728  1.00  0.00    -0.117 C  
HETATM   12  C   UNL     1      -9.334   3.311  66.215  1.00  0.00    -0.123 C  
HETATM   13  C   UNL     1      -8.005   4.108  66.302  1.00  0.00    -0.098 C  
HETATM   14  C   UNL     1      -8.120   5.445  67.065  1.00  0.00    -0.101 C  
BRANCH  12  15
HETATM   15  N   UNL     1      -9.576   2.556  67.479  1.00  0.00    -0.043 NA 
HETATM   16  C   UNL     1      -8.591   1.503  67.807  1.00  0.00    -0.081 C  
HETATM   17  C   UNL     1      -7.438   2.263  70.669  1.00  0.00    -0.033 C  
HETATM   18  C   UNL     1      -9.626   3.472  68.661  1.00  0.00    -0.070 C  
HETATM   19  C   UNL     1      -7.201   2.013  68.264  1.00  0.00    -0.043 C  
HETATM   20  C   UNL     1      -8.246   3.990  69.163  1.00  0.00    -0.069 C  
HETATM   21  N   UNL     1      -7.225   2.953  69.399  1.00  0.00    -0.044 NA 
ENDBRANCH  12  15
ENDBRANCH   5   9
BRANCH   7  22
HETATM   22  N   UNL     1      -9.451  12.015  66.868  1.00  0.00    -0.198 NA 
HETATM   23  H   UNL     1      -9.025  12.310  67.747  1.00  0.00     0.000 HD 
BRANCH  22  24
HETATM   24  C   UNL     1      -9.995  13.126  66.204  1.00  0.00    -0.291 A  
HETATM   25 CL   UNL     1     -11.515  16.775  64.149  1.00  0.00     0.384 Cl 
HETATM   26  C   UNL     1      -9.690  15.451  65.723  1.00  0.00    -0.350 A  
HETATM   27  C   UNL     1     -11.551  14.200  64.914  1.00  0.00    -0.379 A  
HETATM   28  N   UNL     1     -11.132  13.057  65.503  1.00  0.00    -0.274 NA 
HETATM   29  C   UNL     1     -10.886  15.420  64.997  1.00  0.00    -0.444 A  
HETATM   30  N   UNL     1      -9.269  14.292  66.322  1.00  0.00    -0.206 NA 
BRANCH  26  31
HETATM   31  N   UNL     1      -8.956  16.759  65.895  1.00  0.00    -0.517 NA 
HETATM   32  H   UNL     1      -8.072  16.834  65.393  1.00  0.00     0.000 HD 
BRANCH  31  33
HETATM   33  C   UNL     1      -9.339  17.957  66.693  1.00  0.00    -0.286 A  
HETATM   34  C   UNL     1      -9.447  19.135  65.941  1.00  0.00     0.007 A  
HETATM   35  C   UNL     1      -9.845  20.325  66.528  1.00  0.00    -0.531 A  
HETATM   36  C   UNL     1     -10.180  20.356  67.888  1.00  0.00    -0.362 A  
HETATM   37  C   UNL     1     -10.112  19.216  68.712  1.00  0.00    -0.445 A  
HETATM   38  C   UNL     1      -9.695  17.992  68.184  1.00  0.00    -0.322 A  
HETATM   39  P   UNL     1      -9.534  16.538  69.285  1.00  0.00     0.018 P  
HETATM   40  C   UNL     1     -10.585  15.478  68.130  1.00  0.00    -0.266 C  
HETATM   41  O   UNL     1      -9.398  15.309  70.216  1.00  0.00     0.112 OA 
HETATM   42  C   UNL     1      -7.699  16.410  68.826  1.00  0.00    -0.214 C  
ENDBRANCH  31  33
ENDBRANCH  26  31
ENDBRANCH  22  24
ENDBRANCH   7  22
ENDBRANCH   2   3
TORSDOF 7
ENDMDL
MODEL      127
REMARK 921   NORMALIZED FREE ENERGY PREDICTED BY IDOCK:   -0.13 KCAL/MOL
REMARK 922        TOTAL FREE ENERGY PREDICTED BY IDOCK:   -1.49 KCAL/MOL
REMARK 923 INTER-LIGAND FREE ENERGY PREDICTED BY IDOCK:   -4.74 KCAL/MOL
REMARK 924 INTRA-LIGAND FREE ENERGY PREDICTED BY IDOCK:    3.25 KCAL/MOL
REMARK 927      BINDING AFFINITY PREDICTED BY RF-SCORE:    0.00 PKD
ROOT
HETATM    1  C   UNL     1      -7.544   9.440  70.078  1.00  0.00    -0.113 C  
HETATM    2  O   UNL     1      -6.803   9.686  68.889  1.00  0.00    -0.053 OA 
ENDROOT
BRANCH   2   3
HETATM    3  C   UNL     1      -7.364   9.361  67.668  1.00  0.00    -0.084 A  
HETATM    4  C   UNL     1      -7.281   8.083  67.055  1.00  0.00    -0.087 A  
HETATM    5  C   UNL     1      -7.851   7.799  65.796  1.00  0.00    -0.104 A  
HETATM    6  C   UNL     1      -8.527   8.889  65.199  1.00  0.00    -0.190 A  
HETATM    7  C   UNL     1      -8.063  10.441  67.056  1.00  0.00    -0.116 A  
HETATM    8  C   UNL     1      -8.631  10.174  65.816  1.00  0.00    -0.159 A  
BRANCH   5   9
HETATM    9  N   UNL     1      -7.793   6.514  65.237  1.00  0.00    -0.102 NA 
HETATM   10  C   UNL     1      -8.910   5.592  65.521  1.00  0.00    -0.144 C  
HETATM   11  C   UNL     1      -9.080   4.633  64.340  1.00  0.00    -0.122 C  
HETATM   12  C   UNL     1      -7.823   3.785  64.033  1.00  0.00    -0.084 C  
HETATM   13  C   UNL     1      -6.629   4.770  63.917  1.00  0.00    -0.042 C  
HETATM   14  C   UNL     1      -6.521   5.772  65.087  1.00  0.00    -0.042 C  
BRANCH  12  15
HETATM   15  N   UNL     1      -7.486   2.659  64.952  1.00  0.00    -0.070 NA 
HETATM   16  C   UNL     1      -6.297   2.854  65.810  1.00  0.00    -0.028 C  
HETATM   17  C   UNL     1      -7.329   2.528  68.799  1.00  0.00    -0.047 C  
HETATM   18  C   UNL     1      -8.624   2.344  65.870  1.00  0.00    -0.113 C  
HETATM   19  C   UNL     1      -6.471   3.873  66.965  1.00  0.00    -0.041 C  
HETATM   20  C   UNL     1      -8.820   3.334  67.056  1.00  0.00    -0.138 C  
HETATM   21  N   UNL     1      -7.614   3.611  67.859  1.00  0.00    -0.065 NA 
ENDBRANCH  12  15
ENDBRANCH   5   9
BRANCH   7  22
HETATM   22  N   UNL     1      -8.147  11.667  67.777  1.00  0.00    -0.132 NA 
HETATM   23  H   UNL     1      -9.052  11.733  68.244  1.00  0.00     0.000 HD 
BRANCH  22  24
HETATM   24  C   UNL     1      -7.385  12.813  68.050  1.00  0.00    -0.117 A  
HETATM   25 CL   UNL     1      -5.175  16.575  68.956  1.00  0.00    -0.118 Cl 
HETATM   26  C   UNL     1      -7.487  15.169  68.462  1.00  0.00    -0.121 A  
HETATM   27  C   UNL     1      -5.436  13.954  68.428  1.00  0.00    -0.101 A  
HETATM   28  N   UNL     1      -6.052  12.778  68.167  1.00  0.00    -0.075 NA 
HETATM   29  C   UNL     1      -6.092  15.173  68.573  1.00  0.00    -0.095 A  
HETATM   30  N   UNL     1      -8.109  13.978  68.195  1.00  0.00    -0.140 NA 
BRANCH  26  31
HETATM   31  N   UNL     1      -8.245  16.472  68.554  1.00  0.00    -0.202 NA 
HETATM   32  H   UNL     1      -8.233  16.921  69.468  1.00  0.00     0.000 HD 
BRANCH  31  33
HETATM   33  C   UNL     1      -9.009  17.194  67.499  1.00  0.00    -0.221 A  
HETATM   34  C   UNL     1     -10.119  16.491  67.012  1.00  0.00    -0.279 A  
HETATM   35  C   UNL     1     -10.961  17.049  66.065  1.00  0.00     0.161 A  
HETATM   36  C   UNL     1     -10.728  18.350  65.603  1.00  0.00    -0.066 A  
HETATM   37  C   UNL     1      -9.644  19.131  66.048  1.00  0.00    -0.206 A  
HETATM   38  C   UNL     1      -8.746  18.616  66.985  1.00  0.00    -0.280 A  
HETATM   39  P   UNL     1      -7.297  19.611  67.494  1.00  0.00    -0.264 P  
HETATM   40  C   UNL     1      -7.705  19.372  69.322  1.00  0.00    -0.167 C  
HETATM   41  O   UNL     1      -6.071  20.453  67.925  1.00  0.00    -0.219 OA 
HETATM   42  C   UNL     1      -6.150  18.232  66.879  1.00  0.00    -0.156 C  
ENDBRANCH  31  33
ENDBRANCH  26  31
ENDBRANCH  22  24
ENDBRANCH   7  22
ENDBRANCH   2   3
TORSDOF 7
ENDMDL
MODEL      128
REMARK 921   NORMALIZED FREE ENERGY PREDICTED BY IDOCK:   -0.13 KCAL/MOL
REMARK 922        TOTAL FREE ENERGY PREDICTED BY IDOCK:   -1.49 KCAL/MOL
REMARK 923 INTER-LIGAND FREE ENERGY PREDICTED BY IDOCK:   -2.78 KCAL/MOL
REMARK 924 INTRA-LIGAND FREE ENERGY PREDICTED BY IDOCK:    1.29 KCAL/MOL
REMARK 927      BINDING AFFINITY PREDICTED BY RF-SCORE:    0.00 PKD
ROOT
HETATM    1  C   UNL     1      -8.168  11.072  70.205  1.00  0.00     1.489 C  
HETATM    2  O   UNL     1      -8.496  12.019  69.196  1.00  0.00     0.223 OA 
ENDROOT
BRANCH   2   3
HETATM    3  C   UNL     1      -8.863  11.566  67.942  1.00  0.00    -0.152 A  
HETATM    4  C   UNL     1      -8.130  10.618  67.179  1.00  0.00    -0.121 A  
HETATM    5  C   UNL     1      -8.529  10.197  65.894  1.00  0.00    -0.141 A  
HETATM    6  C   UNL     1      -9.728  10.785  65.430  1.00  0.00    -0.297 A  
HETATM    7  C   UNL     1     -10.077  12.134  67.462  1.00  0.00    -0.196 A  
HETATM    8  C   UNL     1     -10.483  11.727  66.197  1.00  0.00    -0.284 A  
BRANCH   5   9
HETATM    9  N   UNL     1      -7.810   9.225  65.183  1.00  0.00    -0.106 NA 
HETATM   10  C   UNL     1      -8.553   8.049  64.689  1.00  0.00     0.111 C  
HETATM   11  C   UNL     1      -7.888   7.539  63.407  1.00  0.00    -0.124 C  
HETATM   12  C   UNL     1      -6.406   7.131  63.587  1.00  0.00    -0.044 C  
HETATM   13  C   UNL     1      -5.688   8.322  64.275  1.00  0.00    -0.060 C  
HETATM   14  C   UNL     1      -6.416   8.862  65.526  1.00  0.00    -0.067 C  
BRANCH  12  15
HETATM   15  N   UNL     1      -6.105   5.855  64.300  1.00  0.00    -0.025 NA 
HETATM   16  C   UNL     1      -7.217   5.266  65.076  1.00  0.00    -0.066 C  
HETATM   17  C   UNL     1      -7.632   2.342  63.900  1.00  0.00    -0.063 C  
HETATM   18  C   UNL     1      -5.642   4.796  63.352  1.00  0.00    -0.016 C  
HETATM   19  C   UNL     1      -8.356   4.638  64.233  1.00  0.00    -0.119 C  
HETATM   20  C   UNL     1      -6.760   4.127  62.499  1.00  0.00    -0.030 C  
HETATM   21  N   UNL     1      -7.921   3.623  63.257  1.00  0.00    -0.075 NA 
ENDBRANCH  12  15
ENDBRANCH   5   9
BRANCH   7  22
HETATM   22  N   UNL     1     -10.776  13.027  68.325  1.00  0.00    -0.237 NA 
HETATM   23  H   UNL     1     -11.575  12.550  68.744  1.00  0.00     0.000 HD 
BRANCH  22  24
HETATM   24  C   UNL     1     -10.717  14.352  68.784  1.00  0.00    -0.252 A  
HETATM   25 CL   UNL     1     -10.402  18.617  70.036  1.00  0.00     0.836 Cl 
HETATM   26  C   UNL     1      -9.747  16.507  68.399  1.00  0.00    -0.236 A  
HETATM   27  C   UNL     1     -11.264  16.077  70.187  1.00  0.00    -0.373 A  
HETATM   28  N   UNL     1     -11.412  14.776  69.846  1.00  0.00    -0.269 NA 
HETATM   29  C   UNL     1     -10.445  16.980  69.516  1.00  0.00    -0.182 A  
HETATM   30  N   UNL     1      -9.895  15.188  68.057  1.00  0.00    -0.212 NA 
BRANCH  26  31
HETATM   31  N   UNL     1      -8.799  17.427  67.667  1.00  0.00    -0.224 NA 
HETATM   32  H   UNL     1      -8.931  17.477  66.658  1.00  0.00     0.000 HD 
BRANCH  31  33
HETATM   33  C   UNL     1      -7.699  18.272  68.209  1.00  0.00    -0.291 A  
HETATM   34  C   UNL     1      -7.970  19.647  68.189  1.00  0.00    -0.353 A  
HETATM   35  C   UNL     1      -7.068  20.562  68.706  1.00  0.00     0.052 A  
HETATM   36  C   UNL     1      -5.878  20.115  69.292  1.00  0.00    -0.336 A  
HETATM   37  C   UNL     1      -5.534  18.751  69.367  1.00  0.00    -0.214 A  
HETATM   38  C   UNL     1      -6.391  17.782  68.842  1.00  0.00    -0.211 A  
HETATM   39  P   UNL     1      -5.894  16.021  68.873  1.00  0.00    -0.120 P  
HETATM   40  C   UNL     1      -7.527  15.516  69.673  1.00  0.00    -0.156 C  
HETATM   41  O   UNL     1      -5.473  14.531  68.900  1.00  0.00    -0.084 OA 
HETATM   42  C   UNL     1      -6.028  15.962  66.982  1.00  0.00     0.247 C  
ENDBRANCH  31  33
ENDBRANCH  26  31
ENDBRANCH  22  24
ENDBRANCH   7  22
ENDBRANCH   2   3
TORSDOF 7
ENDMDL
MODEL      129
REMARK 921   NORMALIZED FREE ENERGY PREDICTED BY IDOCK:    0.01 KCAL/MOL
REMARK 922        TOTAL FREE ENERGY PREDICTED BY IDOCK:   -1.29 KCAL/MOL
REMARK 923 INTER-LIGAND FREE ENERGY PREDICTED BY IDOCK:   -4.30 KCAL/MOL
REMARK 924 INTRA-LIGAND FREE ENERGY PREDICTED BY IDOCK:    3.01 KCAL/MOL
REMARK 927      BINDING AFFINITY PREDICTED BY RF-SCORE:    0.00 PKD
ROOT
HETATM    1  C   UNL     1      -7.512   8.734  70.617  1.00  0.00    -0.079 C  
HETATM    2  O   UNL     1      -6.482   9.091  69.703  1.00  0.00    -0.041 OA 
ENDROOT
BRANCH   2   3
HETATM    3  C   UNL     1      -6.667   8.850  68.354  1.00  0.00    -0.060 A  
HETATM    4  C   UNL     1      -6.412   7.609  67.712  1.00  0.00    -0.055 A  
HETATM    5  C   UNL     1      -6.595   7.412  66.328  1.00  0.00    -0.049 A  
HETATM    6  C   UNL     1      -7.069   8.547  65.631  1.00  0.00    -0.079 A  
HETATM    7  C   UNL     1      -7.159   9.977  67.636  1.00  0.00    -0.087 A  
HETATM    8  C   UNL     1      -7.346   9.796  66.271  1.00  0.00    -0.099 A  
BRANCH   5   9
HETATM    9  N   UNL     1      -6.379   6.162  65.730  1.00  0.00    -0.037 NA 
HETATM   10  C   UNL     1      -6.084   6.136  64.284  1.00  0.00    -0.026 C  
HETATM   11  C   UNL     1      -5.193   4.930  63.976  1.00  0.00    -0.009 C  
HETATM   12  C   UNL     1      -5.820   3.570  64.363  1.00  0.00    -0.014 C  
HETATM   13  C   UNL     1      -6.285   3.688  65.839  1.00  0.00    -0.032 C  
HETATM   14  C   UNL     1      -7.125   4.949  66.137  1.00  0.00    -0.072 C  
BRANCH  12  15
HETATM   15  N   UNL     1      -6.918   3.028  63.510  1.00  0.00    -0.042 NA 
HETATM   16  C   UNL     1      -7.928   2.198  64.201  1.00  0.00    -0.073 C  
HETATM   17  C   UNL     1     -10.722   3.611  63.655  1.00  0.00    -0.251 C  
HETATM   18  C   UNL     1      -7.668   4.124  62.823  1.00  0.00    -0.065 C  
HETATM   19  C   UNL     1      -8.900   2.970  65.129  1.00  0.00    -0.127 C  
HETATM   20  C   UNL     1      -8.670   4.912  63.718  1.00  0.00    -0.108 C  
HETATM   21  N   UNL     1      -9.619   4.086  64.488  1.00  0.00    -0.164 NA 
ENDBRANCH  12  15
ENDBRANCH   5   9
BRANCH   7  22
HETATM   22  N   UNL     1      -7.447  11.160  68.377  1.00  0.00    -0.096 NA 
HETATM   23  H   UNL     1      -8.383  11.098  68.779  1.00  0.00     0.000 HD 
BRANCH  22  24
HETATM   24  C   UNL     1      -6.855  12.383  68.731  1.00  0.00    -0.092 A  
HETATM   25 CL   UNL     1      -5.202  16.369  69.839  1.00  0.00    -0.141 Cl 
HETATM   26  C   UNL     1      -7.230  14.736  68.954  1.00  0.00    -0.126 A  
HETATM   27  C   UNL     1      -5.133  13.713  69.442  1.00  0.00    -0.082 A  
HETATM   28  N   UNL     1      -5.583  12.475  69.133  1.00  0.00    -0.069 NA 
HETATM   29  C   UNL     1      -5.898  14.872  69.361  1.00  0.00    -0.102 A  
HETATM   30  N   UNL     1      -7.683  13.482  68.638  1.00  0.00    -0.120 NA 
BRANCH  26  31
HETATM   31  N   UNL     1      -8.090  15.967  68.794  1.00  0.00    -0.198 NA 
HETATM   32  H   UNL     1      -8.014  16.654  69.543  1.00  0.00     0.000 HD 
BRANCH  31  33
HETATM   33  C   UNL     1      -9.034  16.321  67.698  1.00  0.00    -0.192 A  
HETATM   34  C   UNL     1     -10.157  15.486  67.617  1.00  0.00    -0.243 A  
HETATM   35  C   UNL     1     -11.155  15.716  66.684  1.00  0.00    -0.147 A  
HETATM   36  C   UNL     1     -11.067  16.817  65.823  1.00  0.00     0.201 A  
HETATM   37  C   UNL     1      -9.980  17.713  65.846  1.00  0.00    -0.139 A  
HETATM   38  C   UNL     1      -8.932  17.522  66.749  1.00  0.00    -0.256 A  
HETATM   39  P   UNL     1      -7.488  18.647  66.712  1.00  0.00    -0.241 P  
HETATM   40  C   UNL     1      -7.624  18.971  68.567  1.00  0.00    -0.329 C  
HETATM   41  O   UNL     1      -6.267  19.598  66.682  1.00  0.00    -0.173 OA 
HETATM   42  C   UNL     1      -6.356  17.163  66.374  1.00  0.00    -0.182 C  
ENDBRANCH  31  33
ENDBRANCH  26  31
ENDBRANCH  22  24
ENDBRANCH   7  22
ENDBRANCH   2   3
TORSDOF 7
ENDMDL
MODEL      130
REMARK 921   NORMALIZED FREE ENERGY PREDICTED BY IDOCK:    0.12 KCAL/MOL
REMARK 922        TOTAL FREE ENERGY PREDICTED BY IDOCK:   -1.14 KCAL/MOL
REMARK 923 INTER-LIGAND FREE ENERGY PREDICTED BY IDOCK:   -2.73 KCAL/MOL
REMARK 924 INTRA-LIGAND FREE ENERGY PREDICTED BY IDOCK:    1.59 KCAL/MOL
REMARK 927      BINDING AFFINITY PREDICTED BY RF-SCORE:    0.00 PKD
ROOT
HETATM    1  C   UNL     1      -8.745  10.273  66.175  1.00  0.00    -0.152 C  
HETATM    2  O   UNL     1      -7.782  10.498  67.197  1.00  0.00    -0.098 OA 
ENDROOT
BRANCH   2   3
HETATM    3  C   UNL     1      -7.951   9.887  68.426  1.00  0.00    -0.096 A  
HETATM    4  C   UNL     1      -8.386   8.548  68.609  1.00  0.00    -0.123 A  
HETATM    5  C   UNL     1      -8.566   7.969  69.882  1.00  0.00    -0.135 A  
HETATM    6  C   UNL     1      -8.261   8.827  70.965  1.00  0.00    -0.194 A  
HETATM    7  C   UNL     1      -7.634  10.729  69.530  1.00  0.00    -0.088 A  
HETATM    8  C   UNL     1      -7.805  10.171  70.791  1.00  0.00     0.805 A  
BRANCH   5   9
HETATM    9  N   UNL     1      -8.952   6.629  70.033  1.00  0.00    -0.144 NA 
HETATM   10  C   UNL     1      -8.781   6.011  71.362  1.00  0.00    -0.132 C  
HETATM   11  C   UNL     1      -9.854   4.936  71.557  1.00  0.00    -0.247 C  
HETATM   12  C   UNL     1      -9.816   3.811  70.495  1.00  0.00    -0.077 C  
HETATM   13  C   UNL     1      -9.814   4.499  69.104  1.00  0.00    -0.222 C  
HETATM   14  C   UNL     1      -8.769   5.627  68.958  1.00  0.00    -0.104 C  
BRANCH  12  15
HETATM   15  N   UNL     1      -8.725   2.796  70.579  1.00  0.00    -0.064 NA 
HETATM   16  C   UNL     1      -7.370   3.268  70.222  1.00  0.00    -0.041 C  
HETATM   17  C   UNL     1      -5.560   2.696  72.772  1.00  0.00     0.000 C  
HETATM   18  C   UNL     1      -8.624   2.215  71.953  1.00  0.00    -0.060 C  
HETATM   19  C   UNL     1      -6.702   4.212  71.254  1.00  0.00    -0.030 C  
HETATM   20  C   UNL     1      -7.940   3.126  73.015  1.00  0.00    -0.064 C  
HETATM   21  N   UNL     1      -6.630   3.681  72.627  1.00  0.00    -0.027 NA 
ENDBRANCH  12  15
ENDBRANCH   5   9
BRANCH   7  22
HETATM   22  N   UNL     1      -7.144  12.036  69.246  1.00  0.00    -0.294 NA 
HETATM   23  H   UNL     1      -7.128  12.188  68.237  1.00  0.00     0.000 HD 
BRANCH  22  24
HETATM   24  C   UNL     1      -6.676  13.181  69.908  1.00  0.00     0.222 A  
HETATM   25 CL   UNL     1      -5.375  16.944  71.910  1.00  0.00     0.382 Cl 
HETATM   26  C   UNL     1      -6.933  15.552  70.121  1.00  0.00     0.116 A  
HETATM   27  C   UNL     1      -5.340  14.309  71.387  1.00  0.00    -0.177 A  
HETATM   28  N   UNL     1      -5.702  13.133  70.825  1.00  0.00    -0.187 NA 
HETATM   29  C   UNL     1      -5.905  15.541  71.070  1.00  0.00     0.222 A  
HETATM   30  N   UNL     1      -7.296  14.360  69.550  1.00  0.00    -0.067 NA 
BRANCH  26  31
HETATM   31  N   UNL     1      -7.542  16.867  69.697  1.00  0.00     0.250 NA 
HETATM   32  H   UNL     1      -7.471  17.621  70.379  1.00  0.00     0.000 HD 
BRANCH  31  33
HETATM   33  C   UNL     1      -8.233  17.220  68.426  1.00  0.00    -0.260 A  
HETATM   34  C   UNL     1      -9.142  16.250  67.980  1.00  0.00    -0.188 A  
HETATM   35  C   UNL     1      -9.902  16.453  66.840  1.00  0.00    -0.266 A  
HETATM   36  C   UNL     1      -9.794  17.656  66.132  1.00  0.00    -0.253 A  
HETATM   37  C   UNL     1      -8.915  18.687  66.518  1.00  0.00    -0.308 A  
HETATM   38  C   UNL     1      -8.106  18.534  67.645  1.00  0.00    -0.250 A  
HETATM   39  P   UNL     1      -6.912  19.848  68.089  1.00  0.00    -0.298 P  
HETATM   40  C   UNL     1      -7.554  19.911  69.863  1.00  0.00     0.412 C  
HETATM   41  O   UNL     1      -5.902  20.961  68.464  1.00  0.00    -0.320 OA 
HETATM   42  C   UNL     1      -5.495  18.597  67.934  1.00  0.00    -0.176 C  
ENDBRANCH  31  33
ENDBRANCH  26  31
ENDBRANCH  22  24
ENDBRANCH   7  22
ENDBRANCH   2   3
TORSDOF 7
ENDMDL
MODEL      131
REMARK 921   NORMALIZED FREE ENERGY PREDICTED BY IDOCK:    0.35 KCAL/MOL
REMARK 922        TOTAL FREE ENERGY PREDICTED BY IDOCK:   -0.82 KCAL/MOL
REMARK 923 INTER-LIGAND FREE ENERGY PREDICTED BY IDOCK:   -5.38 KCAL/MOL
REMARK 924 INTRA-LIGAND FREE ENERGY PREDICTED BY IDOCK:    4.56 KCAL/MOL
REMARK 927      BINDING AFFINITY PREDICTED BY RF-SCORE:    0.00 PKD
ROOT
HETATM    1  C   UNL     1      -9.966   9.053  66.695  1.00  0.00    -0.278 C  
HETATM    2  O   UNL     1     -10.950   8.991  67.719  1.00  0.00    -0.141 OA 
ENDROOT
BRANCH   2   3
HETATM    3  C   UNL     1     -10.637   8.374  68.917  1.00  0.00    -0.140 A  
HETATM    4  C   UNL     1      -9.778   7.251  69.046  1.00  0.00    -0.152 A  
HETATM    5  C   UNL     1      -9.500   6.639  70.286  1.00  0.00    -0.162 A  
HETATM    6  C   UNL     1     -10.135   7.245  71.395  1.00  0.00    -0.196 A  
HETATM    7  C   UNL     1     -11.253   8.979  70.048  1.00  0.00    -0.128 A  
HETATM    8  C   UNL     1     -10.987   8.387  71.277  1.00  0.00    -0.305 A  
BRANCH   5   9
HETATM    9  N   UNL     1      -8.611   5.559  70.389  1.00  0.00    -0.128 NA 
HETATM   10  C   UNL     1      -7.795   5.227  69.205  1.00  0.00    -0.085 C  
HETATM   11  C   UNL     1      -6.467   4.620  69.666  1.00  0.00    -0.032 C  
HETATM   12  C   UNL     1      -6.625   3.337  70.515  1.00  0.00    -0.032 C  
HETATM   13  C   UNL     1      -7.630   3.665  71.651  1.00  0.00    -0.053 C  
HETATM   14  C   UNL     1      -8.932   4.340  71.166  1.00  0.00    -0.117 C  
BRANCH  12  15
HETATM   15  N   UNL     1      -7.010   2.072  69.824  1.00  0.00    -0.033 NA 
HETATM   16  C   UNL     1      -8.447   1.915  69.511  1.00  0.00    -0.048 C  
HETATM   17  C   UNL     1      -8.604   1.496  66.365  1.00  0.00    -0.107 C  
HETATM   18  C   UNL     1      -6.276   1.910  68.532  1.00  0.00    -0.025 C  
HETATM   19  C   UNL     1      -8.982   2.816  68.370  1.00  0.00    -0.145 C  
HETATM   20  C   UNL     1      -6.796   2.785  67.353  1.00  0.00    -0.045 C  
HETATM   21  N   UNL     1      -8.247   2.709  67.097  1.00  0.00    -0.076 NA 
ENDBRANCH  12  15
ENDBRANCH   5   9
BRANCH   7  22
HETATM   22  N   UNL     1     -12.047  10.142  69.827  1.00  0.00    -0.492 NA 
HETATM   23  H   UNL     1     -13.022   9.874  69.688  1.00  0.00     0.000 HD 
BRANCH  22  24
HETATM   24  C   UNL     1     -11.918  11.537  69.738  1.00  0.00    -0.346 A  
HETATM   25 CL   UNL     1     -11.378  15.932  69.246  1.00  0.00    -0.332 Cl 
HETATM   26  C   UNL     1     -10.850  13.323  68.555  1.00  0.00    -0.265 A  
HETATM   27  C   UNL     1     -12.360  13.695  70.362  1.00  0.00    -0.345 A  
HETATM   28  N   UNL     1     -12.576  12.372  70.550  1.00  0.00    -0.154 NA 
HETATM   29  C   UNL     1     -11.508  14.226  69.399  1.00  0.00    -0.292 A  
HETATM   30  N   UNL     1     -11.067  11.984  68.749  1.00  0.00    -0.234 NA 
BRANCH  26  31
HETATM   31  N   UNL     1      -9.870  13.841  67.530  1.00  0.00    -0.226 NA 
HETATM   32  H   UNL     1     -10.284  14.188  66.666  1.00  0.00     0.000 HD 
BRANCH  31  33
HETATM   33  C   UNL     1      -8.384  13.917  67.600  1.00  0.00    -0.181 A  
HETATM   34  C   UNL     1      -7.729  12.770  67.130  1.00  0.00    -0.072 A  
HETATM   35  C   UNL     1      -6.347  12.704  67.081  1.00  0.00     0.005 A  
HETATM   36  C   UNL     1      -5.580  13.809  67.474  1.00  0.00     0.106 A  
HETATM   37  C   UNL     1      -6.157  15.004  67.946  1.00  0.00    -0.170 A  
HETATM   38  C   UNL     1      -7.545  15.123  68.040  1.00  0.00    -0.120 A  
HETATM   39  P   UNL     1      -8.278  16.651  68.731  1.00  0.00    -0.212 P  
HETATM   40  C   UNL     1      -9.422  16.842  67.242  1.00  0.00    -0.242 C  
HETATM   41  O   UNL     1      -8.898  17.944  69.315  1.00  0.00     0.049 OA 
HETATM   42  C   UNL     1      -9.113  15.623  70.088  1.00  0.00     0.566 C  
ENDBRANCH  31  33
ENDBRANCH  26  31
ENDBRANCH  22  24
ENDBRANCH   7  22
ENDBRANCH   2   3
TORSDOF 7
ENDMDL
MODEL      132
REMARK 921   NORMALIZED FREE ENERGY PREDICTED BY IDOCK:    0.46 KCAL/MOL
REMARK 922        TOTAL FREE ENERGY PREDICTED BY IDOCK:   -0.66 KCAL/MOL
REMARK 923 INTER-LIGAND FREE ENERGY PREDICTED BY IDOCK:   -3.75 KCAL/MOL
REMARK 924 INTRA-LIGAND FREE ENERGY PREDICTED BY IDOCK:    3.09 KCAL/MOL
REMARK 927      BINDING AFFINITY PREDICTED BY RF-SCORE:    0.00 PKD
ROOT
HETATM    1  C   UNL     1      -5.151  12.491  68.449  1.00  0.00    -0.057 C  
HETATM    2  O   UNL     1      -5.793  11.225  68.532  1.00  0.00    -0.043 OA 
ENDROOT
BRANCH   2   3
HETATM    3  C   UNL     1      -7.175  11.173  68.564  1.00  0.00    -0.088 A  
HETATM    4  C   UNL     1      -8.029  12.302  68.450  1.00  0.00    -0.152 A  
HETATM    5  C   UNL     1      -9.435  12.207  68.508  1.00  0.00    -0.122 A  
HETATM    6  C   UNL     1      -9.927  10.892  68.673  1.00  0.00    -0.196 A  
HETATM    7  C   UNL     1      -7.692   9.855  68.714  1.00  0.00    -0.086 A  
HETATM    8  C   UNL     1      -9.077   9.747  68.771  1.00  0.00    -0.136 A  
BRANCH   5   9
HETATM    9  N   UNL     1     -10.254  13.333  68.345  1.00  0.00    -0.249 NA 
HETATM   10  C   UNL     1     -10.724  13.649  66.982  1.00  0.00    -0.278 C  
HETATM   11  C   UNL     1     -12.086  14.343  67.070  1.00  0.00    -0.374 C  
HETATM   12  C   UNL     1     -12.071  15.655  67.889  1.00  0.00     0.396 C  
HETATM   13  C   UNL     1     -11.406  15.331  69.253  1.00  0.00    -0.308 C  
HETATM   14  C   UNL     1     -10.067  14.570  69.138  1.00  0.00    -0.137 C  
BRANCH  12  15
HETATM   15  N   UNL     1     -11.448  16.865  67.276  1.00  0.00     0.424 NA 
HETATM   16  C   UNL     1     -11.026  17.925  68.217  1.00  0.00     0.057 C  
HETATM   17  C   UNL     1      -7.920  18.351  67.699  1.00  0.00    -0.242 C  
HETATM   18  C   UNL     1     -10.240  16.509  66.470  1.00  0.00    -0.300 C  
HETATM   19  C   UNL     1      -9.777  17.596  69.072  1.00  0.00    -0.189 C  
HETATM   20  C   UNL     1      -8.957  16.190  67.294  1.00  0.00    -0.196 C  
HETATM   21  N   UNL     1      -8.584  17.198  68.304  1.00  0.00    -0.233 NA 
ENDBRANCH  12  15
ENDBRANCH   5   9
BRANCH   7  22
HETATM   22  N   UNL     1      -6.760   8.779  68.755  1.00  0.00    -0.054 NA 
HETATM   23  H   UNL     1      -5.809   9.142  68.686  1.00  0.00     0.000 HD 
BRANCH  22  24
HETATM   24  C   UNL     1      -6.730   7.379  68.860  1.00  0.00    -0.049 A  
HETATM   25 CL   UNL     1      -6.651   2.925  68.946  1.00  0.00    -0.033 Cl 
HETATM   26  C   UNL     1      -6.980   5.329  67.650  1.00  0.00    -0.065 A  
HETATM   27  C   UNL     1      -6.477   5.399  69.980  1.00  0.00    -0.031 A  
HETATM   28  N   UNL     1      -6.472   6.751  70.013  1.00  0.00    -0.039 NA 
HETATM   29  C   UNL     1      -6.734   4.638  68.843  1.00  0.00    -0.049 A  
HETATM   30  N   UNL     1      -6.979   6.699  67.686  1.00  0.00    -0.080 NA 
BRANCH  26  31
HETATM   31  N   UNL     1      -7.321   4.556  66.399  1.00  0.00    -0.080 NA 
HETATM   32  H   UNL     1      -7.652   3.604  66.550  1.00  0.00     0.000 HD 
BRANCH  31  33
HETATM   33  C   UNL     1      -7.242   4.985  64.975  1.00  0.00    -0.063 A  
HETATM   34  C   UNL     1      -6.339   6.032  64.741  1.00  0.00    -0.033 A  
HETATM   35  C   UNL     1      -6.113   6.510  63.461  1.00  0.00    -0.030 A  
HETATM   36  C   UNL     1      -6.767   5.924  62.371  1.00  0.00    -0.036 A  
HETATM   37  C   UNL     1      -7.680   4.860  62.515  1.00  0.00    -0.062 A  
HETATM   38  C   UNL     1      -7.967   4.349  63.782  1.00  0.00    -0.091 A  
HETATM   39  P   UNL     1      -9.215   3.023  63.962  1.00  0.00    -0.122 P  
HETATM   40  C   UNL     1      -8.020   1.959  64.964  1.00  0.00    -0.074 C  
HETATM   41  O   UNL     1     -10.270   1.900  64.114  1.00  0.00    -0.050 OA 
HETATM   42  C   UNL     1     -10.228   4.147  65.104  1.00  0.00    -0.204 C  
ENDBRANCH  31  33
ENDBRANCH  26  31
ENDBRANCH  22  24
ENDBRANCH   7  22
ENDBRANCH   2   3
TORSDOF 7
ENDMDL
MODEL      133
REMARK 921   NORMALIZED FREE ENERGY PREDICTED BY IDOCK:    0.53 KCAL/MOL
REMARK 922        TOTAL FREE ENERGY PREDICTED BY IDOCK:   -0.57 KCAL/MOL
REMARK 923 INTER-LIGAND FREE ENERGY PREDICTED BY IDOCK:   -4.32 KCAL/MOL
REMARK 924 INTRA-LIGAND FREE ENERGY PREDICTED BY IDOCK:    3.75 KCAL/MOL
REMARK 927      BINDING AFFINITY PREDICTED BY RF-SCORE:    0.00 PKD
ROOT
HETATM    1  C   UNL     1      -7.236   9.255  64.658  1.00  0.00    -0.100 C  
HETATM    2  O   UNL     1      -7.314   9.978  65.880  1.00  0.00    -0.103 OA 
ENDROOT
BRANCH   2   3
HETATM    3  C   UNL     1      -7.546   9.287  67.056  1.00  0.00    -0.091 A  
HETATM    4  C   UNL     1      -7.822   7.896  67.135  1.00  0.00    -0.109 A  
HETATM    5  C   UNL     1      -8.073   7.234  68.354  1.00  0.00    -0.125 A  
HETATM    6  C   UNL     1      -8.013   8.065  69.496  1.00  0.00    -0.115 A  
HETATM    7  C   UNL     1      -7.475  10.103  68.220  1.00  0.00    -0.082 A  
HETATM    8  C   UNL     1      -7.719   9.463  69.429  1.00  0.00    -0.085 A  
BRANCH   5   9
HETATM    9  N   UNL     1      -8.297   5.850  68.406  1.00  0.00    -0.111 NA 
HETATM   10  C   UNL     1      -7.311   5.023  69.130  1.00  0.00    -0.057 C  
HETATM   11  C   UNL     1      -8.019   3.798  69.715  1.00  0.00    -0.055 C  
HETATM   12  C   UNL     1      -8.709   2.906  68.656  1.00  0.00    -0.093 C  
HETATM   13  C   UNL     1      -9.603   3.836  67.793  1.00  0.00    -0.193 C  
HETATM   14  C   UNL     1      -8.883   5.099  67.273  1.00  0.00    -0.105 C  
BRANCH  12  15
HETATM   15  N   UNL     1      -7.853   2.048  67.787  1.00  0.00    -0.059 NA 
HETATM   16  C   UNL     1      -8.507   1.478  66.590  1.00  0.00    -0.095 C  
HETATM   17  C   UNL     1      -6.790   2.479  64.110  1.00  0.00    -0.039 C  
HETATM   18  C   UNL     1      -6.651   2.791  67.299  1.00  0.00    -0.037 C  
HETATM   19  C   UNL     1      -8.814   2.487  65.455  1.00  0.00    -0.127 C  
HETATM   20  C   UNL     1      -6.914   3.803  66.144  1.00  0.00    -0.062 C  
HETATM   21  N   UNL     1      -7.654   3.267  64.986  1.00  0.00    -0.076 NA 
ENDBRANCH  12  15
ENDBRANCH   5   9
BRANCH   7  22
HETATM   22  N   UNL     1      -7.129  11.474  68.047  1.00  0.00    -0.075 NA 
HETATM   23  H   UNL     1      -7.211  11.730  67.062  1.00  0.00     0.000 HD 
BRANCH  22  24
HETATM   24  C   UNL     1      -6.711  12.586  68.796  1.00  0.00    -0.093 A  
HETATM   25 CL   UNL     1      -5.601  16.223  71.118  1.00  0.00     0.138 Cl 
HETATM   26  C   UNL     1      -7.234  14.846  69.385  1.00  0.00    -0.182 A  
HETATM   27  C   UNL     1      -5.311  13.708  70.218  1.00  0.00    -0.109 A  
HETATM   28  N   UNL     1      -5.605  12.570  69.548  1.00  0.00    -0.082 NA 
HETATM   29  C   UNL     1      -6.074  14.872  70.167  1.00  0.00    -0.157 A  
HETATM   30  N   UNL     1      -7.528  13.693  68.704  1.00  0.00    -0.116 NA 
BRANCH  26  31
HETATM   31  N   UNL     1      -8.068  16.097  69.248  1.00  0.00    -0.227 NA 
HETATM   32  H   UNL     1      -8.130  16.675  70.086  1.00  0.00     0.000 HD 
BRANCH  31  33
HETATM   33  C   UNL     1      -8.813  16.609  68.064  1.00  0.00    -0.206 A  
HETATM   34  C   UNL     1      -8.033  17.371  67.183  1.00  0.00    -0.226 A  
HETATM   35  C   UNL     1      -8.567  17.874  66.008  1.00  0.00    -0.030 A  
HETATM   36  C   UNL     1      -9.897  17.596  65.669  1.00  0.00     0.200 A  
HETATM   37  C   UNL     1     -10.745  16.828  66.490  1.00  0.00    -0.104 A  
HETATM   38  C   UNL     1     -10.273  16.312  67.699  1.00  0.00    -0.272 A  
HETATM   39  P   UNL     1     -11.409  15.385  68.794  1.00  0.00    -0.357 P  
HETATM   40  C   UNL     1     -10.198  13.942  68.921  1.00  0.00    -0.127 C  
HETATM   41  O   UNL     1     -12.370  14.600  69.720  1.00  0.00    -0.311 OA 
HETATM   42  C   UNL     1     -11.091  16.648  70.172  1.00  0.00    -0.063 C  
ENDBRANCH  31  33
ENDBRANCH  26  31
ENDBRANCH  22  24
ENDBRANCH   7  22
ENDBRANCH   2   3
TORSDOF 7
ENDMDL
MODEL      134
REMARK 921   NORMALIZED FREE ENERGY PREDICTED BY IDOCK:    0.59 KCAL/MOL
REMARK 922        TOTAL FREE ENERGY PREDICTED BY IDOCK:   -0.48 KCAL/MOL
REMARK 923 INTER-LIGAND FREE ENERGY PREDICTED BY IDOCK:   -4.45 KCAL/MOL
REMARK 924 INTRA-LIGAND FREE ENERGY PREDICTED BY IDOCK:    3.97 KCAL/MOL
REMARK 927      BINDING AFFINITY PREDICTED BY RF-SCORE:    0.00 PKD
ROOT
HETATM    1  C   UNL     1      -7.622   9.112  70.112  1.00  0.00    -0.093 C  
HETATM    2  O   UNL     1      -6.558   9.382  69.207  1.00  0.00    -0.047 OA 
ENDROOT
BRANCH   2   3
HETATM    3  C   UNL     1      -6.725   9.087  67.866  1.00  0.00    -0.068 A  
HETATM    4  C   UNL     1      -6.463   7.821  67.278  1.00  0.00    -0.056 A  
HETATM    5  C   UNL     1      -6.626   7.568  65.901  1.00  0.00    -0.046 A  
HETATM    6  C   UNL     1      -7.088   8.676  65.152  1.00  0.00    -0.086 A  
HETATM    7  C   UNL     1      -7.205  10.185  67.096  1.00  0.00    -0.090 A  
HETATM    8  C   UNL     1      -7.372   9.949  65.737  1.00  0.00    -0.111 A  
BRANCH   5   9
HETATM    9  N   UNL     1      -6.404   6.295  65.356  1.00  0.00    -0.037 NA 
HETATM   10  C   UNL     1      -6.028   6.216  63.931  1.00  0.00    -0.022 C  
HETATM   11  C   UNL     1      -5.147   4.983  63.713  1.00  0.00    -0.009 C  
HETATM   12  C   UNL     1      -5.824   3.649  64.107  1.00  0.00    -0.014 C  
HETATM   13  C   UNL     1      -6.369   3.825  65.550  1.00  0.00    -0.032 C  
HETATM   14  C   UNL     1      -7.196   5.112  65.759  1.00  0.00    -0.069 C  
BRANCH  12  15
HETATM   15  N   UNL     1      -6.883   3.100  63.211  1.00  0.00    -0.034 NA 
HETATM   16  C   UNL     1      -7.935   2.293  63.866  1.00  0.00    -0.076 C  
HETATM   17  C   UNL     1     -10.684   3.720  63.155  1.00  0.00    -0.177 C  
HETATM   18  C   UNL     1      -7.587   4.190  62.467  1.00  0.00    -0.056 C  
HETATM   19  C   UNL     1      -8.944   3.091  64.730  1.00  0.00    -0.129 C  
HETATM   20  C   UNL     1      -8.625   5.003  63.296  1.00  0.00    -0.112 C  
HETATM   21  N   UNL     1      -9.619   4.201  64.033  1.00  0.00    -0.156 NA 
ENDBRANCH  12  15
ENDBRANCH   5   9
BRANCH   7  22
HETATM   22  N   UNL     1      -7.501  11.396  67.785  1.00  0.00    -0.095 NA 
HETATM   23  H   UNL     1      -8.324  11.267  68.374  1.00  0.00     0.000 HD 
BRANCH  22  24
HETATM   24  C   UNL     1      -7.024  12.710  67.913  1.00  0.00    -0.110 A  
HETATM   25 CL   UNL     1      -5.717  16.938  68.438  1.00  0.00    -0.128 Cl 
HETATM   26  C   UNL     1      -7.595  14.934  68.591  1.00  0.00    -0.124 A  
HETATM   27  C   UNL     1      -5.443  14.357  67.742  1.00  0.00    -0.012 A  
HETATM   28  N   UNL     1      -5.777  13.057  67.574  1.00  0.00    -0.288 NA 
HETATM   29  C   UNL     1      -6.304  15.336  68.230  1.00  0.00    -0.114 A  
HETATM   30  N   UNL     1      -7.932  13.617  68.417  1.00  0.00    -0.144 NA 
BRANCH  26  31
HETATM   31  N   UNL     1      -8.589  15.964  69.073  1.00  0.00    -0.225 NA 
HETATM   32  H   UNL     1      -8.214  16.902  69.210  1.00  0.00     0.000 HD 
BRANCH  31  33
HETATM   33  C   UNL     1     -10.038  15.805  69.377  1.00  0.00    -0.268 A  
HETATM   34  C   UNL     1     -10.324  15.660  70.742  1.00  0.00     0.254 A  
HETATM   35  C   UNL     1     -11.630  15.554  71.192  1.00  0.00    -0.446 A  
HETATM   36  C   UNL     1     -12.691  15.625  70.281  1.00  0.00    -0.248 A  
HETATM   37  C   UNL     1     -12.493  15.783  68.896  1.00  0.00     0.404 A  
HETATM   38  C   UNL     1     -11.199  15.873  68.378  1.00  0.00    -0.368 A  
HETATM   39  P   UNL     1     -10.954  15.996  66.568  1.00  0.00     0.121 P  
HETATM   40  C   UNL     1      -9.844  17.510  66.766  1.00  0.00    -0.306 C  
HETATM   41  O   UNL     1     -10.748  16.101  65.037  1.00  0.00    -0.558 OA 
HETATM   42  C   UNL     1      -9.927  14.403  66.610  1.00  0.00    -0.272 C  
ENDBRANCH  31  33
ENDBRANCH  26  31
ENDBRANCH  22  24
ENDBRANCH   7  22
ENDBRANCH   2   3
TORSDOF 7
ENDMDL
MODEL      135
REMARK 921   NORMALIZED FREE ENERGY PREDICTED BY IDOCK:    0.73 KCAL/MOL
REMARK 922        TOTAL FREE ENERGY PREDICTED BY IDOCK:   -0.29 KCAL/MOL
REMARK 923 INTER-LIGAND FREE ENERGY PREDICTED BY IDOCK:   -7.61 KCAL/MOL
REMARK 924 INTRA-LIGAND FREE ENERGY PREDICTED BY IDOCK:    7.33 KCAL/MOL
REMARK 927      BINDING AFFINITY PREDICTED BY RF-SCORE:    0.00 PKD
ROOT
HETATM    1  C   UNL     1     -13.225  11.270  70.292  1.00  0.00     0.518 C  
HETATM    2  O   UNL     1     -11.866  11.502  70.643  1.00  0.00    -0.328 OA 
ENDROOT
BRANCH   2   3
HETATM    3  C   UNL     1     -10.882  10.712  70.078  1.00  0.00    -0.217 A  
HETATM    4  C   UNL     1     -10.566   9.391  70.495  1.00  0.00    -0.331 A  
HETATM    5  C   UNL     1      -9.540   8.626  69.904  1.00  0.00    -0.172 A  
HETATM    6  C   UNL     1      -8.858   9.276  68.849  1.00  0.00    -0.135 A  
HETATM    7  C   UNL     1     -10.194  11.341  69.002  1.00  0.00    -0.150 A  
HETATM    8  C   UNL     1      -9.180  10.598  68.409  1.00  0.00    -0.159 A  
BRANCH   5   9
HETATM    9  N   UNL     1      -9.281   7.308  70.307  1.00  0.00    -0.155 NA 
HETATM   10  C   UNL     1      -9.638   6.223  69.371  1.00  0.00    -0.141 C  
HETATM   11  C   UNL     1      -8.682   5.046  69.581  1.00  0.00    -0.110 C  
HETATM   12  C   UNL     1      -8.702   4.469  71.016  1.00  0.00    -0.113 C  
HETATM   13  C   UNL     1      -8.504   5.663  71.988  1.00  0.00    -0.126 C  
HETATM   14  C   UNL     1      -9.433   6.864  71.711  1.00  0.00    -0.153 C  
BRANCH  12  15
HETATM   15  N   UNL     1      -9.874   3.645  71.432  1.00  0.00    -0.173 NA 
HETATM   16  C   UNL     1      -9.631   2.192  71.570  1.00  0.00    -0.142 C  
HETATM   17  C   UNL     1     -10.420   1.467  74.562  1.00  0.00    -0.119 C  
HETATM   18  C   UNL     1     -10.431   4.107  72.740  1.00  0.00    -0.167 C  
HETATM   19  C   UNL     1      -8.780   1.775  72.796  1.00  0.00    -0.062 C  
HETATM   20  C   UNL     1      -9.614   3.690  73.999  1.00  0.00    -0.096 C  
HETATM   21  N   UNL     1      -9.282   2.256  74.095  1.00  0.00    -0.075 NA 
ENDBRANCH  12  15
ENDBRANCH   5   9
BRANCH   7  22
HETATM   22  N   UNL     1     -10.624  12.642  68.612  1.00  0.00    -0.275 NA 
HETATM   23  H   UNL     1     -10.740  13.230  69.438  1.00  0.00     0.000 HD 
BRANCH  22  24
HETATM   24  C   UNL     1     -10.939  13.374  67.457  1.00  0.00    -0.267 A  
HETATM   25 CL   UNL     1     -11.751  15.848  63.841  1.00  0.00     0.063 Cl 
HETATM   26  C   UNL     1     -10.453  15.363  66.217  1.00  0.00    -0.303 A  
HETATM   27  C   UNL     1     -12.062  13.757  65.498  1.00  0.00    -0.410 A  
HETATM   28  N   UNL     1     -11.848  12.957  66.568  1.00  0.00    -0.398 NA 
HETATM   29  C   UNL     1     -11.410  14.966  65.276  1.00  0.00    -0.358 A  
HETATM   30  N   UNL     1     -10.240  14.552  67.301  1.00  0.00    -0.254 NA 
BRANCH  26  31
HETATM   31  N   UNL     1      -9.756  16.693  66.056  1.00  0.00    -0.417 NA 
HETATM   32  H   UNL     1      -9.114  16.757  65.267  1.00  0.00     0.000 HD 
BRANCH  31  33
HETATM   33  C   UNL     1      -9.873  17.925  66.885  1.00  0.00    -0.321 A  
HETATM   34  C   UNL     1      -9.530  19.104  66.209  1.00  0.00    -0.359 A  
HETATM   35  C   UNL     1      -9.636  20.339  66.828  1.00  0.00    -0.548 A  
HETATM   36  C   UNL     1     -10.124  20.426  68.137  1.00  0.00    -0.321 A  
HETATM   37  C   UNL     1     -10.503  19.293  68.883  1.00  0.00     0.009 A  
HETATM   38  C   UNL     1     -10.398  18.017  68.323  1.00  0.00    -0.380 A  
HETATM   39  P   UNL     1     -10.817  16.548  69.331  1.00  0.00    -0.216 P  
HETATM   40  C   UNL     1     -11.971  15.889  67.990  1.00  0.00     0.260 C  
HETATM   41  O   UNL     1     -11.172  15.306  70.183  1.00  0.00    -0.252 OA 
HETATM   42  C   UNL     1      -9.056  15.890  69.082  1.00  0.00    -0.255 C  
ENDBRANCH  31  33
ENDBRANCH  26  31
ENDBRANCH  22  24
ENDBRANCH   7  22
ENDBRANCH   2   3
TORSDOF 7
ENDMDL
MODEL      136
REMARK 921   NORMALIZED FREE ENERGY PREDICTED BY IDOCK:    0.74 KCAL/MOL
REMARK 922        TOTAL FREE ENERGY PREDICTED BY IDOCK:   -0.27 KCAL/MOL
REMARK 923 INTER-LIGAND FREE ENERGY PREDICTED BY IDOCK:   -4.68 KCAL/MOL
REMARK 924 INTRA-LIGAND FREE ENERGY PREDICTED BY IDOCK:    4.41 KCAL/MOL
REMARK 927      BINDING AFFINITY PREDICTED BY RF-SCORE:    0.00 PKD
ROOT
HETATM    1  C   UNL     1      -8.342  10.276  70.029  1.00  0.00     0.100 C  
HETATM    2  O   UNL     1      -9.397  10.391  69.083  1.00  0.00    -0.186 OA 
ENDROOT
BRANCH   2   3
HETATM    3  C   UNL     1     -10.257  11.471  69.163  1.00  0.00    -0.013 A  
HETATM    4  C   UNL     1      -9.926  12.797  68.780  1.00  0.00    -0.016 A  
HETATM    5  C   UNL     1     -10.827  13.876  68.896  1.00  0.00    -0.255 A  
HETATM    6  C   UNL     1     -12.097  13.525  69.412  1.00  0.00    -0.340 A  
HETATM    7  C   UNL     1     -11.547  11.137  69.665  1.00  0.00    -0.326 A  
HETATM    8  C   UNL     1     -12.446  12.190  69.784  1.00  0.00     0.052 A  
BRANCH   5   9
HETATM    9  N   UNL     1     -10.488  15.167  68.467  1.00  0.00    -0.228 NA 
HETATM   10  C   UNL     1      -9.789  15.297  67.173  1.00  0.00    -0.224 C  
HETATM   11  C   UNL     1     -10.156  16.642  66.539  1.00  0.00    -0.313 C  
HETATM   12  C   UNL     1      -9.789  17.867  67.409  1.00  0.00    -0.305 C  
HETATM   13  C   UNL     1     -10.386  17.617  68.820  1.00  0.00    -0.348 C  
HETATM   14  C   UNL     1     -10.058  16.227  69.407  1.00  0.00    -0.253 C  
BRANCH  12  15
HETATM   15  N   UNL     1      -8.353  18.260  67.510  1.00  0.00    -0.243 NA 
HETATM   16  C   UNL     1      -7.783  18.292  68.874  1.00  0.00    -0.205 C  
HETATM   17  C   UNL     1      -5.307  16.300  68.821  1.00  0.00    -0.105 C  
HETATM   18  C   UNL     1      -7.480  17.349  66.708  1.00  0.00    -0.222 C  
HETATM   19  C   UNL     1      -7.550  16.908  69.531  1.00  0.00     0.222 C  
HETATM   20  C   UNL     1      -7.206  15.954  67.344  1.00  0.00    -0.195 C  
HETATM   21  N   UNL     1      -6.730  15.974  68.739  1.00  0.00    -0.123 NA 
ENDBRANCH  12  15
ENDBRANCH   5   9
BRANCH   7  22
HETATM   22  N   UNL     1     -11.808   9.768  69.962  1.00  0.00    -0.449 NA 
HETATM   23  H   UNL     1     -12.541   9.700  70.668  1.00  0.00     0.000 HD 
BRANCH  22  24
HETATM   24  C   UNL     1     -11.379   8.483  69.594  1.00  0.00     0.210 A  
HETATM   25 CL   UNL     1      -9.845   4.509  68.285  1.00  0.00    -0.186 Cl 
HETATM   26  C   UNL     1      -9.946   7.253  68.123  1.00  0.00    -0.159 A  
HETATM   27  C   UNL     1     -11.345   6.198  69.740  1.00  0.00    -0.382 A  
HETATM   28  N   UNL     1     -11.836   7.375  70.190  1.00  0.00    -0.008 NA 
HETATM   29  C   UNL     1     -10.416   6.073  68.711  1.00  0.00    -0.248 A  
HETATM   30  N   UNL     1     -10.447   8.445  68.578  1.00  0.00    -0.194 NA 
BRANCH  26  31
HETATM   31  N   UNL     1      -8.981   7.175  66.964  1.00  0.00    -0.126 NA 
HETATM   32  H   UNL     1      -9.230   6.511  66.232  1.00  0.00     0.000 HD 
BRANCH  31  33
HETATM   33  C   UNL     1      -7.716   7.928  66.738  1.00  0.00    -0.099 A  
HETATM   34  C   UNL     1      -6.824   7.888  67.819  1.00  0.00    -0.069 A  
HETATM   35  C   UNL     1      -5.582   8.496  67.745  1.00  0.00    -0.035 A  
HETATM   36  C   UNL     1      -5.187   9.137  66.565  1.00  0.00    -0.037 A  
HETATM   37  C   UNL     1      -6.015   9.213  65.428  1.00  0.00    -0.058 A  
HETATM   38  C   UNL     1      -7.288   8.639  65.448  1.00  0.00    -0.084 A  
HETATM   39  P   UNL     1      -8.384   8.815  63.993  1.00  0.00    -0.040 P  
HETATM   40  C   UNL     1      -8.701   6.955  63.937  1.00  0.00     0.688 C  
HETATM   41  O   UNL     1      -9.311   8.964  62.762  1.00  0.00     0.338 OA 
HETATM   42  C   UNL     1      -9.672   9.680  65.083  1.00  0.00    -0.217 C  
ENDBRANCH  31  33
ENDBRANCH  26  31
ENDBRANCH  22  24
ENDBRANCH   7  22
ENDBRANCH   2   3
TORSDOF 7
ENDMDL
MODEL      137
REMARK 921   NORMALIZED FREE ENERGY PREDICTED BY IDOCK:    1.46 KCAL/MOL
REMARK 922        TOTAL FREE ENERGY PREDICTED BY IDOCK:    0.75 KCAL/MOL
REMARK 923 INTER-LIGAND FREE ENERGY PREDICTED BY IDOCK:   -4.98 KCAL/MOL
REMARK 924 INTRA-LIGAND FREE ENERGY PREDICTED BY IDOCK:    5.73 KCAL/MOL
REMARK 927      BINDING AFFINITY PREDICTED BY RF-SCORE:    0.00 PKD
ROOT
HETATM    1  C   UNL     1     -10.981  13.070  68.579  1.00  0.00    -0.263 C  
HETATM    2  O   UNL     1     -10.705  11.862  69.277  1.00  0.00    -0.167 OA 
ENDROOT
BRANCH   2   3
HETATM    3  C   UNL     1      -9.899  10.910  68.681  1.00  0.00    -0.190 A  
HETATM    4  C   UNL     1     -10.060   9.507  68.830  1.00  0.00    -0.202 A  
HETATM    5  C   UNL     1      -9.202   8.569  68.220  1.00  0.00    -0.138 A  
HETATM    6  C   UNL     1      -8.174   9.139  67.433  1.00  0.00    -0.107 A  
HETATM    7  C   UNL     1      -8.867  11.463  67.871  1.00  0.00    -0.149 A  
HETATM    8  C   UNL     1      -8.014  10.550  67.262  1.00  0.00    -0.114 A  
BRANCH   5   9
HETATM    9  N   UNL     1      -9.414   7.188  68.347  1.00  0.00    -0.138 NA 
HETATM   10  C   UNL     1     -10.013   6.699  69.604  1.00  0.00    -0.175 C  
HETATM   11  C   UNL     1     -10.822   5.432  69.314  1.00  0.00    -0.070 C  
HETATM   12  C   UNL     1      -9.989   4.282  68.700  1.00  0.00     0.046 C  
HETATM   13  C   UNL     1      -9.228   4.873  67.483  1.00  0.00    -0.135 C  
HETATM   14  C   UNL     1      -8.477   6.188  67.785  1.00  0.00    -0.115 C  
BRANCH  12  15
HETATM   15  N   UNL     1      -9.054   3.532  69.588  1.00  0.00    -0.120 NA 
HETATM   16  C   UNL     1      -8.918   2.085  69.314  1.00  0.00    -0.102 C  
HETATM   17  C   UNL     1      -5.826   1.599  68.764  1.00  0.00    -0.023 C  
HETATM   18  C   UNL     1      -7.674   4.104  69.536  1.00  0.00    -0.053 C  
HETATM   19  C   UNL     1      -8.138   1.723  68.026  1.00  0.00    -0.058 C  
HETATM   20  C   UNL     1      -6.849   3.746  68.265  1.00  0.00    -0.047 C  
HETATM   21  N   UNL     1      -6.790   2.312  67.928  1.00  0.00    -0.039 NA 
ENDBRANCH  12  15
ENDBRANCH   5   9
BRANCH   7  22
HETATM   22  N   UNL     1      -8.823  12.880  67.730  1.00  0.00    -0.177 NA 
HETATM   23  H   UNL     1      -9.761  13.268  67.839  1.00  0.00     0.000 HD 
BRANCH  22  24
HETATM   24  C   UNL     1      -7.905  13.914  67.490  1.00  0.00    -0.181 A  
HETATM   25 CL   UNL     1      -5.180  17.345  66.680  1.00  0.00    -0.202 Cl 
HETATM   26  C   UNL     1      -7.660  16.157  66.690  1.00  0.00    -0.203 A  
HETATM   27  C   UNL     1      -5.819  14.859  67.471  1.00  0.00     0.092 A  
HETATM   28  N   UNL     1      -6.598  13.789  67.751  1.00  0.00    -0.163 NA 
HETATM   29  C   UNL     1      -6.286  16.054  66.933  1.00  0.00     0.224 A  
HETATM   30  N   UNL     1      -8.447  15.071  66.971  1.00  0.00    -0.217 NA 
BRANCH  26  31
HETATM   31  N   UNL     1      -8.213  17.410  66.054  1.00  0.00    -0.536 NA 
HETATM   32  H   UNL     1      -8.107  17.469  65.042  1.00  0.00     0.000 HD 
BRANCH  31  33
HETATM   33  C   UNL     1      -8.891  18.571  66.693  1.00  0.00    -0.294 A  
HETATM   34  C   UNL     1      -8.221  19.791  66.523  1.00  0.00    -0.363 A  
HETATM   35  C   UNL     1      -8.750  20.973  67.014  1.00  0.00     0.082 A  
HETATM   36  C   UNL     1      -9.990  20.967  67.664  1.00  0.00    -0.176 A  
HETATM   37  C   UNL     1     -10.736  19.789  67.866  1.00  0.00    -0.375 A  
HETATM   38  C   UNL     1     -10.245  18.562  67.414  1.00  0.00    -0.373 A  
HETATM   39  P   UNL     1     -11.186  17.029  67.754  1.00  0.00     0.412 P  
HETATM   40  C   UNL     1     -11.127  16.524  65.936  1.00  0.00     0.171 C  
HETATM   41  O   UNL     1     -11.982  15.733  68.041  1.00  0.00    -0.110 OA 
HETATM   42  C   UNL     1      -9.691  16.334  68.690  1.00  0.00    -0.235 C  
ENDBRANCH  31  33
ENDBRANCH  26  31
ENDBRANCH  22  24
ENDBRANCH   7  22
ENDBRANCH   2   3
TORSDOF 7
ENDMDL
MODEL      138
REMARK 921   NORMALIZED FREE ENERGY PREDICTED BY IDOCK:    1.57 KCAL/MOL
REMARK 922        TOTAL FREE ENERGY PREDICTED BY IDOCK:    0.89 KCAL/MOL
REMARK 923 INTER-LIGAND FREE ENERGY PREDICTED BY IDOCK:   -2.01 KCAL/MOL
REMARK 924 INTRA-LIGAND FREE ENERGY PREDICTED BY IDOCK:    2.91 KCAL/MOL
REMARK 927      BINDING AFFINITY PREDICTED BY RF-SCORE:    0.00 PKD
ROOT
HETATM    1  C   UNL     1      -5.759  10.496  73.511  1.00  0.00     1.067 C  
HETATM    2  O   UNL     1      -6.043  10.657  72.127  1.00  0.00     0.281 OA 
ENDROOT
BRANCH   2   3
HETATM    3  C   UNL     1      -5.964   9.558  71.292  1.00  0.00    -0.069 A  
HETATM    4  C   UNL     1      -6.268   8.225  71.680  1.00  0.00    -0.047 A  
HETATM    5  C   UNL     1      -6.155   7.128  70.801  1.00  0.00    -0.035 A  
HETATM    6  C   UNL     1      -5.729   7.464  69.495  1.00  0.00    -0.023 A  
HETATM    7  C   UNL     1      -5.552   9.876  69.967  1.00  0.00    -0.042 A  
HETATM    8  C   UNL     1      -5.438   8.804  69.090  1.00  0.00    -0.036 A  
BRANCH   5   9
HETATM    9  N   UNL     1      -6.506   5.830  71.199  1.00  0.00    -0.039 NA 
HETATM   10  C   UNL     1      -5.766   4.704  70.595  1.00  0.00    -0.016 C  
HETATM   11  C   UNL     1      -5.714   3.545  71.594  1.00  0.00    -0.009 C  
HETATM   12  C   UNL     1      -7.106   3.027  72.027  1.00  0.00    -0.038 C  
HETATM   13  C   UNL     1      -7.926   4.261  72.489  1.00  0.00    -0.088 C  
HETATM   14  C   UNL     1      -7.904   5.442  71.494  1.00  0.00    -0.110 C  
BRANCH  12  15
HETATM   15  N   UNL     1      -7.891   2.210  71.056  1.00  0.00    -0.045 NA 
HETATM   16  C   UNL     1      -9.314   2.582  70.896  1.00  0.00    -0.145 C  
HETATM   17  C   UNL     1      -9.693   3.228  67.808  1.00  0.00     0.048 C  
HETATM   18  C   UNL     1      -7.286   2.254  69.690  1.00  0.00    -0.043 C  
HETATM   19  C   UNL     1      -9.573   3.907  70.138  1.00  0.00    -0.197 C  
HETATM   20  C   UNL     1      -7.541   3.564  68.887  1.00  0.00    -0.052 C  
HETATM   21  N   UNL     1      -8.949   3.995  68.805  1.00  0.00    -0.107 NA 
ENDBRANCH  12  15
ENDBRANCH   5   9
BRANCH   7  22
HETATM   22  N   UNL     1      -5.333  11.249  69.654  1.00  0.00    -0.045 NA 
HETATM   23  H   UNL     1      -4.510  11.590  70.153  1.00  0.00     0.000 HD 
BRANCH  22  24
HETATM   24  C   UNL     1      -5.885  12.282  68.881  1.00  0.00    -0.062 A  
HETATM   25 CL   UNL     1      -7.861  15.494  66.509  1.00  0.00    -0.067 Cl 
HETATM   26  C   UNL     1      -7.929  13.247  68.093  1.00  0.00    -0.150 A  
HETATM   27  C   UNL     1      -5.786  14.135  67.540  1.00  0.00     0.127 A  
HETATM   28  N   UNL     1      -5.130  13.193  68.257  1.00  0.00    -0.079 NA 
HETATM   29  C   UNL     1      -7.170  14.206  67.412  1.00  0.00    -0.101 A  
HETATM   30  N   UNL     1      -7.262  12.292  68.816  1.00  0.00    -0.109 NA 
BRANCH  26  31
HETATM   31  N   UNL     1      -9.431  13.242  67.943  1.00  0.00    -0.207 NA 
HETATM   32  H   UNL     1      -9.811  13.953  67.319  1.00  0.00     0.000 HD 
BRANCH  31  33
HETATM   33  C   UNL     1     -10.439  12.347  68.578  1.00  0.00    -0.228 A  
HETATM   34  C   UNL     1     -10.981  12.849  69.769  1.00  0.00     0.262 A  
HETATM   35  C   UNL     1     -11.968  12.159  70.453  1.00  0.00    -0.360 A  
HETATM   36  C   UNL     1     -12.465  10.956  69.937  1.00  0.00    -0.292 A  
HETATM   37  C   UNL     1     -11.986  10.388  68.740  1.00  0.00     0.142 A  
HETATM   38  C   UNL     1     -10.974  11.024  68.017  1.00  0.00    -0.258 A  
HETATM   39  P   UNL     1     -10.306  10.234  66.508  1.00  0.00    -0.143 P  
HETATM   40  C   UNL     1     -10.563  11.811  65.502  1.00  0.00    -0.276 C  
HETATM   41  O   UNL     1      -9.741   9.566  65.231  1.00  0.00    -0.293 OA 
HETATM   42  C   UNL     1      -8.581  10.217  67.295  1.00  0.00    -0.125 C  
ENDBRANCH  31  33
ENDBRANCH  26  31
ENDBRANCH  22  24
ENDBRANCH   7  22
ENDBRANCH   2   3
TORSDOF 7
ENDMDL
MODEL      139
REMARK 921   NORMALIZED FREE ENERGY PREDICTED BY IDOCK:    2.50 KCAL/MOL
REMARK 922        TOTAL FREE ENERGY PREDICTED BY IDOCK:    2.21 KCAL/MOL
REMARK 923 INTER-LIGAND FREE ENERGY PREDICTED BY IDOCK:   -4.66 KCAL/MOL
REMARK 924 INTRA-LIGAND FREE ENERGY PREDICTED BY IDOCK:    6.87 KCAL/MOL
REMARK 927      BINDING AFFINITY PREDICTED BY RF-SCORE:    0.00 PKD
ROOT
HETATM    1  C   UNL     1     -13.275  13.253  65.990  1.00  0.00     1.087 C  
HETATM    2  O   UNL     1     -11.917  13.111  65.594  1.00  0.00    -0.368 OA 
ENDROOT
BRANCH   2   3
HETATM    3  C   UNL     1     -10.928  13.706  66.357  1.00  0.00    -0.297 A  
HETATM    4  C   UNL     1     -10.889  15.084  66.697  1.00  0.00    -0.318 A  
HETATM    5  C   UNL     1      -9.851  15.655  67.461  1.00  0.00    -0.228 A  
HETATM    6  C   UNL     1      -8.857  14.738  67.877  1.00  0.00    -0.167 A  
HETATM    7  C   UNL     1      -9.925  12.797  66.800  1.00  0.00    -0.237 A  
HETATM    8  C   UNL     1      -8.896  13.346  67.556  1.00  0.00    -0.210 A  
BRANCH   5   9
HETATM    9  N   UNL     1      -9.862  17.011  67.820  1.00  0.00    -0.264 NA 
HETATM   10  C   UNL     1      -9.983  18.006  66.737  1.00  0.00    -0.346 C  
HETATM   11  C   UNL     1     -10.701  19.247  67.274  1.00  0.00    -0.594 C  
HETATM   12  C   UNL     1      -9.982  19.920  68.467  1.00  0.00    -0.395 C  
HETATM   13  C   UNL     1      -9.706  18.811  69.516  1.00  0.00     0.171 C  
HETATM   14  C   UNL     1      -9.045  17.542  68.935  1.00  0.00    -0.148 C  
BRANCH  12  15
HETATM   15  N   UNL     1      -8.742  20.704  68.196  1.00  0.00     0.199 NA 
HETATM   16  C   UNL     1      -7.650  20.554  69.181  1.00  0.00     0.646 C  
HETATM   17  C   UNL     1      -5.134  19.532  67.529  1.00  0.00    -0.167 C  
HETATM   18  C   UNL     1      -8.160  20.361  66.862  1.00  0.00    -0.265 C  
HETATM   19  C   UNL     1      -6.911  19.192  69.151  1.00  0.00    -0.326 C  
HETATM   20  C   UNL     1      -7.392  19.008  66.796  1.00  0.00    -0.212 C  
HETATM   21  N   UNL     1      -6.366  18.808  67.837  1.00  0.00    -0.203 NA 
ENDBRANCH  12  15
ENDBRANCH   5   9
BRANCH   7  22
HETATM   22  N   UNL     1     -10.084  11.422  66.464  1.00  0.00    -0.209 NA 
HETATM   23  H   UNL     1     -10.940  11.059  66.885  1.00  0.00     0.000 HD 
BRANCH  22  24
HETATM   24  C   UNL     1      -9.441  10.406  65.740  1.00  0.00    -0.198 A  
HETATM   25 CL   UNL     1      -7.299   7.102  63.654  1.00  0.00    -0.078 Cl 
HETATM   26  C   UNL     1      -7.820   8.649  65.867  1.00  0.00    -0.102 A  
HETATM   27  C   UNL     1      -9.013   9.159  63.868  1.00  0.00     0.035 A  
HETATM   28  N   UNL     1      -9.706  10.165  64.451  1.00  0.00    -0.310 NA 
HETATM   29  C   UNL     1      -8.058   8.381  64.515  1.00  0.00    -0.152 A  
HETATM   30  N   UNL     1      -8.519   9.670  66.456  1.00  0.00    -0.123 NA 
BRANCH  26  31
HETATM   31  N   UNL     1      -6.753   7.874  66.604  1.00  0.00    -0.061 NA 
HETATM   32  H   UNL     1      -5.804   7.995  66.253  1.00  0.00     0.000 HD 
BRANCH  31  33
HETATM   33  C   UNL     1      -6.890   6.958  67.770  1.00  0.00    -0.081 A  
HETATM   34  C   UNL     1      -6.359   5.678  67.558  1.00  0.00    -0.042 A  
HETATM   35  C   UNL     1      -6.362   4.727  68.565  1.00  0.00    -0.036 A  
HETATM   36  C   UNL     1      -6.870   5.048  69.830  1.00  0.00    -0.052 A  
HETATM   37  C   UNL     1      -7.409   6.314  70.132  1.00  0.00    -0.085 A  
HETATM   38  C   UNL     1      -7.456   7.309  69.152  1.00  0.00    -0.093 A  
HETATM   39  P   UNL     1      -8.232   8.921  69.535  1.00  0.00    -0.115 P  
HETATM   40  C   UNL     1      -6.717   9.861  68.916  1.00  0.00    -0.053 C  
HETATM   41  O   UNL     1      -8.889  10.285  69.859  1.00  0.00    -0.126 OA 
HETATM   42  C   UNL     1      -9.470   8.646  68.125  1.00  0.00    -0.141 C  
ENDBRANCH  31  33
ENDBRANCH  26  31
ENDBRANCH  22  24
ENDBRANCH   7  22
ENDBRANCH   2   3
TORSDOF 7
ENDMDL
MODEL      140
REMARK 921   NORMALIZED FREE ENERGY PREDICTED BY IDOCK:    2.77 KCAL/MOL
REMARK 922        TOTAL FREE ENERGY PREDICTED BY IDOCK:    2.60 KCAL/MOL
REMARK 923 INTER-LIGAND FREE ENERGY PREDICTED BY IDOCK:   -7.11 KCAL/MOL
REMARK 924 INTRA-LIGAND FREE ENERGY PREDICTED BY IDOCK:    9.71 KCAL/MOL
REMARK 927      BINDING AFFINITY PREDICTED BY RF-SCORE:    0.00 PKD
ROOT
HETATM    1  C   UNL     1     -11.235  11.128  68.452  1.00  0.00    -0.262 C  
HETATM    2  O   UNL     1      -9.959  10.816  68.997  1.00  0.00    -0.196 OA 
ENDROOT
BRANCH   2   3
HETATM    3  C   UNL     1      -9.021  10.191  68.196  1.00  0.00    -0.122 A  
HETATM    4  C   UNL     1      -8.892   8.785  68.048  1.00  0.00    -0.141 A  
HETATM    5  C   UNL     1      -7.907   8.187  67.236  1.00  0.00    -0.105 A  
HETATM    6  C   UNL     1      -7.064   9.104  66.566  1.00  0.00    -0.081 A  
HETATM    7  C   UNL     1      -8.172  11.097  67.499  1.00  0.00    -0.119 A  
HETATM    8  C   UNL     1      -7.197  10.522  66.693  1.00  0.00    -0.119 A  
BRANCH   5   9
HETATM    9  N   UNL     1      -7.834   6.796  67.073  1.00  0.00    -0.103 NA 
HETATM   10  C   UNL     1      -9.047   6.007  67.365  1.00  0.00    -0.106 C  
HETATM   11  C   UNL     1      -9.054   4.755  66.482  1.00  0.00    -0.121 C  
HETATM   12  C   UNL     1      -7.824   3.838  66.683  1.00  0.00    -0.088 C  
HETATM   13  C   UNL     1      -6.564   4.734  66.549  1.00  0.00    -0.046 C  
HETATM   14  C   UNL     1      -6.612   6.024  67.396  1.00  0.00    -0.056 C  
BRANCH  12  15
HETATM   15  N   UNL     1      -7.751   3.013  67.924  1.00  0.00    -0.057 NA 
HETATM   16  C   UNL     1      -6.411   2.876  68.535  1.00  0.00    -0.029 C  
HETATM   17  C   UNL     1      -6.702   3.966  71.506  1.00  0.00    -0.026 C  
HETATM   18  C   UNL     1      -8.649   3.551  68.991  1.00  0.00    -0.082 C  
HETATM   19  C   UNL     1      -5.865   4.147  69.232  1.00  0.00    -0.022 C  
HETATM   20  C   UNL     1      -8.127   4.818  69.730  1.00  0.00    -0.069 C  
HETATM   21  N   UNL     1      -6.752   4.724  70.258  1.00  0.00    -0.035 NA 
ENDBRANCH  12  15
ENDBRANCH   5   9
BRANCH   7  22
HETATM   22  N   UNL     1      -8.418  12.492  67.660  1.00  0.00    -0.160 NA 
HETATM   23  H   UNL     1      -9.335  12.727  67.278  1.00  0.00     0.000 HD 
BRANCH  22  24
HETATM   24  C   UNL     1      -7.804  13.644  68.175  1.00  0.00    -0.143 A  
HETATM   25 CL   UNL     1      -6.082  17.396  69.852  1.00  0.00    -0.231 Cl 
HETATM   26  C   UNL     1      -8.190  15.873  68.958  1.00  0.00    -0.234 A  
HETATM   27  C   UNL     1      -6.019  14.891  68.883  1.00  0.00    -0.085 A  
HETATM   28  N   UNL     1      -6.485  13.722  68.387  1.00  0.00    -0.089 NA 
HETATM   29  C   UNL     1      -6.813  15.996  69.175  1.00  0.00    -0.180 A  
HETATM   30  N   UNL     1      -8.660  14.689  68.452  1.00  0.00    -0.163 NA 
BRANCH  26  31
HETATM   31  N   UNL     1      -9.092  17.059  69.203  1.00  0.00    -0.135 NA 
HETATM   32  H   UNL     1      -9.330  17.233  70.179  1.00  0.00     0.000 HD 
BRANCH  31  33
HETATM   33  C   UNL     1      -9.683  18.012  68.223  1.00  0.00    -0.330 A  
HETATM   34  C   UNL     1      -9.864  19.309  68.723  1.00  0.00    -0.514 A  
HETATM   35  C   UNL     1     -10.355  20.324  67.918  1.00  0.00    -0.395 A  
HETATM   36  C   UNL     1     -10.648  20.070  66.573  1.00  0.00    -0.461 A  
HETATM   37  C   UNL     1     -10.483  18.800  65.987  1.00  0.00    -0.483 A  
HETATM   38  C   UNL     1     -10.013  17.730  66.752  1.00  0.00    -0.333 A  
HETATM   39  P   UNL     1      -9.880  16.067  65.999  1.00  0.00    -0.359 P  
HETATM   40  C   UNL     1      -8.091  15.889  66.572  1.00  0.00    -0.235 C  
HETATM   41  O   UNL     1      -9.768  14.661  65.361  1.00  0.00    -0.295 OA 
HETATM   42  C   UNL     1     -11.073  15.392  67.309  1.00  0.00    -0.302 C  
ENDBRANCH  31  33
ENDBRANCH  26  31
ENDBRANCH  22  24
ENDBRANCH   7  22
ENDBRANCH   2   3
TORSDOF 7
ENDMDL
MODEL      141
REMARK 921   NORMALIZED FREE ENERGY PREDICTED BY IDOCK:    3.20 KCAL/MOL
REMARK 922        TOTAL FREE ENERGY PREDICTED BY IDOCK:    3.19 KCAL/MOL
REMARK 923 INTER-LIGAND FREE ENERGY PREDICTED BY IDOCK:   -1.29 KCAL/MOL
REMARK 924 INTRA-LIGAND FREE ENERGY PREDICTED BY IDOCK:    4.48 KCAL/MOL
REMARK 927      BINDING AFFINITY PREDICTED BY RF-SCORE:    0.00 PKD
ROOT
HETATM    1  C   UNL     1      -6.703  10.250  64.217  1.00  0.00    -0.062 C  
HETATM    2  O   UNL     1      -7.402  11.399  64.678  1.00  0.00     1.013 OA 
ENDROOT
BRANCH   2   3
HETATM    3  C   UNL     1      -7.257  11.791  65.996  1.00  0.00     0.667 A  
HETATM    4  C   UNL     1      -7.146  13.138  66.431  1.00  0.00     2.129 A  
HETATM    5  C   UNL     1      -6.979  13.494  67.785  1.00  0.00    -0.159 A  
HETATM    6  C   UNL     1      -6.945  12.399  68.679  1.00  0.00    -0.091 A  
HETATM    7  C   UNL     1      -7.236  10.704  66.915  1.00  0.00    -0.110 A  
HETATM    8  C   UNL     1      -7.073  11.040  68.254  1.00  0.00    -0.072 A  
BRANCH   5   9
HETATM    9  N   UNL     1      -6.919  14.836  68.190  1.00  0.00    -0.112 NA 
HETATM   10  C   UNL     1      -8.143  15.436  68.755  1.00  0.00    -0.166 C  
HETATM   11  C   UNL     1      -7.751  16.518  69.765  1.00  0.00     0.563 C  
HETATM   12  C   UNL     1      -6.890  17.655  69.164  1.00  0.00    -0.229 C  
HETATM   13  C   UNL     1      -5.705  16.983  68.422  1.00  0.00    -0.132 C  
HETATM   14  C   UNL     1      -6.123  15.849  67.461  1.00  0.00    -0.145 C  
BRANCH  12  15
HETATM   15  N   UNL     1      -7.557  18.660  68.285  1.00  0.00    -0.275 NA 
HETATM   16  C   UNL     1      -7.968  18.181  66.947  1.00  0.00    -0.232 C  
HETATM   17  C   UNL     1     -11.098  18.701  66.769  1.00  0.00     0.238 C  
HETATM   18  C   UNL     1      -8.785  19.220  68.929  1.00  0.00    -0.298 C  
HETATM   19  C   UNL     1      -9.181  17.217  66.929  1.00  0.00    -0.254 C  
HETATM   20  C   UNL     1     -10.033  18.288  68.914  1.00  0.00    -0.339 C  
HETATM   21  N   UNL     1     -10.391  17.727  67.598  1.00  0.00    -0.358 NA 
ENDBRANCH  12  15
ENDBRANCH   5   9
BRANCH   7  22
HETATM   22  N   UNL     1      -7.419   9.391  66.392  1.00  0.00    -0.092 NA 
HETATM   23  H   UNL     1      -7.757   9.446  65.431  1.00  0.00     0.000 HD 
BRANCH  22  24
HETATM   24  C   UNL     1      -7.283   8.048  66.774  1.00  0.00    -0.082 A  
HETATM   25 CL   UNL     1      -7.094   3.777  68.030  1.00  0.00    -0.051 Cl 
HETATM   26  C   UNL     1      -8.414   6.172  67.739  1.00  0.00    -0.115 A  
HETATM   27  C   UNL     1      -6.141   6.079  67.027  1.00  0.00    -0.025 A  
HETATM   28  N   UNL     1      -6.142   7.367  66.613  1.00  0.00    -0.042 NA 
HETATM   29  C   UNL     1      -7.232   5.436  67.603  1.00  0.00    -0.072 A  
HETATM   30  N   UNL     1      -8.412   7.478  67.322  1.00  0.00    -0.118 NA 
BRANCH  26  31
HETATM   31  N   UNL     1      -9.612   5.541  68.409  1.00  0.00    -0.118 NA 
HETATM   32  H   UNL     1     -10.519   5.863  68.075  1.00  0.00     0.000 HD 
BRANCH  31  33
HETATM   33  C   UNL     1      -9.656   4.517  69.489  1.00  0.00    -0.195 A  
HETATM   34  C   UNL     1      -9.335   3.221  69.063  1.00  0.00    -0.234 A  
HETATM   35  C   UNL     1      -9.281   2.166  69.959  1.00  0.00    -0.183 A  
HETATM   36  C   UNL     1      -9.517   2.392  71.320  1.00  0.00    -0.218 A  
HETATM   37  C   UNL     1      -9.834   3.665  71.835  1.00  0.00    -0.241 A  
HETATM   38  C   UNL     1      -9.926   4.764  70.979  1.00  0.00    -0.209 A  
HETATM   39  P   UNL     1     -10.417   6.395  71.649  1.00  0.00    -0.228 P  
HETATM   40  C   UNL     1      -8.927   7.234  70.850  1.00  0.00    -0.150 C  
HETATM   41  O   UNL     1     -10.832   7.775  72.216  1.00  0.00    -0.243 OA 
HETATM   42  C   UNL     1     -11.906   6.416  70.475  1.00  0.00    -0.248 C  
ENDBRANCH  31  33
ENDBRANCH  26  31
ENDBRANCH  22  24
ENDBRANCH   7  22
ENDBRANCH   2   3
TORSDOF 7
ENDMDL
MODEL      142
REMARK 921   NORMALIZED FREE ENERGY PREDICTED BY IDOCK:    3.30 KCAL/MOL
REMARK 922        TOTAL FREE ENERGY PREDICTED BY IDOCK:    3.34 KCAL/MOL
REMARK 923 INTER-LIGAND FREE ENERGY PREDICTED BY IDOCK:   -2.85 KCAL/MOL
REMARK 924 INTRA-LIGAND FREE ENERGY PREDICTED BY IDOCK:    6.19 KCAL/MOL
REMARK 927      BINDING AFFINITY PREDICTED BY RF-SCORE:    0.00 PKD
ROOT
HETATM    1  C   UNL     1      -7.242   9.544  69.356  1.00  0.00    -0.064 C  
HETATM    2  O   UNL     1      -6.920   9.578  67.972  1.00  0.00    -0.077 OA 
ENDROOT
BRANCH   2   3
HETATM    3  C   UNL     1      -7.838   9.097  67.056  1.00  0.00    -0.102 A  
HETATM    4  C   UNL     1      -7.884   7.759  66.584  1.00  0.00    -0.102 A  
HETATM    5  C   UNL     1      -8.825   7.314  65.633  1.00  0.00    -0.014 A  
HETATM    6  C   UNL     1      -9.732   8.307  65.197  1.00  0.00     1.130 A  
HETATM    7  C   UNL     1      -8.771  10.078  66.615  1.00  0.00    -0.129 A  
HETATM    8  C   UNL     1      -9.706   9.653  65.678  1.00  0.00    -0.363 A  
BRANCH   5   9
HETATM    9  N   UNL     1      -8.875   5.974  65.220  1.00  0.00    -0.051 NA 
HETATM   10  C   UNL     1      -9.831   5.082  65.905  1.00  0.00    -0.164 C  
HETATM   11  C   UNL     1     -10.287   3.993  64.930  1.00  0.00    -0.197 C  
HETATM   12  C   UNL     1      -9.133   3.126  64.373  1.00  0.00    -0.123 C  
HETATM   13  C   UNL     1      -8.059   4.100  63.821  1.00  0.00    -0.091 C  
HETATM   14  C   UNL     1      -7.668   5.229  64.798  1.00  0.00    -0.087 C  
BRANCH  12  15
HETATM   15  N   UNL     1      -8.509   2.114  65.275  1.00  0.00    -0.094 NA 
HETATM   16  C   UNL     1      -7.066   2.290  65.548  1.00  0.00    -0.056 C  
HETATM   17  C   UNL     1      -6.811   2.528  68.707  1.00  0.00    -0.036 C  
HETATM   18  C   UNL     1      -9.190   2.074  66.605  1.00  0.00     0.015 C  
HETATM   19  C   UNL     1      -6.705   3.479  66.473  1.00  0.00    -0.052 C  
HETATM   20  C   UNL     1      -8.838   3.243  67.572  1.00  0.00    -0.133 C  
HETATM   21  N   UNL     1      -7.398   3.488  67.774  1.00  0.00    -0.058 NA 
ENDBRANCH  12  15
ENDBRANCH   5   9
BRANCH   7  22
HETATM   22  N   UNL     1      -8.687  11.378  67.193  1.00  0.00    -0.150 NA 
HETATM   23  H   UNL     1      -9.562  11.602  67.669  1.00  0.00     0.000 HD 
BRANCH  22  24
HETATM   24  C   UNL     1      -7.788  12.448  67.317  1.00  0.00    -0.166 A  
HETATM   25 CL   UNL     1      -5.125  15.993  67.765  1.00  0.00    -0.133 Cl 
HETATM   26  C   UNL     1      -7.607  14.819  67.596  1.00  0.00    -0.174 A  
HETATM   27  C   UNL     1      -5.705  13.392  67.424  1.00  0.00     0.131 A  
HETATM   28  N   UNL     1      -6.461  12.277  67.299  1.00  0.00    -0.156 NA 
HETATM   29  C   UNL     1      -6.214  14.679  67.562  1.00  0.00     0.021 A  
HETATM   30  N   UNL     1      -8.371  13.689  67.466  1.00  0.00    -0.176 NA 
BRANCH  26  31
HETATM   31  N   UNL     1      -8.215  16.198  67.687  1.00  0.00    -0.145 NA 
HETATM   32  H   UNL     1      -9.061  16.266  68.252  1.00  0.00     0.000 HD 
BRANCH  31  33
HETATM   33  C   UNL     1      -7.756  17.473  67.069  1.00  0.00    -0.212 A  
HETATM   34  C   UNL     1      -6.435  17.441  66.604  1.00  0.00    -0.260 A  
HETATM   35  C   UNL     1      -5.877  18.532  65.957  1.00  0.00    -0.210 A  
HETATM   36  C   UNL     1      -6.647  19.679  65.730  1.00  0.00    -0.264 A  
HETATM   37  C   UNL     1      -7.987  19.790  66.153  1.00  0.00    -0.351 A  
HETATM   38  C   UNL     1      -8.598  18.733  66.830  1.00  0.00    -0.284 A  
HETATM   39  P   UNL     1     -10.312  18.922  67.445  1.00  0.00    -0.470 P  
HETATM   40  C   UNL     1     -10.845  17.310  66.619  1.00  0.00     0.049 C  
HETATM   41  O   UNL     1     -11.762  19.081  67.964  1.00  0.00     1.007 OA 
HETATM   42  C   UNL     1      -9.701  18.598  69.211  1.00  0.00    -0.053 C  
ENDBRANCH  31  33
ENDBRANCH  26  31
ENDBRANCH  22  24
ENDBRANCH   7  22
ENDBRANCH   2   3
TORSDOF 7
ENDMDL
MODEL      143
REMARK 921   NORMALIZED FREE ENERGY PREDICTED BY IDOCK:    3.82 KCAL/MOL
REMARK 922        TOTAL FREE ENERGY PREDICTED BY IDOCK:    4.08 KCAL/MOL
REMARK 923 INTER-LIGAND FREE ENERGY PREDICTED BY IDOCK:   -4.87 KCAL/MOL
REMARK 924 INTRA-LIGAND FREE ENERGY PREDICTED BY IDOCK:    8.95 KCAL/MOL
REMARK 927      BINDING AFFINITY PREDICTED BY RF-SCORE:    0.00 PKD
ROOT
HETATM    1  C   UNL     1     -11.140   8.971  67.534  1.00  0.00     0.306 C  
HETATM    2  O   UNL     1     -10.700  10.253  67.965  1.00  0.00    -0.217 OA 
ENDROOT
BRANCH   2   3
HETATM    3  C   UNL     1     -10.192  11.138  67.032  1.00  0.00    -0.215 A  
HETATM    4  C   UNL     1     -10.225  12.552  67.158  1.00  0.00    -0.225 A  
HETATM    5  C   UNL     1      -9.712  13.420  66.172  1.00  0.00    -0.250 A  
HETATM    6  C   UNL     1      -9.147  12.767  65.052  1.00  0.00     0.952 A  
HETATM    7  C   UNL     1      -9.603  10.500  65.903  1.00  0.00    -0.204 A  
HETATM    8  C   UNL     1      -9.093  11.344  64.924  1.00  0.00     0.002 A  
BRANCH   5   9
HETATM    9  N   UNL     1      -9.717  14.812  66.344  1.00  0.00    -0.275 NA 
HETATM   10  C   UNL     1      -8.426  15.473  66.617  1.00  0.00    -0.279 C  
HETATM   11  C   UNL     1      -8.463  16.896  66.054  1.00  0.00    -0.186 C  
HETATM   12  C   UNL     1      -9.589  17.777  66.646  1.00  0.00    -0.307 C  
HETATM   13  C   UNL     1     -10.911  16.977  66.507  1.00  0.00     0.191 C  
HETATM   14  C   UNL     1     -10.826  15.523  67.020  1.00  0.00    -0.314 C  
BRANCH  12  15
HETATM   15  N   UNL     1      -9.429  18.289  68.039  1.00  0.00    -0.281 NA 
HETATM   16  C   UNL     1      -8.392  17.627  68.859  1.00  0.00    -0.139 C  
HETATM   17  C   UNL     1      -6.411  19.940  69.770  1.00  0.00    -0.367 C  
HETATM   18  C   UNL     1      -9.112  19.750  68.051  1.00  0.00    -0.318 C  
HETATM   19  C   UNL     1      -6.928  17.954  68.469  1.00  0.00    -0.240 C  
HETATM   20  C   UNL     1      -7.644  20.118  67.683  1.00  0.00    -0.304 C  
HETATM   21  N   UNL     1      -6.600  19.390  68.429  1.00  0.00    -0.249 NA 
ENDBRANCH  12  15
ENDBRANCH   5   9
BRANCH   7  22
HETATM   22  N   UNL     1      -9.559   9.076  65.896  1.00  0.00    -0.338 NA 
HETATM   23  H   UNL     1     -10.428   8.705  65.512  1.00  0.00     0.000 HD 
BRANCH  22  24
HETATM   24  C   UNL     1      -8.703   8.021  66.247  1.00  0.00    -0.153 A  
HETATM   25 CL   UNL     1      -5.929   4.795  67.570  1.00  0.00    -0.022 Cl 
HETATM   26  C   UNL     1      -7.025   7.307  67.798  1.00  0.00    -0.076 A  
HETATM   27  C   UNL     1      -7.794   5.934  66.007  1.00  0.00    -0.105 A  
HETATM   28  N   UNL     1      -8.666   6.869  65.567  1.00  0.00    -0.083 NA 
HETATM   29  C   UNL     1      -6.946   6.097  67.099  1.00  0.00    -0.068 A  
HETATM   30  N   UNL     1      -7.907   8.255  67.349  1.00  0.00    -0.105 NA 
BRANCH  26  31
HETATM   31  N   UNL     1      -6.089   7.561  68.956  1.00  0.00    -0.033 NA 
HETATM   32  H   UNL     1      -5.177   7.942  68.705  1.00  0.00     0.000 HD 
BRANCH  31  33
HETATM   33  C   UNL     1      -6.307   7.334  70.411  1.00  0.00    -0.035 A  
HETATM   34  C   UNL     1      -5.125   7.193  71.152  1.00  0.00    -0.027 A  
HETATM   35  C   UNL     1      -5.158   7.028  72.527  1.00  0.00    -0.036 A  
HETATM   36  C   UNL     1      -6.385   7.035  73.203  1.00  0.00    -0.061 A  
HETATM   37  C   UNL     1      -7.617   7.184  72.537  1.00  0.00    -0.089 A  
HETATM   38  C   UNL     1      -7.652   7.331  71.149  1.00  0.00    -0.080 A  
HETATM   39  P   UNL     1      -9.264   7.443  70.290  1.00  0.00    -0.152 P  
HETATM   40  C   UNL     1      -8.735   9.012  69.384  1.00  0.00    -0.142 C  
HETATM   41  O   UNL     1     -10.627   7.538  69.563  1.00  0.00    -0.233 OA 
HETATM   42  C   UNL     1      -8.817   5.903  69.277  1.00  0.00    -0.118 C  
ENDBRANCH  31  33
ENDBRANCH  26  31
ENDBRANCH  22  24
ENDBRANCH   7  22
ENDBRANCH   2   3
TORSDOF 7
ENDMDL
MODEL      144
REMARK 921   NORMALIZED FREE ENERGY PREDICTED BY IDOCK:    4.58 KCAL/MOL
REMARK 922        TOTAL FREE ENERGY PREDICTED BY IDOCK:    5.15 KCAL/MOL
REMARK 923 INTER-LIGAND FREE ENERGY PREDICTED BY IDOCK:    2.03 KCAL/MOL
REMARK 924 INTRA-LIGAND FREE ENERGY PREDICTED BY IDOCK:    3.11 KCAL/MOL
REMARK 927      BINDING AFFINITY PREDICTED BY RF-SCORE:    0.00 PKD
ROOT
HETATM    1  C   UNL     1      -5.759  10.496  73.511  1.00  0.00     1.067 C  
HETATM    2  O   UNL     1      -6.043  10.657  72.127  1.00  0.00     0.281 OA 
ENDROOT
BRANCH   2   3
HETATM    3  C   UNL     1      -5.964   9.558  71.292  1.00  0.00    -0.069 A  
HETATM    4  C   UNL     1      -6.268   8.225  71.680  1.00  0.00    -0.047 A  
HETATM    5  C   UNL     1      -6.155   7.128  70.801  1.00  0.00    -0.035 A  
HETATM    6  C   UNL     1      -5.729   7.464  69.495  1.00  0.00    -0.023 A  
HETATM    7  C   UNL     1      -5.552   9.876  69.967  1.00  0.00    -0.042 A  
HETATM    8  C   UNL     1      -5.438   8.804  69.090  1.00  0.00    -0.036 A  
BRANCH   5   9
HETATM    9  N   UNL     1      -6.506   5.830  71.199  1.00  0.00    -0.039 NA 
HETATM   10  C   UNL     1      -5.766   4.704  70.595  1.00  0.00    -0.016 C  
HETATM   11  C   UNL     1      -5.714   3.545  71.594  1.00  0.00    -0.009 C  
HETATM   12  C   UNL     1      -7.106   3.027  72.027  1.00  0.00    -0.038 C  
HETATM   13  C   UNL     1      -7.926   4.261  72.489  1.00  0.00    -0.088 C  
HETATM   14  C   UNL     1      -7.904   5.442  71.494  1.00  0.00    -0.110 C  
BRANCH  12  15
HETATM   15  N   UNL     1      -7.891   2.210  71.056  1.00  0.00    -0.045 NA 
HETATM   16  C   UNL     1      -9.252   2.700  70.746  1.00  0.00    -0.133 C  
HETATM   17  C   UNL     1      -9.319   3.120  67.597  1.00  0.00    -0.200 C  
HETATM   18  C   UNL     1      -7.179   2.082  69.748  1.00  0.00    -0.036 C  
HETATM   19  C   UNL     1      -9.315   3.977  69.870  1.00  0.00    -0.170 C  
HETATM   20  C   UNL     1      -7.236   3.338  68.830  1.00  0.00    -0.049 C  
HETATM   21  N   UNL     1      -8.582   3.893  68.594  1.00  0.00    -0.090 NA 
ENDBRANCH  12  15
ENDBRANCH   5   9
BRANCH   7  22
HETATM   22  N   UNL     1      -5.333  11.249  69.654  1.00  0.00    -0.045 NA 
HETATM   23  H   UNL     1      -4.510  11.590  70.153  1.00  0.00     0.000 HD 
BRANCH  22  24
HETATM   24  C   UNL     1      -5.885  12.282  68.881  1.00  0.00    -0.062 A  
HETATM   25 CL   UNL     1      -7.861  15.494  66.509  1.00  0.00    -0.067 Cl 
HETATM   26  C   UNL     1      -7.929  13.247  68.093  1.00  0.00    -0.150 A  
HETATM   27  C   UNL     1      -5.786  14.135  67.540  1.00  0.00     0.127 A  
HETATM   28  N   UNL     1      -5.130  13.193  68.257  1.00  0.00    -0.079 NA 
HETATM   29  C   UNL     1      -7.170  14.206  67.412  1.00  0.00    -0.101 A  
HETATM   30  N   UNL     1      -7.262  12.292  68.816  1.00  0.00    -0.109 NA 
BRANCH  26  31
HETATM   31  N   UNL     1      -9.431  13.242  67.943  1.00  0.00    -0.207 NA 
HETATM   32  H   UNL     1      -9.815  12.458  67.418  1.00  0.00     0.000 HD 
BRANCH  31  33
HETATM   33  C   UNL     1     -10.433  14.219  68.454  1.00  0.00    -0.249 A  
HETATM   34  C   UNL     1     -10.149  15.553  68.129  1.00  0.00    -0.218 A  
HETATM   35  C   UNL     1     -11.012  16.575  68.487  1.00  0.00    -0.350 A  
HETATM   36  C   UNL     1     -12.206  16.281  69.155  1.00  0.00     0.414 A  
HETATM   37  C   UNL     1     -12.575  14.968  69.508  1.00  0.00    -0.027 A  
HETATM   38  C   UNL     1     -11.736  13.896  69.195  1.00  0.00    -0.338 A  
HETATM   39  P   UNL     1     -12.189  12.205  69.731  1.00  0.00     0.008 P  
HETATM   40  C   UNL     1     -11.952  11.529  67.984  1.00  0.00    -0.104 C  
HETATM   41  O   UNL     1     -12.572  10.775  70.184  1.00  0.00    -0.327 OA 
HETATM   42  C   UNL     1     -10.571  12.097  70.715  1.00  0.00     3.844 C  
ENDBRANCH  31  33
ENDBRANCH  26  31
ENDBRANCH  22  24
ENDBRANCH   7  22
ENDBRANCH   2   3
TORSDOF 7
ENDMDL
MODEL      145
REMARK 921   NORMALIZED FREE ENERGY PREDICTED BY IDOCK:    4.88 KCAL/MOL
REMARK 922        TOTAL FREE ENERGY PREDICTED BY IDOCK:    5.57 KCAL/MOL
REMARK 923 INTER-LIGAND FREE ENERGY PREDICTED BY IDOCK:   -0.72 KCAL/MOL
REMARK 924 INTRA-LIGAND FREE ENERGY PREDICTED BY IDOCK:    6.29 KCAL/MOL
REMARK 927      BINDING AFFINITY PREDICTED BY RF-SCORE:    0.00 PKD
ROOT
HETATM    1  C   UNL     1      -7.115  11.149  71.006  1.00  0.00     2.628 C  
HETATM    2  O   UNL     1      -7.590  11.846  69.861  1.00  0.00     0.663 OA 
ENDROOT
BRANCH   2   3
HETATM    3  C   UNL     1      -8.076  11.123  68.787  1.00  0.00    -0.140 A  
HETATM    4  C   UNL     1      -7.393  10.047  68.162  1.00  0.00    -0.083 A  
HETATM    5  C   UNL     1      -7.916   9.347  67.055  1.00  0.00    -0.102 A  
HETATM    6  C   UNL     1      -9.187   9.795  66.626  1.00  0.00    -0.184 A  
HETATM    7  C   UNL     1      -9.363  11.547  68.350  1.00  0.00    -0.194 A  
HETATM    8  C   UNL     1      -9.892  10.865  67.260  1.00  0.00    -0.202 A  
BRANCH   5   9
HETATM    9  N   UNL     1      -7.239   8.259  66.486  1.00  0.00    -0.076 NA 
HETATM   10  C   UNL     1      -7.883   6.933  66.567  1.00  0.00    -0.106 C  
HETATM   11  C   UNL     1      -7.462   6.097  65.355  1.00  0.00    -0.083 C  
HETATM   12  C   UNL     1      -5.934   5.883  65.240  1.00  0.00    -0.025 C  
HETATM   13  C   UNL     1      -5.271   7.282  65.340  1.00  0.00    -0.028 C  
HETATM   14  C   UNL     1      -5.764   8.132  66.531  1.00  0.00    -0.040 C  
BRANCH  12  15
HETATM   15  N   UNL     1      -5.281   4.925  66.179  1.00  0.00    -0.008 NA 
HETATM   16  C   UNL     1      -5.941   4.750  67.491  1.00  0.00    -0.023 C  
HETATM   17  C   UNL     1      -6.585   1.646  67.722  1.00  0.00    -0.028 C  
HETATM   18  C   UNL     1      -5.165   3.562  65.577  1.00  0.00    -0.009 C  
HETATM   19  C   UNL     1      -7.274   3.962  67.464  1.00  0.00    -0.067 C  
HETATM   20  C   UNL     1      -6.482   2.730  65.549  1.00  0.00    -0.028 C  
HETATM   21  N   UNL     1      -7.199   2.631  66.834  1.00  0.00    -0.056 NA 
ENDBRANCH  12  15
ENDBRANCH   5   9
BRANCH   7  22
HETATM   22  N   UNL     1      -9.999  12.592  69.080  1.00  0.00    -0.331 NA 
HETATM   23  H   UNL     1     -10.601  12.194  69.802  1.00  0.00     0.000 HD 
BRANCH  22  24
HETATM   24  C   UNL     1     -10.063  13.993  69.126  1.00  0.00     0.036 A  
HETATM   25 CL   UNL     1     -10.202  18.446  69.031  1.00  0.00    -0.320 Cl 
HETATM   26  C   UNL     1      -9.601  16.006  67.914  1.00  0.00    -0.219 A  
HETATM   27  C   UNL     1     -10.550  16.007  70.101  1.00  0.00    -0.266 A  
HETATM   28  N   UNL     1     -10.547  14.656  70.182  1.00  0.00     0.041 NA 
HETATM   29  C   UNL     1     -10.084  16.732  69.009  1.00  0.00    -0.283 A  
HETATM   30  N   UNL     1      -9.596  14.638  67.999  1.00  0.00    -0.207 NA 
BRANCH  26  31
HETATM   31  N   UNL     1      -9.030  16.741  66.725  1.00  0.00    -0.226 NA 
HETATM   32  H   UNL     1      -9.670  16.868  65.941  1.00  0.00     0.000 HD 
BRANCH  31  33
HETATM   33  C   UNL     1      -7.667  17.308  66.534  1.00  0.00    -0.290 A  
HETATM   34  C   UNL     1      -7.618  18.399  65.655  1.00  0.00     0.073 A  
HETATM   35  C   UNL     1      -6.431  19.070  65.412  1.00  0.00    -0.308 A  
HETATM   36  C   UNL     1      -5.260  18.681  66.075  1.00  0.00    -0.179 A  
HETATM   37  C   UNL     1      -5.223  17.605  66.983  1.00  0.00    -0.161 A  
HETATM   38  C   UNL     1      -6.383  16.875  67.253  1.00  0.00    -0.171 A  
HETATM   39  P   UNL     1      -6.303  15.429  68.372  1.00  0.00    -0.128 P  
HETATM   40  C   UNL     1      -7.741  16.081  69.407  1.00  0.00    -0.173 C  
HETATM   41  O   UNL     1      -6.235  14.207  69.320  1.00  0.00    -0.092 OA 
HETATM   42  C   UNL     1      -6.936  14.322  66.969  1.00  0.00     0.669 C  
ENDBRANCH  31  33
ENDBRANCH  26  31
ENDBRANCH  22  24
ENDBRANCH   7  22
ENDBRANCH   2   3
TORSDOF 7
ENDMDL
MODEL      146
REMARK 921   NORMALIZED FREE ENERGY PREDICTED BY IDOCK:    6.22 KCAL/MOL
REMARK 922        TOTAL FREE ENERGY PREDICTED BY IDOCK:    7.46 KCAL/MOL
REMARK 923 INTER-LIGAND FREE ENERGY PREDICTED BY IDOCK:    1.47 KCAL/MOL
REMARK 924 INTRA-LIGAND FREE ENERGY PREDICTED BY IDOCK:    5.99 KCAL/MOL
REMARK 927      BINDING AFFINITY PREDICTED BY RF-SCORE:    0.00 PKD
ROOT
HETATM    1  C   UNL     1      -7.118  11.153  71.021  1.00  0.00     2.628 C  
HETATM    2  O   UNL     1      -7.646  11.883  69.920  1.00  0.00     0.663 OA 
ENDROOT
BRANCH   2   3
HETATM    3  C   UNL     1      -8.184  11.191  68.851  1.00  0.00    -0.104 A  
HETATM    4  C   UNL     1      -7.519  10.156  68.141  1.00  0.00    -0.083 A  
HETATM    5  C   UNL     1      -8.096   9.489  67.041  1.00  0.00    -0.113 A  
HETATM    6  C   UNL     1      -9.401   9.924  66.711  1.00  0.00    -0.187 A  
HETATM    7  C   UNL     1      -9.504  11.602  68.512  1.00  0.00    -0.173 A  
HETATM    8  C   UNL     1     -10.086  10.952  67.430  1.00  0.00    -0.223 A  
BRANCH   5   9
HETATM    9  N   UNL     1      -7.434   8.439  66.388  1.00  0.00    -0.083 NA 
HETATM   10  C   UNL     1      -8.044   7.097  66.455  1.00  0.00    -0.114 C  
HETATM   11  C   UNL     1      -7.683   6.319  65.187  1.00  0.00    -0.099 C  
HETATM   12  C   UNL     1      -6.162   6.145  64.968  1.00  0.00    -0.030 C  
HETATM   13  C   UNL     1      -5.523   7.555  65.082  1.00  0.00    -0.033 C  
HETATM   14  C   UNL     1      -5.957   8.345  66.335  1.00  0.00    -0.048 C  
BRANCH  12  15
HETATM   15  N   UNL     1      -5.430   5.167  65.825  1.00  0.00    -0.013 NA 
HETATM   16  C   UNL     1      -6.000   4.927  67.168  1.00  0.00    -0.027 C  
HETATM   17  C   UNL     1      -6.567   1.804  67.318  1.00  0.00    -0.028 C  
HETATM   18  C   UNL     1      -5.327   3.831  65.163  1.00  0.00    -0.009 C  
HETATM   19  C   UNL     1      -7.317   4.112  67.195  1.00  0.00    -0.069 C  
HETATM   20  C   UNL     1      -6.626   2.971  65.187  1.00  0.00    -0.036 C  
HETATM   21  N   UNL     1      -7.256   2.808  66.510  1.00  0.00    -0.064 NA 
ENDBRANCH  12  15
ENDBRANCH   5   9
BRANCH   7  22
HETATM   22  N   UNL     1     -10.114  12.603  69.322  1.00  0.00    -0.231 NA 
HETATM   23  H   UNL     1     -10.669  12.162  70.057  1.00  0.00     0.000 HD 
BRANCH  22  24
HETATM   24  C   UNL     1     -10.197  13.999  69.434  1.00  0.00     0.199 A  
HETATM   25 CL   UNL     1     -10.405  18.449  69.548  1.00  0.00     0.192 Cl 
HETATM   26  C   UNL     1      -9.825  16.071  68.294  1.00  0.00    -0.219 A  
HETATM   27  C   UNL     1     -10.664  15.959  70.522  1.00  0.00    -0.188 A  
HETATM   28  N   UNL     1     -10.637  14.606  70.542  1.00  0.00     0.219 NA 
HETATM   29  C   UNL     1     -10.263  16.739  69.443  1.00  0.00    -0.225 A  
HETATM   30  N   UNL     1      -9.795  14.701  68.317  1.00  0.00    -0.216 NA 
BRANCH  26  31
HETATM   31  N   UNL     1      -9.324  16.868  67.113  1.00  0.00    -0.231 NA 
HETATM   32  H   UNL     1      -9.999  17.007  66.362  1.00  0.00     0.000 HD 
BRANCH  31  33
HETATM   33  C   UNL     1      -7.986  17.481  66.889  1.00  0.00    -0.226 A  
HETATM   34  C   UNL     1      -7.053  16.618  66.296  1.00  0.00     0.018 A  
HETATM   35  C   UNL     1      -5.778  17.054  65.975  1.00  0.00     0.420 A  
HETATM   36  C   UNL     1      -5.414  18.385  66.211  1.00  0.00    -0.184 A  
HETATM   37  C   UNL     1      -6.294  19.321  66.790  1.00  0.00    -0.190 A  
HETATM   38  C   UNL     1      -7.585  18.937  67.157  1.00  0.00    -0.229 A  
HETATM   39  P   UNL     1      -8.689  20.141  67.982  1.00  0.00     0.013 P  
HETATM   40  C   UNL     1     -10.076  19.799  66.748  1.00  0.00    -0.444 C  
HETATM   41  O   UNL     1      -9.623  21.160  68.680  1.00  0.00     0.839 OA 
HETATM   42  C   UNL     1      -8.821  18.980  69.475  1.00  0.00     0.393 C  
ENDBRANCH  31  33
ENDBRANCH  26  31
ENDBRANCH  22  24
ENDBRANCH   7  22
ENDBRANCH   2   3
TORSDOF 7
ENDMDL
MODEL      147
REMARK 921   NORMALIZED FREE ENERGY PREDICTED BY IDOCK:    6.23 KCAL/MOL
REMARK 922        TOTAL FREE ENERGY PREDICTED BY IDOCK:    7.47 KCAL/MOL
REMARK 923 INTER-LIGAND FREE ENERGY PREDICTED BY IDOCK:    3.06 KCAL/MOL
REMARK 924 INTRA-LIGAND FREE ENERGY PREDICTED BY IDOCK:    4.41 KCAL/MOL
REMARK 927      BINDING AFFINITY PREDICTED BY RF-SCORE:    0.00 PKD
ROOT
HETATM    1  C   UNL     1      -5.562  13.216  74.342  1.00  0.00     0.279 C  
HETATM    2  O   UNL     1      -6.065  13.213  73.011  1.00  0.00     0.702 OA 
ENDROOT
BRANCH   2   3
HETATM    3  C   UNL     1      -5.953  12.062  72.253  1.00  0.00     2.272 A  
HETATM    4  C   UNL     1      -6.168  10.747  72.744  1.00  0.00     2.508 A  
HETATM    5  C   UNL     1      -6.023   9.596  71.942  1.00  0.00     0.139 A  
HETATM    6  C   UNL     1      -5.661   9.859  70.600  1.00  0.00    -0.062 A  
HETATM    7  C   UNL     1      -5.604  12.305  70.894  1.00  0.00    -0.099 A  
HETATM    8  C   UNL     1      -5.460  11.180  70.091  1.00  0.00    -0.089 A  
BRANCH   5   9
HETATM    9  N   UNL     1      -6.287   8.313  72.442  1.00  0.00    -0.068 NA 
HETATM   10  C   UNL     1      -5.135   7.427  72.698  1.00  0.00    -0.037 C  
HETATM   11  C   UNL     1      -5.478   6.479  73.850  1.00  0.00    -0.046 C  
HETATM   12  C   UNL     1      -6.717   5.591  73.585  1.00  0.00    -0.079 C  
HETATM   13  C   UNL     1      -7.866   6.537  73.143  1.00  0.00    -0.100 C  
HETATM   14  C   UNL     1      -7.473   7.529  72.027  1.00  0.00    -0.080 C  
BRANCH  12  15
HETATM   15  N   UNL     1      -6.581   4.451  72.633  1.00  0.00    -0.043 NA 
HETATM   16  C   UNL     1      -7.841   3.793  72.223  1.00  0.00    -0.068 C  
HETATM   17  C   UNL     1      -7.932   4.003  69.054  1.00  0.00    -0.056 C  
HETATM   18  C   UNL     1      -5.894   4.870  71.373  1.00  0.00    -0.016 C  
HETATM   19  C   UNL     1      -8.738   4.613  71.263  1.00  0.00    -0.118 C  
HETATM   20  C   UNL     1      -6.769   5.681  70.372  1.00  0.00    -0.048 C  
HETATM   21  N   UNL     1      -8.071   5.078  70.033  1.00  0.00    -0.074 NA 
ENDBRANCH  12  15
ENDBRANCH   5   9
BRANCH   7  22
HETATM   22  N   UNL     1      -5.473  13.661  70.478  1.00  0.00    -0.126 NA 
HETATM   23  H   UNL     1      -4.658  14.083  70.924  1.00  0.00     0.000 HD 
BRANCH  22  24
HETATM   24  C   UNL     1      -6.104  14.603  69.651  1.00  0.00    -0.121 A  
HETATM   25 CL   UNL     1      -8.313  17.568  67.163  1.00  0.00    -0.224 Cl 
HETATM   26  C   UNL     1      -8.192  15.654  69.135  1.00  0.00    -0.248 A  
HETATM   27  C   UNL     1      -6.170  16.171  67.983  1.00  0.00    -0.128 A  
HETATM   28  N   UNL     1      -5.443  15.296  68.716  1.00  0.00    -0.089 NA 
HETATM   29  C   UNL     1      -7.537  16.383  68.136  1.00  0.00    -0.155 A  
HETATM   30  N   UNL     1      -7.455  14.766  69.874  1.00  0.00    -0.042 NA 
BRANCH  26  31
HETATM   31  N   UNL     1      -9.685  15.802  69.307  1.00  0.00    -0.247 NA 
HETATM   32  H   UNL     1     -10.121  16.528  68.740  1.00  0.00     0.000 HD 
BRANCH  31  33
HETATM   33  C   UNL     1     -10.613  15.038  70.186  1.00  0.00    -0.127 A  
HETATM   34  C   UNL     1     -11.129  15.781  71.257  1.00  0.00    -0.264 A  
HETATM   35  C   UNL     1     -12.046  15.228  72.135  1.00  0.00    -0.477 A  
HETATM   36  C   UNL     1     -12.498  13.917  71.941  1.00  0.00    -0.249 A  
HETATM   37  C   UNL     1     -12.041  13.106  70.884  1.00  0.00    -0.209 A  
HETATM   38  C   UNL     1     -11.099  13.598  69.979  1.00  0.00     0.238 A  
HETATM   39  P   UNL     1     -10.455  12.506  68.659  1.00  0.00    -0.100 P  
HETATM   40  C   UNL     1     -10.842  13.790  67.330  1.00  0.00    -0.277 C  
HETATM   41  O   UNL     1      -9.910  11.582  67.542  1.00  0.00    -0.186 OA 
HETATM   42  C   UNL     1      -8.699  12.749  69.332  1.00  0.00     1.278 C  
ENDBRANCH  31  33
ENDBRANCH  26  31
ENDBRANCH  22  24
ENDBRANCH   7  22
ENDBRANCH   2   3
TORSDOF 7
ENDMDL
MODEL      148
REMARK 921   NORMALIZED FREE ENERGY PREDICTED BY IDOCK:    6.44 KCAL/MOL
REMARK 922        TOTAL FREE ENERGY PREDICTED BY IDOCK:    7.76 KCAL/MOL
REMARK 923 INTER-LIGAND FREE ENERGY PREDICTED BY IDOCK:    3.68 KCAL/MOL
REMARK 924 INTRA-LIGAND FREE ENERGY PREDICTED BY IDOCK:    4.08 KCAL/MOL
REMARK 927      BINDING AFFINITY PREDICTED BY RF-SCORE:    0.00 PKD
ROOT
HETATM    1  C   UNL     1      -5.560  13.218  74.351  1.00  0.00     0.196 C  
HETATM    2  O   UNL     1      -6.025  13.300  73.010  1.00  0.00     0.210 OA 
ENDROOT
BRANCH   2   3
HETATM    3  C   UNL     1      -5.927  12.187  72.195  1.00  0.00     2.089 A  
HETATM    4  C   UNL     1      -6.243  10.862  72.596  1.00  0.00     2.627 A  
HETATM    5  C   UNL     1      -6.110   9.750  71.739  1.00  0.00     0.216 A  
HETATM    6  C   UNL     1      -5.649  10.064  70.439  1.00  0.00    -0.056 A  
HETATM    7  C   UNL     1      -5.480  12.483  70.876  1.00  0.00    -0.156 A  
HETATM    8  C   UNL     1      -5.345  11.397  70.020  1.00  0.00    -0.075 A  
BRANCH   5   9
HETATM    9  N   UNL     1      -6.473   8.459  72.148  1.00  0.00    -0.069 NA 
HETATM   10  C   UNL     1      -5.389   7.496  72.423  1.00  0.00    -0.036 C  
HETATM   11  C   UNL     1      -5.856   6.509  73.496  1.00  0.00    -0.054 C  
HETATM   12  C   UNL     1      -7.121   5.709  73.104  1.00  0.00    -0.086 C  
HETATM   13  C   UNL     1      -8.187   6.740  72.646  1.00  0.00    -0.109 C  
HETATM   14  C   UNL     1      -7.669   7.767  71.616  1.00  0.00    -0.088 C  
BRANCH  12  15
HETATM   15  N   UNL     1      -6.984   4.615  72.099  1.00  0.00    -0.058 NA 
HETATM   16  C   UNL     1      -8.247   4.055  71.572  1.00  0.00    -0.078 C  
HETATM   17  C   UNL     1      -8.114   4.440  68.420  1.00  0.00    -0.082 C  
HETATM   18  C   UNL     1      -6.192   5.060  70.912  1.00  0.00    -0.019 C  
HETATM   19  C   UNL     1      -9.032   4.977  70.605  1.00  0.00    -0.131 C  
HETATM   20  C   UNL     1      -6.951   5.974  69.905  1.00  0.00    -0.070 C  
HETATM   21  N   UNL     1      -8.260   5.467  69.450  1.00  0.00    -0.097 NA 
ENDBRANCH  12  15
ENDBRANCH   5   9
BRANCH   7  22
HETATM   22  N   UNL     1      -5.250  13.850  70.547  1.00  0.00    -0.101 NA 
HETATM   23  H   UNL     1      -4.431  14.194  71.050  1.00  0.00     0.000 HD 
BRANCH  22  24
HETATM   24  C   UNL     1      -5.788  14.875  69.753  1.00  0.00    -0.116 A  
HETATM   25 CL   UNL     1      -7.705  17.998  67.219  1.00  0.00    -0.215 Cl 
HETATM   26  C   UNL     1      -7.645  15.506  68.381  1.00  0.00    -0.116 A  
HETATM   27  C   UNL     1      -5.788  16.947  68.779  1.00  0.00    -0.143 A  
HETATM   28  N   UNL     1      -5.164  16.045  69.571  1.00  0.00    -0.109 NA 
HETATM   29  C   UNL     1      -7.012  16.734  68.153  1.00  0.00    -0.157 A  
HETATM   30  N   UNL     1      -7.010  14.592  69.180  1.00  0.00    -0.125 NA 
BRANCH  26  31
HETATM   31  N   UNL     1      -8.947  15.198  67.681  1.00  0.00    -0.177 NA 
HETATM   32  H   UNL     1      -9.350  15.969  67.149  1.00  0.00     0.000 HD 
BRANCH  31  33
HETATM   33  C   UNL     1      -9.727  13.930  67.657  1.00  0.00    -0.226 A  
HETATM   34  C   UNL     1      -9.568  13.182  66.481  1.00  0.00    -0.268 A  
HETATM   35  C   UNL     1     -10.187  11.953  66.326  1.00  0.00    -0.247 A  
HETATM   36  C   UNL     1     -10.958  11.422  67.367  1.00  0.00    -0.326 A  
HETATM   37  C   UNL     1     -11.158  12.100  68.586  1.00  0.00    -0.297 A  
HETATM   38  C   UNL     1     -10.580  13.354  68.794  1.00  0.00    -0.210 A  
HETATM   39  P   UNL     1     -10.914  14.259  70.349  1.00  0.00     0.655 P  
HETATM   40  C   UNL     1      -9.071  14.531  70.652  1.00  0.00     2.482 C  
HETATM   41  O   UNL     1     -11.197  15.024  71.665  1.00  0.00    -0.333 OA 
HETATM   42  C   UNL     1     -11.645  15.691  69.344  1.00  0.00    -0.370 C  
ENDBRANCH  31  33
ENDBRANCH  26  31
ENDBRANCH  22  24
ENDBRANCH   7  22
ENDBRANCH   2   3
TORSDOF 7
ENDMDL
MODEL      149
REMARK 921   NORMALIZED FREE ENERGY PREDICTED BY IDOCK:    6.71 KCAL/MOL
REMARK 922        TOTAL FREE ENERGY PREDICTED BY IDOCK:    8.14 KCAL/MOL
REMARK 923 INTER-LIGAND FREE ENERGY PREDICTED BY IDOCK:    2.76 KCAL/MOL
REMARK 924 INTRA-LIGAND FREE ENERGY PREDICTED BY IDOCK:    5.38 KCAL/MOL
REMARK 927      BINDING AFFINITY PREDICTED BY RF-SCORE:    0.00 PKD
ROOT
HETATM    1  C   UNL     1     -10.355  10.165  72.554  1.00  0.00     5.466 C  
HETATM    2  O   UNL     1     -11.033  10.091  71.306  1.00  0.00    -0.264 OA 
ENDROOT
BRANCH   2   3
HETATM    3  C   UNL     1     -10.352  10.421  70.149  1.00  0.00    -0.056 A  
HETATM    4  C   UNL     1     -10.098  11.748  69.711  1.00  0.00     1.064 A  
HETATM    5  C   UNL     1      -9.416  12.041  68.512  1.00  0.00    -0.133 A  
HETATM    6  C   UNL     1      -8.989  10.904  67.788  1.00  0.00    -0.139 A  
HETATM    7  C   UNL     1      -9.898   9.290  69.412  1.00  0.00    -0.174 A  
HETATM    8  C   UNL     1      -9.223   9.564  68.229  1.00  0.00    -0.132 A  
BRANCH   5   9
HETATM    9  N   UNL     1      -9.140  13.361  68.128  1.00  0.00    -0.203 NA 
HETATM   10  C   UNL     1      -8.731  14.311  69.182  1.00  0.00     0.165 C  
HETATM   11  C   UNL     1      -7.804  15.366  68.572  1.00  0.00    -0.134 C  
HETATM   12  C   UNL     1      -8.446  16.175  67.420  1.00  0.00    -0.170 C  
HETATM   13  C   UNL     1      -9.028  15.147  66.414  1.00  0.00    -0.314 C  
HETATM   14  C   UNL     1      -9.902  14.052  67.063  1.00  0.00    -0.260 C  
BRANCH  12  15
HETATM   15  N   UNL     1      -9.467  17.208  67.762  1.00  0.00    -0.250 NA 
HETATM   16  C   UNL     1      -9.104  18.145  68.848  1.00  0.00    -0.133 C  
HETATM   17  C   UNL     1      -9.297  21.052  67.579  1.00  0.00    -0.054 C  
HETATM   18  C   UNL     1      -9.812  18.050  66.575  1.00  0.00    -0.353 C  
HETATM   19  C   UNL     1      -8.022  19.193  68.488  1.00  0.00    -0.351 C  
HETATM   20  C   UNL     1      -8.757  19.130  66.192  1.00  0.00    -0.219 C  
HETATM   21  N   UNL     1      -8.316  20.006  67.294  1.00  0.00    -0.321 NA 
ENDBRANCH  12  15
ENDBRANCH   5   9
BRANCH   7  22
HETATM   22  N   UNL     1     -10.143   8.000  69.964  1.00  0.00    -0.193 NA 
HETATM   23  H   UNL     1     -10.849   8.065  70.698  1.00  0.00     0.000 HD 
BRANCH  22  24
HETATM   24  C   UNL     1      -9.724   6.667  69.822  1.00  0.00    -0.159 A  
HETATM   25 CL   UNL     1      -8.237   2.514  69.196  1.00  0.00    -0.067 Cl 
HETATM   26  C   UNL     1      -8.389   5.174  68.512  1.00  0.00    -0.089 A  
HETATM   27  C   UNL     1      -9.647   4.455  70.405  1.00  0.00    -0.196 A  
HETATM   28  N   UNL     1     -10.119   5.698  70.655  1.00  0.00    -0.198 NA 
HETATM   29  C   UNL     1      -8.796   4.131  69.353  1.00  0.00    -0.094 A  
HETATM   30  N   UNL     1      -8.871   6.431  68.764  1.00  0.00    -0.125 NA 
BRANCH  26  31
HETATM   31  N   UNL     1      -7.513   4.871  67.320  1.00  0.00    -0.082 NA 
HETATM   32  H   UNL     1      -6.515   5.027  67.460  1.00  0.00     0.000 HD 
BRANCH  31  33
HETATM   33  C   UNL     1      -7.897   4.376  65.969  1.00  0.00    -0.095 A  
HETATM   34  C   UNL     1      -6.882   3.672  65.306  1.00  0.00    -0.052 A  
HETATM   35  C   UNL     1      -7.101   3.103  64.063  1.00  0.00    -0.049 A  
HETATM   36  C   UNL     1      -8.362   3.198  63.462  1.00  0.00    -0.086 A  
HETATM   37  C   UNL     1      -9.440   3.876  64.064  1.00  0.00    -0.157 A  
HETATM   38  C   UNL     1      -9.276   4.490  65.307  1.00  0.00    -0.156 A  
HETATM   39  P   UNL     1     -10.661   5.435  66.040  1.00  0.00     0.328 P  
HETATM   40  C   UNL     1     -10.517   4.492  67.669  1.00  0.00     0.315 C  
HETATM   41  O   UNL     1     -11.834   6.235  66.660  1.00  0.00     0.717 OA 
HETATM   42  C   UNL     1      -9.572   6.987  66.067  1.00  0.00     0.160 C  
ENDBRANCH  31  33
ENDBRANCH  26  31
ENDBRANCH  22  24
ENDBRANCH   7  22
ENDBRANCH   2   3
TORSDOF 7
ENDMDL
MODEL      150
REMARK 921   NORMALIZED FREE ENERGY PREDICTED BY IDOCK:    7.15 KCAL/MOL
REMARK 922        TOTAL FREE ENERGY PREDICTED BY IDOCK:    8.76 KCAL/MOL
REMARK 923 INTER-LIGAND FREE ENERGY PREDICTED BY IDOCK:    2.99 KCAL/MOL
REMARK 924 INTRA-LIGAND FREE ENERGY PREDICTED BY IDOCK:    5.77 KCAL/MOL
REMARK 927      BINDING AFFINITY PREDICTED BY RF-SCORE:    0.00 PKD
ROOT
HETATM    1  C   UNL     1     -11.177  13.292  68.476  1.00  0.00    -0.271 C  
HETATM    2  O   UNL     1     -10.989  12.008  69.056  1.00  0.00    -0.225 OA 
ENDROOT
BRANCH   2   3
HETATM    3  C   UNL     1     -10.116  11.120  68.455  1.00  0.00    -0.184 A  
HETATM    4  C   UNL     1     -10.236   9.706  68.509  1.00  0.00    -0.216 A  
HETATM    5  C   UNL     1      -9.311   8.834  67.898  1.00  0.00    -0.142 A  
HETATM    6  C   UNL     1      -8.259   9.484  67.211  1.00  0.00    -0.114 A  
HETATM    7  C   UNL     1      -9.057  11.754  67.744  1.00  0.00    -0.178 A  
HETATM    8  C   UNL     1      -8.139  10.907  67.135  1.00  0.00    -0.127 A  
BRANCH   5   9
HETATM    9  N   UNL     1      -9.481   7.443  67.930  1.00  0.00    -0.140 NA 
HETATM   10  C   UNL     1     -10.390   6.886  68.951  1.00  0.00    -0.189 C  
HETATM   11  C   UNL     1     -11.017   5.597  68.413  1.00  0.00    -0.038 C  
HETATM   12  C   UNL     1      -9.987   4.505  68.041  1.00  0.00    -0.037 C  
HETATM   13  C   UNL     1      -8.939   5.169  67.108  1.00  0.00    -0.112 C  
HETATM   14  C   UNL     1      -8.374   6.503  67.641  1.00  0.00    -0.121 C  
BRANCH  12  15
HETATM   15  N   UNL     1      -9.310   3.764  69.144  1.00  0.00    -0.161 NA 
HETATM   16  C   UNL     1      -8.563   4.589  70.119  1.00  0.00    -0.077 C  
HETATM   17  C   UNL     1      -9.830   3.926  72.957  1.00  0.00    -0.131 C  
HETATM   18  C   UNL     1     -10.284   2.952  69.936  1.00  0.00     1.252 C  
HETATM   19  C   UNL     1      -9.436   5.427  71.087  1.00  0.00    -0.156 C  
HETATM   20  C   UNL     1     -11.168   3.756  70.935  1.00  0.00     3.579 C  
HETATM   21  N   UNL     1     -10.438   4.657  71.846  1.00  0.00    -0.149 NA 
ENDBRANCH  12  15
ENDBRANCH   5   9
BRANCH   7  22
HETATM   22  N   UNL     1      -9.056  13.178  67.691  1.00  0.00    -0.190 NA 
HETATM   23  H   UNL     1      -9.994  13.517  67.475  1.00  0.00     0.000 HD 
BRANCH  22  24
HETATM   24  C   UNL     1      -8.179  14.263  67.840  1.00  0.00    -0.156 A  
HETATM   25 CL   UNL     1      -5.525  17.830  68.143  1.00  0.00    -0.148 Cl 
HETATM   26  C   UNL     1      -7.558  16.402  66.962  1.00  0.00    -0.205 A  
HETATM   27  C   UNL     1      -6.462  15.408  68.832  1.00  0.00    -0.108 A  
HETATM   28  N   UNL     1      -7.247  14.307  68.799  1.00  0.00    -0.123 NA 
HETATM   29  C   UNL     1      -6.560  16.473  67.941  1.00  0.00    -0.141 A  
HETATM   30  N   UNL     1      -8.350  15.284  66.928  1.00  0.00    -0.233 NA 
BRANCH  26  31
HETATM   31  N   UNL     1      -7.673  17.502  65.934  1.00  0.00    -0.534 NA 
HETATM   32  H   UNL     1      -6.913  17.548  65.256  1.00  0.00     0.000 HD 
BRANCH  31  33
HETATM   33  C   UNL     1      -8.737  18.530  65.769  1.00  0.00     0.451 A  
HETATM   34  C   UNL     1      -9.879  18.069  65.099  1.00  0.00     1.674 A  
HETATM   35  C   UNL     1     -10.979  18.890  64.912  1.00  0.00     1.780 A  
HETATM   36  C   UNL     1     -10.975  20.193  65.426  1.00  0.00     0.089 A  
HETATM   37  C   UNL     1      -9.875  20.730  66.122  1.00  0.00     0.281 A  
HETATM   38  C   UNL     1      -8.728  19.960  66.323  1.00  0.00    -0.336 A  
HETATM   39  P   UNL     1      -7.276  20.698  67.159  1.00  0.00    -0.304 P  
HETATM   40  C   UNL     1      -7.175  19.258  68.375  1.00  0.00    -0.303 C  
HETATM   41  O   UNL     1      -6.049  21.323  67.866  1.00  0.00    -0.344 OA 
HETATM   42  C   UNL     1      -6.227  20.349  65.619  1.00  0.00    -0.227 C  
ENDBRANCH  31  33
ENDBRANCH  26  31
ENDBRANCH  22  24
ENDBRANCH   7  22
ENDBRANCH   2   3
TORSDOF 7
ENDMDL
MODEL      151
REMARK 921   NORMALIZED FREE ENERGY PREDICTED BY IDOCK:    8.01 KCAL/MOL
REMARK 922        TOTAL FREE ENERGY PREDICTED BY IDOCK:    9.97 KCAL/MOL
REMARK 923 INTER-LIGAND FREE ENERGY PREDICTED BY IDOCK:    8.95 KCAL/MOL
REMARK 924 INTRA-LIGAND FREE ENERGY PREDICTED BY IDOCK:    1.03 KCAL/MOL
REMARK 927      BINDING AFFINITY PREDICTED BY RF-SCORE:    0.00 PKD
ROOT
HETATM    1  C   UNL     1      -7.118  11.153  71.021  1.00  0.00     2.628 C  
HETATM    2  O   UNL     1      -7.646  11.883  69.920  1.00  0.00     0.663 OA 
ENDROOT
BRANCH   2   3
HETATM    3  C   UNL     1      -8.184  11.191  68.851  1.00  0.00    -0.104 A  
HETATM    4  C   UNL     1      -7.519  10.156  68.141  1.00  0.00    -0.083 A  
HETATM    5  C   UNL     1      -8.096   9.489  67.041  1.00  0.00    -0.113 A  
HETATM    6  C   UNL     1      -9.401   9.924  66.711  1.00  0.00    -0.187 A  
HETATM    7  C   UNL     1      -9.504  11.602  68.512  1.00  0.00    -0.173 A  
HETATM    8  C   UNL     1     -10.086  10.952  67.430  1.00  0.00    -0.223 A  
BRANCH   5   9
HETATM    9  N   UNL     1      -7.434   8.439  66.388  1.00  0.00    -0.083 NA 
HETATM   10  C   UNL     1      -8.239   7.551  65.527  1.00  0.00    -0.135 C  
HETATM   11  C   UNL     1      -7.358   7.017  64.395  1.00  0.00    -0.085 C  
HETATM   12  C   UNL     1      -6.122   6.223  64.882  1.00  0.00    -0.030 C  
HETATM   13  C   UNL     1      -5.393   7.114  65.923  1.00  0.00    -0.024 C  
HETATM   14  C   UNL     1      -6.317   7.696  67.014  1.00  0.00    -0.054 C  
BRANCH  12  15
HETATM   15  N   UNL     1      -6.331   4.849  65.423  1.00  0.00    -0.034 NA 
HETATM   16  C   UNL     1      -7.649   4.588  66.041  1.00  0.00    -0.086 C  
HETATM   17  C   UNL     1      -8.880   2.133  64.442  1.00  0.00    -0.106 C  
HETATM   18  C   UNL     1      -6.148   3.811  64.363  1.00  0.00    -0.022 C  
HETATM   19  C   UNL     1      -8.838   4.484  65.054  1.00  0.00    -0.146 C  
HETATM   20  C   UNL     1      -7.331   3.662  63.361  1.00  0.00    -0.051 C  
HETATM   21  N   UNL     1      -8.664   3.500  63.971  1.00  0.00    -0.093 NA 
ENDBRANCH  12  15
ENDBRANCH   5   9
BRANCH   7  22
HETATM   22  N   UNL     1     -10.114  12.603  69.322  1.00  0.00    -0.231 NA 
HETATM   23  H   UNL     1     -10.669  12.162  70.057  1.00  0.00     0.000 HD 
BRANCH  22  24
HETATM   24  C   UNL     1     -10.197  13.999  69.434  1.00  0.00     0.199 A  
HETATM   25 CL   UNL     1     -10.405  18.449  69.548  1.00  0.00     0.192 Cl 
HETATM   26  C   UNL     1      -9.825  16.071  68.294  1.00  0.00    -0.219 A  
HETATM   27  C   UNL     1     -10.664  15.959  70.522  1.00  0.00    -0.188 A  
HETATM   28  N   UNL     1     -10.637  14.606  70.542  1.00  0.00     0.219 NA 
HETATM   29  C   UNL     1     -10.263  16.739  69.443  1.00  0.00    -0.225 A  
HETATM   30  N   UNL     1      -9.795  14.701  68.317  1.00  0.00    -0.216 NA 
BRANCH  26  31
HETATM   31  N   UNL     1      -9.324  16.868  67.113  1.00  0.00    -0.231 NA 
HETATM   32  H   UNL     1      -8.456  16.534  66.696  1.00  0.00     0.000 HD 
BRANCH  31  33
HETATM   33  C   UNL     1      -9.917  18.073  66.469  1.00  0.00    -0.371 A  
HETATM   34  C   UNL     1      -9.522  19.286  67.050  1.00  0.00    -0.385 A  
HETATM   35  C   UNL     1      -9.946  20.499  66.533  1.00  0.00    -0.329 A  
HETATM   36  C   UNL     1     -10.756  20.527  65.392  1.00  0.00     0.400 A  
HETATM   37  C   UNL     1     -11.189  19.357  64.739  1.00  0.00     2.197 A  
HETATM   38  C   UNL     1     -10.814  18.103  65.225  1.00  0.00     0.466 A  
HETATM   39  P   UNL     1     -11.448  16.590  64.414  1.00  0.00     1.047 P  
HETATM   40  C   UNL     1      -9.708  15.877  64.256  1.00  0.00     3.763 C  
HETATM   41  O   UNL     1     -11.985  15.310  63.728  1.00  0.00    -0.356 OA 
HETATM   42  C   UNL     1     -12.242  16.059  66.052  1.00  0.00     1.754 C  
ENDBRANCH  31  33
ENDBRANCH  26  31
ENDBRANCH  22  24
ENDBRANCH   7  22
ENDBRANCH   2   3
TORSDOF 7
ENDMDL
MODEL      152
REMARK 921   NORMALIZED FREE ENERGY PREDICTED BY IDOCK:    9.28 KCAL/MOL
REMARK 922        TOTAL FREE ENERGY PREDICTED BY IDOCK:   11.76 KCAL/MOL
REMARK 923 INTER-LIGAND FREE ENERGY PREDICTED BY IDOCK:    2.20 KCAL/MOL
REMARK 924 INTRA-LIGAND FREE ENERGY PREDICTED BY IDOCK:    9.56 KCAL/MOL
REMARK 927      BINDING AFFINITY PREDICTED BY RF-SCORE:    0.00 PKD
ROOT
HETATM    1  C   UNL     1     -13.009  13.644  65.948  1.00  0.00    -0.114 C  
HETATM    2  O   UNL     1     -11.628  13.580  65.615  1.00  0.00    -0.312 OA 
ENDROOT
BRANCH   2   3
HETATM    3  C   UNL     1     -10.708  14.200  66.442  1.00  0.00    -0.288 A  
HETATM    4  C   UNL     1     -10.764  15.564  66.833  1.00  0.00    -0.317 A  
HETATM    5  C   UNL     1      -9.793  16.162  67.662  1.00  0.00    -0.236 A  
HETATM    6  C   UNL     1      -8.765  15.288  68.086  1.00  0.00    -0.162 A  
HETATM    7  C   UNL     1      -9.673  13.333  66.894  1.00  0.00    -0.248 A  
HETATM    8  C   UNL     1      -8.710  13.909  67.713  1.00  0.00    -0.187 A  
BRANCH   5   9
HETATM    9  N   UNL     1      -9.898  17.500  68.070  1.00  0.00    -0.285 NA 
HETATM   10  C   UNL     1     -10.044  18.527  67.020  1.00  0.00    -0.360 C  
HETATM   11  C   UNL     1     -10.852  19.702  67.577  1.00  0.00    -0.463 C  
HETATM   12  C   UNL     1     -10.215  20.370  68.818  1.00  0.00     0.042 C  
HETATM   13  C   UNL     1      -9.907  19.239  69.835  1.00  0.00     0.412 C  
HETATM   14  C   UNL     1      -9.152  18.036  69.231  1.00  0.00     0.247 C  
BRANCH  12  15
HETATM   15  N   UNL     1      -9.017  21.236  68.619  1.00  0.00     1.668 NA 
HETATM   16  C   UNL     1      -7.951  21.114  69.637  1.00  0.00     3.777 C  
HETATM   17  C   UNL     1      -5.324  20.307  68.040  1.00  0.00    -0.199 C  
HETATM   18  C   UNL     1      -8.370  20.979  67.296  1.00  0.00     0.089 C  
HETATM   19  C   UNL     1      -7.130  19.801  69.585  1.00  0.00    -0.152 C  
HETATM   20  C   UNL     1      -7.519  19.677  67.209  1.00  0.00    -0.246 C  
HETATM   21  N   UNL     1      -6.519  19.500  68.278  1.00  0.00    -0.239 NA 
ENDBRANCH  12  15
ENDBRANCH   5   9
BRANCH   7  22
HETATM   22  N   UNL     1      -9.737  11.965  66.501  1.00  0.00    -0.205 NA 
HETATM   23  H   UNL     1     -10.685  11.736  66.199  1.00  0.00     0.000 HD 
BRANCH  22  24
HETATM   24  C   UNL     1      -8.915  10.832  66.396  1.00  0.00    -0.166 A  
HETATM   25 CL   UNL     1      -6.394   7.160  66.282  1.00  0.00    -0.042 Cl 
HETATM   26  C   UNL     1      -8.092   8.908  67.557  1.00  0.00    -0.109 A  
HETATM   27  C   UNL     1      -7.481   9.416  65.310  1.00  0.00    -0.100 A  
HETATM   28  N   UNL     1      -8.241  10.535  65.279  1.00  0.00    -0.162 NA 
HETATM   29  C   UNL     1      -7.357   8.577  66.413  1.00  0.00    -0.080 A  
HETATM   30  N   UNL     1      -8.858  10.043  67.526  1.00  0.00    -0.128 NA 
BRANCH  26  31
HETATM   31  N   UNL     1      -7.952   8.064  68.802  1.00  0.00    -0.117 NA 
HETATM   32  H   UNL     1      -7.004   7.979  69.168  1.00  0.00     0.000 HD 
BRANCH  31  33
HETATM   33  C   UNL     1      -9.000   7.339  69.572  1.00  0.00    -0.144 A  
HETATM   34  C   UNL     1      -8.668   7.107  70.914  1.00  0.00    -0.146 A  
HETATM   35  C   UNL     1      -9.560   6.490  71.776  1.00  0.00    -0.158 A  
HETATM   36  C   UNL     1     -10.829   6.117  71.318  1.00  0.00    -0.322 A  
HETATM   37  C   UNL     1     -11.249   6.325  69.990  1.00  0.00    -0.480 A  
HETATM   38  C   UNL     1     -10.387   6.922  69.067  1.00  0.00    -0.192 A  
HETATM   39  P   UNL     1     -10.916   7.112  67.326  1.00  0.00     0.024 P  
HETATM   40  C   UNL     1     -10.473   8.947  67.333  1.00  0.00    -0.277 C  
HETATM   41  O   UNL     1     -11.364   7.274  65.852  1.00  0.00     2.721 OA 
HETATM   42  C   UNL     1      -9.433   6.068  66.774  1.00  0.00    -0.144 C  
ENDBRANCH  31  33
ENDBRANCH  26  31
ENDBRANCH  22  24
ENDBRANCH   7  22
ENDBRANCH   2   3
TORSDOF 7
ENDMDL
MODEL      153
REMARK 921   NORMALIZED FREE ENERGY PREDICTED BY IDOCK:    9.34 KCAL/MOL
REMARK 922        TOTAL FREE ENERGY PREDICTED BY IDOCK:   11.85 KCAL/MOL
REMARK 923 INTER-LIGAND FREE ENERGY PREDICTED BY IDOCK:    0.62 KCAL/MOL
REMARK 924 INTRA-LIGAND FREE ENERGY PREDICTED BY IDOCK:   11.24 KCAL/MOL
REMARK 927      BINDING AFFINITY PREDICTED BY RF-SCORE:    0.00 PKD
ROOT
HETATM    1  C   UNL     1     -11.013  12.422  66.060  1.00  0.00    -0.289 C  
HETATM    2  O   UNL     1     -10.086  13.475  66.290  1.00  0.00    -0.283 OA 
ENDROOT
BRANCH   2   3
HETATM    3  C   UNL     1     -10.429  14.764  65.926  1.00  0.00    -0.312 A  
HETATM    4  C   UNL     1      -9.872  15.940  66.495  1.00  0.00    -0.277 A  
HETATM    5  C   UNL     1     -10.265  17.238  66.108  1.00  0.00    -0.331 A  
HETATM    6  C   UNL     1     -11.250  17.275  65.094  1.00  0.00     0.452 A  
HETATM    7  C   UNL     1     -11.409  14.824  64.894  1.00  0.00    -0.410 A  
HETATM    8  C   UNL     1     -11.804  16.097  64.502  1.00  0.00     0.063 A  
BRANCH   5   9
HETATM    9  N   UNL     1      -9.664  18.381  66.655  1.00  0.00    -0.321 NA 
HETATM   10  C   UNL     1      -8.194  18.488  66.573  1.00  0.00    -0.281 C  
HETATM   11  C   UNL     1      -7.803  19.967  66.498  1.00  0.00    -0.330 C  
HETATM   12  C   UNL     1      -8.279  20.805  67.708  1.00  0.00     0.019 C  
HETATM   13  C   UNL     1      -9.797  20.531  67.880  1.00  0.00    -0.360 C  
HETATM   14  C   UNL     1     -10.172  19.033  67.883  1.00  0.00    -0.401 C  
BRANCH  12  15
HETATM   15  N   UNL     1      -7.567  20.640  69.008  1.00  0.00     0.585 NA 
HETATM   16  C   UNL     1      -7.979  19.484  69.833  1.00  0.00     0.631 C  
HETATM   17  C   UNL     1      -5.341  17.774  70.299  1.00  0.00    -0.248 C  
HETATM   18  C   UNL     1      -6.090  20.514  68.810  1.00  0.00    -0.338 C  
HETATM   19  C   UNL     1      -7.534  18.098  69.303  1.00  0.00     0.025 C  
HETATM   20  C   UNL     1      -5.601  19.128  68.297  1.00  0.00    -0.197 C  
HETATM   21  N   UNL     1      -6.088  17.961  69.056  1.00  0.00    -0.206 NA 
ENDBRANCH  12  15
ENDBRANCH   5   9
BRANCH   7  22
HETATM   22  N   UNL     1     -11.861  13.592  64.340  1.00  0.00    -0.396 NA 
HETATM   23  H   UNL     1     -12.881  13.584  64.300  1.00  0.00     0.000 HD 
BRANCH  22  24
HETATM   24  C   UNL     1     -11.355  12.386  63.832  1.00  0.00    -0.433 A  
HETATM   25 CL   UNL     1      -9.587   8.551  62.408  1.00  0.00     1.423 Cl 
HETATM   26  C   UNL     1      -9.619  10.753  64.056  1.00  0.00    -0.291 A  
HETATM   27  C   UNL     1     -11.346  10.582  62.422  1.00  0.00     2.868 A  
HETATM   28  N   UNL     1     -11.937  11.732  62.819  1.00  0.00     0.385 NA 
HETATM   29  C   UNL     1     -10.190  10.053  62.987  1.00  0.00     1.096 A  
HETATM   30  N   UNL     1     -10.216  11.920  64.455  1.00  0.00    -0.271 NA 
BRANCH  26  31
HETATM   31  N   UNL     1      -8.332  10.255  64.670  1.00  0.00    -0.166 NA 
HETATM   32  H   UNL     1      -7.704  10.980  65.016  1.00  0.00     0.000 HD 
BRANCH  31  33
HETATM   33  C   UNL     1      -7.849   8.857  64.844  1.00  0.00    -0.121 A  
HETATM   34  C   UNL     1      -7.100   8.372  63.763  1.00  0.00    -0.089 A  
HETATM   35  C   UNL     1      -6.536   7.107  63.794  1.00  0.00    -0.044 A  
HETATM   36  C   UNL     1      -6.683   6.303  64.931  1.00  0.00    -0.043 A  
HETATM   37  C   UNL     1      -7.409   6.718  66.065  1.00  0.00    -0.075 A  
HETATM   38  C   UNL     1      -8.020   7.974  66.086  1.00  0.00    -0.103 A  
HETATM   39  P   UNL     1      -9.026   8.467  67.533  1.00  0.00    -0.135 P  
HETATM   40  C   UNL     1      -8.084  10.094  67.704  1.00  0.00    -0.109 C  
HETATM   41  O   UNL     1      -9.877   8.885  68.757  1.00  0.00    -0.165 OA 
HETATM   42  C   UNL     1     -10.530   8.682  66.398  1.00  0.00     0.098 C  
ENDBRANCH  31  33
ENDBRANCH  26  31
ENDBRANCH  22  24
ENDBRANCH   7  22
ENDBRANCH   2   3
TORSDOF 7
ENDMDL
MODEL      154
REMARK 921   NORMALIZED FREE ENERGY PREDICTED BY IDOCK:   16.94 KCAL/MOL
REMARK 922        TOTAL FREE ENERGY PREDICTED BY IDOCK:   22.56 KCAL/MOL
REMARK 923 INTER-LIGAND FREE ENERGY PREDICTED BY IDOCK:   10.43 KCAL/MOL
REMARK 924 INTRA-LIGAND FREE ENERGY PREDICTED BY IDOCK:   12.13 KCAL/MOL
REMARK 927      BINDING AFFINITY PREDICTED BY RF-SCORE:    0.00 PKD
ROOT
HETATM    1  C   UNL     1     -10.291  11.826  65.587  1.00  0.00    -0.252 C  
HETATM    2  O   UNL     1      -9.411  12.862  66.005  1.00  0.00    -0.161 OA 
ENDROOT
BRANCH   2   3
HETATM    3  C   UNL     1      -9.674  14.164  65.620  1.00  0.00    -0.178 A  
HETATM    4  C   UNL     1      -9.058  15.313  66.183  1.00  0.00    -0.314 A  
HETATM    5  C   UNL     1      -9.370  16.626  65.775  1.00  0.00    -0.032 A  
HETATM    6  C   UNL     1     -10.337  16.706  64.746  1.00  0.00     0.644 A  
HETATM    7  C   UNL     1     -10.633  14.266  64.573  1.00  0.00    -0.207 A  
HETATM    8  C   UNL     1     -10.949  15.555  64.159  1.00  0.00     0.437 A  
BRANCH   5   9
HETATM    9  N   UNL     1      -8.713  17.740  66.318  1.00  0.00    -0.445 NA 
HETATM   10  C   UNL     1      -8.240  17.645  67.713  1.00  0.00    -0.225 C  
HETATM   11  C   UNL     1      -6.994  18.519  67.880  1.00  0.00    -0.227 C  
HETATM   12  C   UNL     1      -7.227  20.013  67.552  1.00  0.00    -0.277 C  
HETATM   13  C   UNL     1      -7.893  20.073  66.152  1.00  0.00    -0.316 C  
HETATM   14  C   UNL     1      -9.104  19.129  65.988  1.00  0.00    -0.078 C  
BRANCH  12  15
HETATM   15  N   UNL     1      -7.991  20.842  68.530  1.00  0.00     0.538 NA 
HETATM   16  C   UNL     1      -9.439  20.988  68.267  1.00  0.00     0.632 C  
HETATM   17  C   UNL     1     -10.901  19.904  70.873  1.00  0.00     3.382 C  
HETATM   18  C   UNL     1      -7.865  20.302  69.919  1.00  0.00     0.902 C  
HETATM   19  C   UNL     1     -10.293  19.721  68.527  1.00  0.00    -0.354 C  
HETATM   20  C   UNL     1      -8.724  19.040  70.226  1.00  0.00     1.949 C  
HETATM   21  N   UNL     1     -10.153  19.142  69.875  1.00  0.00     0.385 NA 
ENDBRANCH  12  15
ENDBRANCH   5   9
BRANCH   7  22
HETATM   22  N   UNL     1     -11.147  13.055  64.026  1.00  0.00    -0.429 NA 
HETATM   23  H   UNL     1     -12.159  13.129  63.912  1.00  0.00     0.000 HD 
BRANCH  22  24
HETATM   24  C   UNL     1     -10.709  11.794  63.594  1.00  0.00    -0.440 A  
HETATM   25 CL   UNL     1      -9.102   7.833  62.336  1.00  0.00     0.578 Cl 
HETATM   26  C   UNL     1      -8.816  10.337  63.437  1.00  0.00    -0.221 A  
HETATM   27  C   UNL     1     -10.981   9.728  62.645  1.00  0.00     4.401 A  
HETATM   28  N   UNL     1     -11.530  10.907  63.019  1.00  0.00     0.896 NA 
HETATM   29  C   UNL     1      -9.641   9.393  62.815  1.00  0.00     0.796 A  
HETATM   30  N   UNL     1      -9.373  11.532  63.812  1.00  0.00    -0.112 NA 
BRANCH  26  31
HETATM   31  N   UNL     1      -7.342  10.049  63.595  1.00  0.00    -0.134 NA 
HETATM   32  H   UNL     1      -6.727  10.855  63.492  1.00  0.00     0.000 HD 
BRANCH  31  33
HETATM   33  C   UNL     1      -6.660   8.757  63.881  1.00  0.00    -0.087 A  
HETATM   34  C   UNL     1      -6.261   8.054  62.735  1.00  0.00    -0.081 A  
HETATM   35  C   UNL     1      -5.567   6.859  62.834  1.00  0.00    -0.032 A  
HETATM   36  C   UNL     1      -5.223   6.353  64.093  1.00  0.00    -0.021 A  
HETATM   37  C   UNL     1      -5.572   7.001  65.294  1.00  0.00    -0.032 A  
HETATM   38  C   UNL     1      -6.292   8.198  65.261  1.00  0.00    -0.045 A  
HETATM   39  P   UNL     1      -6.808   8.987  66.830  1.00  0.00    -0.081 P  
HETATM   40  C   UNL     1      -6.073  10.644  66.302  1.00  0.00    -0.111 C  
HETATM   41  O   UNL     1      -7.245   9.655  68.156  1.00  0.00    -0.078 OA 
HETATM   42  C   UNL     1      -8.620   8.856  66.285  1.00  0.00    -0.133 C  
ENDBRANCH  31  33
ENDBRANCH  26  31
ENDBRANCH  22  24
ENDBRANCH   7  22
ENDBRANCH   2   3
TORSDOF 7
ENDMDL
MODEL      155
REMARK 921   NORMALIZED FREE ENERGY PREDICTED BY IDOCK:   18.00 KCAL/MOL
REMARK 922        TOTAL FREE ENERGY PREDICTED BY IDOCK:   24.06 KCAL/MOL
REMARK 923 INTER-LIGAND FREE ENERGY PREDICTED BY IDOCK:   15.53 KCAL/MOL
REMARK 924 INTRA-LIGAND FREE ENERGY PREDICTED BY IDOCK:    8.53 KCAL/MOL
REMARK 927      BINDING AFFINITY PREDICTED BY RF-SCORE:    0.00 PKD
ROOT
HETATM    1  C   UNL     1      -9.966  13.785  70.710  1.00  0.00     4.082 C  
HETATM    2  O   UNL     1      -9.256  12.587  70.420  1.00  0.00     4.299 OA 
ENDROOT
BRANCH   2   3
HETATM    3  C   UNL     1      -8.741  12.402  69.150  1.00  0.00     0.680 A  
HETATM    4  C   UNL     1      -8.754  11.170  68.444  1.00  0.00    -0.157 A  
HETATM    5  C   UNL     1      -8.198  11.019  67.157  1.00  0.00    -0.133 A  
HETATM    6  C   UNL     1      -7.640  12.201  66.617  1.00  0.00     0.152 A  
HETATM    7  C   UNL     1      -8.188  13.585  68.581  1.00  0.00    -0.040 A  
HETATM    8  C   UNL     1      -7.638  13.451  67.312  1.00  0.00    -0.076 A  
BRANCH   5   9
HETATM    9  N   UNL     1      -8.267   9.801  66.465  1.00  0.00    -0.119 NA 
HETATM   10  C   UNL     1      -8.622   8.594  67.236  1.00  0.00    -0.125 C  
HETATM   11  C   UNL     1      -9.352   7.610  66.318  1.00  0.00    -0.189 C  
HETATM   12  C   UNL     1      -8.525   7.168  65.087  1.00  0.00    -0.013 C  
HETATM   13  C   UNL     1      -8.012   8.460  64.397  1.00  0.00    -0.148 C  
HETATM   14  C   UNL     1      -7.342   9.466  65.358  1.00  0.00    -0.096 C  
BRANCH  12  15
HETATM   15  N   UNL     1      -7.404   6.206  65.296  1.00  0.00    -0.070 NA 
HETATM   16  C   UNL     1      -6.307   6.667  66.173  1.00  0.00    -0.042 C  
HETATM   17  C   UNL     1      -6.114   4.524  68.512  1.00  0.00    -0.031 C  
HETATM   18  C   UNL     1      -7.892   4.915  65.872  1.00  0.00    -0.095 C  
HETATM   19  C   UNL     1      -6.649   6.744  67.682  1.00  0.00    -0.058 C  
HETATM   20  C   UNL     1      -8.229   4.946  67.392  1.00  0.00    -0.106 C  
HETATM   21  N   UNL     1      -7.176   5.497  68.265  1.00  0.00    -0.070 NA 
ENDBRANCH  12  15
ENDBRANCH   5   9
BRANCH   7  22
HETATM   22  N   UNL     1      -8.279  14.788  69.339  1.00  0.00    -0.374 NA 
HETATM   23  H   UNL     1      -9.091  14.748  69.955  1.00  0.00     0.000 HD 
BRANCH  22  24
HETATM   24  C   UNL     1      -7.610  16.010  69.508  1.00  0.00    -0.100 A  
HETATM   25 CL   UNL     1      -5.626  19.984  69.865  1.00  0.00    -0.281 Cl 
HETATM   26  C   UNL     1      -7.301  18.205  68.603  1.00  0.00    -0.286 A  
HETATM   27  C   UNL     1      -6.184  17.453  70.570  1.00  0.00     0.617 A  
HETATM   28  N   UNL     1      -6.767  16.233  70.524  1.00  0.00     0.755 NA 
HETATM   29  C   UNL     1      -6.400  18.466  69.642  1.00  0.00    -0.188 A  
HETATM   30  N   UNL     1      -7.888  16.967  68.555  1.00  0.00    -0.240 NA 
BRANCH  26  31
HETATM   31  N   UNL     1      -7.530  19.247  67.535  1.00  0.00    -0.233 NA 
HETATM   32  H   UNL     1      -6.727  19.837  67.320  1.00  0.00     0.000 HD 
BRANCH  31  33
HETATM   33  C   UNL     1      -8.762  19.538  66.750  1.00  0.00    -0.320 A  
HETATM   34  C   UNL     1      -8.527  19.810  65.395  1.00  0.00     0.635 A  
HETATM   35  C   UNL     1      -9.575  20.049  64.521  1.00  0.00     3.642 A  
HETATM   36  C   UNL     1     -10.896  19.987  64.980  1.00  0.00     0.514 A  
HETATM   37  C   UNL     1     -11.221  19.707  66.322  1.00  0.00     0.128 A  
HETATM   38  C   UNL     1     -10.209  19.480  67.257  1.00  0.00    -0.429 A  
HETATM   39  P   UNL     1     -10.643  19.198  69.012  1.00  0.00     0.978 P  
HETATM   40  C   UNL     1      -9.601  17.625  69.074  1.00  0.00    -0.140 C  
HETATM   41  O   UNL     1     -11.010  18.959  70.497  1.00  0.00     2.106 OA 
HETATM   42  C   UNL     1      -9.604  20.708  69.499  1.00  0.00     1.099 C  
ENDBRANCH  31  33
ENDBRANCH  26  31
ENDBRANCH  22  24
ENDBRANCH   7  22
ENDBRANCH   2   3
TORSDOF 7
ENDMDL
MODEL      156
REMARK 921   NORMALIZED FREE ENERGY PREDICTED BY IDOCK:   26.08 KCAL/MOL
REMARK 922        TOTAL FREE ENERGY PREDICTED BY IDOCK:   35.44 KCAL/MOL
REMARK 923 INTER-LIGAND FREE ENERGY PREDICTED BY IDOCK:   23.44 KCAL/MOL
REMARK 924 INTRA-LIGAND FREE ENERGY PREDICTED BY IDOCK:   11.99 KCAL/MOL
REMARK 927      BINDING AFFINITY PREDICTED BY RF-SCORE:    0.00 PKD
ROOT
HETATM    1  C   UNL     1     -10.427  11.736  65.578  1.00  0.00    -0.267 C  
HETATM    2  O   UNL     1      -9.560  12.761  66.049  1.00  0.00    -0.246 OA 
ENDROOT
BRANCH   2   3
HETATM    3  C   UNL     1      -9.712  14.046  65.562  1.00  0.00    -0.109 A  
HETATM    4  C   UNL     1      -9.497  15.228  66.319  1.00  0.00    -0.341 A  
HETATM    5  C   UNL     1      -9.684  16.522  65.789  1.00  0.00    -0.202 A  
HETATM    6  C   UNL     1     -10.088  16.547  64.434  1.00  0.00     2.508 A  
HETATM    7  C   UNL     1     -10.103  14.095  64.193  1.00  0.00     1.284 A  
HETATM    8  C   UNL     1     -10.289  15.364  63.657  1.00  0.00     4.561 A  
BRANCH   5   9
HETATM    9  N   UNL     1      -9.419  17.672  66.547  1.00  0.00    -0.277 NA 
HETATM   10  C   UNL     1      -9.303  17.516  68.010  1.00  0.00    -0.272 C  
HETATM   11  C   UNL     1      -8.339  18.576  68.551  1.00  0.00    -0.359 C  
HETATM   12  C   UNL     1      -8.776  20.031  68.255  1.00  0.00    -0.129 C  
HETATM   13  C   UNL     1      -9.066  20.117  66.733  1.00  0.00    -0.453 C  
HETATM   14  C   UNL     1      -9.984  18.996  66.201  1.00  0.00    -0.364 C  
BRANCH  12  15
HETATM   15  N   UNL     1      -9.910  20.603  69.038  1.00  0.00     0.434 NA 
HETATM   16  C   UNL     1     -10.972  19.652  69.433  1.00  0.00     1.644 C  
HETATM   17  C   UNL     1     -11.140  19.818  72.603  1.00  0.00     6.969 C  
HETATM   18  C   UNL     1      -9.433  21.252  70.297  1.00  0.00     3.453 C  
HETATM   19  C   UNL     1     -10.583  18.647  70.547  1.00  0.00     2.195 C  
HETATM   20  C   UNL     1      -9.051  20.276  71.449  1.00  0.00     2.256 C  
HETATM   21  N   UNL     1     -10.066  19.260  71.784  1.00  0.00     2.931 NA 
ENDBRANCH  12  15
ENDBRANCH   5   9
BRANCH   7  22
HETATM   22  N   UNL     1     -10.231  12.858  63.498  1.00  0.00    -0.638 NA 
HETATM   23  H   UNL     1     -10.878  12.966  62.716  1.00  0.00     0.000 HD 
BRANCH  22  24
HETATM   24  C   UNL     1      -9.754  11.539  63.543  1.00  0.00    -0.336 A  
HETATM   25 CL   UNL     1      -8.154   7.397  63.915  1.00  0.00    -0.077 Cl 
HETATM   26  C   UNL     1      -8.438   9.985  64.802  1.00  0.00    -0.173 A  
HETATM   27  C   UNL     1      -9.516   9.402  62.757  1.00  0.00     0.503 A  
HETATM   28  N   UNL     1     -10.043  10.638  62.597  1.00  0.00    -0.011 NA 
HETATM   29  C   UNL     1      -8.705   9.022  63.822  1.00  0.00    -0.075 A  
HETATM   30  N   UNL     1      -8.969  11.238  64.636  1.00  0.00    -0.006 NA 
BRANCH  26  31
HETATM   31  N   UNL     1      -7.517   9.646  65.949  1.00  0.00    -0.097 NA 
HETATM   32  H   UNL     1      -6.829  10.360  66.183  1.00  0.00     0.000 HD 
BRANCH  31  33
HETATM   33  C   UNL     1      -7.470   8.416  66.788  1.00  0.00    -0.083 A  
HETATM   34  C   UNL     1      -6.348   7.607  66.556  1.00  0.00    -0.046 A  
HETATM   35  C   UNL     1      -6.132   6.455  67.293  1.00  0.00    -0.025 A  
HETATM   36  C   UNL     1      -7.025   6.099  68.311  1.00  0.00    -0.080 A  
HETATM   37  C   UNL     1      -8.169   6.861  68.619  1.00  0.00    -0.121 A  
HETATM   38  C   UNL     1      -8.454   8.021  67.896  1.00  0.00    -0.125 A  
HETATM   39  P   UNL     1      -9.985   8.957  68.253  1.00  0.00    -0.188 P  
HETATM   40  C   UNL     1      -9.024  10.572  68.432  1.00  0.00    -0.141 C  
HETATM   41  O   UNL     1     -11.281   9.749  68.554  1.00  0.00    -0.143 OA 
HETATM   42  C   UNL     1     -10.542   8.706  66.457  1.00  0.00     0.090 C  
ENDBRANCH  31  33
ENDBRANCH  26  31
ENDBRANCH  22  24
ENDBRANCH   7  22
ENDBRANCH   2   3
TORSDOF 7
ENDMDL
MODEL      157
REMARK 921   NORMALIZED FREE ENERGY PREDICTED BY IDOCK:   28.27 KCAL/MOL
REMARK 922        TOTAL FREE ENERGY PREDICTED BY IDOCK:   38.53 KCAL/MOL
REMARK 923 INTER-LIGAND FREE ENERGY PREDICTED BY IDOCK:   30.88 KCAL/MOL
REMARK 924 INTRA-LIGAND FREE ENERGY PREDICTED BY IDOCK:    7.65 KCAL/MOL
REMARK 927      BINDING AFFINITY PREDICTED BY RF-SCORE:    0.00 PKD
ROOT
HETATM    1  C   UNL     1      -5.597  13.187  74.413  1.00  0.00     0.279 C  
HETATM    2  O   UNL     1      -6.272  13.211  73.162  1.00  0.00     1.059 OA 
ENDROOT
BRANCH   2   3
HETATM    3  C   UNL     1      -6.306  12.061  72.394  1.00  0.00     4.257 A  
HETATM    4  C   UNL     1      -6.479  10.749  72.911  1.00  0.00     3.492 A  
HETATM    5  C   UNL     1      -6.488   9.600  72.094  1.00  0.00     0.586 A  
HETATM    6  C   UNL     1      -6.325   9.860  70.714  1.00  0.00    -0.086 A  
HETATM    7  C   UNL     1      -6.161  12.302  70.999  1.00  0.00     0.684 A  
HETATM    8  C   UNL     1      -6.169  11.178  70.181  1.00  0.00    -0.147 A  
BRANCH   5   9
HETATM    9  N   UNL     1      -6.707   8.321  72.628  1.00  0.00    -0.089 NA 
HETATM   10  C   UNL     1      -5.551   7.407  72.714  1.00  0.00    -0.037 C  
HETATM   11  C   UNL     1      -5.746   6.463  73.903  1.00  0.00    -0.054 C  
HETATM   12  C   UNL     1      -7.032   5.606  73.820  1.00  0.00    -0.082 C  
HETATM   13  C   UNL     1      -8.209   6.580  73.549  1.00  0.00    -0.122 C  
HETATM   14  C   UNL     1      -7.958   7.567  72.389  1.00  0.00    -0.103 C  
BRANCH  12  15
HETATM   15  N   UNL     1      -7.062   4.466  72.858  1.00  0.00    -0.066 NA 
HETATM   16  C   UNL     1      -7.075   3.113  73.455  1.00  0.00    -0.041 C  
HETATM   17  C   UNL     1      -9.693   1.703  72.332  1.00  0.00    -0.095 C  
HETATM   18  C   UNL     1      -8.252   4.544  71.957  1.00  0.00    -0.101 C  
HETATM   19  C   UNL     1      -8.405   2.700  74.135  1.00  0.00    -0.068 C  
HETATM   20  C   UNL     1      -9.606   4.117  72.598  1.00  0.00    -0.132 C  
HETATM   21  N   UNL     1      -9.601   2.810  73.282  1.00  0.00    -0.092 NA 
ENDBRANCH  12  15
ENDBRANCH   5   9
BRANCH   7  22
HETATM   22  N   UNL     1      -6.058  13.656  70.569  1.00  0.00    -0.346 NA 
HETATM   23  H   UNL     1      -5.105  13.993  70.709  1.00  0.00     0.000 HD 
BRANCH  22  24
HETATM   24  C   UNL     1      -6.847  14.676  70.014  1.00  0.00    -0.094 A  
HETATM   25 CL   UNL     1      -9.463  17.742  68.114  1.00  0.00    -0.273 Cl 
HETATM   26  C   UNL     1      -8.441  15.196  68.306  1.00  0.00    -0.152 A  
HETATM   27  C   UNL     1      -7.652  16.815  69.868  1.00  0.00     0.930 A  
HETATM   28  N   UNL     1      -6.849  15.925  70.496  1.00  0.00     0.612 NA 
HETATM   29  C   UNL     1      -8.454  16.516  68.771  1.00  0.00    -0.248 A  
HETATM   30  N   UNL     1      -7.624  14.297  68.940  1.00  0.00    -0.126 NA 
BRANCH  26  31
HETATM   31  N   UNL     1      -9.248  14.829  67.083  1.00  0.00    -0.212 NA 
HETATM   32  H   UNL     1     -10.156  15.286  67.006  1.00  0.00     0.000 HD 
BRANCH  31  33
HETATM   33  C   UNL     1      -8.908  13.895  65.975  1.00  0.00     0.565 A  
HETATM   34  C   UNL     1      -8.751  14.517  64.728  1.00  0.00     4.724 A  
HETATM   35  C   UNL     1      -8.383  13.792  63.607  1.00  0.00    11.288 A  
HETATM   36  C   UNL     1      -8.128  12.420  63.715  1.00  0.00     4.162 A  
HETATM   37  C   UNL     1      -8.248  11.718  64.931  1.00  0.00     1.311 A  
HETATM   38  C   UNL     1      -8.638  12.389  66.092  1.00  0.00     0.296 A  
HETATM   39  P   UNL     1      -8.869  11.451  67.646  1.00  0.00    -0.149 P  
HETATM   40  C   UNL     1      -7.757  12.643  68.597  1.00  0.00    -0.066 C  
HETATM   41  O   UNL     1      -9.064  10.657  68.961  1.00  0.00    -0.174 OA 
HETATM   42  C   UNL     1     -10.675  12.025  67.711  1.00  0.00    -0.210 C  
ENDBRANCH  31  33
ENDBRANCH  26  31
ENDBRANCH  22  24
ENDBRANCH   7  22
ENDBRANCH   2   3
TORSDOF 7
ENDMDL
MODEL      158
REMARK 921   NORMALIZED FREE ENERGY PREDICTED BY IDOCK:   32.24 KCAL/MOL
REMARK 922        TOTAL FREE ENERGY PREDICTED BY IDOCK:   44.12 KCAL/MOL
REMARK 923 INTER-LIGAND FREE ENERGY PREDICTED BY IDOCK:   36.83 KCAL/MOL
REMARK 924 INTRA-LIGAND FREE ENERGY PREDICTED BY IDOCK:    7.29 KCAL/MOL
REMARK 927      BINDING AFFINITY PREDICTED BY RF-SCORE:    0.00 PKD
ROOT
HETATM    1  C   UNL     1     -13.625   6.380  73.156  1.00  0.00     2.588 C  
HETATM    2  O   UNL     1     -13.142   7.714  73.068  1.00  0.00     0.745 OA 
ENDROOT
BRANCH   2   3
HETATM    3  C   UNL     1     -13.270   8.398  71.873  1.00  0.00    -0.357 A  
HETATM    4  C   UNL     1     -13.056   9.793  71.713  1.00  0.00    -0.528 A  
HETATM    5  C   UNL     1     -13.218  10.455  70.478  1.00  0.00    -0.037 A  
HETATM    6  C   UNL     1     -13.597   9.614  69.406  1.00  0.00     3.770 A  
HETATM    7  C   UNL     1     -13.635   7.566  70.776  1.00  0.00     0.336 A  
HETATM    8  C   UNL     1     -13.797   8.206  69.553  1.00  0.00     6.332 A  
BRANCH   5   9
HETATM    9  N   UNL     1     -12.955  11.826  70.340  1.00  0.00     0.171 NA 
HETATM   10  C   UNL     1     -11.740  12.219  69.600  1.00  0.00    -0.316 C  
HETATM   11  C   UNL     1     -11.981  13.572  68.924  1.00  0.00    -0.378 C  
HETATM   12  C   UNL     1     -12.334  14.712  69.909  1.00  0.00    -0.294 C  
HETATM   13  C   UNL     1     -13.500  14.200  70.797  1.00  0.00    -0.037 C  
HETATM   14  C   UNL     1     -13.260  12.803  71.410  1.00  0.00    -0.152 C  
BRANCH  12  15
HETATM   15  N   UNL     1     -11.244  15.281  70.753  1.00  0.00    -0.313 NA 
HETATM   16  C   UNL     1     -10.482  14.313  71.571  1.00  0.00     3.093 C  
HETATM   17  C   UNL     1      -7.445  14.649  70.699  1.00  0.00     1.117 C  
HETATM   18  C   UNL     1     -10.240  16.018  69.926  1.00  0.00    -0.188 C  
HETATM   19  C   UNL     1      -9.521  13.389  70.783  1.00  0.00     6.581 C  
HETATM   20  C   UNL     1      -9.242  15.124  69.133  1.00  0.00    -0.215 C  
HETATM   21  N   UNL     1      -8.550  14.089  69.924  1.00  0.00     1.229 NA 
ENDBRANCH  12  15
ENDBRANCH   5   9
BRANCH   7  22
HETATM   22  N   UNL     1     -13.765   6.168  71.021  1.00  0.00     1.747 NA 
HETATM   23  H   UNL     1     -14.671   5.841  70.686  1.00  0.00     0.000 HD 
BRANCH  22  24
HETATM   24  C   UNL     1     -13.045   5.098  71.574  1.00  0.00     4.306 A  
HETATM   25 CL   UNL     1     -10.555   1.836  73.310  1.00  0.00    -0.199 Cl 
HETATM   26  C   UNL     1     -10.853   4.269  72.064  1.00  0.00     0.271 A  
HETATM   27  C   UNL     1     -12.837   3.055  72.586  1.00  0.00     2.764 A  
HETATM   28  N   UNL     1     -13.646   4.018  72.087  1.00  0.00     4.673 NA 
HETATM   29  C   UNL     1     -11.447   3.117  72.592  1.00  0.00     0.770 A  
HETATM   30  N   UNL     1     -11.674   5.242  71.555  1.00  0.00     0.604 NA 
BRANCH  26  31
HETATM   31  N   UNL     1      -9.348   4.366  71.992  1.00  0.00    -0.128 NA 
HETATM   32  H   UNL     1      -8.840   3.780  72.653  1.00  0.00     0.000 HD 
BRANCH  31  33
HETATM   33  C   UNL     1      -8.498   5.195  71.093  1.00  0.00    -0.122 A  
HETATM   34  C   UNL     1      -8.386   4.695  69.788  1.00  0.00    -0.081 A  
HETATM   35  C   UNL     1      -7.673   5.380  68.818  1.00  0.00    -0.083 A  
HETATM   36  C   UNL     1      -7.078   6.609  69.125  1.00  0.00    -0.088 A  
HETATM   37  C   UNL     1      -7.153   7.190  70.406  1.00  0.00    -0.066 A  
HETATM   38  C   UNL     1      -7.838   6.537  71.433  1.00  0.00    -0.100 A  
HETATM   39  P   UNL     1      -7.859   7.264  73.113  1.00  0.00    -0.105 P  
HETATM   40  C   UNL     1      -9.740   7.134  73.206  1.00  0.00    -0.210 C  
HETATM   41  O   UNL     1      -7.877   7.879  74.534  1.00  0.00    -0.186 OA 
HETATM   42  C   UNL     1      -7.045   5.691  73.790  1.00  0.00    -0.086 C  
ENDBRANCH  31  33
ENDBRANCH  26  31
ENDBRANCH  22  24
ENDBRANCH   7  22
ENDBRANCH   2   3
TORSDOF 7
ENDMDL
MODEL      159
REMARK 921   NORMALIZED FREE ENERGY PREDICTED BY IDOCK:   49.85 KCAL/MOL
REMARK 922        TOTAL FREE ENERGY PREDICTED BY IDOCK:   68.95 KCAL/MOL
REMARK 923 INTER-LIGAND FREE ENERGY PREDICTED BY IDOCK:   66.00 KCAL/MOL
REMARK 924 INTRA-LIGAND FREE ENERGY PREDICTED BY IDOCK:    2.95 KCAL/MOL
REMARK 927      BINDING AFFINITY PREDICTED BY RF-SCORE:    0.00 PKD
ROOT
HETATM    1  C   UNL     1      -5.683   9.531  68.654  1.00  0.00    -0.040 C  
HETATM    2  O   UNL     1      -6.695  10.529  68.700  1.00  0.00    -0.052 OA 
ENDROOT
BRANCH   2   3
HETATM    3  C   UNL     1      -7.930  10.260  68.138  1.00  0.00    -0.109 A  
HETATM    4  C   UNL     1      -8.723   9.121  68.438  1.00  0.00    -0.129 A  
HETATM    5  C   UNL     1      -9.969   8.874  67.826  1.00  0.00    -0.192 A  
HETATM    6  C   UNL     1     -10.374   9.862  66.899  1.00  0.00    -0.300 A  
HETATM    7  C   UNL     1      -8.363  11.252  67.213  1.00  0.00    -0.145 A  
HETATM    8  C   UNL     1      -9.591  11.022  66.604  1.00  0.00    -0.216 A  
BRANCH   5   9
HETATM    9  N   UNL     1     -10.752   7.764  68.176  1.00  0.00    -0.111 NA 
HETATM   10  C   UNL     1     -10.052   6.546  68.627  1.00  0.00    -0.161 C  
HETATM   11  C   UNL     1     -10.946   5.790  69.614  1.00  0.00    -0.385 C  
HETATM   12  C   UNL     1     -12.314   5.368  69.027  1.00  0.00     7.301 C  
HETATM   13  C   UNL     1     -12.948   6.638  68.398  1.00  0.00     8.803 C  
HETATM   14  C   UNL     1     -12.002   7.419  67.461  1.00  0.00     2.902 C  
BRANCH  12  15
HETATM   15  N   UNL     1     -12.349   4.232  68.061  1.00  0.00    13.853 NA 
HETATM   16  C   UNL     1     -12.307   4.596  66.628  1.00  0.00     9.138 C  
HETATM   17  C   UNL     1      -9.772   3.097  65.433  1.00  0.00     0.042 C  
HETATM   18  C   UNL     1     -11.216   3.284  68.290  1.00  0.00     7.768 C  
HETATM   19  C   UNL     1     -10.941   5.116  66.114  1.00  0.00     0.028 C  
HETATM   20  C   UNL     1      -9.828   3.762  67.770  1.00  0.00     0.038 C  
HETATM   21  N   UNL     1      -9.799   4.220  66.368  1.00  0.00    -0.218 NA 
ENDBRANCH  12  15
ENDBRANCH   5   9
BRANCH   7  22
HETATM   22  N   UNL     1      -7.529  12.391  67.026  1.00  0.00    -0.356 NA 
HETATM   23  H   UNL     1      -6.739  12.147  66.428  1.00  0.00     0.000 HD 
BRANCH  22  24
HETATM   24  C   UNL     1      -7.446  13.742  67.400  1.00  0.00    -0.125 A  
HETATM   25 CL   UNL     1      -7.280  18.088  68.368  1.00  0.00    -0.245 Cl 
HETATM   26  C   UNL     1      -7.694  15.995  66.632  1.00  0.00    -0.204 A  
HETATM   27  C   UNL     1      -7.063  15.457  68.867  1.00  0.00    -0.131 A  
HETATM   28  N   UNL     1      -7.111  14.125  68.637  1.00  0.00    -0.103 NA 
HETATM   29  C   UNL     1      -7.330  16.432  67.911  1.00  0.00    -0.133 A  
HETATM   30  N   UNL     1      -7.739  14.645  66.400  1.00  0.00     0.795 NA 
BRANCH  26  31
HETATM   31  N   UNL     1      -7.939  17.009  65.540  1.00  0.00     0.158 NA 
HETATM   32  H   UNL     1      -7.148  17.184  64.921  1.00  0.00     0.000 HD 
BRANCH  31  33
HETATM   33  C   UNL     1      -9.170  17.790  65.237  1.00  0.00     1.808 A  
HETATM   34  C   UNL     1     -10.355  17.045  65.316  1.00  0.00     0.025 A  
HETATM   35  C   UNL     1     -11.589  17.640  65.113  1.00  0.00     1.990 A  
HETATM   36  C   UNL     1     -11.669  19.014  64.857  1.00  0.00     3.878 A  
HETATM   37  C   UNL     1     -10.530  19.838  64.774  1.00  0.00     1.750 A  
HETATM   38  C   UNL     1      -9.256  19.294  64.947  1.00  0.00     3.161 A  
HETATM   39  P   UNL     1      -7.782  20.361  64.757  1.00  0.00     1.699 P  
HETATM   40  C   UNL     1      -7.093  19.801  66.422  1.00  0.00    -0.236 C  
HETATM   41  O   UNL     1      -6.534  21.264  64.596  1.00  0.00    -0.128 OA 
HETATM   42  C   UNL     1      -7.161  19.234  63.363  1.00  0.00     4.581 C  
ENDBRANCH  31  33
ENDBRANCH  26  31
ENDBRANCH  22  24
ENDBRANCH   7  22
ENDBRANCH   2   3
TORSDOF 7
ENDMDL
MODEL      160
REMARK 921   NORMALIZED FREE ENERGY PREDICTED BY IDOCK:   55.87 KCAL/MOL
REMARK 922        TOTAL FREE ENERGY PREDICTED BY IDOCK:   77.43 KCAL/MOL
REMARK 923 INTER-LIGAND FREE ENERGY PREDICTED BY IDOCK:   35.36 KCAL/MOL
REMARK 924 INTRA-LIGAND FREE ENERGY PREDICTED BY IDOCK:   42.07 KCAL/MOL
REMARK 927      BINDING AFFINITY PREDICTED BY RF-SCORE:    0.00 PKD
ROOT
HETATM    1  C   UNL     1     -10.465  11.790  65.650  1.00  0.00    -0.265 C  
HETATM    2  O   UNL     1      -9.802  12.755  66.456  1.00  0.00    -0.245 OA 
ENDROOT
BRANCH   2   3
HETATM    3  C   UNL     1     -10.096  14.095  66.279  1.00  0.00    -0.300 A  
HETATM    4  C   UNL     1     -10.002  15.084  67.294  1.00  0.00    -0.233 A  
HETATM    5  C   UNL     1     -10.331  16.438  67.077  1.00  0.00    -0.293 A  
HETATM    6  C   UNL     1     -10.750  16.735  65.758  1.00  0.00    -0.185 A  
HETATM    7  C   UNL     1     -10.504  14.419  64.954  1.00  0.00    -0.423 A  
HETATM    8  C   UNL     1     -10.830  15.750  64.725  1.00  0.00    -0.365 A  
BRANCH   5   9
HETATM    9  N   UNL     1     -10.184  17.401  68.085  1.00  0.00    -0.329 NA 
HETATM   10  C   UNL     1     -10.267  16.944  69.487  1.00  0.00    -0.139 C  
HETATM   11  C   UNL     1      -9.397  17.852  70.361  1.00  0.00     3.024 C  
HETATM   12  C   UNL     1      -9.804  19.344  70.317  1.00  0.00     0.951 C  
HETATM   13  C   UNL     1      -9.885  19.748  68.821  1.00  0.00    -0.464 C  
HETATM   14  C   UNL     1     -10.710  18.778  67.948  1.00  0.00    -0.285 C  
BRANCH  12  15
HETATM   15  N   UNL     1     -11.040  19.762  71.040  1.00  0.00     3.929 NA 
HETATM   16  C   UNL     1     -12.139  18.774  71.074  1.00  0.00    11.990 C  
HETATM   17  C   UNL     1     -12.748  18.266  74.151  1.00  0.00     4.230 C  
HETATM   18  C   UNL     1     -10.747  20.117  72.463  1.00  0.00     6.062 C  
HETATM   19  C   UNL     1     -11.902  17.547  71.990  1.00  0.00     2.659 C  
HETATM   20  C   UNL     1     -10.522  18.910  73.421  1.00  0.00     3.487 C  
HETATM   21  N   UNL     1     -11.567  17.870  73.388  1.00  0.00     0.975 NA 
ENDBRANCH  12  15
ENDBRANCH   5   9
BRANCH   7  22
HETATM   22  N   UNL     1     -10.506  13.372  63.988  1.00  0.00    -0.612 NA 
HETATM   23  H   UNL     1     -10.968  13.689  63.135  1.00  0.00     0.000 HD 
BRANCH  22  24
HETATM   24  C   UNL     1     -10.077  12.045  63.833  1.00  0.00    -0.369 A  
HETATM   25 CL   UNL     1      -8.669   7.824  63.586  1.00  0.00     0.426 Cl 
HETATM   26  C   UNL     1      -9.035  10.193  64.935  1.00  0.00    -0.197 A  
HETATM   27  C   UNL     1      -9.763  10.099  62.667  1.00  0.00    -0.026 A  
HETATM   28  N   UNL     1     -10.223  11.371  62.686  1.00  0.00     0.020 NA 
HETATM   29  C   UNL     1      -9.155   9.465  63.746  1.00  0.00    -0.026 A  
HETATM   30  N   UNL     1      -9.498  11.482  64.952  1.00  0.00    -0.179 NA 
BRANCH  26  31
HETATM   31  N   UNL     1      -8.331   9.574  66.120  1.00  0.00    -0.114 NA 
HETATM   32  H   UNL     1      -7.600  10.145  66.541  1.00  0.00     0.000 HD 
BRANCH  31  33
HETATM   33  C   UNL     1      -8.554   8.249  66.761  1.00  0.00    -0.127 A  
HETATM   34  C   UNL     1      -8.758   8.310  68.147  1.00  0.00    -0.136 A  
HETATM   35  C   UNL     1      -9.030   7.167  68.881  1.00  0.00    -0.129 A  
HETATM   36  C   UNL     1      -9.139   5.930  68.235  1.00  0.00    -0.118 A  
HETATM   37  C   UNL     1      -8.961   5.781  66.845  1.00  0.00    -0.114 A  
HETATM   38  C   UNL     1      -8.662   6.892  66.054  1.00  0.00    -0.141 A  
HETATM   39  P   UNL     1      -8.355   6.672  64.263  1.00  0.00     0.330 P  
HETATM   40  C   UNL     1      -9.602   8.020  63.826  1.00  0.00     3.239 C  
HETATM   41  O   UNL     1      -8.096   6.485  62.748  1.00  0.00    -0.108 OA 
HETATM   42  C   UNL     1      -6.622   7.409  64.482  1.00  0.00    -0.040 C  
ENDBRANCH  31  33
ENDBRANCH  26  31
ENDBRANCH  22  24
ENDBRANCH   7  22
ENDBRANCH   2   3
TORSDOF 7
ENDMDL
