MODEL        1
REMARK 921   NORMALIZED FREE ENERGY PREDICTED BY IDOCK:   -6.23 KCAL/MOL
REMARK 922        TOTAL FREE ENERGY PREDICTED BY IDOCK:   -7.25 KCAL/MOL
REMARK 923 INTER-LIGAND FREE ENERGY PREDICTED BY IDOCK:   -6.96 KCAL/MOL
REMARK 924 INTRA-LIGAND FREE ENERGY PREDICTED BY IDOCK:   -0.29 KCAL/MOL
REMARK 927      BINDING AFFINITY PREDICTED BY RF-SCORE:    0.00 PKD
ROOT
HETATM    1 BR   UNL     1     -11.911  11.670  69.305  1.00  0.00    -0.398 Br 
HETATM    2  C   UNL     1     -11.593  13.370  68.473  1.00  0.00    -0.333 A  
HETATM    3  C   UNL     1     -11.238  14.467  69.288  1.00  0.00    -0.281 A  
HETATM    4  N   UNL     1     -11.596  14.945  65.154  1.00  0.00    -0.350 NA 
HETATM    5  C   UNL     1     -10.978  15.678  68.648  1.00  0.00    -0.294 A  
HETATM    6  C   UNL     1     -11.736  13.476  67.076  1.00  0.00    -0.383 A  
HETATM    7  C   UNL     1     -11.976  13.891  64.406  1.00  0.00    -0.450 A  
HETATM    8  C   UNL     1     -11.105  15.805  67.268  1.00  0.00    -0.211 A  
HETATM    9  C   UNL     1     -11.483  14.736  66.479  1.00  0.00    -0.327 A  
HETATM   10  N   UNL     1     -12.110  12.431  66.288  1.00  0.00    -0.630 NA 
HETATM   11  C   UNL     1     -12.231  12.659  64.962  1.00  0.00    -0.476 A  
ENDROOT
BRANCH   3  12
HETATM   12  N   UNL     1     -11.134  14.344  70.694  1.00  0.00    -0.484 NA 
HETATM   13  H   UNL     1     -10.341  13.815  71.058  1.00  0.00     0.000 HD 
BRANCH  12  14
HETATM   14  C   UNL     1     -12.001  14.869  71.602  1.00  0.00    -0.363 A  
HETATM   15  C   UNL     1     -14.117  15.344  72.300  1.00  0.00    -0.564 A  
HETATM   16  N   UNL     1     -13.315  14.740  71.251  1.00  0.00    -0.378 NA 
HETATM   17  H   UNL     1     -10.827  15.707  73.103  1.00  0.00     0.000 HD 
HETATM   18  N   UNL     1     -11.744  15.474  72.723  1.00  0.00    -0.460 NA 
HETATM   19  C   UNL     1     -13.065  15.754  73.331  1.00  0.00    -0.579 A  
ENDBRANCH  12  14
ENDBRANCH   3  12
TORSDOF 2
ENDMDL
MODEL        2
REMARK 921   NORMALIZED FREE ENERGY PREDICTED BY IDOCK:   -6.15 KCAL/MOL
REMARK 922        TOTAL FREE ENERGY PREDICTED BY IDOCK:   -7.16 KCAL/MOL
REMARK 923 INTER-LIGAND FREE ENERGY PREDICTED BY IDOCK:   -6.89 KCAL/MOL
REMARK 924 INTRA-LIGAND FREE ENERGY PREDICTED BY IDOCK:   -0.27 KCAL/MOL
REMARK 927      BINDING AFFINITY PREDICTED BY RF-SCORE:    0.00 PKD
ROOT
HETATM    1 BR   UNL     1     -10.862  16.815  68.100  1.00  0.00    -0.313 Br 
HETATM    2  C   UNL     1     -11.267  14.940  68.053  1.00  0.00    -0.308 A  
HETATM    3  C   UNL     1     -11.348  14.232  69.273  1.00  0.00    -0.283 A  
HETATM    4  N   UNL     1     -11.967  12.252  65.648  1.00  0.00    -0.538 NA 
HETATM    5  C   UNL     1     -11.681  12.881  69.204  1.00  0.00    -0.376 A  
HETATM    6  C   UNL     1     -11.458  14.320  66.802  1.00  0.00    -0.367 A  
HETATM    7  C   UNL     1     -11.843  12.942  64.498  1.00  0.00    -0.375 A  
HETATM    8  C   UNL     1     -11.882  12.249  67.981  1.00  0.00    -0.368 A  
HETATM    9  C   UNL     1     -11.770  12.938  66.789  1.00  0.00    -0.383 A  
HETATM   10  N   UNL     1     -11.349  14.988  65.621  1.00  0.00    -0.330 NA 
HETATM   11  C   UNL     1     -11.537  14.283  64.484  1.00  0.00    -0.387 A  
ENDROOT
BRANCH   3  12
HETATM   12  N   UNL     1     -11.118  14.870  70.516  1.00  0.00    -0.462 NA 
HETATM   13  H   UNL     1     -10.156  15.126  70.738  1.00  0.00     0.000 HD 
BRANCH  12  14
HETATM   14  C   UNL     1     -12.072  15.170  71.439  1.00  0.00    -0.338 A  
HETATM   15  C   UNL     1     -12.701  15.666  73.572  1.00  0.00    -0.561 A  
HETATM   16  N   UNL     1     -11.581  15.361  72.699  1.00  0.00    -0.459 NA 
HETATM   17  H   UNL     1     -13.891  15.115  70.429  1.00  0.00     0.000 HD 
HETATM   18  N   UNL     1     -13.357  15.282  71.281  1.00  0.00    -0.478 NA 
HETATM   19  C   UNL     1     -13.881  15.704  72.600  1.00  0.00    -0.564 A  
ENDBRANCH  12  14
ENDBRANCH   3  12
TORSDOF 2
ENDMDL
MODEL        3
REMARK 921   NORMALIZED FREE ENERGY PREDICTED BY IDOCK:   -5.92 KCAL/MOL
REMARK 922        TOTAL FREE ENERGY PREDICTED BY IDOCK:   -6.90 KCAL/MOL
REMARK 923 INTER-LIGAND FREE ENERGY PREDICTED BY IDOCK:   -6.62 KCAL/MOL
REMARK 924 INTRA-LIGAND FREE ENERGY PREDICTED BY IDOCK:   -0.29 KCAL/MOL
REMARK 927      BINDING AFFINITY PREDICTED BY RF-SCORE:    0.00 PKD
ROOT
HETATM    1 BR   UNL     1     -11.909  10.985  69.583  1.00  0.00    -0.449 Br 
HETATM    2  C   UNL     1     -11.929  12.902  69.491  1.00  0.00    -0.285 A  
HETATM    3  C   UNL     1     -11.347  13.533  68.370  1.00  0.00    -0.292 A  
HETATM    4  N   UNL     1     -13.058  15.819  71.419  1.00  0.00    -0.474 NA 
HETATM    5  C   UNL     1     -11.412  14.925  68.317  1.00  0.00    -0.343 A  
HETATM    6  C   UNL     1     -12.512  13.624  70.552  1.00  0.00    -0.324 A  
HETATM    7  C   UNL     1     -13.568  15.193  72.495  1.00  0.00    -0.488 A  
HETATM    8  C   UNL     1     -11.990  15.659  69.349  1.00  0.00    -0.349 A  
HETATM    9  C   UNL     1     -12.529  15.038  70.458  1.00  0.00    -0.371 A  
HETATM   10  N   UNL     1     -13.045  13.024  71.651  1.00  0.00    -0.385 NA 
HETATM   11  C   UNL     1     -13.560  13.822  72.611  1.00  0.00    -0.507 A  
ENDROOT
BRANCH   3  12
HETATM   12  N   UNL     1     -10.737  12.787  67.333  1.00  0.00    -0.228 NA 
HETATM   13  H   UNL     1      -9.875  12.292  67.559  1.00  0.00     0.000 HD 
BRANCH  12  14
HETATM   14  C   UNL     1     -11.204  12.676  66.059  1.00  0.00    -0.306 A  
HETATM   15  C   UNL     1     -10.861  12.559  63.810  1.00  0.00    -0.446 A  
HETATM   16  N   UNL     1     -10.223  12.679  65.108  1.00  0.00    -0.290 NA 
HETATM   17  H   UNL     1     -13.279  12.624  66.207  1.00  0.00     0.000 HD 
HETATM   18  N   UNL     1     -12.431  12.582  65.643  1.00  0.00    -0.611 NA 
HETATM   19  C   UNL     1     -12.336  12.401  64.176  1.00  0.00    -0.467 A  
ENDBRANCH  12  14
ENDBRANCH   3  12
TORSDOF 2
ENDMDL
MODEL        4
REMARK 921   NORMALIZED FREE ENERGY PREDICTED BY IDOCK:   -5.88 KCAL/MOL
REMARK 922        TOTAL FREE ENERGY PREDICTED BY IDOCK:   -6.86 KCAL/MOL
REMARK 923 INTER-LIGAND FREE ENERGY PREDICTED BY IDOCK:   -6.60 KCAL/MOL
REMARK 924 INTRA-LIGAND FREE ENERGY PREDICTED BY IDOCK:   -0.26 KCAL/MOL
REMARK 927      BINDING AFFINITY PREDICTED BY RF-SCORE:    0.00 PKD
ROOT
HETATM    1 BR   UNL     1     -11.123  15.855  68.163  1.00  0.00    -0.327 Br 
HETATM    2  C   UNL     1     -11.593  14.241  69.090  1.00  0.00    -0.305 A  
HETATM    3  C   UNL     1     -11.234  13.001  68.518  1.00  0.00    -0.274 A  
HETATM    4  N   UNL     1     -13.293  13.125  72.150  1.00  0.00    -0.513 NA 
HETATM    5  C   UNL     1     -11.558  11.851  69.236  1.00  0.00    -0.376 A  
HETATM    6  C   UNL     1     -12.295  14.341  70.308  1.00  0.00    -0.354 A  
HETATM    7  C   UNL     1     -13.659  14.319  72.652  1.00  0.00    -0.501 A  
HETATM    8  C   UNL     1     -12.243  11.925  70.444  1.00  0.00    -0.399 A  
HETATM    9  C   UNL     1     -12.621  13.139  70.984  1.00  0.00    -0.312 A  
HETATM   10  N   UNL     1     -12.674  15.531  70.849  1.00  0.00    -0.454 NA 
HETATM   11  C   UNL     1     -13.358  15.500  72.013  1.00  0.00    -0.472 A  
ENDROOT
BRANCH   3  12
HETATM   12  N   UNL     1     -10.559  12.926  67.276  1.00  0.00    -0.233 NA 
HETATM   13  H   UNL     1      -9.542  13.006  67.293  1.00  0.00     0.000 HD 
BRANCH  12  14
HETATM   14  C   UNL     1     -11.150  12.756  66.062  1.00  0.00    -0.285 A  
HETATM   15  C   UNL     1     -11.038  12.568  63.795  1.00  0.00    -0.448 A  
HETATM   16  N   UNL     1     -10.273  12.751  65.015  1.00  0.00    -0.289 NA 
HETATM   17  H   UNL     1     -13.197  12.655  66.427  1.00  0.00     0.000 HD 
HETATM   18  N   UNL     1     -12.410  12.615  65.779  1.00  0.00    -0.619 NA 
HETATM   19  C   UNL     1     -12.462  12.384  64.317  1.00  0.00    -0.437 A  
ENDBRANCH  12  14
ENDBRANCH   3  12
TORSDOF 2
ENDMDL
MODEL        5
REMARK 921   NORMALIZED FREE ENERGY PREDICTED BY IDOCK:   -5.70 KCAL/MOL
REMARK 922        TOTAL FREE ENERGY PREDICTED BY IDOCK:   -6.66 KCAL/MOL
REMARK 923 INTER-LIGAND FREE ENERGY PREDICTED BY IDOCK:   -6.40 KCAL/MOL
REMARK 924 INTRA-LIGAND FREE ENERGY PREDICTED BY IDOCK:   -0.26 KCAL/MOL
REMARK 927      BINDING AFFINITY PREDICTED BY RF-SCORE:    0.00 PKD
ROOT
HETATM    1 BR   UNL     1     -10.042   9.854  67.093  1.00  0.00    -0.287 Br 
HETATM    2  C   UNL     1     -10.948  11.546  67.085  1.00  0.00    -0.286 A  
HETATM    3  C   UNL     1     -11.207  12.182  68.319  1.00  0.00    -0.268 A  
HETATM    4  N   UNL     1     -12.415  13.963  64.739  1.00  0.00    -0.600 NA 
HETATM    5  C   UNL     1     -11.833  13.427  68.275  1.00  0.00    -0.393 A  
HETATM    6  C   UNL     1     -11.341  12.096  65.849  1.00  0.00    -0.356 A  
HETATM    7  C   UNL     1     -12.193  13.314  63.580  1.00  0.00    -0.451 A  
HETATM    8  C   UNL     1     -12.223  13.995  67.065  1.00  0.00    -0.387 A  
HETATM    9  C   UNL     1     -11.997  13.353  65.864  1.00  0.00    -0.409 A  
HETATM   10  N   UNL     1     -11.124  11.473  64.658  1.00  0.00    -0.285 NA 
HETATM   11  C   UNL     1     -11.562  12.092  63.540  1.00  0.00    -0.461 A  
ENDROOT
BRANCH   3  12
HETATM   12  N   UNL     1     -10.833  11.592  69.550  1.00  0.00    -0.454 NA 
HETATM   13  H   UNL     1      -9.854  11.672  69.827  1.00  0.00     0.000 HD 
BRANCH  12  14
HETATM   14  C   UNL     1     -11.667  10.928  70.396  1.00  0.00    -0.350 A  
HETATM   15  C   UNL     1     -12.251   9.065  71.570  1.00  0.00    -0.335 A  
HETATM   16  N   UNL     1     -11.274   9.648  70.668  1.00  0.00    -0.294 NA 
HETATM   17  H   UNL     1     -13.231  12.237  70.810  1.00  0.00     0.000 HD 
HETATM   18  N   UNL     1     -12.766  11.340  70.951  1.00  0.00    -0.340 NA 
HETATM   19  C   UNL     1     -13.202  10.232  71.832  1.00  0.00    -0.445 A  
ENDBRANCH  12  14
ENDBRANCH   3  12
TORSDOF 2
ENDMDL
MODEL        6
REMARK 921   NORMALIZED FREE ENERGY PREDICTED BY IDOCK:   -5.58 KCAL/MOL
REMARK 922        TOTAL FREE ENERGY PREDICTED BY IDOCK:   -6.53 KCAL/MOL
REMARK 923 INTER-LIGAND FREE ENERGY PREDICTED BY IDOCK:   -6.33 KCAL/MOL
REMARK 924 INTRA-LIGAND FREE ENERGY PREDICTED BY IDOCK:   -0.20 KCAL/MOL
REMARK 927      BINDING AFFINITY PREDICTED BY RF-SCORE:    0.00 PKD
ROOT
HETATM    1 BR   UNL     1     -13.389  13.761  72.466  1.00  0.00    -0.628 Br 
HETATM    2  C   UNL     1     -12.619  12.953  70.905  1.00  0.00    -0.270 A  
HETATM    3  C   UNL     1     -12.525  11.545  70.846  1.00  0.00    -0.366 A  
HETATM    4  N   UNL     1     -11.130  13.882  67.677  1.00  0.00    -0.270 NA 
HETATM    5  C   UNL     1     -11.995  10.991  69.682  1.00  0.00    -0.424 A  
HETATM    6  C   UNL     1     -12.156  13.790  69.870  1.00  0.00    -0.348 A  
HETATM    7  C   UNL     1     -11.193  15.223  67.778  1.00  0.00    -0.326 A  
HETATM    8  C   UNL     1     -11.539  11.796  68.643  1.00  0.00    -0.367 A  
HETATM    9  C   UNL     1     -11.603  13.173  68.719  1.00  0.00    -0.308 A  
HETATM   10  N   UNL     1     -12.213  15.148  69.934  1.00  0.00    -0.324 NA 
HETATM   11  C   UNL     1     -11.722  15.845  68.886  1.00  0.00    -0.370 A  
ENDROOT
BRANCH   3  12
HETATM   12  N   UNL     1     -12.966  10.728  71.914  1.00  0.00    -0.463 NA 
HETATM   13  H   UNL     1     -13.306  11.199  72.752  1.00  0.00     0.000 HD 
BRANCH  12  14
HETATM   14  C   UNL     1     -12.973   9.367  71.918  1.00  0.00    -0.417 A  
HETATM   15  C   UNL     1     -14.057   7.375  71.695  1.00  0.00    -0.421 A  
HETATM   16  N   UNL     1     -14.197   8.820  71.654  1.00  0.00    -0.378 NA 
HETATM   17  H   UNL     1     -11.040   8.780  72.417  1.00  0.00     0.000 HD 
HETATM   18  N   UNL     1     -11.995   8.544  72.147  1.00  0.00    -0.361 NA 
HETATM   19  C   UNL     1     -12.559   7.191  71.935  1.00  0.00    -0.293 A  
ENDBRANCH  12  14
ENDBRANCH   3  12
TORSDOF 2
ENDMDL
MODEL        7
REMARK 921   NORMALIZED FREE ENERGY PREDICTED BY IDOCK:   -5.58 KCAL/MOL
REMARK 922        TOTAL FREE ENERGY PREDICTED BY IDOCK:   -6.52 KCAL/MOL
REMARK 923 INTER-LIGAND FREE ENERGY PREDICTED BY IDOCK:   -6.34 KCAL/MOL
REMARK 924 INTRA-LIGAND FREE ENERGY PREDICTED BY IDOCK:   -0.19 KCAL/MOL
REMARK 927      BINDING AFFINITY PREDICTED BY RF-SCORE:    0.00 PKD
ROOT
HETATM    1 BR   UNL     1     -11.535  14.837  66.589  1.00  0.00    -0.306 Br 
HETATM    2  C   UNL     1     -11.578  13.404  67.865  1.00  0.00    -0.339 A  
HETATM    3  C   UNL     1     -12.036  13.674  69.173  1.00  0.00    -0.351 A  
HETATM    4  N   UNL     1     -10.791   9.825  68.133  1.00  0.00    -0.237 NA 
HETATM    5  C   UNL     1     -12.090  12.603  70.063  1.00  0.00    -0.339 A  
HETATM    6  C   UNL     1     -11.138  12.127  67.463  1.00  0.00    -0.275 A  
HETATM    7  C   UNL     1     -10.320   9.605  66.892  1.00  0.00    -0.238 A  
HETATM    8  C   UNL     1     -11.669  11.331  69.687  1.00  0.00    -0.420 A  
HETATM    9  C   UNL     1     -11.191  11.079  68.415  1.00  0.00    -0.274 A  
HETATM   10  N   UNL     1     -10.664  11.866  66.214  1.00  0.00    -0.260 NA 
HETATM   11  C   UNL     1     -10.255  10.606  65.950  1.00  0.00    -0.251 A  
ENDROOT
BRANCH   3  12
HETATM   12  N   UNL     1     -12.441  14.973  69.563  1.00  0.00    -0.581 NA 
HETATM   13  H   UNL     1     -12.702  15.623  68.821  1.00  0.00     0.000 HD 
BRANCH  12  14
HETATM   14  C   UNL     1     -12.510  15.430  70.843  1.00  0.00    -0.418 A  
HETATM   15  C   UNL     1     -13.672  15.819  72.764  1.00  0.00    -0.560 A  
HETATM   16  N   UNL     1     -13.744  15.291  71.414  1.00  0.00    -0.496 NA 
HETATM   17  H   UNL     1     -10.631  16.210  71.281  1.00  0.00     0.000 HD 
HETATM   18  N   UNL     1     -11.582  15.978  71.568  1.00  0.00    -0.453 NA 
HETATM   19  C   UNL     1     -12.196  16.195  72.897  1.00  0.00    -0.541 A  
ENDBRANCH  12  14
ENDBRANCH   3  12
TORSDOF 2
ENDMDL
MODEL        8
REMARK 921   NORMALIZED FREE ENERGY PREDICTED BY IDOCK:   -5.57 KCAL/MOL
REMARK 922        TOTAL FREE ENERGY PREDICTED BY IDOCK:   -6.52 KCAL/MOL
REMARK 923 INTER-LIGAND FREE ENERGY PREDICTED BY IDOCK:   -6.30 KCAL/MOL
REMARK 924 INTRA-LIGAND FREE ENERGY PREDICTED BY IDOCK:   -0.21 KCAL/MOL
REMARK 927      BINDING AFFINITY PREDICTED BY RF-SCORE:    0.00 PKD
ROOT
HETATM    1 BR   UNL     1     -11.661  14.713  66.596  1.00  0.00    -0.329 Br 
HETATM    2  C   UNL     1     -11.674  13.290  67.884  1.00  0.00    -0.357 A  
HETATM    3  C   UNL     1     -12.122  13.565  69.194  1.00  0.00    -0.288 A  
HETATM    4  N   UNL     1     -10.839   9.723  68.173  1.00  0.00    -0.237 NA 
HETATM    5  C   UNL     1     -12.154  12.500  70.093  1.00  0.00    -0.368 A  
HETATM    6  C   UNL     1     -11.221  12.016  67.487  1.00  0.00    -0.294 A  
HETATM    7  C   UNL     1     -10.376   9.500  66.928  1.00  0.00    -0.237 A  
HETATM    8  C   UNL     1     -11.720  11.231  69.722  1.00  0.00    -0.422 A  
HETATM    9  C   UNL     1     -11.252  10.975  68.449  1.00  0.00    -0.274 A  
HETATM   10  N   UNL     1     -10.756  11.751  66.236  1.00  0.00    -0.260 NA 
HETATM   11  C   UNL     1     -10.334  10.494  65.978  1.00  0.00    -0.211 A  
ENDROOT
BRANCH   3  12
HETATM   12  N   UNL     1     -12.540  14.862  69.578  1.00  0.00    -0.584 NA 
HETATM   13  H   UNL     1     -12.610  15.566  68.843  1.00  0.00     0.000 HD 
BRANCH  12  14
HETATM   14  C   UNL     1     -12.855  15.250  70.843  1.00  0.00    -0.449 A  
HETATM   15  C   UNL     1     -12.274  16.103  72.874  1.00  0.00    -0.541 A  
HETATM   16  N   UNL     1     -11.794  15.736  71.554  1.00  0.00    -0.402 NA 
HETATM   17  H   UNL     1     -14.877  14.821  71.092  1.00  0.00     0.000 HD 
HETATM   18  N   UNL     1     -14.003  15.206  71.450  1.00  0.00    -0.491 NA 
HETATM   19  C   UNL     1     -13.774  15.833  72.772  1.00  0.00    -0.560 A  
ENDBRANCH  12  14
ENDBRANCH   3  12
TORSDOF 2
ENDMDL
MODEL        9
REMARK 921   NORMALIZED FREE ENERGY PREDICTED BY IDOCK:   -5.54 KCAL/MOL
REMARK 922        TOTAL FREE ENERGY PREDICTED BY IDOCK:   -6.48 KCAL/MOL
REMARK 923 INTER-LIGAND FREE ENERGY PREDICTED BY IDOCK:   -6.36 KCAL/MOL
REMARK 924 INTRA-LIGAND FREE ENERGY PREDICTED BY IDOCK:   -0.13 KCAL/MOL
REMARK 927      BINDING AFFINITY PREDICTED BY RF-SCORE:    0.00 PKD
ROOT
HETATM    1 BR   UNL     1     -11.209  14.703  69.280  1.00  0.00    -0.326 Br 
HETATM    2  C   UNL     1     -10.925  15.704  67.668  1.00  0.00    -0.315 A  
HETATM    3  C   UNL     1     -11.077  15.048  66.427  1.00  0.00    -0.329 A  
HETATM    4  N   UNL     1     -10.014  19.086  66.557  1.00  0.00    -0.359 NA 
HETATM    5  C   UNL     1     -10.900  15.814  65.276  1.00  0.00    -0.409 A  
HETATM    6  C   UNL     1     -10.560  17.061  67.771  1.00  0.00    -0.350 A  
HETATM    7  C   UNL     1      -9.835  19.674  67.755  1.00  0.00    -0.383 A  
HETATM    8  C   UNL     1     -10.547  17.158  65.352  1.00  0.00    -0.116 A  
HETATM    9  C   UNL     1     -10.368  17.787  66.569  1.00  0.00    -0.345 A  
HETATM   10  N   UNL     1     -10.379  17.691  68.964  1.00  0.00    -0.342 NA 
HETATM   11  C   UNL     1     -10.012  18.991  68.935  1.00  0.00    -0.398 A  
ENDROOT
BRANCH   3  12
HETATM   12  N   UNL     1     -11.412  13.675  66.350  1.00  0.00    -0.326 NA 
HETATM   13  H   UNL     1     -11.457  13.156  67.227  1.00  0.00     0.000 HD 
BRANCH  12  14
HETATM   14  C   UNL     1     -11.678  12.988  65.206  1.00  0.00    -0.353 A  
HETATM   15  C   UNL     1     -10.994  11.887  63.333  1.00  0.00    -0.395 A  
HETATM   16  N   UNL     1     -10.562  12.598  64.522  1.00  0.00    -0.325 NA 
HETATM   17  H   UNL     1     -13.752  12.937  65.032  1.00  0.00     0.000 HD 
HETATM   18  N   UNL     1     -12.828  12.676  64.688  1.00  0.00    -0.792 NA 
HETATM   19  C   UNL     1     -12.514  11.860  63.493  1.00  0.00    -0.492 A  
ENDBRANCH  12  14
ENDBRANCH   3  12
TORSDOF 2
ENDMDL
MODEL       10
REMARK 921   NORMALIZED FREE ENERGY PREDICTED BY IDOCK:   -5.53 KCAL/MOL
REMARK 922        TOTAL FREE ENERGY PREDICTED BY IDOCK:   -6.47 KCAL/MOL
REMARK 923 INTER-LIGAND FREE ENERGY PREDICTED BY IDOCK:   -6.17 KCAL/MOL
REMARK 924 INTRA-LIGAND FREE ENERGY PREDICTED BY IDOCK:   -0.30 KCAL/MOL
REMARK 927      BINDING AFFINITY PREDICTED BY RF-SCORE:    0.00 PKD
ROOT
HETATM    1 BR   UNL     1     -12.153  13.992  69.530  1.00  0.00    -0.376 Br 
HETATM    2  C   UNL     1     -11.626  12.664  68.248  1.00  0.00    -0.332 A  
HETATM    3  C   UNL     1     -11.097  11.442  68.716  1.00  0.00    -0.235 A  
HETATM    4  N   UNL     1     -11.482  12.134  64.615  1.00  0.00    -0.327 NA 
HETATM    5  C   UNL     1     -10.760  10.485  67.760  1.00  0.00    -0.319 A  
HETATM    6  C   UNL     1     -11.770  12.954  66.877  1.00  0.00    -0.382 A  
HETATM    7  C   UNL     1     -11.950  13.325  64.196  1.00  0.00    -0.447 A  
HETATM    8  C   UNL     1     -10.901  10.745  66.400  1.00  0.00    -0.172 A  
HETATM    9  C   UNL     1     -11.388  11.955  65.946  1.00  0.00    -0.308 A  
HETATM   10  N   UNL     1     -12.247  14.143  66.417  1.00  0.00    -0.459 NA 
HETATM   11  C   UNL     1     -12.323  14.311  65.079  1.00  0.00    -0.428 A  
ENDROOT
BRANCH   3  12
HETATM   12  N   UNL     1     -10.931  11.187  70.099  1.00  0.00    -0.454 NA 
HETATM   13  H   UNL     1     -10.116  11.597  70.554  1.00  0.00     0.000 HD 
BRANCH  12  14
HETATM   14  C   UNL     1     -11.767  10.441  70.872  1.00  0.00    -0.360 A  
HETATM   15  C   UNL     1     -12.158   8.689  72.275  1.00  0.00    -0.373 A  
HETATM   16  N   UNL     1     -11.154   9.392  71.496  1.00  0.00    -0.376 NA 
HETATM   17  H   UNL     1     -13.661  11.275  70.646  1.00  0.00     0.000 HD 
HETATM   18  N   UNL     1     -13.041  10.588  71.076  1.00  0.00    -0.371 NA 
HETATM   19  C   UNL     1     -13.405   9.548  72.065  1.00  0.00    -0.452 A  
ENDBRANCH  12  14
ENDBRANCH   3  12
TORSDOF 2
ENDMDL
MODEL       11
REMARK 921   NORMALIZED FREE ENERGY PREDICTED BY IDOCK:   -5.53 KCAL/MOL
REMARK 922        TOTAL FREE ENERGY PREDICTED BY IDOCK:   -6.47 KCAL/MOL
REMARK 923 INTER-LIGAND FREE ENERGY PREDICTED BY IDOCK:   -6.26 KCAL/MOL
REMARK 924 INTRA-LIGAND FREE ENERGY PREDICTED BY IDOCK:   -0.20 KCAL/MOL
REMARK 927      BINDING AFFINITY PREDICTED BY RF-SCORE:    0.00 PKD
ROOT
HETATM    1 BR   UNL     1     -11.142  10.620  69.162  1.00  0.00    -0.340 Br 
HETATM    2  C   UNL     1     -11.349  12.331  68.318  1.00  0.00    -0.289 A  
HETATM    3  C   UNL     1     -11.790  13.423  69.098  1.00  0.00    -0.336 A  
HETATM    4  N   UNL     1     -10.974  13.934  65.033  1.00  0.00    -0.347 NA 
HETATM    5  C   UNL     1     -11.893  14.659  68.462  1.00  0.00    -0.346 A  
HETATM    6  C   UNL     1     -11.068  12.445  66.942  1.00  0.00    -0.287 A  
HETATM    7  C   UNL     1     -10.596  12.867  64.305  1.00  0.00    -0.408 A  
HETATM    8  C   UNL     1     -11.613  14.798  67.106  1.00  0.00    -0.373 A  
HETATM    9  C   UNL     1     -11.213  13.720  66.341  1.00  0.00    -0.316 A  
HETATM   10  N   UNL     1     -10.675  11.390  66.177  1.00  0.00    -0.270 NA 
HETATM   11  C   UNL     1     -10.451  11.619  64.864  1.00  0.00    -0.288 A  
ENDROOT
BRANCH   3  12
HETATM   12  N   UNL     1     -12.098  13.276  70.472  1.00  0.00    -0.476 NA 
HETATM   13  H   UNL     1     -12.069  12.333  70.858  1.00  0.00     0.000 HD 
BRANCH  12  14
HETATM   14  C   UNL     1     -12.430  14.286  71.321  1.00  0.00    -0.365 A  
HETATM   15  C   UNL     1     -13.977  15.512  72.458  1.00  0.00    -0.555 A  
HETATM   16  N   UNL     1     -13.772  14.401  71.546  1.00  0.00    -0.383 NA 
HETATM   17  H   UNL     1     -10.644  15.236  71.814  1.00  0.00     0.000 HD 
HETATM   18  N   UNL     1     -11.655  15.141  71.918  1.00  0.00    -0.415 NA 
HETATM   19  C   UNL     1     -12.548  15.949  72.778  1.00  0.00    -0.470 A  
ENDBRANCH  12  14
ENDBRANCH   3  12
TORSDOF 2
ENDMDL
MODEL       12
REMARK 921   NORMALIZED FREE ENERGY PREDICTED BY IDOCK:   -5.52 KCAL/MOL
REMARK 922        TOTAL FREE ENERGY PREDICTED BY IDOCK:   -6.46 KCAL/MOL
REMARK 923 INTER-LIGAND FREE ENERGY PREDICTED BY IDOCK:   -6.23 KCAL/MOL
REMARK 924 INTRA-LIGAND FREE ENERGY PREDICTED BY IDOCK:   -0.23 KCAL/MOL
REMARK 927      BINDING AFFINITY PREDICTED BY RF-SCORE:    0.00 PKD
ROOT
HETATM    1 BR   UNL     1     -11.122  10.970  68.393  1.00  0.00    -0.339 Br 
HETATM    2  C   UNL     1     -12.047  11.637  69.936  1.00  0.00    -0.301 A  
HETATM    3  C   UNL     1     -12.639  10.712  70.824  1.00  0.00    -0.386 A  
HETATM    4  N   UNL     1     -12.927  14.814  71.558  1.00  0.00    -0.315 NA 
HETATM    5  C   UNL     1     -13.271  11.229  71.954  1.00  0.00    -0.491 A  
HETATM    6  C   UNL     1     -12.121  13.031  70.129  1.00  0.00    -0.307 A  
HETATM    7  C   UNL     1     -12.390  15.674  70.672  1.00  0.00    -0.413 A  
HETATM    8  C   UNL     1     -13.349  12.601  72.171  1.00  0.00    -0.570 A  
HETATM    9  C   UNL     1     -12.797  13.503  71.282  1.00  0.00    -0.338 A  
HETATM   10  N   UNL     1     -11.582  13.929  69.260  1.00  0.00    -0.288 NA 
HETATM   11  C   UNL     1     -11.732  15.241  69.544  1.00  0.00    -0.339 A  
ENDROOT
BRANCH   3  12
HETATM   12  N   UNL     1     -12.580   9.317  70.590  1.00  0.00    -0.496 NA 
HETATM   13  H   UNL     1     -13.045   8.965  69.753  1.00  0.00     0.000 HD 
BRANCH  12  14
HETATM   14  C   UNL     1     -11.957   8.407  71.386  1.00  0.00    -0.297 A  
HETATM   15  C   UNL     1     -11.690   6.280  72.157  1.00  0.00    -0.319 A  
HETATM   16  N   UNL     1     -12.437   7.135  71.253  1.00  0.00    -0.374 NA 
HETATM   17  H   UNL     1     -10.569   9.476  72.510  1.00  0.00     0.000 HD 
HETATM   18  N   UNL     1     -10.999   8.590  72.244  1.00  0.00    -0.359 NA 
HETATM   19  C   UNL     1     -10.663   7.242  72.754  1.00  0.00    -0.299 A  
ENDBRANCH  12  14
ENDBRANCH   3  12
TORSDOF 2
ENDMDL
MODEL       13
REMARK 921   NORMALIZED FREE ENERGY PREDICTED BY IDOCK:   -5.51 KCAL/MOL
REMARK 922        TOTAL FREE ENERGY PREDICTED BY IDOCK:   -6.45 KCAL/MOL
REMARK 923 INTER-LIGAND FREE ENERGY PREDICTED BY IDOCK:   -6.17 KCAL/MOL
REMARK 924 INTRA-LIGAND FREE ENERGY PREDICTED BY IDOCK:   -0.28 KCAL/MOL
REMARK 927      BINDING AFFINITY PREDICTED BY RF-SCORE:    0.00 PKD
ROOT
HETATM    1 BR   UNL     1     -11.744  15.840  70.194  1.00  0.00    -0.375 Br 
HETATM    2  C   UNL     1     -11.219  15.879  68.349  1.00  0.00    -0.368 A  
HETATM    3  C   UNL     1     -11.611  14.813  67.509  1.00  0.00    -0.361 A  
HETATM    4  N   UNL     1      -9.341  17.968  65.981  1.00  0.00    -0.521 NA 
HETATM    5  C   UNL     1     -11.245  14.891  66.167  1.00  0.00    -0.325 A  
HETATM    6  C   UNL     1     -10.446  16.963  67.889  1.00  0.00    -0.344 A  
HETATM    7  C   UNL     1      -8.946  18.950  66.813  1.00  0.00    -0.313 A  
HETATM    8  C   UNL     1     -10.489  15.957  65.687  1.00  0.00    -0.411 A  
HETATM    9  C   UNL     1     -10.081  16.980  66.519  1.00  0.00    -0.314 A  
HETATM   10  N   UNL     1     -10.037  17.977  68.698  1.00  0.00    -0.384 NA 
HETATM   11  C   UNL     1      -9.284  18.954  68.146  1.00  0.00    -0.320 A  
ENDROOT
BRANCH   3  12
HETATM   12  N   UNL     1     -12.359  13.717  68.003  1.00  0.00    -0.392 NA 
HETATM   13  H   UNL     1     -13.341  13.884  68.222  1.00  0.00     0.000 HD 
BRANCH  12  14
HETATM   14  C   UNL     1     -11.879  12.461  68.211  1.00  0.00    -0.309 A  
HETATM   15  C   UNL     1     -11.213  10.781  69.599  1.00  0.00    -0.291 A  
HETATM   16  N   UNL     1     -11.732  12.135  69.530  1.00  0.00    -0.321 NA 
HETATM   17  H   UNL     1     -11.529  11.657  66.323  1.00  0.00     0.000 HD 
HETATM   18  N   UNL     1     -11.540  11.560  67.339  1.00  0.00    -0.556 NA 
HETATM   19  C   UNL     1     -11.171  10.364  68.130  1.00  0.00    -0.268 A  
ENDBRANCH  12  14
ENDBRANCH   3  12
TORSDOF 2
ENDMDL
MODEL       14
REMARK 921   NORMALIZED FREE ENERGY PREDICTED BY IDOCK:   -5.50 KCAL/MOL
REMARK 922        TOTAL FREE ENERGY PREDICTED BY IDOCK:   -6.43 KCAL/MOL
REMARK 923 INTER-LIGAND FREE ENERGY PREDICTED BY IDOCK:   -6.12 KCAL/MOL
REMARK 924 INTRA-LIGAND FREE ENERGY PREDICTED BY IDOCK:   -0.31 KCAL/MOL
REMARK 927      BINDING AFFINITY PREDICTED BY RF-SCORE:    0.00 PKD
ROOT
HETATM    1 BR   UNL     1     -12.227  13.700  69.982  1.00  0.00    -0.369 Br 
HETATM    2  C   UNL     1     -11.674  12.442  68.642  1.00  0.00    -0.326 A  
HETATM    3  C   UNL     1     -11.186  11.183  69.054  1.00  0.00    -0.256 A  
HETATM    4  N   UNL     1     -11.395  12.132  64.991  1.00  0.00    -0.325 NA 
HETATM    5  C   UNL     1     -10.829  10.280  68.054  1.00  0.00    -0.325 A  
HETATM    6  C   UNL     1     -11.758  12.819  67.287  1.00  0.00    -0.378 A  
HETATM    7  C   UNL     1     -11.825  13.356  64.629  1.00  0.00    -0.391 A  
HETATM    8  C   UNL     1     -10.911  10.625  66.708  1.00  0.00    -0.233 A  
HETATM    9  C   UNL     1     -11.358  11.871  66.312  1.00  0.00    -0.334 A  
HETATM   10  N   UNL     1     -12.195  14.043  66.883  1.00  0.00    -0.426 NA 
HETATM   11  C   UNL     1     -12.215  14.294  65.556  1.00  0.00    -0.402 A  
ENDROOT
BRANCH   3  12
HETATM   12  N   UNL     1     -11.080  10.841  70.423  1.00  0.00    -0.462 NA 
HETATM   13  H   UNL     1     -10.397  11.354  70.981  1.00  0.00     0.000 HD 
BRANCH  12  14
HETATM   14  C   UNL     1     -11.811   9.885  71.059  1.00  0.00    -0.376 A  
HETATM   15  C   UNL     1     -13.638   9.233  72.253  1.00  0.00    -0.480 A  
HETATM   16  N   UNL     1     -12.971  10.351  71.610  1.00  0.00    -0.442 NA 
HETATM   17  H   UNL     1     -10.704   8.127  70.925  1.00  0.00     0.000 HD 
HETATM   18  N   UNL     1     -11.547   8.623  71.216  1.00  0.00    -0.273 NA 
HETATM   19  C   UNL     1     -12.726   8.056  71.909  1.00  0.00    -0.327 A  
ENDBRANCH  12  14
ENDBRANCH   3  12
TORSDOF 2
ENDMDL
MODEL       15
REMARK 921   NORMALIZED FREE ENERGY PREDICTED BY IDOCK:   -5.46 KCAL/MOL
REMARK 922        TOTAL FREE ENERGY PREDICTED BY IDOCK:   -6.39 KCAL/MOL
REMARK 923 INTER-LIGAND FREE ENERGY PREDICTED BY IDOCK:   -6.14 KCAL/MOL
REMARK 924 INTRA-LIGAND FREE ENERGY PREDICTED BY IDOCK:   -0.25 KCAL/MOL
REMARK 927      BINDING AFFINITY PREDICTED BY RF-SCORE:    0.00 PKD
ROOT
HETATM    1 BR   UNL     1     -11.743  14.278  69.313  1.00  0.00    -0.388 Br 
HETATM    2  C   UNL     1     -11.374  14.899  67.535  1.00  0.00    -0.342 A  
HETATM    3  C   UNL     1     -11.639  14.038  66.447  1.00  0.00    -0.369 A  
HETATM    4  N   UNL     1     -10.069  17.850  65.778  1.00  0.00    -0.582 NA 
HETATM    5  C   UNL     1     -11.395  14.534  65.168  1.00  0.00    -0.366 A  
HETATM    6  C   UNL     1     -10.836  16.191  67.368  1.00  0.00    -0.265 A  
HETATM    7  C   UNL     1      -9.786  18.634  66.836  1.00  0.00    -0.333 A  
HETATM    8  C   UNL     1     -10.872  15.810  64.977  1.00  0.00    -0.461 A  
HETATM    9  C   UNL     1     -10.584  16.636  66.046  1.00  0.00    -0.233 A  
HETATM   10  N   UNL     1     -10.547  17.014  68.413  1.00  0.00    -0.361 NA 
HETATM   11  C   UNL     1     -10.019  18.224  68.128  1.00  0.00    -0.360 A  
ENDROOT
BRANCH   3  12
HETATM   12  N   UNL     1     -12.147  12.731  66.643  1.00  0.00    -0.501 NA 
HETATM   13  H   UNL     1     -13.160  12.631  66.713  1.00  0.00     0.000 HD 
BRANCH  12  14
HETATM   14  C   UNL     1     -11.400  11.598  66.747  1.00  0.00    -0.286 A  
HETATM   15  C   UNL     1     -10.784   9.707  67.858  1.00  0.00    -0.247 A  
HETATM   16  N   UNL     1     -11.647  10.874  67.879  1.00  0.00    -0.549 NA 
HETATM   17  H   UNL     1     -10.149  11.578  65.084  1.00  0.00     0.000 HD 
HETATM   18  N   UNL     1     -10.497  11.137  65.935  1.00  0.00    -0.257 NA 
HETATM   19  C   UNL     1     -10.079   9.838  66.508  1.00  0.00    -0.239 A  
ENDBRANCH  12  14
ENDBRANCH   3  12
TORSDOF 2
ENDMDL
MODEL       16
REMARK 921   NORMALIZED FREE ENERGY PREDICTED BY IDOCK:   -5.43 KCAL/MOL
REMARK 922        TOTAL FREE ENERGY PREDICTED BY IDOCK:   -6.35 KCAL/MOL
REMARK 923 INTER-LIGAND FREE ENERGY PREDICTED BY IDOCK:   -6.02 KCAL/MOL
REMARK 924 INTRA-LIGAND FREE ENERGY PREDICTED BY IDOCK:   -0.33 KCAL/MOL
REMARK 927      BINDING AFFINITY PREDICTED BY RF-SCORE:    0.00 PKD
ROOT
HETATM    1 BR   UNL     1     -10.921  13.138  68.272  1.00  0.00    -0.294 Br 
HETATM    2  C   UNL     1     -11.927  12.500  69.776  1.00  0.00    -0.289 A  
HETATM    3  C   UNL     1     -12.044  11.106  69.972  1.00  0.00    -0.359 A  
HETATM    4  N   UNL     1     -13.878  13.765  72.621  1.00  0.00    -0.740 NA 
HETATM    5  C   UNL     1     -12.750  10.678  71.095  1.00  0.00    -0.522 A  
HETATM    6  C   UNL     1     -12.532  13.441  70.632  1.00  0.00    -0.311 A  
HETATM    7  C   UNL     1     -13.786  15.087  72.386  1.00  0.00    -0.480 A  
HETATM    8  C   UNL     1     -13.349  11.589  71.960  1.00  0.00    -0.397 A  
HETATM    9  C   UNL     1     -13.260  12.950  71.745  1.00  0.00    -0.384 A  
HETATM   10  N   UNL     1     -12.452  14.785  70.431  1.00  0.00    -0.338 NA 
HETATM   11  C   UNL     1     -13.089  15.588  71.311  1.00  0.00    -0.511 A  
ENDROOT
BRANCH   3  12
HETATM   12  N   UNL     1     -11.455  10.180  69.078  1.00  0.00    -0.466 NA 
HETATM   13  H   UNL     1     -11.774  10.199  68.110  1.00  0.00     0.000 HD 
BRANCH  12  14
HETATM   14  C   UNL     1     -10.499   9.267  69.401  1.00  0.00    -0.219 A  
HETATM   15  C   UNL     1      -8.373   8.737  70.024  1.00  0.00    -0.127 A  
HETATM   16  N   UNL     1      -9.287   9.819  69.708  1.00  0.00    -0.213 NA 
HETATM   17  H   UNL     1     -11.389   7.398  69.185  1.00  0.00     0.000 HD 
HETATM   18  N   UNL     1     -10.585   7.971  69.441  1.00  0.00    -0.226 NA 
HETATM   19  C   UNL     1      -9.270   7.503  69.934  1.00  0.00    -0.147 A  
ENDBRANCH  12  14
ENDBRANCH   3  12
TORSDOF 2
ENDMDL
MODEL       17
REMARK 921   NORMALIZED FREE ENERGY PREDICTED BY IDOCK:   -5.38 KCAL/MOL
REMARK 922        TOTAL FREE ENERGY PREDICTED BY IDOCK:   -6.30 KCAL/MOL
REMARK 923 INTER-LIGAND FREE ENERGY PREDICTED BY IDOCK:   -5.98 KCAL/MOL
REMARK 924 INTRA-LIGAND FREE ENERGY PREDICTED BY IDOCK:   -0.32 KCAL/MOL
REMARK 927      BINDING AFFINITY PREDICTED BY RF-SCORE:    0.00 PKD
ROOT
HETATM    1 BR   UNL     1     -12.911  10.361  71.553  1.00  0.00    -0.579 Br 
HETATM    2  C   UNL     1     -12.527  11.926  70.512  1.00  0.00    -0.215 A  
HETATM    3  C   UNL     1     -12.029  11.763  69.201  1.00  0.00    -0.293 A  
HETATM    4  N   UNL     1     -12.630  15.591  70.762  1.00  0.00    -0.438 NA 
HETATM    5  C   UNL     1     -11.796  12.920  68.459  1.00  0.00    -0.350 A  
HETATM    6  C   UNL     1     -12.740  13.193  71.092  1.00  0.00    -0.300 A  
HETATM    7  C   UNL     1     -13.066  15.717  72.030  1.00  0.00    -0.459 A  
HETATM    8  C   UNL     1     -12.007  14.182  69.007  1.00  0.00    -0.376 A  
HETATM    9  C   UNL     1     -12.463  14.336  70.302  1.00  0.00    -0.361 A  
HETATM   10  N   UNL     1     -13.188  13.358  72.366  1.00  0.00    -0.483 NA 
HETATM   11  C   UNL     1     -13.337  14.622  72.818  1.00  0.00    -0.499 A  
ENDROOT
BRANCH   3  12
HETATM   12  N   UNL     1     -11.791  10.480  68.653  1.00  0.00    -0.716 NA 
HETATM   13  H   UNL     1     -12.579   9.834  68.618  1.00  0.00     0.000 HD 
BRANCH  12  14
HETATM   14  C   UNL     1     -10.600  10.035  68.168  1.00  0.00    -0.227 A  
HETATM   15  C   UNL     1      -8.406   9.491  68.451  1.00  0.00    -0.118 A  
HETATM   16  N   UNL     1      -9.609   9.973  69.105  1.00  0.00    -0.197 NA 
HETATM   17  H   UNL     1     -10.886   9.726  66.129  1.00  0.00     0.000 HD 
HETATM   18  N   UNL     1     -10.290   9.683  66.956  1.00  0.00    -0.247 NA 
HETATM   19  C   UNL     1      -8.889   9.209  67.029  1.00  0.00    -0.123 A  
ENDBRANCH  12  14
ENDBRANCH   3  12
TORSDOF 2
ENDMDL
MODEL       18
REMARK 921   NORMALIZED FREE ENERGY PREDICTED BY IDOCK:   -5.35 KCAL/MOL
REMARK 922        TOTAL FREE ENERGY PREDICTED BY IDOCK:   -6.27 KCAL/MOL
REMARK 923 INTER-LIGAND FREE ENERGY PREDICTED BY IDOCK:   -5.98 KCAL/MOL
REMARK 924 INTRA-LIGAND FREE ENERGY PREDICTED BY IDOCK:   -0.29 KCAL/MOL
REMARK 927      BINDING AFFINITY PREDICTED BY RF-SCORE:    0.00 PKD
ROOT
HETATM    1 BR   UNL     1      -7.748  14.666  67.346  1.00  0.00    -0.206 Br 
HETATM    2  C   UNL     1      -9.546  14.136  66.932  1.00  0.00    -0.270 A  
HETATM    3  C   UNL     1     -10.360  15.021  66.192  1.00  0.00    -0.299 A  
HETATM    4  N   UNL     1     -11.866  11.336  67.458  1.00  0.00    -0.604 NA 
HETATM    5  C   UNL     1     -11.648  14.589  65.877  1.00  0.00    -0.349 A  
HETATM    6  C   UNL     1     -10.005  12.886  67.392  1.00  0.00    -0.217 A  
HETATM    7  C   UNL     1     -11.082  10.531  68.198  1.00  0.00    -0.287 A  
HETATM    8  C   UNL     1     -12.120  13.354  66.313  1.00  0.00    -0.475 A  
HETATM    9  C   UNL     1     -11.331  12.507  67.065  1.00  0.00    -0.328 A  
HETATM   10  N   UNL     1      -9.237  12.042  68.135  1.00  0.00    -0.191 NA 
HETATM   11  C   UNL     1      -9.793  10.877  68.533  1.00  0.00    -0.184 A  
ENDROOT
BRANCH   3  12
HETATM   12  N   UNL     1      -9.887  16.286  65.770  1.00  0.00    -0.462 NA 
HETATM   13  H   UNL     1      -9.348  16.318  64.905  1.00  0.00     0.000 HD 
BRANCH  12  14
HETATM   14  C   UNL     1     -10.091  17.464  66.421  1.00  0.00    -0.327 A  
HETATM   15  C   UNL     1     -10.385  19.723  66.417  1.00  0.00    -0.508 A  
HETATM   16  N   UNL     1     -10.174  18.547  65.592  1.00  0.00    -0.522 NA 
HETATM   17  H   UNL     1     -10.101  17.007  68.452  1.00  0.00     0.000 HD 
HETATM   18  N   UNL     1     -10.199  17.686  67.697  1.00  0.00    -0.335 NA 
HETATM   19  C   UNL     1     -10.494  19.132  67.822  1.00  0.00    -0.419 A  
ENDBRANCH  12  14
ENDBRANCH   3  12
TORSDOF 2
ENDMDL
MODEL       19
REMARK 921   NORMALIZED FREE ENERGY PREDICTED BY IDOCK:   -5.35 KCAL/MOL
REMARK 922        TOTAL FREE ENERGY PREDICTED BY IDOCK:   -6.27 KCAL/MOL
REMARK 923 INTER-LIGAND FREE ENERGY PREDICTED BY IDOCK:   -6.01 KCAL/MOL
REMARK 924 INTRA-LIGAND FREE ENERGY PREDICTED BY IDOCK:   -0.26 KCAL/MOL
REMARK 927      BINDING AFFINITY PREDICTED BY RF-SCORE:    0.00 PKD
ROOT
HETATM    1 BR   UNL     1     -12.902  10.247  71.531  1.00  0.00    -0.593 Br 
HETATM    2  C   UNL     1     -12.525  11.816  70.494  1.00  0.00    -0.230 A  
HETATM    3  C   UNL     1     -12.035  11.659  69.179  1.00  0.00    -0.313 A  
HETATM    4  N   UNL     1     -12.624  15.480  70.760  1.00  0.00    -0.438 NA 
HETATM    5  C   UNL     1     -11.808  12.819  68.440  1.00  0.00    -0.353 A  
HETATM    6  C   UNL     1     -12.733  13.081  71.081  1.00  0.00    -0.283 A  
HETATM    7  C   UNL     1     -13.051  15.601  72.032  1.00  0.00    -0.459 A  
HETATM    8  C   UNL     1     -12.014  14.079  68.995  1.00  0.00    -0.392 A  
HETATM    9  C   UNL     1     -12.462  14.228  70.293  1.00  0.00    -0.361 A  
HETATM   10  N   UNL     1     -13.172  13.241  72.359  1.00  0.00    -0.473 NA 
HETATM   11  C   UNL     1     -13.318  14.503  72.817  1.00  0.00    -0.507 A  
ENDROOT
BRANCH   3  12
HETATM   12  N   UNL     1     -11.802  10.378  68.623  1.00  0.00    -0.707 NA 
HETATM   13  H   UNL     1     -12.585   9.924  68.154  1.00  0.00     0.000 HD 
BRANCH  12  14
HETATM   14  C   UNL     1     -10.622   9.701  68.663  1.00  0.00    -0.217 A  
HETATM   15  C   UNL     1      -9.305   7.945  68.054  1.00  0.00    -0.145 A  
HETATM   16  N   UNL     1     -10.613   8.559  67.915  1.00  0.00    -0.196 NA 
HETATM   17  H   UNL     1      -9.390  10.764  69.962  1.00  0.00     0.000 HD 
HETATM   18  N   UNL     1      -9.535   9.989  69.315  1.00  0.00    -0.204 NA 
HETATM   19  C   UNL     1      -8.553   8.954  68.920  1.00  0.00    -0.135 A  
ENDBRANCH  12  14
ENDBRANCH   3  12
TORSDOF 2
ENDMDL
MODEL       20
REMARK 921   NORMALIZED FREE ENERGY PREDICTED BY IDOCK:   -5.35 KCAL/MOL
REMARK 922        TOTAL FREE ENERGY PREDICTED BY IDOCK:   -6.26 KCAL/MOL
REMARK 923 INTER-LIGAND FREE ENERGY PREDICTED BY IDOCK:   -6.16 KCAL/MOL
REMARK 924 INTRA-LIGAND FREE ENERGY PREDICTED BY IDOCK:   -0.11 KCAL/MOL
REMARK 927      BINDING AFFINITY PREDICTED BY RF-SCORE:    0.00 PKD
ROOT
HETATM    1 BR   UNL     1     -10.299  11.401  68.776  1.00  0.00    -0.213 Br 
HETATM    2  C   UNL     1     -11.488  10.745  70.132  1.00  0.00    -0.331 A  
HETATM    3  C   UNL     1     -12.271  11.672  70.854  1.00  0.00    -0.298 A  
HETATM    4  N   UNL     1     -12.547   7.588  71.686  1.00  0.00    -0.336 NA 
HETATM    5  C   UNL     1     -13.152  11.159  71.805  1.00  0.00    -0.536 A  
HETATM    6  C   UNL     1     -11.534   9.358  70.377  1.00  0.00    -0.223 A  
HETATM    7  C   UNL     1     -11.757   6.731  71.012  1.00  0.00    -0.355 A  
HETATM    8  C   UNL     1     -13.221   9.792  72.059  1.00  0.00    -0.557 A  
HETATM    9  C   UNL     1     -12.429   8.892  71.373  1.00  0.00    -0.304 A  
HETATM   10  N   UNL     1     -10.758   8.461  69.709  1.00  0.00    -0.228 NA 
HETATM   11  C   UNL     1     -10.878   7.158  70.044  1.00  0.00    -0.254 A  
ENDROOT
BRANCH   3  12
HETATM   12  N   UNL     1     -12.182  13.064  70.612  1.00  0.00    -0.448 NA 
HETATM   13  H   UNL     1     -11.645  13.363  69.798  1.00  0.00     0.000 HD 
BRANCH  12  14
HETATM   14  C   UNL     1     -12.752  14.038  71.374  1.00  0.00    -0.364 A  
HETATM   15  C   UNL     1     -12.598  15.757  72.860  1.00  0.00    -0.466 A  
HETATM   16  N   UNL     1     -11.855  14.768  72.100  1.00  0.00    -0.290 NA 
HETATM   17  H   UNL     1     -14.806  13.867  71.086  1.00  0.00     0.000 HD 
HETATM   18  N   UNL     1     -14.008  14.344  71.504  1.00  0.00    -0.392 NA 
HETATM   19  C   UNL     1     -14.034  15.531  72.389  1.00  0.00    -0.560 A  
ENDBRANCH  12  14
ENDBRANCH   3  12
TORSDOF 2
ENDMDL
MODEL       21
REMARK 921   NORMALIZED FREE ENERGY PREDICTED BY IDOCK:   -5.31 KCAL/MOL
REMARK 922        TOTAL FREE ENERGY PREDICTED BY IDOCK:   -6.23 KCAL/MOL
REMARK 923 INTER-LIGAND FREE ENERGY PREDICTED BY IDOCK:   -5.93 KCAL/MOL
REMARK 924 INTRA-LIGAND FREE ENERGY PREDICTED BY IDOCK:   -0.30 KCAL/MOL
REMARK 927      BINDING AFFINITY PREDICTED BY RF-SCORE:    0.00 PKD
ROOT
HETATM    1 BR   UNL     1     -11.927  14.697  64.554  1.00  0.00    -0.438 Br 
HETATM    2  C   UNL     1     -11.405  13.145  65.555  1.00  0.00    -0.299 A  
HETATM    3  C   UNL     1     -11.699  13.098  66.935  1.00  0.00    -0.387 A  
HETATM    4  N   UNL     1      -9.716   9.914  65.096  1.00  0.00    -0.307 NA 
HETATM    5  C   UNL     1     -11.339  11.940  67.624  1.00  0.00    -0.372 A  
HETATM    6  C   UNL     1     -10.730  12.104  64.885  1.00  0.00    -0.295 A  
HETATM    7  C   UNL     1      -9.411  10.005  63.788  1.00  0.00    -0.257 A  
HETATM    8  C   UNL     1     -10.680  10.896  66.983  1.00  0.00    -0.323 A  
HETATM    9  C   UNL     1     -10.366  10.961  65.639  1.00  0.00    -0.242 A  
HETATM   10  N   UNL     1     -10.414  12.157  63.563  1.00  0.00    -0.450 NA 
HETATM   11  C   UNL     1      -9.751  11.105  63.036  1.00  0.00    -0.359 A  
ENDROOT
BRANCH   3  12
HETATM   12  N   UNL     1     -12.347  14.171  67.592  1.00  0.00    -0.552 NA 
HETATM   13  H   UNL     1     -13.264  14.447  67.240  1.00  0.00     0.000 HD 
BRANCH  12  14
HETATM   14  C   UNL     1     -11.852  14.865  68.653  1.00  0.00    -0.300 A  
HETATM   15  C   UNL     1     -10.590  16.550  69.522  1.00  0.00    -0.321 A  
HETATM   16  N   UNL     1     -11.045  15.910  68.302  1.00  0.00    -0.330 NA 
HETATM   17  H   UNL     1     -12.552  13.895  70.356  1.00  0.00     0.000 HD 
HETATM   18  N   UNL     1     -12.033  14.658  69.922  1.00  0.00    -0.309 NA 
HETATM   19  C   UNL     1     -11.328  15.766  70.607  1.00  0.00    -0.388 A  
ENDBRANCH  12  14
ENDBRANCH   3  12
TORSDOF 2
ENDMDL
MODEL       22
REMARK 921   NORMALIZED FREE ENERGY PREDICTED BY IDOCK:   -5.31 KCAL/MOL
REMARK 922        TOTAL FREE ENERGY PREDICTED BY IDOCK:   -6.22 KCAL/MOL
REMARK 923 INTER-LIGAND FREE ENERGY PREDICTED BY IDOCK:   -5.90 KCAL/MOL
REMARK 924 INTRA-LIGAND FREE ENERGY PREDICTED BY IDOCK:   -0.32 KCAL/MOL
REMARK 927      BINDING AFFINITY PREDICTED BY RF-SCORE:    0.00 PKD
ROOT
HETATM    1 BR   UNL     1     -11.040  10.913  67.486  1.00  0.00    -0.359 Br 
HETATM    2  C   UNL     1     -11.652  12.094  68.869  1.00  0.00    -0.324 A  
HETATM    3  C   UNL     1     -12.244  11.536  70.024  1.00  0.00    -0.278 A  
HETATM    4  N   UNL     1     -11.860  15.679  69.648  1.00  0.00    -0.355 NA 
HETATM    5  C   UNL     1     -12.643  12.420  71.025  1.00  0.00    -0.349 A  
HETATM    6  C   UNL     1     -11.505  13.483  68.686  1.00  0.00    -0.308 A  
HETATM    7  C   UNL     1     -11.330  16.184  68.518  1.00  0.00    -0.359 A  
HETATM    8  C   UNL     1     -12.501  13.796  70.871  1.00  0.00    -0.451 A  
HETATM    9  C   UNL     1     -11.951  14.338  69.725  1.00  0.00    -0.339 A  
HETATM   10  N   UNL     1     -10.966  14.029  67.562  1.00  0.00    -0.273 NA 
HETATM   11  C   UNL     1     -10.894  15.376  67.494  1.00  0.00    -0.305 A  
ENDROOT
BRANCH   3  12
HETATM   12  N   UNL     1     -12.411  10.138  70.170  1.00  0.00    -0.523 NA 
HETATM   13  H   UNL     1     -13.042   9.673  69.517  1.00  0.00     0.000 HD 
BRANCH  12  14
HETATM   14  C   UNL     1     -11.801   9.362  71.107  1.00  0.00    -0.338 A  
HETATM   15  C   UNL     1      -9.935   8.648  72.201  1.00  0.00    -0.316 A  
HETATM   16  N   UNL     1     -10.447   9.534  71.172  1.00  0.00    -0.315 NA 
HETATM   17  H   UNL     1     -13.302   8.198  71.958  1.00  0.00     0.000 HD 
HETATM   18  N   UNL     1     -12.326   8.492  71.916  1.00  0.00    -0.330 NA 
HETATM   19  C   UNL     1     -11.209   8.016  72.762  1.00  0.00    -0.382 A  
ENDBRANCH  12  14
ENDBRANCH   3  12
TORSDOF 2
ENDMDL
MODEL       23
REMARK 921   NORMALIZED FREE ENERGY PREDICTED BY IDOCK:   -5.29 KCAL/MOL
REMARK 922        TOTAL FREE ENERGY PREDICTED BY IDOCK:   -6.20 KCAL/MOL
REMARK 923 INTER-LIGAND FREE ENERGY PREDICTED BY IDOCK:   -5.97 KCAL/MOL
REMARK 924 INTRA-LIGAND FREE ENERGY PREDICTED BY IDOCK:   -0.23 KCAL/MOL
REMARK 927      BINDING AFFINITY PREDICTED BY RF-SCORE:    0.00 PKD
ROOT
HETATM    1 BR   UNL     1     -10.593  14.927  65.117  1.00  0.00    -0.464 Br 
HETATM    2  C   UNL     1     -10.764  15.717  66.858  1.00  0.00    -0.307 A  
HETATM    3  C   UNL     1     -11.548  15.055  67.828  1.00  0.00    -0.319 A  
HETATM    4  N   UNL     1      -9.664  18.667  68.751  1.00  0.00    -0.373 NA 
HETATM    5  C   UNL     1     -11.620  15.637  69.093  1.00  0.00    -0.393 A  
HETATM    6  C   UNL     1     -10.114  16.941  67.112  1.00  0.00    -0.287 A  
HETATM    7  C   UNL     1      -8.958  19.297  67.794  1.00  0.00    -0.307 A  
HETATM    8  C   UNL     1     -10.980  16.841  69.370  1.00  0.00    -0.176 A  
HETATM    9  C   UNL     1     -10.242  17.501  68.408  1.00  0.00    -0.372 A  
HETATM   10  N   UNL     1      -9.385  17.601  66.171  1.00  0.00    -0.488 NA 
HETATM   11  C   UNL     1      -8.822  18.777  66.528  1.00  0.00    -0.312 A  
ENDROOT
BRANCH   3  12
HETATM   12  N   UNL     1     -12.219  13.843  67.538  1.00  0.00    -0.494 NA 
HETATM   13  H   UNL     1     -13.032  13.895  66.924  1.00  0.00     0.000 HD 
BRANCH  12  14
HETATM   14  C   UNL     1     -11.873  12.614  68.010  1.00  0.00    -0.323 A  
HETATM   15  C   UNL     1     -11.239  10.452  67.674  1.00  0.00    -0.213 A  
HETATM   16  N   UNL     1     -11.584  11.707  67.031  1.00  0.00    -0.547 NA 
HETATM   17  H   UNL     1     -12.034  12.725  70.082  1.00  0.00     0.000 HD 
HETATM   18  N   UNL     1     -11.796  12.202  69.240  1.00  0.00    -0.318 NA 
HETATM   19  C   UNL     1     -11.293  10.812  69.158  1.00  0.00    -0.282 A  
ENDBRANCH  12  14
ENDBRANCH   3  12
TORSDOF 2
ENDMDL
MODEL       24
REMARK 921   NORMALIZED FREE ENERGY PREDICTED BY IDOCK:   -5.27 KCAL/MOL
REMARK 922        TOTAL FREE ENERGY PREDICTED BY IDOCK:   -6.18 KCAL/MOL
REMARK 923 INTER-LIGAND FREE ENERGY PREDICTED BY IDOCK:   -5.92 KCAL/MOL
REMARK 924 INTRA-LIGAND FREE ENERGY PREDICTED BY IDOCK:   -0.25 KCAL/MOL
REMARK 927      BINDING AFFINITY PREDICTED BY RF-SCORE:    0.00 PKD
ROOT
HETATM    1 BR   UNL     1     -13.274  15.362  71.360  1.00  0.00    -0.610 Br 
HETATM    2  C   UNL     1     -12.478  14.038  70.223  1.00  0.00    -0.338 A  
HETATM    3  C   UNL     1     -11.900  14.451  69.002  1.00  0.00    -0.323 A  
HETATM    4  N   UNL     1     -11.879  10.415  70.081  1.00  0.00    -0.287 NA 
HETATM    5  C   UNL     1     -11.298  13.468  68.218  1.00  0.00    -0.328 A  
HETATM    6  C   UNL     1     -12.507  12.690  70.632  1.00  0.00    -0.239 A  
HETATM    7  C   UNL     1     -12.475  10.044  71.230  1.00  0.00    -0.392 A  
HETATM    8  C   UNL     1     -11.306  12.131  68.605  1.00  0.00    -0.330 A  
HETATM    9  C   UNL     1     -11.902  11.728  69.784  1.00  0.00    -0.349 A  
HETATM   10  N   UNL     1     -13.092  12.280  71.791  1.00  0.00    -0.408 NA 
HETATM   11  C   UNL     1     -13.072  10.958  72.068  1.00  0.00    -0.356 A  
ENDROOT
BRANCH   3  12
HETATM   12  N   UNL     1     -11.914  15.807  68.597  1.00  0.00    -0.518 NA 
HETATM   13  H   UNL     1     -12.816  16.282  68.588  1.00  0.00     0.000 HD 
BRANCH  12  14
HETATM   14  C   UNL     1     -10.825  16.531  68.219  1.00  0.00    -0.352 A  
HETATM   15  C   UNL     1      -8.702  17.277  68.572  1.00  0.00    -0.273 A  
HETATM   16  N   UNL     1      -9.781  16.461  69.097  1.00  0.00    -0.268 NA 
HETATM   17  H   UNL     1     -11.351  17.479  66.442  1.00  0.00     0.000 HD 
HETATM   18  N   UNL     1     -10.661  17.270  67.163  1.00  0.00    -0.298 NA 
HETATM   19  C   UNL     1      -9.260  17.745  67.228  1.00  0.00    -0.253 A  
ENDBRANCH  12  14
ENDBRANCH   3  12
TORSDOF 2
ENDMDL
MODEL       25
REMARK 921   NORMALIZED FREE ENERGY PREDICTED BY IDOCK:   -5.23 KCAL/MOL
REMARK 922        TOTAL FREE ENERGY PREDICTED BY IDOCK:   -6.13 KCAL/MOL
REMARK 923 INTER-LIGAND FREE ENERGY PREDICTED BY IDOCK:   -5.93 KCAL/MOL
REMARK 924 INTRA-LIGAND FREE ENERGY PREDICTED BY IDOCK:   -0.20 KCAL/MOL
REMARK 927      BINDING AFFINITY PREDICTED BY RF-SCORE:    0.00 PKD
ROOT
HETATM    1 BR   UNL     1     -12.561  13.462  70.852  1.00  0.00    -0.364 Br 
HETATM    2  C   UNL     1     -11.958  12.144  69.595  1.00  0.00    -0.284 A  
HETATM    3  C   UNL     1     -11.842  12.506  68.235  1.00  0.00    -0.309 A  
HETATM    4  N   UNL     1     -10.903   8.626  69.465  1.00  0.00    -0.181 NA 
HETATM    5  C   UNL     1     -11.366  11.535  67.355  1.00  0.00    -0.367 A  
HETATM    6  C   UNL     1     -11.664  10.847  70.063  1.00  0.00    -0.345 A  
HETATM    7  C   UNL     1     -11.065   8.296  70.760  1.00  0.00    -0.258 A  
HETATM    8  C   UNL     1     -11.060  10.251  67.796  1.00  0.00    -0.335 A  
HETATM    9  C   UNL     1     -11.208   9.892  69.121  1.00  0.00    -0.107 A  
HETATM   10  N   UNL     1     -11.807  10.481  71.366  1.00  0.00    -0.242 NA 
HETATM   11  C   UNL     1     -11.510   9.204  71.693  1.00  0.00    -0.381 A  
ENDROOT
BRANCH   3  12
HETATM   12  N   UNL     1     -12.176  13.806  67.783  1.00  0.00    -0.434 NA 
HETATM   13  H   UNL     1     -12.512  14.469  68.481  1.00  0.00     0.000 HD 
BRANCH  12  14
HETATM   14  C   UNL     1     -12.086  14.244  66.498  1.00  0.00    -0.429 A  
HETATM   15  C   UNL     1     -11.026  15.416  64.857  1.00  0.00    -0.437 A  
HETATM   16  N   UNL     1     -10.989  15.020  66.253  1.00  0.00    -0.336 NA 
HETATM   17  H   UNL     1     -13.784  13.534  65.526  1.00  0.00     0.000 HD 
HETATM   18  N   UNL     1     -12.896  14.035  65.504  1.00  0.00    -0.668 NA 
HETATM   19  C   UNL     1     -12.258  14.678  64.333  1.00  0.00    -0.452 A  
ENDBRANCH  12  14
ENDBRANCH   3  12
TORSDOF 2
ENDMDL
MODEL       26
REMARK 921   NORMALIZED FREE ENERGY PREDICTED BY IDOCK:   -5.22 KCAL/MOL
REMARK 922        TOTAL FREE ENERGY PREDICTED BY IDOCK:   -6.13 KCAL/MOL
REMARK 923 INTER-LIGAND FREE ENERGY PREDICTED BY IDOCK:   -5.84 KCAL/MOL
REMARK 924 INTRA-LIGAND FREE ENERGY PREDICTED BY IDOCK:   -0.29 KCAL/MOL
REMARK 927      BINDING AFFINITY PREDICTED BY RF-SCORE:    0.00 PKD
ROOT
HETATM    1 BR   UNL     1     -11.038  15.279  64.753  1.00  0.00    -0.368 Br 
HETATM    2  C   UNL     1     -10.966  15.819  66.592  1.00  0.00    -0.179 A  
HETATM    3  C   UNL     1     -11.429  14.924  67.581  1.00  0.00    -0.352 A  
HETATM    4  N   UNL     1      -9.954  18.678  68.668  1.00  0.00    -0.379 NA 
HETATM    5  C   UNL     1     -11.328  15.333  68.910  1.00  0.00    -0.315 A  
HETATM    6  C   UNL     1     -10.467  17.101  66.901  1.00  0.00    -0.274 A  
HETATM    7  C   UNL     1      -9.559  19.528  67.702  1.00  0.00    -0.336 A  
HETATM    8  C   UNL     1     -10.830  16.591  69.240  1.00  0.00    -0.326 A  
HETATM    9  C   UNL     1     -10.410  17.476  68.267  1.00  0.00    -0.379 A  
HETATM   10  N   UNL     1     -10.051  17.982  65.952  1.00  0.00    -0.575 NA 
HETATM   11  C   UNL     1      -9.608  19.188  66.369  1.00  0.00    -0.361 A  
ENDROOT
BRANCH   3  12
HETATM   12  N   UNL     1     -11.957  13.655  67.243  1.00  0.00    -0.387 NA 
HETATM   13  H   UNL     1     -12.933  13.619  66.950  1.00  0.00     0.000 HD 
BRANCH  12  14
HETATM   14  C   UNL     1     -11.273  12.479  67.275  1.00  0.00    -0.295 A  
HETATM   15  C   UNL     1     -11.132  10.264  67.792  1.00  0.00    -0.269 A  
HETATM   16  N   UNL     1     -11.979  11.443  67.819  1.00  0.00    -0.646 NA 
HETATM   17  H   UNL     1      -9.383  12.889  66.507  1.00  0.00     0.000 HD 
HETATM   18  N   UNL     1     -10.063  12.225  66.877  1.00  0.00    -0.209 NA 
HETATM   19  C   UNL     1      -9.879  10.769  67.076  1.00  0.00    -0.187 A  
ENDBRANCH  12  14
ENDBRANCH   3  12
TORSDOF 2
ENDMDL
MODEL       27
REMARK 921   NORMALIZED FREE ENERGY PREDICTED BY IDOCK:   -5.22 KCAL/MOL
REMARK 922        TOTAL FREE ENERGY PREDICTED BY IDOCK:   -6.13 KCAL/MOL
REMARK 923 INTER-LIGAND FREE ENERGY PREDICTED BY IDOCK:   -5.83 KCAL/MOL
REMARK 924 INTRA-LIGAND FREE ENERGY PREDICTED BY IDOCK:   -0.30 KCAL/MOL
REMARK 927      BINDING AFFINITY PREDICTED BY RF-SCORE:    0.00 PKD
ROOT
HETATM    1 BR   UNL     1     -11.010  11.850  66.055  1.00  0.00    -0.363 Br 
HETATM    2  C   UNL     1     -11.311  13.073  67.503  1.00  0.00    -0.305 A  
HETATM    3  C   UNL     1     -11.854  12.577  68.708  1.00  0.00    -0.303 A  
HETATM    4  N   UNL     1     -10.944  16.635  68.325  1.00  0.00    -0.359 NA 
HETATM    5  C   UNL     1     -12.025  13.485  69.751  1.00  0.00    -0.405 A  
HETATM    6  C   UNL     1     -10.994  14.433  67.316  1.00  0.00    -0.297 A  
HETATM    7  C   UNL     1     -10.467  17.088  67.151  1.00  0.00    -0.291 A  
HETATM    8  C   UNL     1     -11.711  14.831  69.593  1.00  0.00    -0.354 A  
HETATM    9  C   UNL     1     -11.210  15.318  68.402  1.00  0.00    -0.309 A  
HETATM   10  N   UNL     1     -10.501  14.925  66.146  1.00  0.00    -0.294 NA 
HETATM   11  C   UNL     1     -10.251  16.251  66.081  1.00  0.00    -0.346 A  
ENDROOT
BRANCH   3  12
HETATM   12  N   UNL     1     -12.196  11.211  68.860  1.00  0.00    -0.638 NA 
HETATM   13  H   UNL     1     -12.706  10.770  68.094  1.00  0.00     0.000 HD 
BRANCH  12  14
HETATM   14  C   UNL     1     -11.903  10.438  69.940  1.00  0.00    -0.238 A  
HETATM   15  C   UNL     1     -10.423   9.266  71.215  1.00  0.00    -0.338 A  
HETATM   16  N   UNL     1     -10.586  10.085  70.028  1.00  0.00    -0.276 NA 
HETATM   17  H   UNL     1     -13.709  10.108  70.921  1.00  0.00     0.000 HD 
HETATM   18  N   UNL     1     -12.698   9.992  70.867  1.00  0.00    -0.334 NA 
HETATM   19  C   UNL     1     -11.823   9.280  71.827  1.00  0.00    -0.384 A  
ENDBRANCH  12  14
ENDBRANCH   3  12
TORSDOF 2
ENDMDL
MODEL       28
REMARK 921   NORMALIZED FREE ENERGY PREDICTED BY IDOCK:   -5.19 KCAL/MOL
REMARK 922        TOTAL FREE ENERGY PREDICTED BY IDOCK:   -6.09 KCAL/MOL
REMARK 923 INTER-LIGAND FREE ENERGY PREDICTED BY IDOCK:   -5.89 KCAL/MOL
REMARK 924 INTRA-LIGAND FREE ENERGY PREDICTED BY IDOCK:   -0.20 KCAL/MOL
REMARK 927      BINDING AFFINITY PREDICTED BY RF-SCORE:    0.00 PKD
ROOT
HETATM    1 BR   UNL     1     -12.199  13.787  70.352  1.00  0.00    -0.425 Br 
HETATM    2  C   UNL     1     -11.696  13.427  68.536  1.00  0.00    -0.357 A  
HETATM    3  C   UNL     1     -11.833  12.111  68.043  1.00  0.00    -0.285 A  
HETATM    4  N   UNL     1     -10.344  15.137  65.578  1.00  0.00    -0.343 NA 
HETATM    5  C   UNL     1     -11.494  11.892  66.708  1.00  0.00    -0.384 A  
HETATM    6  C   UNL     1     -11.191  14.484  67.752  1.00  0.00    -0.298 A  
HETATM    7  C   UNL     1     -10.184  16.373  66.087  1.00  0.00    -0.348 A  
HETATM    8  C   UNL     1     -11.001  12.922  65.912  1.00  0.00    -0.300 A  
HETATM    9  C   UNL     1     -10.838  14.200  66.409  1.00  0.00    -0.304 A  
HETATM   10  N   UNL     1     -11.025  15.747  68.230  1.00  0.00    -0.310 NA 
HETATM   11  C   UNL     1     -10.515  16.673  67.389  1.00  0.00    -0.314 A  
ENDROOT
BRANCH   3  12
HETATM   12  N   UNL     1     -12.311  11.059  68.860  1.00  0.00    -0.711 NA 
HETATM   13  H   UNL     1     -13.294  10.804  68.765  1.00  0.00     0.000 HD 
BRANCH  12  14
HETATM   14  C   UNL     1     -11.570  10.359  69.763  1.00  0.00    -0.269 A  
HETATM   15  C   UNL     1     -11.373   9.204  71.717  1.00  0.00    -0.381 A  
HETATM   16  N   UNL     1     -12.283   9.924  70.844  1.00  0.00    -0.316 NA 
HETATM   17  H   UNL     1      -9.619  10.367  69.039  1.00  0.00     0.000 HD 
HETATM   18  N   UNL     1     -10.304  10.072  69.734  1.00  0.00    -0.240 NA 
HETATM   19  C   UNL     1     -10.065   9.226  70.926  1.00  0.00    -0.302 A  
ENDBRANCH  12  14
ENDBRANCH   3  12
TORSDOF 2
ENDMDL
MODEL       29
REMARK 921   NORMALIZED FREE ENERGY PREDICTED BY IDOCK:   -5.16 KCAL/MOL
REMARK 922        TOTAL FREE ENERGY PREDICTED BY IDOCK:   -6.06 KCAL/MOL
REMARK 923 INTER-LIGAND FREE ENERGY PREDICTED BY IDOCK:   -5.80 KCAL/MOL
REMARK 924 INTRA-LIGAND FREE ENERGY PREDICTED BY IDOCK:   -0.26 KCAL/MOL
REMARK 927      BINDING AFFINITY PREDICTED BY RF-SCORE:    0.00 PKD
ROOT
HETATM    1 BR   UNL     1     -13.167  12.878  72.044  1.00  0.00    -0.497 Br 
HETATM    2  C   UNL     1     -12.395  12.557  70.317  1.00  0.00    -0.190 A  
HETATM    3  C   UNL     1     -12.260  11.224  69.871  1.00  0.00    -0.288 A  
HETATM    4  N   UNL     1     -10.976  14.387  67.464  1.00  0.00    -0.286 NA 
HETATM    5  C   UNL     1     -11.730  11.029  68.597  1.00  0.00    -0.367 A  
HETATM    6  C   UNL     1     -11.970  13.661  69.551  1.00  0.00    -0.341 A  
HETATM    7  C   UNL     1     -11.077  15.645  67.932  1.00  0.00    -0.324 A  
HETATM    8  C   UNL     1     -11.312  12.104  67.818  1.00  0.00    -0.371 A  
HETATM    9  C   UNL     1     -11.415  13.404  68.272  1.00  0.00    -0.315 A  
HETATM   10  N   UNL     1     -12.066  14.946  69.988  1.00  0.00    -0.319 NA 
HETATM   11  C   UNL     1     -11.609  15.920  69.170  1.00  0.00    -0.379 A  
ENDROOT
BRANCH   3  12
HETATM   12  N   UNL     1     -12.663  10.130  70.674  1.00  0.00    -0.490 NA 
HETATM   13  H   UNL     1     -13.657   9.902  70.686  1.00  0.00     0.000 HD 
BRANCH  12  14
HETATM   14  C   UNL     1     -11.837   9.356  71.430  1.00  0.00    -0.374 A  
HETATM   15  C   UNL     1     -11.483   7.626  72.869  1.00  0.00    -0.290 A  
HETATM   16  N   UNL     1     -12.479   8.360  72.109  1.00  0.00    -0.353 NA 
HETATM   17  H   UNL     1      -9.931  10.165  71.213  1.00  0.00     0.000 HD 
HETATM   18  N   UNL     1     -10.551   9.450  71.593  1.00  0.00    -0.288 NA 
HETATM   19  C   UNL     1     -10.178   8.302  72.450  1.00  0.00    -0.327 A  
ENDBRANCH  12  14
ENDBRANCH   3  12
TORSDOF 2
ENDMDL
MODEL       30
REMARK 921   NORMALIZED FREE ENERGY PREDICTED BY IDOCK:   -5.13 KCAL/MOL
REMARK 922        TOTAL FREE ENERGY PREDICTED BY IDOCK:   -6.03 KCAL/MOL
REMARK 923 INTER-LIGAND FREE ENERGY PREDICTED BY IDOCK:   -5.79 KCAL/MOL
REMARK 924 INTRA-LIGAND FREE ENERGY PREDICTED BY IDOCK:   -0.24 KCAL/MOL
REMARK 927      BINDING AFFINITY PREDICTED BY RF-SCORE:    0.00 PKD
ROOT
HETATM    1 BR   UNL     1     -10.992  13.626  64.909  1.00  0.00    -0.401 Br 
HETATM    2  C   UNL     1     -11.147  14.285  66.704  1.00  0.00    -0.321 A  
HETATM    3  C   UNL     1     -10.899  15.654  66.948  1.00  0.00    -0.282 A  
HETATM    4  N   UNL     1     -11.930  13.111  70.097  1.00  0.00    -0.335 NA 
HETATM    5  C   UNL     1     -11.057  16.107  68.257  1.00  0.00    -0.348 A  
HETATM    6  C   UNL     1     -11.489  13.381  67.730  1.00  0.00    -0.316 A  
HETATM    7  C   UNL     1     -12.119  11.802  69.843  1.00  0.00    -0.287 A  
HETATM    8  C   UNL     1     -11.402  15.235  69.284  1.00  0.00    -0.308 A  
HETATM    9  C   UNL     1     -11.611  13.891  69.047  1.00  0.00    -0.310 A  
HETATM   10  N   UNL     1     -11.696  12.054  67.509  1.00  0.00    -0.517 NA 
HETATM   11  C   UNL     1     -12.002  11.283  68.574  1.00  0.00    -0.218 A  
ENDROOT
BRANCH   3  12
HETATM   12  N   UNL     1     -10.523  16.536  65.906  1.00  0.00    -0.340 NA 
HETATM   13  H   UNL     1     -10.805  16.285  64.959  1.00  0.00     0.000 HD 
BRANCH  12  14
HETATM   14  C   UNL     1      -9.818  17.690  66.061  1.00  0.00    -0.170 A  
HETATM   15  C   UNL     1      -9.701  19.963  66.143  1.00  0.00    -0.427 A  
HETATM   16  N   UNL     1     -10.578  18.820  65.963  1.00  0.00    -0.446 NA 
HETATM   17  H   UNL     1      -7.831  17.122  66.312  1.00  0.00     0.000 HD 
HETATM   18  N   UNL     1      -8.546  17.848  66.273  1.00  0.00    -0.445 NA 
HETATM   19  C   UNL     1      -8.353  19.306  66.442  1.00  0.00    -0.321 A  
ENDBRANCH  12  14
ENDBRANCH   3  12
TORSDOF 2
ENDMDL
MODEL       31
REMARK 921   NORMALIZED FREE ENERGY PREDICTED BY IDOCK:   -5.13 KCAL/MOL
REMARK 922        TOTAL FREE ENERGY PREDICTED BY IDOCK:   -6.02 KCAL/MOL
REMARK 923 INTER-LIGAND FREE ENERGY PREDICTED BY IDOCK:   -5.82 KCAL/MOL
REMARK 924 INTRA-LIGAND FREE ENERGY PREDICTED BY IDOCK:   -0.20 KCAL/MOL
REMARK 927      BINDING AFFINITY PREDICTED BY RF-SCORE:    0.00 PKD
ROOT
HETATM    1 BR   UNL     1     -11.759  15.538  68.814  1.00  0.00    -0.344 Br 
HETATM    2  C   UNL     1     -11.759  13.621  68.909  1.00  0.00    -0.338 A  
HETATM    3  C   UNL     1     -11.225  12.889  67.826  1.00  0.00    -0.280 A  
HETATM    4  N   UNL     1     -12.784  10.895  71.149  1.00  0.00    -0.401 NA 
HETATM    5  C   UNL     1     -11.206  11.500  67.944  1.00  0.00    -0.344 A  
HETATM    6  C   UNL     1     -12.306  13.001  70.050  1.00  0.00    -0.152 A  
HETATM    7  C   UNL     1     -13.326  11.618  72.148  1.00  0.00    -0.205 A  
HETATM    8  C   UNL     1     -11.733  10.865  69.065  1.00  0.00    -0.391 A  
HETATM    9  C   UNL     1     -12.284  11.585  70.106  1.00  0.00    -0.308 A  
HETATM   10  N   UNL     1     -12.853  13.699  71.082  1.00  0.00    -0.337 NA 
HETATM   11  C   UNL     1     -13.362  12.992  72.115  1.00  0.00    -0.524 A  
ENDROOT
BRANCH   3  12
HETATM   12  N   UNL     1     -10.712  13.535  66.676  1.00  0.00    -0.281 NA 
HETATM   13  H   UNL     1     -10.038  14.286  66.824  1.00  0.00     0.000 HD 
BRANCH  12  14
HETATM   14  C   UNL     1     -11.042  13.239  65.389  1.00  0.00    -0.282 A  
HETATM   15  C   UNL     1     -10.640  12.168  63.419  1.00  0.00    -0.410 A  
HETATM   16  N   UNL     1     -10.168  12.388  64.775  1.00  0.00    -0.288 NA 
HETATM   17  H   UNL     1     -12.756  14.343  64.965  1.00  0.00     0.000 HD 
HETATM   18  N   UNL     1     -12.049  13.663  64.685  1.00  0.00    -0.395 NA 
HETATM   19  C   UNL     1     -11.951  12.951  63.390  1.00  0.00    -0.537 A  
ENDBRANCH  12  14
ENDBRANCH   3  12
TORSDOF 2
ENDMDL
MODEL       32
REMARK 921   NORMALIZED FREE ENERGY PREDICTED BY IDOCK:   -5.11 KCAL/MOL
REMARK 922        TOTAL FREE ENERGY PREDICTED BY IDOCK:   -6.00 KCAL/MOL
REMARK 923 INTER-LIGAND FREE ENERGY PREDICTED BY IDOCK:   -5.76 KCAL/MOL
REMARK 924 INTRA-LIGAND FREE ENERGY PREDICTED BY IDOCK:   -0.24 KCAL/MOL
REMARK 927      BINDING AFFINITY PREDICTED BY RF-SCORE:    0.00 PKD
ROOT
HETATM    1 BR   UNL     1      -9.150   9.933  69.008  1.00  0.00    -0.177 Br 
HETATM    2  C   UNL     1     -10.797   9.777  69.980  1.00  0.00    -0.278 A  
HETATM    3  C   UNL     1     -11.621  10.916  70.106  1.00  0.00    -0.338 A  
HETATM    4  N   UNL     1     -12.764   7.293  71.840  1.00  0.00    -0.304 NA 
HETATM    5  C   UNL     1     -12.827  10.759  70.786  1.00  0.00    -0.408 A  
HETATM    6  C   UNL     1     -11.129   8.532  70.552  1.00  0.00    -0.244 A  
HETATM    7  C   UNL     1     -11.939   6.233  71.741  1.00  0.00    -0.256 A  
HETATM    8  C   UNL     1     -13.181   9.537  71.352  1.00  0.00    -0.448 A  
HETATM    9  C   UNL     1     -12.356   8.434  71.254  1.00  0.00    -0.266 A  
HETATM   10  N   UNL     1     -10.324   7.438  70.463  1.00  0.00    -0.212 NA 
HETATM   11  C   UNL     1     -10.742   6.304  71.068  1.00  0.00    -0.259 A  
ENDROOT
BRANCH   3  12
HETATM   12  N   UNL     1     -11.249  12.165  69.551  1.00  0.00    -0.450 NA 
HETATM   13  H   UNL     1     -10.697  12.790  70.137  1.00  0.00     0.000 HD 
BRANCH  12  14
HETATM   14  C   UNL     1     -11.567  12.601  68.302  1.00  0.00    -0.332 A  
HETATM   15  C   UNL     1     -11.987  14.279  66.819  1.00  0.00    -0.436 A  
HETATM   16  N   UNL     1     -11.638  13.961  68.192  1.00  0.00    -0.314 NA 
HETATM   17  H   UNL     1     -11.867  10.892  67.152  1.00  0.00     0.000 HD 
HETATM   18  N   UNL     1     -11.817  11.908  67.232  1.00  0.00    -0.612 NA 
HETATM   19  C   UNL     1     -12.016  12.904  66.155  1.00  0.00    -0.429 A  
ENDBRANCH  12  14
ENDBRANCH   3  12
TORSDOF 2
ENDMDL
MODEL       33
REMARK 921   NORMALIZED FREE ENERGY PREDICTED BY IDOCK:   -5.11 KCAL/MOL
REMARK 922        TOTAL FREE ENERGY PREDICTED BY IDOCK:   -6.00 KCAL/MOL
REMARK 923 INTER-LIGAND FREE ENERGY PREDICTED BY IDOCK:   -5.72 KCAL/MOL
REMARK 924 INTRA-LIGAND FREE ENERGY PREDICTED BY IDOCK:   -0.29 KCAL/MOL
REMARK 927      BINDING AFFINITY PREDICTED BY RF-SCORE:    0.00 PKD
ROOT
HETATM    1 BR   UNL     1     -11.074  13.371  67.364  1.00  0.00    -0.311 Br 
HETATM    2  C   UNL     1     -11.856  13.914  69.030  1.00  0.00    -0.358 A  
HETATM    3  C   UNL     1     -11.977  15.294  69.305  1.00  0.00    -0.299 A  
HETATM    4  N   UNL     1     -13.291  12.471  72.090  1.00  0.00    -0.510 NA 
HETATM    5  C   UNL     1     -12.584  15.653  70.507  1.00  0.00    -0.423 A  
HETATM    6  C   UNL     1     -12.274  12.919  69.937  1.00  0.00    -0.188 A  
HETATM    7  C   UNL     1     -13.124  11.163  71.820  1.00  0.00    -0.431 A  
HETATM    8  C   UNL     1     -13.013  14.689  71.415  1.00  0.00    -0.404 A  
HETATM    9  C   UNL     1     -12.862  13.341  71.155  1.00  0.00    -0.280 A  
HETATM   10  N   UNL     1     -12.130  11.588  69.693  1.00  0.00    -0.310 NA 
HETATM   11  C   UNL     1     -12.553  10.729  70.646  1.00  0.00    -0.357 A  
ENDROOT
BRANCH   3  12
HETATM   12  N   UNL     1     -11.519  16.274  68.392  1.00  0.00    -0.318 NA 
HETATM   13  H   UNL     1     -12.152  16.543  67.639  1.00  0.00     0.000 HD 
BRANCH  12  14
HETATM   14  C   UNL     1     -10.306  16.889  68.435  1.00  0.00    -0.338 A  
HETATM   15  C   UNL     1      -8.993  18.736  68.194  1.00  0.00    -0.308 A  
HETATM   16  N   UNL     1     -10.346  18.216  68.112  1.00  0.00    -0.380 NA 
HETATM   17  H   UNL     1      -8.926  15.410  68.925  1.00  0.00     0.000 HD 
HETATM   18  N   UNL     1      -9.143  16.386  68.722  1.00  0.00    -0.235 NA 
HETATM   19  C   UNL     1      -8.201  17.527  68.693  1.00  0.00    -0.265 A  
ENDBRANCH  12  14
ENDBRANCH   3  12
TORSDOF 2
ENDMDL
MODEL       34
REMARK 921   NORMALIZED FREE ENERGY PREDICTED BY IDOCK:   -5.09 KCAL/MOL
REMARK 922        TOTAL FREE ENERGY PREDICTED BY IDOCK:   -5.98 KCAL/MOL
REMARK 923 INTER-LIGAND FREE ENERGY PREDICTED BY IDOCK:   -5.87 KCAL/MOL
REMARK 924 INTRA-LIGAND FREE ENERGY PREDICTED BY IDOCK:   -0.11 KCAL/MOL
REMARK 927      BINDING AFFINITY PREDICTED BY RF-SCORE:    0.00 PKD
ROOT
HETATM    1 BR   UNL     1     -10.863  11.723  68.480  1.00  0.00    -0.285 Br 
HETATM    2  C   UNL     1     -11.165  12.464  66.736  1.00  0.00    -0.310 A  
HETATM    3  C   UNL     1     -11.946  13.635  66.622  1.00  0.00    -0.415 A  
HETATM    4  N   UNL     1     -10.351  11.831  63.209  1.00  0.00    -0.417 NA 
HETATM    5  C   UNL     1     -12.114  14.167  65.345  1.00  0.00    -0.415 A  
HETATM    6  C   UNL     1     -10.611  11.809  65.618  1.00  0.00    -0.268 A  
HETATM    7  C   UNL     1      -9.646  10.692  63.343  1.00  0.00    -0.332 A  
HETATM    8  C   UNL     1     -11.569  13.543  64.227  1.00  0.00    -0.433 A  
HETATM    9  C   UNL     1     -10.833  12.380  64.340  1.00  0.00    -0.337 A  
HETATM   10  N   UNL     1      -9.885  10.662  65.716  1.00  0.00    -0.227 NA 
HETATM   11  C   UNL     1      -9.419  10.116  64.572  1.00  0.00    -0.303 A  
ENDROOT
BRANCH   3  12
HETATM   12  N   UNL     1     -12.521  14.255  67.757  1.00  0.00    -0.509 NA 
HETATM   13  H   UNL     1     -13.506  14.067  67.943  1.00  0.00     0.000 HD 
BRANCH  12  14
HETATM   14  C   UNL     1     -11.871  15.081  68.622  1.00  0.00    -0.296 A  
HETATM   15  C   UNL     1     -10.522  16.868  69.045  1.00  0.00    -0.341 A  
HETATM   16  N   UNL     1     -11.160  16.074  68.010  1.00  0.00    -0.346 NA 
HETATM   17  H   UNL     1     -12.251  14.336  70.528  1.00  0.00     0.000 HD 
HETATM   18  N   UNL     1     -11.831  15.039  69.920  1.00  0.00    -0.303 NA 
HETATM   19  C   UNL     1     -11.048  16.227  70.329  1.00  0.00    -0.332 A  
ENDBRANCH  12  14
ENDBRANCH   3  12
TORSDOF 2
ENDMDL
MODEL       35
REMARK 921   NORMALIZED FREE ENERGY PREDICTED BY IDOCK:   -5.08 KCAL/MOL
REMARK 922        TOTAL FREE ENERGY PREDICTED BY IDOCK:   -5.96 KCAL/MOL
REMARK 923 INTER-LIGAND FREE ENERGY PREDICTED BY IDOCK:   -5.78 KCAL/MOL
REMARK 924 INTRA-LIGAND FREE ENERGY PREDICTED BY IDOCK:   -0.18 KCAL/MOL
REMARK 927      BINDING AFFINITY PREDICTED BY RF-SCORE:    0.00 PKD
ROOT
HETATM    1 BR   UNL     1      -9.920   9.720  67.928  1.00  0.00    -0.212 Br 
HETATM    2  C   UNL     1     -10.978  10.866  69.045  1.00  0.00    -0.235 A  
HETATM    3  C   UNL     1     -11.060  12.239  68.725  1.00  0.00    -0.251 A  
HETATM    4  N   UNL     1     -13.078  10.733  72.058  1.00  0.00    -0.464 NA 
HETATM    5  C   UNL     1     -11.867  13.035  69.535  1.00  0.00    -0.385 A  
HETATM    6  C   UNL     1     -11.630  10.306  70.162  1.00  0.00    -0.299 A  
HETATM    7  C   UNL     1     -12.948   9.428  72.364  1.00  0.00    -0.351 A  
HETATM    8  C   UNL     1     -12.528  12.503  70.639  1.00  0.00    -0.323 A  
HETATM    9  C   UNL     1     -12.418  11.166  70.967  1.00  0.00    -0.403 A  
HETATM   10  N   UNL     1     -11.529   8.991  70.497  1.00  0.00    -0.245 NA 
HETATM   11  C   UNL     1     -12.187   8.574  71.601  1.00  0.00    -0.322 A  
ENDROOT
BRANCH   3  12
HETATM   12  N   UNL     1     -10.368  12.784  67.617  1.00  0.00    -0.218 NA 
HETATM   13  H   UNL     1      -9.383  13.011  67.748  1.00  0.00     0.000 HD 
BRANCH  12  14
HETATM   14  C   UNL     1     -10.906  13.030  66.391  1.00  0.00    -0.278 A  
HETATM   15  C   UNL     1     -12.536  12.728  64.828  1.00  0.00    -0.472 A  
HETATM   16  N   UNL     1     -12.085  12.379  66.163  1.00  0.00    -0.641 NA 
HETATM   17  H   UNL     1      -9.559  14.277  65.410  1.00  0.00     0.000 HD 
HETATM   18  N   UNL     1     -10.446  13.774  65.431  1.00  0.00    -0.315 NA 
HETATM   19  C   UNL     1     -11.481  13.737  64.373  1.00  0.00    -0.372 A  
ENDBRANCH  12  14
ENDBRANCH   3  12
TORSDOF 2
ENDMDL
MODEL       36
REMARK 921   NORMALIZED FREE ENERGY PREDICTED BY IDOCK:   -5.04 KCAL/MOL
REMARK 922        TOTAL FREE ENERGY PREDICTED BY IDOCK:   -5.92 KCAL/MOL
REMARK 923 INTER-LIGAND FREE ENERGY PREDICTED BY IDOCK:   -5.65 KCAL/MOL
REMARK 924 INTRA-LIGAND FREE ENERGY PREDICTED BY IDOCK:   -0.28 KCAL/MOL
REMARK 927      BINDING AFFINITY PREDICTED BY RF-SCORE:    0.00 PKD
ROOT
HETATM    1 BR   UNL     1     -12.889  13.549  71.261  1.00  0.00    -0.383 Br 
HETATM    2  C   UNL     1     -12.096  12.508  69.857  1.00  0.00    -0.252 A  
HETATM    3  C   UNL     1     -11.901  13.109  68.594  1.00  0.00    -0.328 A  
HETATM    4  N   UNL     1     -10.778   9.136  69.230  1.00  0.00    -0.213 NA 
HETATM    5  C   UNL     1     -11.288  12.336  67.609  1.00  0.00    -0.374 A  
HETATM    6  C   UNL     1     -11.744  11.170  70.125  1.00  0.00    -0.353 A  
HETATM    7  C   UNL     1     -11.014   8.576  70.431  1.00  0.00    -0.238 A  
HETATM    8  C   UNL     1     -10.924  11.015  67.852  1.00  0.00    -0.317 A  
HETATM    9  C   UNL     1     -11.147  10.422  69.079  1.00  0.00    -0.248 A  
HETATM   10  N   UNL     1     -11.960  10.573  71.329  1.00  0.00    -0.327 NA 
HETATM   11  C   UNL     1     -11.596   9.279  71.460  1.00  0.00    -0.382 A  
ENDROOT
BRANCH   3  12
HETATM   12  N   UNL     1     -12.293  14.445  68.341  1.00  0.00    -0.599 NA 
HETATM   13  H   UNL     1     -13.278  14.610  68.131  1.00  0.00     0.000 HD 
BRANCH  12  14
HETATM   14  C   UNL     1     -11.469  15.528  68.353  1.00  0.00    -0.363 A  
HETATM   15  C   UNL     1     -10.087  16.997  67.294  1.00  0.00    -0.295 A  
HETATM   16  N   UNL     1     -10.942  15.835  67.131  1.00  0.00    -0.288 NA 
HETATM   17  H   UNL     1     -11.370  16.156  70.335  1.00  0.00     0.000 HD 
HETATM   18  N   UNL     1     -11.119  16.279  69.353  1.00  0.00    -0.328 NA 
HETATM   19  C   UNL     1     -10.280  17.349  68.769  1.00  0.00    -0.361 A  
ENDBRANCH  12  14
ENDBRANCH   3  12
TORSDOF 2
ENDMDL
MODEL       37
REMARK 921   NORMALIZED FREE ENERGY PREDICTED BY IDOCK:   -5.03 KCAL/MOL
REMARK 922        TOTAL FREE ENERGY PREDICTED BY IDOCK:   -5.92 KCAL/MOL
REMARK 923 INTER-LIGAND FREE ENERGY PREDICTED BY IDOCK:   -5.68 KCAL/MOL
REMARK 924 INTRA-LIGAND FREE ENERGY PREDICTED BY IDOCK:   -0.24 KCAL/MOL
REMARK 927      BINDING AFFINITY PREDICTED BY RF-SCORE:    0.00 PKD
ROOT
HETATM    1 BR   UNL     1     -12.498  12.136  70.741  1.00  0.00    -0.273 Br 
HETATM    2  C   UNL     1     -11.633  10.808  69.659  1.00  0.00    -0.316 A  
HETATM    3  C   UNL     1     -11.559  11.013  68.263  1.00  0.00    -0.284 A  
HETATM    4  N   UNL     1      -9.934   7.565  69.972  1.00  0.00    -0.184 NA 
HETATM    5  C   UNL     1     -10.892  10.048  67.512  1.00  0.00    -0.326 A  
HETATM    6  C   UNL     1     -11.111   9.660  70.286  1.00  0.00    -0.276 A  
HETATM    7  C   UNL     1     -10.057   7.375  71.299  1.00  0.00    -0.188 A  
HETATM    8  C   UNL     1     -10.360   8.909  68.111  1.00  0.00    -0.261 A  
HETATM    9  C   UNL     1     -10.464   8.698  69.471  1.00  0.00    -0.220 A  
HETATM   10  N   UNL     1     -11.208   9.439  71.626  1.00  0.00    -0.382 NA 
HETATM   11  C   UNL     1     -10.683   8.293  72.111  1.00  0.00    -0.319 A  
ENDROOT
BRANCH   3  12
HETATM   12  N   UNL     1     -12.122  12.159  67.652  1.00  0.00    -0.488 NA 
HETATM   13  H   UNL     1     -12.932  12.580  68.107  1.00  0.00     0.000 HD 
BRANCH  12  14
HETATM   14  C   UNL     1     -11.675  12.746  66.508  1.00  0.00    -0.400 A  
HETATM   15  C   UNL     1     -11.888  13.218  64.290  1.00  0.00    -0.417 A  
HETATM   16  N   UNL     1     -12.487  12.545  65.429  1.00  0.00    -0.647 NA 
HETATM   17  H   UNL     1      -9.857  13.638  66.991  1.00  0.00     0.000 HD 
HETATM   18  N   UNL     1     -10.596  13.444  66.315  1.00  0.00    -0.287 NA 
HETATM   19  C   UNL     1     -10.667  13.898  64.908  1.00  0.00    -0.410 A  
ENDBRANCH  12  14
ENDBRANCH   3  12
TORSDOF 2
ENDMDL
MODEL       38
REMARK 921   NORMALIZED FREE ENERGY PREDICTED BY IDOCK:   -5.03 KCAL/MOL
REMARK 922        TOTAL FREE ENERGY PREDICTED BY IDOCK:   -5.91 KCAL/MOL
REMARK 923 INTER-LIGAND FREE ENERGY PREDICTED BY IDOCK:   -5.67 KCAL/MOL
REMARK 924 INTRA-LIGAND FREE ENERGY PREDICTED BY IDOCK:   -0.24 KCAL/MOL
REMARK 927      BINDING AFFINITY PREDICTED BY RF-SCORE:    0.00 PKD
ROOT
HETATM    1 BR   UNL     1     -10.425  19.473  67.376  1.00  0.00    -0.610 Br 
HETATM    2  C   UNL     1      -8.954  18.242  67.311  1.00  0.00    -0.259 A  
HETATM    3  C   UNL     1      -9.053  17.110  66.473  1.00  0.00    -0.269 A  
HETATM    4  N   UNL     1      -5.620  17.732  68.769  1.00  0.00    -0.170 NA 
HETATM    5  C   UNL     1      -7.952  16.257  66.421  1.00  0.00    -0.299 A  
HETATM    6  C   UNL     1      -7.824  18.496  68.114  1.00  0.00    -0.290 A  
HETATM    7  C   UNL     1      -5.570  18.797  69.592  1.00  0.00    -0.231 A  
HETATM    8  C   UNL     1      -6.822  16.492  67.198  1.00  0.00    -0.230 A  
HETATM    9  C   UNL     1      -6.743  17.582  68.041  1.00  0.00    -0.181 A  
HETATM   10  N   UNL     1      -7.735  19.566  68.950  1.00  0.00    -0.359 NA 
HETATM   11  C   UNL     1      -6.608  19.695  69.683  1.00  0.00    -0.330 A  
ENDROOT
BRANCH   3  12
HETATM   12  N   UNL     1     -10.213  16.858  65.701  1.00  0.00    -0.590 NA 
HETATM   13  H   UNL     1     -10.567  17.624  65.128  1.00  0.00     0.000 HD 
BRANCH  12  14
HETATM   14  C   UNL     1     -10.897  15.682  65.660  1.00  0.00    -0.327 A  
HETATM   15  C   UNL     1     -11.926  13.933  66.696  1.00  0.00    -0.442 A  
HETATM   16  N   UNL     1     -11.209  15.180  66.892  1.00  0.00    -0.321 NA 
HETATM   17  H   UNL     1     -11.068  15.184  63.646  1.00  0.00     0.000 HD 
HETATM   18  N   UNL     1     -11.269  14.988  64.627  1.00  0.00    -0.361 NA 
HETATM   19  C   UNL     1     -12.045  13.852  65.174  1.00  0.00    -0.403 A  
ENDBRANCH  12  14
ENDBRANCH   3  12
TORSDOF 2
ENDMDL
MODEL       39
REMARK 921   NORMALIZED FREE ENERGY PREDICTED BY IDOCK:   -4.93 KCAL/MOL
REMARK 922        TOTAL FREE ENERGY PREDICTED BY IDOCK:   -5.81 KCAL/MOL
REMARK 923 INTER-LIGAND FREE ENERGY PREDICTED BY IDOCK:   -5.50 KCAL/MOL
REMARK 924 INTRA-LIGAND FREE ENERGY PREDICTED BY IDOCK:   -0.30 KCAL/MOL
REMARK 927      BINDING AFFINITY PREDICTED BY RF-SCORE:    0.00 PKD
ROOT
HETATM    1 BR   UNL     1     -11.658  12.150  67.993  1.00  0.00    -0.415 Br 
HETATM    2  C   UNL     1     -11.206  13.604  66.825  1.00  0.00    -0.314 A  
HETATM    3  C   UNL     1     -11.170  13.369  65.433  1.00  0.00    -0.288 A  
HETATM    4  N   UNL     1     -10.290  17.160  66.951  1.00  0.00    -0.317 NA 
HETATM    5  C   UNL     1     -10.875  14.456  64.611  1.00  0.00    -0.363 A  
HETATM    6  C   UNL     1     -10.909  14.859  67.392  1.00  0.00    -0.304 A  
HETATM    7  C   UNL     1     -10.290  17.344  68.285  1.00  0.00    -0.374 A  
HETATM    8  C   UNL     1     -10.587  15.707  65.147  1.00  0.00    -0.449 A  
HETATM    9  C   UNL     1     -10.591  15.923  66.511  1.00  0.00    -0.297 A  
HETATM   10  N   UNL     1     -10.909  15.085  68.734  1.00  0.00    -0.240 NA 
HETATM   11  C   UNL     1     -10.592  16.327  69.160  1.00  0.00    -0.292 A  
ENDROOT
BRANCH   3  12
HETATM   12  N   UNL     1     -11.438  12.090  64.890  1.00  0.00    -0.316 NA 
HETATM   13  H   UNL     1     -12.402  11.757  64.934  1.00  0.00     0.000 HD 
BRANCH  12  14
HETATM   14  C   UNL     1     -10.521  11.266  64.314  1.00  0.00    -0.357 A  
HETATM   15  C   UNL     1      -9.035   9.543  64.426  1.00  0.00    -0.212 A  
HETATM   16  N   UNL     1      -9.993  10.342  65.169  1.00  0.00    -0.319 NA 
HETATM   17  H   UNL     1     -10.327  11.907  62.343  1.00  0.00     0.000 HD 
HETATM   18  N   UNL     1     -10.086  11.255  63.089  1.00  0.00    -0.352 NA 
HETATM   19  C   UNL     1      -9.167  10.098  63.008  1.00  0.00    -0.293 A  
ENDBRANCH  12  14
ENDBRANCH   3  12
TORSDOF 2
ENDMDL
MODEL       40
REMARK 921   NORMALIZED FREE ENERGY PREDICTED BY IDOCK:   -4.93 KCAL/MOL
REMARK 922        TOTAL FREE ENERGY PREDICTED BY IDOCK:   -5.80 KCAL/MOL
REMARK 923 INTER-LIGAND FREE ENERGY PREDICTED BY IDOCK:   -5.51 KCAL/MOL
REMARK 924 INTRA-LIGAND FREE ENERGY PREDICTED BY IDOCK:   -0.29 KCAL/MOL
REMARK 927      BINDING AFFINITY PREDICTED BY RF-SCORE:    0.00 PKD
ROOT
HETATM    1 BR   UNL     1      -8.802  15.595  69.304  1.00  0.00    -0.260 Br 
HETATM    2  C   UNL     1      -9.167  17.071  68.134  1.00  0.00    -0.244 A  
HETATM    3  C   UNL     1     -10.288  16.998  67.279  1.00  0.00    -0.311 A  
HETATM    4  N   UNL     1      -7.820  20.367  67.226  1.00  0.00    -0.324 NA 
HETATM    5  C   UNL     1     -10.545  18.103  66.469  1.00  0.00    -0.290 A  
HETATM    6  C   UNL     1      -8.296  18.178  68.151  1.00  0.00    -0.277 A  
HETATM    7  C   UNL     1      -6.734  20.392  68.021  1.00  0.00    -0.301 A  
HETATM    8  C   UNL     1      -9.704  19.211  66.475  1.00  0.00    -0.411 A  
HETATM    9  C   UNL     1      -8.590  19.264  67.289  1.00  0.00    -0.292 A  
HETATM   10  N   UNL     1      -7.194  18.242  68.948  1.00  0.00    -0.285 NA 
HETATM   11  C   UNL     1      -6.425  19.349  68.864  1.00  0.00    -0.277 A  
ENDROOT
BRANCH   3  12
HETATM   12  N   UNL     1     -11.129  15.859  67.255  1.00  0.00    -0.234 NA 
HETATM   13  H   UNL     1     -11.803  15.761  68.015  1.00  0.00     0.000 HD 
BRANCH  12  14
HETATM   14  C   UNL     1     -11.116  14.884  66.306  1.00  0.00    -0.340 A  
HETATM   15  C   UNL     1     -12.093  13.131  65.230  1.00  0.00    -0.429 A  
HETATM   16  N   UNL     1     -12.249  14.123  66.278  1.00  0.00    -0.455 NA 
HETATM   17  H   UNL     1      -9.256  15.008  65.379  1.00  0.00     0.000 HD 
HETATM   18  N   UNL     1     -10.181  14.585  65.454  1.00  0.00    -0.366 NA 
HETATM   19  C   UNL     1     -10.743  13.501  64.617  1.00  0.00    -0.416 A  
ENDBRANCH  12  14
ENDBRANCH   3  12
TORSDOF 2
ENDMDL
MODEL       41
REMARK 921   NORMALIZED FREE ENERGY PREDICTED BY IDOCK:   -4.91 KCAL/MOL
REMARK 922        TOTAL FREE ENERGY PREDICTED BY IDOCK:   -5.78 KCAL/MOL
REMARK 923 INTER-LIGAND FREE ENERGY PREDICTED BY IDOCK:   -5.54 KCAL/MOL
REMARK 924 INTRA-LIGAND FREE ENERGY PREDICTED BY IDOCK:   -0.25 KCAL/MOL
REMARK 927      BINDING AFFINITY PREDICTED BY RF-SCORE:    0.00 PKD
ROOT
HETATM    1 BR   UNL     1     -11.785  11.546  68.837  1.00  0.00    -0.423 Br 
HETATM    2  C   UNL     1     -10.946  10.986  67.205  1.00  0.00    -0.297 A  
HETATM    3  C   UNL     1     -10.012   9.928  67.251  1.00  0.00    -0.196 A  
HETATM    4  N   UNL     1     -10.898  11.796  63.621  1.00  0.00    -0.406 NA 
HETATM    5  C   UNL     1      -9.450   9.521  66.041  1.00  0.00    -0.294 A  
HETATM    6  C   UNL     1     -11.275  11.658  66.011  1.00  0.00    -0.240 A  
HETATM    7  C   UNL     1     -11.760  12.830  63.614  1.00  0.00    -0.519 A  
HETATM    8  C   UNL     1      -9.766  10.164  64.848  1.00  0.00    -0.392 A  
HETATM    9  C   UNL     1     -10.655  11.220  64.814  1.00  0.00    -0.312 A  
HETATM   10  N   UNL     1     -12.149  12.700  65.964  1.00  0.00    -0.574 NA 
HETATM   11  C   UNL     1     -12.372  13.276  64.762  1.00  0.00    -0.402 A  
ENDROOT
BRANCH   3  12
HETATM   12  N   UNL     1      -9.672   9.291  68.468  1.00  0.00    -0.148 NA 
HETATM   13  H   UNL     1      -8.945   9.727  69.036  1.00  0.00     0.000 HD 
BRANCH  12  14
HETATM   14  C   UNL     1     -10.233   8.147  68.947  1.00  0.00    -0.210 A  
HETATM   15  C   UNL     1     -11.314   6.984  70.581  1.00  0.00    -0.307 A  
HETATM   16  N   UNL     1     -10.759   8.271  70.201  1.00  0.00    -0.238 NA 
HETATM   17  H   UNL     1      -9.929   6.699  67.483  1.00  0.00     0.000 HD 
HETATM   18  N   UNL     1     -10.318   6.980  68.383  1.00  0.00    -0.186 NA 
HETATM   19  C   UNL     1     -11.098   6.143  69.323  1.00  0.00    -0.393 A  
ENDBRANCH  12  14
ENDBRANCH   3  12
TORSDOF 2
ENDMDL
MODEL       42
REMARK 921   NORMALIZED FREE ENERGY PREDICTED BY IDOCK:   -4.91 KCAL/MOL
REMARK 922        TOTAL FREE ENERGY PREDICTED BY IDOCK:   -5.78 KCAL/MOL
REMARK 923 INTER-LIGAND FREE ENERGY PREDICTED BY IDOCK:   -5.48 KCAL/MOL
REMARK 924 INTRA-LIGAND FREE ENERGY PREDICTED BY IDOCK:   -0.30 KCAL/MOL
REMARK 927      BINDING AFFINITY PREDICTED BY RF-SCORE:    0.00 PKD
ROOT
HETATM    1 BR   UNL     1      -9.961  15.015  69.446  1.00  0.00    -0.152 Br 
HETATM    2  C   UNL     1     -10.758  14.086  67.969  1.00  0.00    -0.246 A  
HETATM    3  C   UNL     1     -11.083  12.720  68.122  1.00  0.00    -0.256 A  
HETATM    4  N   UNL     1     -11.840  14.669  64.506  1.00  0.00    -0.438 NA 
HETATM    5  C   UNL     1     -11.695  12.086  67.042  1.00  0.00    -0.341 A  
HETATM    6  C   UNL     1     -10.983  14.790  66.769  1.00  0.00    -0.327 A  
HETATM    7  C   UNL     1     -11.481  15.960  64.374  1.00  0.00    -0.264 A  
HETATM    8  C   UNL     1     -11.935  12.763  65.850  1.00  0.00    -0.506 A  
HETATM    9  C   UNL     1     -11.585  14.090  65.694  1.00  0.00    -0.331 A  
HETATM   10  N   UNL     1     -10.642  16.097  66.603  1.00  0.00    -0.302 NA 
HETATM   11  C   UNL     1     -10.892  16.661  65.401  1.00  0.00    -0.173 A  
ENDROOT
BRANCH   3  12
HETATM   12  N   UNL     1     -10.816  12.026  69.326  1.00  0.00    -0.431 NA 
HETATM   13  H   UNL     1      -9.867  11.680  69.465  1.00  0.00     0.000 HD 
BRANCH  12  14
HETATM   14  C   UNL     1     -11.719  11.779  70.314  1.00  0.00    -0.228 A  
HETATM   15  C   UNL     1     -12.840  10.343  71.682  1.00  0.00    -0.474 A  
HETATM   16  N   UNL     1     -11.850  10.456  70.626  1.00  0.00    -0.322 NA 
HETATM   17  H   UNL     1     -12.533  13.625  70.826  1.00  0.00     0.000 HD 
HETATM   18  N   UNL     1     -12.462  12.618  70.972  1.00  0.00    -0.335 NA 
HETATM   19  C   UNL     1     -13.182  11.804  71.976  1.00  0.00    -0.355 A  
ENDBRANCH  12  14
ENDBRANCH   3  12
TORSDOF 2
ENDMDL
MODEL       43
REMARK 921   NORMALIZED FREE ENERGY PREDICTED BY IDOCK:   -4.87 KCAL/MOL
REMARK 922        TOTAL FREE ENERGY PREDICTED BY IDOCK:   -5.74 KCAL/MOL
REMARK 923 INTER-LIGAND FREE ENERGY PREDICTED BY IDOCK:   -5.50 KCAL/MOL
REMARK 924 INTRA-LIGAND FREE ENERGY PREDICTED BY IDOCK:   -0.23 KCAL/MOL
REMARK 927      BINDING AFFINITY PREDICTED BY RF-SCORE:    0.00 PKD
ROOT
HETATM    1 BR   UNL     1     -10.826  13.748  64.888  1.00  0.00    -0.424 Br 
HETATM    2  C   UNL     1     -11.033  12.512  66.341  1.00  0.00    -0.273 A  
HETATM    3  C   UNL     1     -11.719  12.936  67.500  1.00  0.00    -0.367 A  
HETATM    4  N   UNL     1     -10.167   9.065  67.273  1.00  0.00    -0.236 NA 
HETATM    5  C   UNL     1     -11.885  12.001  68.521  1.00  0.00    -0.369 A  
HETATM    6  C   UNL     1     -10.481  11.221  66.214  1.00  0.00    -0.258 A  
HETATM    7  C   UNL     1      -9.480   8.701  66.174  1.00  0.00    -0.240 A  
HETATM    8  C   UNL     1     -11.356  10.718  68.415  1.00  0.00    -0.367 A  
HETATM    9  C   UNL     1     -10.657  10.319  67.293  1.00  0.00    -0.267 A  
HETATM   10  N   UNL     1      -9.790  10.816  65.114  1.00  0.00    -0.254 NA 
HETATM   11  C   UNL     1      -9.293   9.560  65.115  1.00  0.00    -0.252 A  
ENDROOT
BRANCH   3  12
HETATM   12  N   UNL     1     -12.235  14.249  67.617  1.00  0.00    -0.597 NA 
HETATM   13  H   UNL     1     -13.136  14.437  67.177  1.00  0.00     0.000 HD 
BRANCH  12  14
HETATM   14  C   UNL     1     -11.632  15.281  68.267  1.00  0.00    -0.341 A  
HETATM   15  C   UNL     1     -11.116  16.410  70.177  1.00  0.00    -0.277 A  
HETATM   16  N   UNL     1     -11.803  15.258  69.622  1.00  0.00    -0.320 NA 
HETATM   17  H   UNL     1     -10.770  16.469  66.790  1.00  0.00     0.000 HD 
HETATM   18  N   UNL     1     -10.943  16.267  67.775  1.00  0.00    -0.314 NA 
HETATM   19  C   UNL     1     -10.461  17.035  68.945  1.00  0.00    -0.347 A  
ENDBRANCH  12  14
ENDBRANCH   3  12
TORSDOF 2
ENDMDL
MODEL       44
REMARK 921   NORMALIZED FREE ENERGY PREDICTED BY IDOCK:   -4.87 KCAL/MOL
REMARK 922        TOTAL FREE ENERGY PREDICTED BY IDOCK:   -5.73 KCAL/MOL
REMARK 923 INTER-LIGAND FREE ENERGY PREDICTED BY IDOCK:   -5.48 KCAL/MOL
REMARK 924 INTRA-LIGAND FREE ENERGY PREDICTED BY IDOCK:   -0.25 KCAL/MOL
REMARK 927      BINDING AFFINITY PREDICTED BY RF-SCORE:    0.00 PKD
ROOT
HETATM    1 BR   UNL     1      -8.482  12.848  67.790  1.00  0.00    -0.199 Br 
HETATM    2  C   UNL     1     -10.178  13.262  66.994  1.00  0.00    -0.244 A  
HETATM    3  C   UNL     1     -11.054  14.134  67.677  1.00  0.00    -0.282 A  
HETATM    4  N   UNL     1     -12.169  12.487  64.004  1.00  0.00    -0.448 NA 
HETATM    5  C   UNL     1     -12.262  14.442  67.053  1.00  0.00    -0.274 A  
HETATM    6  C   UNL     1     -10.507  12.671  65.757  1.00  0.00    -0.277 A  
HETATM    7  C   UNL     1     -11.333  11.626  63.395  1.00  0.00    -0.285 A  
HETATM    8  C   UNL     1     -12.604  13.878  65.828  1.00  0.00    -0.533 A  
HETATM    9  C   UNL     1     -11.759  13.000  65.179  1.00  0.00    -0.343 A  
HETATM   10  N   UNL     1      -9.683  11.803  65.109  1.00  0.00    -0.232 NA 
HETATM   11  C   UNL     1     -10.114  11.288  63.937  1.00  0.00    -0.340 A  
ENDROOT
BRANCH   3  12
HETATM   12  N   UNL     1     -10.715  14.688  68.935  1.00  0.00    -0.241 NA 
HETATM   13  H   UNL     1      -9.807  15.144  69.014  1.00  0.00     0.000 HD 
BRANCH  12  14
HETATM   14  C   UNL     1     -11.499  14.664  70.048  1.00  0.00    -0.265 A  
HETATM   15  C   UNL     1     -12.397  15.676  71.880  1.00  0.00    -0.427 A  
HETATM   16  N   UNL     1     -11.534  15.849  70.726  1.00  0.00    -0.379 NA 
HETATM   17  H   UNL     1     -12.226  12.719  70.199  1.00  0.00     0.000 HD 
HETATM   18  N   UNL     1     -12.189  13.679  70.541  1.00  0.00    -0.358 NA 
HETATM   19  C   UNL     1     -12.908  14.246  71.704  1.00  0.00    -0.348 A  
ENDBRANCH  12  14
ENDBRANCH   3  12
TORSDOF 2
ENDMDL
MODEL       45
REMARK 921   NORMALIZED FREE ENERGY PREDICTED BY IDOCK:   -4.86 KCAL/MOL
REMARK 922        TOTAL FREE ENERGY PREDICTED BY IDOCK:   -5.73 KCAL/MOL
REMARK 923 INTER-LIGAND FREE ENERGY PREDICTED BY IDOCK:   -5.44 KCAL/MOL
REMARK 924 INTRA-LIGAND FREE ENERGY PREDICTED BY IDOCK:   -0.29 KCAL/MOL
REMARK 927      BINDING AFFINITY PREDICTED BY RF-SCORE:    0.00 PKD
ROOT
HETATM    1 BR   UNL     1     -11.440  15.052  67.685  1.00  0.00    -0.321 Br 
HETATM    2  C   UNL     1     -11.843  13.662  68.945  1.00  0.00    -0.364 A  
HETATM    3  C   UNL     1     -11.543  12.326  68.601  1.00  0.00    -0.323 A  
HETATM    4  N   UNL     1     -13.289  13.204  72.293  1.00  0.00    -0.531 NA 
HETATM    5  C   UNL     1     -11.814  11.345  69.554  1.00  0.00    -0.426 A  
HETATM    6  C   UNL     1     -12.440  14.014  70.172  1.00  0.00    -0.319 A  
HETATM    7  C   UNL     1     -13.603  14.482  72.577  1.00  0.00    -0.487 A  
HETATM    8  C   UNL     1     -12.395  11.670  70.776  1.00  0.00    -0.454 A  
HETATM    9  C   UNL     1     -12.717  12.975  71.095  1.00  0.00    -0.283 A  
HETATM   10  N   UNL     1     -12.763  15.296  70.498  1.00  0.00    -0.395 NA 
HETATM   11  C   UNL     1     -13.348  15.508  71.697  1.00  0.00    -0.498 A  
ENDROOT
BRANCH   3  12
HETATM   12  N   UNL     1     -10.974  11.993  67.348  1.00  0.00    -0.247 NA 
HETATM   13  H   UNL     1     -11.586  12.032  66.533  1.00  0.00     0.000 HD 
BRANCH  12  14
HETATM   14  C   UNL     1      -9.681  11.626  67.138  1.00  0.00    -0.181 A  
HETATM   15  C   UNL     1      -7.443  12.037  67.259  1.00  0.00    -0.158 A  
HETATM   16  N   UNL     1      -8.768  12.557  67.545  1.00  0.00    -0.172 NA 
HETATM   17  H   UNL     1      -9.753   9.773  66.193  1.00  0.00     0.000 HD 
HETATM   18  N   UNL     1      -9.216  10.538  66.602  1.00  0.00    -0.155 NA 
HETATM   19  C   UNL     1      -7.743  10.643  66.710  1.00  0.00    -0.127 A  
ENDBRANCH  12  14
ENDBRANCH   3  12
TORSDOF 2
ENDMDL
MODEL       46
REMARK 921   NORMALIZED FREE ENERGY PREDICTED BY IDOCK:   -4.85 KCAL/MOL
REMARK 922        TOTAL FREE ENERGY PREDICTED BY IDOCK:   -5.71 KCAL/MOL
REMARK 923 INTER-LIGAND FREE ENERGY PREDICTED BY IDOCK:   -5.41 KCAL/MOL
REMARK 924 INTRA-LIGAND FREE ENERGY PREDICTED BY IDOCK:   -0.30 KCAL/MOL
REMARK 927      BINDING AFFINITY PREDICTED BY RF-SCORE:    0.00 PKD
ROOT
HETATM    1 BR   UNL     1     -11.270  10.762  68.342  1.00  0.00    -0.362 Br 
HETATM    2  C   UNL     1     -10.807  10.907  66.486  1.00  0.00    -0.171 A  
HETATM    3  C   UNL     1      -9.944   9.940  65.925  1.00  0.00    -0.277 A  
HETATM    4  N   UNL     1     -11.430  13.052  63.568  1.00  0.00    -0.414 NA 
HETATM    5  C   UNL     1      -9.658  10.053  64.565  1.00  0.00    -0.346 A  
HETATM    6  C   UNL     1     -11.330  11.982  65.740  1.00  0.00    -0.331 A  
HETATM    7  C   UNL     1     -12.217  13.984  64.139  1.00  0.00    -0.396 A  
HETATM    8  C   UNL     1     -10.169  11.102  63.806  1.00  0.00    -0.434 A  
HETATM    9  C   UNL     1     -10.986  12.063  64.367  1.00  0.00    -0.333 A  
HETATM   10  N   UNL     1     -12.135  12.936  66.281  1.00  0.00    -0.474 NA 
HETATM   11  C   UNL     1     -12.561  13.929  65.470  1.00  0.00    -0.526 A  
ENDROOT
BRANCH   3  12
HETATM   12  N   UNL     1      -9.404   8.888  66.703  1.00  0.00    -0.170 NA 
HETATM   13  H   UNL     1      -8.708   9.137  67.405  1.00  0.00     0.000 HD 
BRANCH  12  14
HETATM   14  C   UNL     1      -9.735   7.572  66.593  1.00  0.00    -0.203 A  
HETATM   15  C   UNL     1      -9.258   5.440  65.948  1.00  0.00    -0.156 A  
HETATM   16  N   UNL     1      -8.771   6.807  66.001  1.00  0.00    -0.148 NA 
HETATM   17  H   UNL     1     -11.663   7.396  67.357  1.00  0.00     0.000 HD 
HETATM   18  N   UNL     1     -10.826   6.970  66.959  1.00  0.00    -0.370 NA 
HETATM   19  C   UNL     1     -10.599   5.535  66.674  1.00  0.00    -0.299 A  
ENDBRANCH  12  14
ENDBRANCH   3  12
TORSDOF 2
ENDMDL
MODEL       47
REMARK 921   NORMALIZED FREE ENERGY PREDICTED BY IDOCK:   -4.83 KCAL/MOL
REMARK 922        TOTAL FREE ENERGY PREDICTED BY IDOCK:   -5.68 KCAL/MOL
REMARK 923 INTER-LIGAND FREE ENERGY PREDICTED BY IDOCK:   -5.44 KCAL/MOL
REMARK 924 INTRA-LIGAND FREE ENERGY PREDICTED BY IDOCK:   -0.24 KCAL/MOL
REMARK 927      BINDING AFFINITY PREDICTED BY RF-SCORE:    0.00 PKD
ROOT
HETATM    1 BR   UNL     1     -12.338  11.489  70.630  1.00  0.00    -0.420 Br 
HETATM    2  C   UNL     1     -11.730  12.596  69.186  1.00  0.00    -0.321 A  
HETATM    3  C   UNL     1     -12.227  13.915  69.086  1.00  0.00    -0.267 A  
HETATM    4  N   UNL     1      -9.502  12.476  66.267  1.00  0.00    -0.232 NA 
HETATM    5  C   UNL     1     -11.737  14.704  68.048  1.00  0.00    -0.371 A  
HETATM    6  C   UNL     1     -10.817  12.057  68.258  1.00  0.00    -0.229 A  
HETATM    7  C   UNL     1      -9.077  11.202  66.361  1.00  0.00    -0.187 A  
HETATM    8  C   UNL     1     -10.828  14.196  67.124  1.00  0.00    -0.291 A  
HETATM    9  C   UNL     1     -10.370  12.896  67.206  1.00  0.00    -0.234 A  
HETATM   10  N   UNL     1     -10.359  10.777  68.327  1.00  0.00    -0.165 NA 
HETATM   11  C   UNL     1      -9.499  10.368  67.370  1.00  0.00    -0.149 A  
ENDROOT
BRANCH   3  12
HETATM   12  N   UNL     1     -13.170  14.423  70.012  1.00  0.00    -0.304 NA 
HETATM   13  H   UNL     1     -14.155  14.238  69.823  1.00  0.00     0.000 HD 
BRANCH  12  14
HETATM   14  C   UNL     1     -12.875  15.136  71.132  1.00  0.00    -0.401 A  
HETATM   15  C   UNL     1     -13.295  15.730  73.291  1.00  0.00    -0.549 A  
HETATM   16  N   UNL     1     -13.725  14.905  72.176  1.00  0.00    -0.400 NA 
HETATM   17  H   UNL     1     -11.241  16.329  70.642  1.00  0.00     0.000 HD 
HETATM   18  N   UNL     1     -11.920  15.997  71.326  1.00  0.00    -0.434 NA 
HETATM   19  C   UNL     1     -12.029  16.392  72.748  1.00  0.00    -0.490 A  
ENDBRANCH  12  14
ENDBRANCH   3  12
TORSDOF 2
ENDMDL
MODEL       48
REMARK 921   NORMALIZED FREE ENERGY PREDICTED BY IDOCK:   -4.82 KCAL/MOL
REMARK 922        TOTAL FREE ENERGY PREDICTED BY IDOCK:   -5.68 KCAL/MOL
REMARK 923 INTER-LIGAND FREE ENERGY PREDICTED BY IDOCK:   -5.36 KCAL/MOL
REMARK 924 INTRA-LIGAND FREE ENERGY PREDICTED BY IDOCK:   -0.31 KCAL/MOL
REMARK 927      BINDING AFFINITY PREDICTED BY RF-SCORE:    0.00 PKD
ROOT
HETATM    1 BR   UNL     1      -9.980   9.359  66.672  1.00  0.00    -0.339 Br 
HETATM    2  C   UNL     1     -10.757   9.952  68.323  1.00  0.00    -0.234 A  
HETATM    3  C   UNL     1     -11.582  11.097  68.312  1.00  0.00    -0.289 A  
HETATM    4  N   UNL     1     -10.851   9.068  71.889  1.00  0.00    -0.362 NA 
HETATM    5  C   UNL     1     -12.161  11.478  69.521  1.00  0.00    -0.351 A  
HETATM    6  C   UNL     1     -10.469   9.235  69.502  1.00  0.00    -0.220 A  
HETATM    7  C   UNL     1     -10.026   8.004  71.878  1.00  0.00    -0.195 A  
HETATM    8  C   UNL     1     -11.899  10.781  70.697  1.00  0.00    -0.460 A  
HETATM    9  C   UNL     1     -11.064   9.680  70.709  1.00  0.00    -0.334 A  
HETATM   10  N   UNL     1      -9.648   8.150  69.527  1.00  0.00    -0.167 NA 
HETATM   11  C   UNL     1      -9.434   7.555  70.721  1.00  0.00    -0.163 A  
ENDROOT
BRANCH   3  12
HETATM   12  N   UNL     1     -11.829  11.821  67.120  1.00  0.00    -0.620 NA 
HETATM   13  H   UNL     1     -12.433  11.382  66.425  1.00  0.00     0.000 HD 
BRANCH  12  14
HETATM   14  C   UNL     1     -11.330  13.051  66.824  1.00  0.00    -0.324 A  
HETATM   15  C   UNL     1      -9.584  14.438  66.355  1.00  0.00    -0.299 A  
HETATM   16  N   UNL     1      -9.974  13.073  66.660  1.00  0.00    -0.244 NA 
HETATM   17  H   UNL     1     -12.954  14.353  66.839  1.00  0.00     0.000 HD 
HETATM   18  N   UNL     1     -11.960  14.180  66.692  1.00  0.00    -0.427 NA 
HETATM   19  C   UNL     1     -10.929  15.162  66.287  1.00  0.00    -0.335 A  
ENDBRANCH  12  14
ENDBRANCH   3  12
TORSDOF 2
ENDMDL
MODEL       49
REMARK 921   NORMALIZED FREE ENERGY PREDICTED BY IDOCK:   -4.81 KCAL/MOL
REMARK 922        TOTAL FREE ENERGY PREDICTED BY IDOCK:   -5.67 KCAL/MOL
REMARK 923 INTER-LIGAND FREE ENERGY PREDICTED BY IDOCK:   -5.50 KCAL/MOL
REMARK 924 INTRA-LIGAND FREE ENERGY PREDICTED BY IDOCK:   -0.17 KCAL/MOL
REMARK 927      BINDING AFFINITY PREDICTED BY RF-SCORE:    0.00 PKD
ROOT
HETATM    1 BR   UNL     1     -12.761  13.960  65.626  1.00  0.00    -0.450 Br 
HETATM    2  C   UNL     1     -11.084  13.732  66.531  1.00  0.00    -0.306 A  
HETATM    3  C   UNL     1     -10.139  14.779  66.481  1.00  0.00    -0.273 A  
HETATM    4  N   UNL     1      -9.270  11.259  68.554  1.00  0.00    -0.181 NA 
HETATM    5  C   UNL     1      -8.947  14.596  67.180  1.00  0.00    -0.240 A  
HETATM    6  C   UNL     1     -10.841  12.520  67.207  1.00  0.00    -0.245 A  
HETATM    7  C   UNL     1     -10.173  10.260  68.550  1.00  0.00    -0.172 A  
HETATM    8  C   UNL     1      -8.687  13.412  67.863  1.00  0.00    -0.187 A  
HETATM    9  C   UNL     1      -9.602  12.377  67.882  1.00  0.00    -0.205 A  
HETATM   10  N   UNL     1     -11.733  11.493  67.232  1.00  0.00    -0.603 NA 
HETATM   11  C   UNL     1     -11.380  10.373  67.900  1.00  0.00    -0.173 A  
ENDROOT
BRANCH   3  12
HETATM   12  N   UNL     1     -10.393  15.974  65.766  1.00  0.00    -0.358 NA 
HETATM   13  H   UNL     1     -10.542  15.894  64.760  1.00  0.00     0.000 HD 
BRANCH  12  14
HETATM   14  C   UNL     1     -10.456  17.222  66.306  1.00  0.00    -0.268 A  
HETATM   15  C   UNL     1     -10.485  19.490  66.097  1.00  0.00    -0.518 A  
HETATM   16  N   UNL     1     -10.415  18.228  65.383  1.00  0.00    -0.500 NA 
HETATM   17  H   UNL     1     -10.517  16.954  68.370  1.00  0.00     0.000 HD 
HETATM   18  N   UNL     1     -10.536  17.569  67.556  1.00  0.00    -0.355 NA 
HETATM   19  C   UNL     1     -10.659  19.044  67.548  1.00  0.00    -0.461 A  
ENDBRANCH  12  14
ENDBRANCH   3  12
TORSDOF 2
ENDMDL
MODEL       50
REMARK 921   NORMALIZED FREE ENERGY PREDICTED BY IDOCK:   -4.78 KCAL/MOL
REMARK 922        TOTAL FREE ENERGY PREDICTED BY IDOCK:   -5.63 KCAL/MOL
REMARK 923 INTER-LIGAND FREE ENERGY PREDICTED BY IDOCK:   -5.33 KCAL/MOL
REMARK 924 INTRA-LIGAND FREE ENERGY PREDICTED BY IDOCK:   -0.30 KCAL/MOL
REMARK 927      BINDING AFFINITY PREDICTED BY RF-SCORE:    0.00 PKD
ROOT
HETATM    1 BR   UNL     1     -10.148   9.224  66.386  1.00  0.00    -0.304 Br 
HETATM    2  C   UNL     1     -10.856  10.841  67.138  1.00  0.00    -0.277 A  
HETATM    3  C   UNL     1     -11.412  10.800  68.435  1.00  0.00    -0.288 A  
HETATM    4  N   UNL     1     -11.341  14.384  66.292  1.00  0.00    -0.343 NA 
HETATM    5  C   UNL     1     -11.883  12.000  68.966  1.00  0.00    -0.372 A  
HETATM    6  C   UNL     1     -10.815  12.020  66.367  1.00  0.00    -0.278 A  
HETATM    7  C   UNL     1     -10.844  14.386  65.041  1.00  0.00    -0.407 A  
HETATM    8  C   UNL     1     -11.844  13.178  68.227  1.00  0.00    -0.384 A  
HETATM    9  C   UNL     1     -11.330  13.207  66.945  1.00  0.00    -0.318 A  
HETATM   10  N   UNL     1     -10.312  12.061  65.102  1.00  0.00    -0.267 NA 
HETATM   11  C   UNL     1     -10.342  13.247  64.456  1.00  0.00    -0.374 A  
ENDROOT
BRANCH   3  12
HETATM   12  N   UNL     1     -11.473   9.596  69.177  1.00  0.00    -0.454 NA 
HETATM   13  H   UNL     1     -12.223   8.944  68.948  1.00  0.00     0.000 HD 
BRANCH  12  14
HETATM   14  C   UNL     1     -10.615   9.233  70.170  1.00  0.00    -0.231 A  
HETATM   15  C   UNL     1     -10.207   8.463  72.274  1.00  0.00    -0.326 A  
HETATM   16  N   UNL     1     -11.236   8.809  71.310  1.00  0.00    -0.264 NA 
HETATM   17  H   UNL     1      -8.700   9.592  69.437  1.00  0.00     0.000 HD 
HETATM   18  N   UNL     1      -9.316   9.251  70.175  1.00  0.00    -0.209 NA 
HETATM   19  C   UNL     1      -8.919   8.672  71.479  1.00  0.00    -0.234 A  
ENDBRANCH  12  14
ENDBRANCH   3  12
TORSDOF 2
ENDMDL
MODEL       51
REMARK 921   NORMALIZED FREE ENERGY PREDICTED BY IDOCK:   -4.76 KCAL/MOL
REMARK 922        TOTAL FREE ENERGY PREDICTED BY IDOCK:   -5.61 KCAL/MOL
REMARK 923 INTER-LIGAND FREE ENERGY PREDICTED BY IDOCK:   -5.30 KCAL/MOL
REMARK 924 INTRA-LIGAND FREE ENERGY PREDICTED BY IDOCK:   -0.31 KCAL/MOL
REMARK 927      BINDING AFFINITY PREDICTED BY RF-SCORE:    0.00 PKD
ROOT
HETATM    1 BR   UNL     1     -12.632  10.608  71.177  1.00  0.00    -0.557 Br 
HETATM    2  C   UNL     1     -11.148   9.876  70.206  1.00  0.00    -0.308 A  
HETATM    3  C   UNL     1     -11.041  10.147  68.824  1.00  0.00    -0.203 A  
HETATM    4  N   UNL     1      -8.174   7.783  70.731  1.00  0.00    -0.106 NA 
HETATM    5  C   UNL     1      -9.931   9.632  68.158  1.00  0.00    -0.185 A  
HETATM    6  C   UNL     1     -10.215   9.078  70.898  1.00  0.00    -0.257 A  
HETATM    7  C   UNL     1      -8.323   7.506  72.040  1.00  0.00    -0.107 A  
HETATM    8  C   UNL     1      -8.992   8.848  68.821  1.00  0.00    -0.134 A  
HETATM    9  C   UNL     1      -9.118   8.559  70.166  1.00  0.00    -0.152 A  
HETATM   10  N   UNL     1     -10.328   8.785  72.222  1.00  0.00    -0.306 NA 
HETATM   11  C   UNL     1      -9.380   7.995  72.772  1.00  0.00    -0.263 A  
ENDROOT
BRANCH   3  12
HETATM   12  N   UNL     1     -12.010  10.924  68.145  1.00  0.00    -0.796 NA 
HETATM   13  H   UNL     1     -12.889  10.466  67.903  1.00  0.00     0.000 HD 
BRANCH  12  14
HETATM   14  C   UNL     1     -11.868  12.229  67.786  1.00  0.00    -0.273 A  
HETATM   15  C   UNL     1     -11.714  13.860  66.203  1.00  0.00    -0.376 A  
HETATM   16  N   UNL     1     -11.877  12.436  66.436  1.00  0.00    -0.560 NA 
HETATM   17  H   UNL     1     -11.629  13.292  69.560  1.00  0.00     0.000 HD 
HETATM   18  N   UNL     1     -11.717  13.274  68.544  1.00  0.00    -0.332 NA 
HETATM   19  C   UNL     1     -11.699  14.431  67.621  1.00  0.00    -0.391 A  
ENDBRANCH  12  14
ENDBRANCH   3  12
TORSDOF 2
ENDMDL
MODEL       52
REMARK 921   NORMALIZED FREE ENERGY PREDICTED BY IDOCK:   -4.75 KCAL/MOL
REMARK 922        TOTAL FREE ENERGY PREDICTED BY IDOCK:   -5.60 KCAL/MOL
REMARK 923 INTER-LIGAND FREE ENERGY PREDICTED BY IDOCK:   -5.36 KCAL/MOL
REMARK 924 INTRA-LIGAND FREE ENERGY PREDICTED BY IDOCK:   -0.24 KCAL/MOL
REMARK 927      BINDING AFFINITY PREDICTED BY RF-SCORE:    0.00 PKD
ROOT
HETATM    1 BR   UNL     1     -11.901  15.553  70.161  1.00  0.00    -0.409 Br 
HETATM    2  C   UNL     1     -11.312  14.774  68.509  1.00  0.00    -0.290 A  
HETATM    3  C   UNL     1     -10.889  15.630  67.468  1.00  0.00    -0.316 A  
HETATM    4  N   UNL     1     -10.866  11.488  66.925  1.00  0.00    -0.270 NA 
HETATM    5  C   UNL     1     -10.432  15.030  66.296  1.00  0.00    -0.309 A  
HETATM    6  C   UNL     1     -11.334  13.371  68.377  1.00  0.00    -0.294 A  
HETATM    7  C   UNL     1     -11.315  10.698  67.918  1.00  0.00    -0.268 A  
HETATM    8  C   UNL     1     -10.436  13.647  66.145  1.00  0.00    -0.297 A  
HETATM    9  C   UNL     1     -10.882  12.815  67.154  1.00  0.00    -0.256 A  
HETATM   10  N   UNL     1     -11.772  12.541  69.362  1.00  0.00    -0.310 NA 
HETATM   11  C   UNL     1     -11.762  11.214  69.113  1.00  0.00    -0.338 A  
ENDROOT
BRANCH   3  12
HETATM   12  N   UNL     1     -10.908  17.038  67.613  1.00  0.00    -0.297 NA 
HETATM   13  H   UNL     1     -11.765  17.458  67.972  1.00  0.00     0.000 HD 
BRANCH  12  14
HETATM   14  C   UNL     1      -9.881  17.879  67.313  1.00  0.00    -0.309 A  
HETATM   15  C   UNL     1      -8.042  19.080  67.917  1.00  0.00    -0.278 A  
HETATM   16  N   UNL     1      -9.082  18.180  68.380  1.00  0.00    -0.302 NA 
HETATM   17  H   UNL     1     -10.098  18.360  65.299  1.00  0.00     0.000 HD 
HETATM   18  N   UNL     1      -9.579  18.427  66.175  1.00  0.00    -0.497 NA 
HETATM   19  C   UNL     1      -8.322  19.172  66.417  1.00  0.00    -0.318 A  
ENDBRANCH  12  14
ENDBRANCH   3  12
TORSDOF 2
ENDMDL
MODEL       53
REMARK 921   NORMALIZED FREE ENERGY PREDICTED BY IDOCK:   -4.74 KCAL/MOL
REMARK 922        TOTAL FREE ENERGY PREDICTED BY IDOCK:   -5.59 KCAL/MOL
REMARK 923 INTER-LIGAND FREE ENERGY PREDICTED BY IDOCK:   -5.37 KCAL/MOL
REMARK 924 INTRA-LIGAND FREE ENERGY PREDICTED BY IDOCK:   -0.22 KCAL/MOL
REMARK 927      BINDING AFFINITY PREDICTED BY RF-SCORE:    0.00 PKD
ROOT
HETATM    1 BR   UNL     1      -7.233  15.283  69.536  1.00  0.00    -0.196 Br 
HETATM    2  C   UNL     1      -8.534  16.482  68.791  1.00  0.00    -0.248 A  
HETATM    3  C   UNL     1      -9.874  16.385  69.225  1.00  0.00    -0.240 A  
HETATM    4  N   UNL     1      -8.793  19.226  66.361  1.00  0.00    -0.340 NA 
HETATM    5  C   UNL     1     -10.784  17.295  68.692  1.00  0.00    -0.280 A  
HETATM    6  C   UNL     1      -8.115  17.415  67.821  1.00  0.00    -0.214 A  
HETATM    7  C   UNL     1      -7.517  19.269  65.934  1.00  0.00    -0.260 A  
HETATM    8  C   UNL     1     -10.393  18.231  67.740  1.00  0.00    -0.419 A  
HETATM    9  C   UNL     1      -9.088  18.301  67.293  1.00  0.00    -0.256 A  
HETATM   10  N   UNL     1      -6.833  17.493  67.373  1.00  0.00    -0.160 NA 
HETATM   11  C   UNL     1      -6.555  18.418  66.428  1.00  0.00    -0.205 A  
ENDROOT
BRANCH   3  12
HETATM   12  N   UNL     1     -10.276  15.416  70.176  1.00  0.00    -0.459 NA 
HETATM   13  H   UNL     1      -9.598  14.695  70.423  1.00  0.00     0.000 HD 
BRANCH  12  14
HETATM   14  C   UNL     1     -11.490  15.365  70.789  1.00  0.00    -0.355 A  
HETATM   15  C   UNL     1     -12.893  15.928  72.493  1.00  0.00    -0.440 A  
HETATM   16  N   UNL     1     -11.553  16.075  71.953  1.00  0.00    -0.456 NA 
HETATM   17  H   UNL     1     -12.672  14.111  69.621  1.00  0.00     0.000 HD 
HETATM   18  N   UNL     1     -12.564  14.732  70.423  1.00  0.00    -0.352 NA 
HETATM   19  C   UNL     1     -13.597  15.101  71.418  1.00  0.00    -0.488 A  
ENDBRANCH  12  14
ENDBRANCH   3  12
TORSDOF 2
ENDMDL
MODEL       54
REMARK 921   NORMALIZED FREE ENERGY PREDICTED BY IDOCK:   -4.69 KCAL/MOL
REMARK 922        TOTAL FREE ENERGY PREDICTED BY IDOCK:   -5.53 KCAL/MOL
REMARK 923 INTER-LIGAND FREE ENERGY PREDICTED BY IDOCK:   -5.27 KCAL/MOL
REMARK 924 INTRA-LIGAND FREE ENERGY PREDICTED BY IDOCK:   -0.26 KCAL/MOL
REMARK 927      BINDING AFFINITY PREDICTED BY RF-SCORE:    0.00 PKD
ROOT
HETATM    1 BR   UNL     1     -10.521   9.196  67.185  1.00  0.00    -0.294 Br 
HETATM    2  C   UNL     1     -11.196  10.513  68.407  1.00  0.00    -0.279 A  
HETATM    3  C   UNL     1     -11.514  10.116  69.724  1.00  0.00    -0.228 A  
HETATM    4  N   UNL     1     -12.055  14.083  68.533  1.00  0.00    -0.342 NA 
HETATM    5  C   UNL     1     -11.966  11.106  70.596  1.00  0.00    -0.459 A  
HETATM    6  C   UNL     1     -11.367  11.835  67.949  1.00  0.00    -0.292 A  
HETATM    7  C   UNL     1     -11.783  14.424  67.259  1.00  0.00    -0.404 A  
HETATM    8  C   UNL     1     -12.135  12.420  70.169  1.00  0.00    -0.366 A  
HETATM    9  C   UNL     1     -11.853  12.796  68.870  1.00  0.00    -0.308 A  
HETATM   10  N   UNL     1     -11.094  12.218  66.671  1.00  0.00    -0.281 NA 
HETATM   11  C   UNL     1     -11.314  13.510  66.345  1.00  0.00    -0.316 A  
ENDROOT
BRANCH   3  12
HETATM   12  N   UNL     1     -11.365   8.775  70.150  1.00  0.00    -0.430 NA 
HETATM   13  H   UNL     1     -11.794   8.052  69.573  1.00  0.00     0.000 HD 
BRANCH  12  14
HETATM   14  C   UNL     1     -10.699   8.368  71.265  1.00  0.00    -0.230 A  
HETATM   15  C   UNL     1      -8.835   8.327  72.574  1.00  0.00    -0.229 A  
HETATM   16  N   UNL     1      -9.420   8.840  71.348  1.00  0.00    -0.235 NA 
HETATM   17  H   UNL     1     -12.005   7.114  72.293  1.00  0.00     0.000 HD 
HETATM   18  N   UNL     1     -11.109   7.597  72.227  1.00  0.00    -0.265 NA 
HETATM   19  C   UNL     1     -10.000   7.568  73.208  1.00  0.00    -0.313 A  
ENDBRANCH  12  14
ENDBRANCH   3  12
TORSDOF 2
ENDMDL
MODEL       55
REMARK 921   NORMALIZED FREE ENERGY PREDICTED BY IDOCK:   -4.68 KCAL/MOL
REMARK 922        TOTAL FREE ENERGY PREDICTED BY IDOCK:   -5.52 KCAL/MOL
REMARK 923 INTER-LIGAND FREE ENERGY PREDICTED BY IDOCK:   -5.28 KCAL/MOL
REMARK 924 INTRA-LIGAND FREE ENERGY PREDICTED BY IDOCK:   -0.25 KCAL/MOL
REMARK 927      BINDING AFFINITY PREDICTED BY RF-SCORE:    0.00 PKD
ROOT
HETATM    1 BR   UNL     1     -10.109   9.488  67.135  1.00  0.00    -0.311 Br 
HETATM    2  C   UNL     1     -10.920   9.856  68.835  1.00  0.00    -0.179 A  
HETATM    3  C   UNL     1     -11.783  10.967  68.948  1.00  0.00    -0.330 A  
HETATM    4  N   UNL     1     -11.015   8.553  72.269  1.00  0.00    -0.359 NA 
HETATM    5  C   UNL     1     -12.384  11.183  70.187  1.00  0.00    -0.373 A  
HETATM    6  C   UNL     1     -10.619   9.013  69.924  1.00  0.00    -0.228 A  
HETATM    7  C   UNL     1     -10.155   7.525  72.143  1.00  0.00    -0.194 A  
HETATM    8  C   UNL     1     -12.109  10.360  71.275  1.00  0.00    -0.461 A  
HETATM    9  C   UNL     1     -11.238   9.293  71.167  1.00  0.00    -0.343 A  
HETATM   10  N   UNL     1      -9.762   7.960  69.831  1.00  0.00    -0.175 NA 
HETATM   11  C   UNL     1      -9.538   7.235  70.948  1.00  0.00    -0.170 A  
ENDROOT
BRANCH   3  12
HETATM   12  N   UNL     1     -12.043  11.819  67.848  1.00  0.00    -0.559 NA 
HETATM   13  H   UNL     1     -12.645  11.455  67.109  1.00  0.00     0.000 HD 
BRANCH  12  14
HETATM   14  C   UNL     1     -11.559  13.081  67.691  1.00  0.00    -0.355 A  
HETATM   15  C   UNL     1      -9.964  14.667  68.053  1.00  0.00    -0.220 A  
HETATM   16  N   UNL     1     -10.352  13.289  68.296  1.00  0.00    -0.244 NA 
HETATM   17  H   UNL     1     -13.004  14.125  66.618  1.00  0.00     0.000 HD 
HETATM   18  N   UNL     1     -12.090  14.089  67.068  1.00  0.00    -0.439 NA 
HETATM   19  C   UNL     1     -11.087  15.176  67.151  1.00  0.00    -0.335 A  
ENDBRANCH  12  14
ENDBRANCH   3  12
TORSDOF 2
ENDMDL
MODEL       56
REMARK 921   NORMALIZED FREE ENERGY PREDICTED BY IDOCK:   -4.66 KCAL/MOL
REMARK 922        TOTAL FREE ENERGY PREDICTED BY IDOCK:   -5.50 KCAL/MOL
REMARK 923 INTER-LIGAND FREE ENERGY PREDICTED BY IDOCK:   -5.20 KCAL/MOL
REMARK 924 INTRA-LIGAND FREE ENERGY PREDICTED BY IDOCK:   -0.30 KCAL/MOL
REMARK 927      BINDING AFFINITY PREDICTED BY RF-SCORE:    0.00 PKD
ROOT
HETATM    1 BR   UNL     1     -10.240  10.422  68.662  1.00  0.00    -0.213 Br 
HETATM    2  C   UNL     1     -11.515  10.373  70.095  1.00  0.00    -0.319 A  
HETATM    3  C   UNL     1     -11.852   9.124  70.661  1.00  0.00    -0.175 A  
HETATM    4  N   UNL     1     -13.626  12.626  72.088  1.00  0.00    -0.497 NA 
HETATM    5  C   UNL     1     -12.752   9.128  71.725  1.00  0.00    -0.446 A  
HETATM    6  C   UNL     1     -12.089  11.584  70.531  1.00  0.00    -0.378 A  
HETATM    7  C   UNL     1     -13.318  13.798  71.502  1.00  0.00    -0.318 A  
HETATM    8  C   UNL     1     -13.326  10.312  72.179  1.00  0.00    -0.404 A  
HETATM    9  C   UNL     1     -13.018  11.528  71.600  1.00  0.00    -0.394 A  
HETATM   10  N   UNL     1     -11.796  12.788  69.968  1.00  0.00    -0.314 NA 
HETATM   11  C   UNL     1     -12.423  13.878  70.461  1.00  0.00    -0.352 A  
ENDROOT
BRANCH   3  12
HETATM   12  N   UNL     1     -11.287   7.917  70.183  1.00  0.00    -0.447 NA 
HETATM   13  H   UNL     1     -11.325   7.750  69.178  1.00  0.00     0.000 HD 
BRANCH  12  14
HETATM   14  C   UNL     1     -10.696   6.961  70.951  1.00  0.00    -0.230 A  
HETATM   15  C   UNL     1      -9.051   6.272  72.369  1.00  0.00    -0.138 A  
HETATM   16  N   UNL     1      -9.572   7.388  71.599  1.00  0.00    -0.151 NA 
HETATM   17  H   UNL     1     -11.820   5.230  70.682  1.00  0.00     0.000 HD 
HETATM   18  N   UNL     1     -11.049   5.724  71.131  1.00  0.00    -0.230 NA 
HETATM   19  C   UNL     1     -10.095   5.183  72.126  1.00  0.00    -0.193 A  
ENDBRANCH  12  14
ENDBRANCH   3  12
TORSDOF 2
ENDMDL
MODEL       57
REMARK 921   NORMALIZED FREE ENERGY PREDICTED BY IDOCK:   -4.64 KCAL/MOL
REMARK 922        TOTAL FREE ENERGY PREDICTED BY IDOCK:   -5.48 KCAL/MOL
REMARK 923 INTER-LIGAND FREE ENERGY PREDICTED BY IDOCK:   -5.24 KCAL/MOL
REMARK 924 INTRA-LIGAND FREE ENERGY PREDICTED BY IDOCK:   -0.24 KCAL/MOL
REMARK 927      BINDING AFFINITY PREDICTED BY RF-SCORE:    0.00 PKD
ROOT
HETATM    1 BR   UNL     1     -11.226  15.906  64.722  1.00  0.00    -0.262 Br 
HETATM    2  C   UNL     1     -10.908  14.460  65.944  1.00  0.00    -0.304 A  
HETATM    3  C   UNL     1     -10.929  14.726  67.330  1.00  0.00    -0.313 A  
HETATM    4  N   UNL     1     -10.170  10.860  65.942  1.00  0.00    -0.250 NA 
HETATM    5  C   UNL     1     -10.732  13.647  68.189  1.00  0.00    -0.260 A  
HETATM    6  C   UNL     1     -10.648  13.178  65.420  1.00  0.00    -0.299 A  
HETATM    7  C   UNL     1     -10.113  10.644  64.615  1.00  0.00    -0.349 A  
HETATM    8  C   UNL     1     -10.482  12.370  67.696  1.00  0.00    -0.229 A  
HETATM    9  C   UNL     1     -10.429  12.121  66.339  1.00  0.00    -0.230 A  
HETATM   10  N   UNL     1     -10.592  12.920  64.085  1.00  0.00    -0.411 NA 
HETATM   11  C   UNL     1     -10.318  11.654  63.703  1.00  0.00    -0.419 A  
ENDROOT
BRANCH   3  12
HETATM   12  N   UNL     1     -11.159  16.030  67.831  1.00  0.00    -0.331 NA 
HETATM   13  H   UNL     1     -12.121  16.278  68.064  1.00  0.00     0.000 HD 
BRANCH  12  14
HETATM   14  C   UNL     1     -10.206  16.982  68.028  1.00  0.00    -0.319 A  
HETATM   15  C   UNL     1      -9.514  19.152  67.995  1.00  0.00    -0.330 A  
HETATM   16  N   UNL     1     -10.625  18.251  67.746  1.00  0.00    -0.412 NA 
HETATM   17  H   UNL     1      -8.489  15.965  68.622  1.00  0.00     0.000 HD 
HETATM   18  N   UNL     1      -8.978  16.839  68.428  1.00  0.00    -0.225 NA 
HETATM   19  C   UNL     1      -8.438  18.213  68.540  1.00  0.00    -0.299 A  
ENDBRANCH  12  14
ENDBRANCH   3  12
TORSDOF 2
ENDMDL
MODEL       58
REMARK 921   NORMALIZED FREE ENERGY PREDICTED BY IDOCK:   -4.64 KCAL/MOL
REMARK 922        TOTAL FREE ENERGY PREDICTED BY IDOCK:   -5.48 KCAL/MOL
REMARK 923 INTER-LIGAND FREE ENERGY PREDICTED BY IDOCK:   -5.22 KCAL/MOL
REMARK 924 INTRA-LIGAND FREE ENERGY PREDICTED BY IDOCK:   -0.26 KCAL/MOL
REMARK 927      BINDING AFFINITY PREDICTED BY RF-SCORE:    0.00 PKD
ROOT
HETATM    1 BR   UNL     1     -11.571  14.788  65.100  1.00  0.00    -0.338 Br 
HETATM    2  C   UNL     1     -11.171  13.162  66.036  1.00  0.00    -0.292 A  
HETATM    3  C   UNL     1     -11.506  13.068  67.405  1.00  0.00    -0.332 A  
HETATM    4  N   UNL     1      -9.666   9.859  65.464  1.00  0.00    -0.284 NA 
HETATM    5  C   UNL     1     -11.236  11.859  68.045  1.00  0.00    -0.317 A  
HETATM    6  C   UNL     1     -10.541  12.115  65.334  1.00  0.00    -0.272 A  
HETATM    7  C   UNL     1      -9.319   9.992  64.170  1.00  0.00    -0.280 A  
HETATM    8  C   UNL     1     -10.622  10.808  67.371  1.00  0.00    -0.287 A  
HETATM    9  C   UNL     1     -10.267  10.917  66.041  1.00  0.00    -0.254 A  
HETATM   10  N   UNL     1     -10.185  12.210  64.024  1.00  0.00    -0.354 NA 
HETATM   11  C   UNL     1      -9.571  11.146  63.464  1.00  0.00    -0.315 A  
ENDROOT
BRANCH   3  12
HETATM   12  N   UNL     1     -12.107  14.146  68.097  1.00  0.00    -0.539 NA 
HETATM   13  H   UNL     1     -12.782  14.712  67.582  1.00  0.00     0.000 HD 
BRANCH  12  14
HETATM   14  C   UNL     1     -11.861  14.493  69.390  1.00  0.00    -0.325 A  
HETATM   15  C   UNL     1     -12.503  14.658  71.570  1.00  0.00    -0.346 A  
HETATM   16  N   UNL     1     -12.901  14.239  70.238  1.00  0.00    -0.250 NA 
HETATM   17  H   UNL     1      -9.960  15.340  69.409  1.00  0.00     0.000 HD 
HETATM   18  N   UNL     1     -10.797  15.032  69.904  1.00  0.00    -0.260 NA 
HETATM   19  C   UNL     1     -11.056  15.105  71.360  1.00  0.00    -0.175 A  
ENDBRANCH  12  14
ENDBRANCH   3  12
TORSDOF 2
ENDMDL
MODEL       59
REMARK 921   NORMALIZED FREE ENERGY PREDICTED BY IDOCK:   -4.63 KCAL/MOL
REMARK 922        TOTAL FREE ENERGY PREDICTED BY IDOCK:   -5.46 KCAL/MOL
REMARK 923 INTER-LIGAND FREE ENERGY PREDICTED BY IDOCK:   -5.13 KCAL/MOL
REMARK 924 INTRA-LIGAND FREE ENERGY PREDICTED BY IDOCK:   -0.33 KCAL/MOL
REMARK 927      BINDING AFFINITY PREDICTED BY RF-SCORE:    0.00 PKD
ROOT
HETATM    1 BR   UNL     1     -11.708  15.441  64.577  1.00  0.00    -0.181 Br 
HETATM    2  C   UNL     1     -10.204  15.847  65.696  1.00  0.00    -0.379 A  
HETATM    3  C   UNL     1      -9.437  14.781  66.216  1.00  0.00    -0.303 A  
HETATM    4  N   UNL     1      -8.435  18.732  67.129  1.00  0.00    -0.268 NA 
HETATM    5  C   UNL     1      -8.329  15.113  66.994  1.00  0.00    -0.263 A  
HETATM    6  C   UNL     1      -9.917  17.197  65.979  1.00  0.00    -0.253 A  
HETATM    7  C   UNL     1      -9.209  19.727  66.655  1.00  0.00    -0.380 A  
HETATM    8  C   UNL     1      -8.021  16.439  67.280  1.00  0.00    -0.196 A  
HETATM    9  C   UNL     1      -8.793  17.477  66.797  1.00  0.00    -0.256 A  
HETATM   10  N   UNL     1     -10.670  18.229  65.510  1.00  0.00    -0.514 NA 
HETATM   11  C   UNL     1     -10.306  19.481  65.863  1.00  0.00    -0.470 A  
ENDROOT
BRANCH   3  12
HETATM   12  N   UNL     1      -9.766  13.431  65.945  1.00  0.00    -0.451 NA 
HETATM   13  H   UNL     1      -9.674  13.113  64.980  1.00  0.00     0.000 HD 
BRANCH  12  14
HETATM   14  C   UNL     1     -10.194  12.521  66.862  1.00  0.00    -0.226 A  
HETATM   15  C   UNL     1     -11.694  11.816  68.425  1.00  0.00    -0.325 A  
HETATM   16  N   UNL     1     -11.363  12.866  67.479  1.00  0.00    -0.290 NA 
HETATM   17  H   UNL     1      -8.746  11.027  66.913  1.00  0.00     0.000 HD 
HETATM   18  N   UNL     1      -9.641  11.403  67.225  1.00  0.00    -0.174 NA 
HETATM   19  C   UNL     1     -10.585  10.791  68.187  1.00  0.00    -0.203 A  
ENDBRANCH  12  14
ENDBRANCH   3  12
TORSDOF 2
ENDMDL
MODEL       60
REMARK 921   NORMALIZED FREE ENERGY PREDICTED BY IDOCK:   -4.62 KCAL/MOL
REMARK 922        TOTAL FREE ENERGY PREDICTED BY IDOCK:   -5.45 KCAL/MOL
REMARK 923 INTER-LIGAND FREE ENERGY PREDICTED BY IDOCK:   -5.32 KCAL/MOL
REMARK 924 INTRA-LIGAND FREE ENERGY PREDICTED BY IDOCK:   -0.13 KCAL/MOL
REMARK 927      BINDING AFFINITY PREDICTED BY RF-SCORE:    0.00 PKD
ROOT
HETATM    1 BR   UNL     1     -11.014  15.821  70.021  1.00  0.00    -0.376 Br 
HETATM    2  C   UNL     1     -10.888  15.658  68.113  1.00  0.00    -0.301 A  
HETATM    3  C   UNL     1     -10.505  16.789  67.360  1.00  0.00    -0.310 A  
HETATM    4  N   UNL     1     -11.357  13.176  65.445  1.00  0.00    -0.294 NA 
HETATM    5  C   UNL     1     -10.387  16.625  65.980  1.00  0.00    -0.352 A  
HETATM    6  C   UNL     1     -11.196  14.418  67.519  1.00  0.00    -0.315 A  
HETATM    7  C   UNL     1     -11.761  12.125  66.184  1.00  0.00    -0.315 A  
HETATM    8  C   UNL     1     -10.677  15.408  65.372  1.00  0.00    -0.416 A  
HETATM    9  C   UNL     1     -11.083  14.314  66.110  1.00  0.00    -0.324 A  
HETATM   10  N   UNL     1     -11.598  13.333  68.235  1.00  0.00    -0.311 NA 
HETATM   11  C   UNL     1     -11.881  12.202  67.553  1.00  0.00    -0.237 A  
ENDROOT
BRANCH   3  12
HETATM   12  N   UNL     1     -10.234  18.034  67.977  1.00  0.00    -0.363 NA 
HETATM   13  H   UNL     1     -11.029  18.644  68.164  1.00  0.00     0.000 HD 
BRANCH  12  14
HETATM   14  C   UNL     1      -9.003  18.485  68.341  1.00  0.00    -0.322 A  
HETATM   15  C   UNL     1      -6.757  18.188  68.579  1.00  0.00    -0.230 A  
HETATM   16  N   UNL     1      -8.001  17.577  68.147  1.00  0.00    -0.241 NA 
HETATM   17  H   UNL     1      -9.294  20.397  69.111  1.00  0.00     0.000 HD 
HETATM   18  N   UNL     1      -8.670  19.634  68.848  1.00  0.00    -0.268 NA 
HETATM   19  C   UNL     1      -7.194  19.602  68.963  1.00  0.00    -0.344 A  
ENDBRANCH  12  14
ENDBRANCH   3  12
TORSDOF 2
ENDMDL
MODEL       61
REMARK 921   NORMALIZED FREE ENERGY PREDICTED BY IDOCK:   -4.60 KCAL/MOL
REMARK 922        TOTAL FREE ENERGY PREDICTED BY IDOCK:   -5.43 KCAL/MOL
REMARK 923 INTER-LIGAND FREE ENERGY PREDICTED BY IDOCK:   -5.19 KCAL/MOL
REMARK 924 INTRA-LIGAND FREE ENERGY PREDICTED BY IDOCK:   -0.24 KCAL/MOL
REMARK 927      BINDING AFFINITY PREDICTED BY RF-SCORE:    0.00 PKD
ROOT
HETATM    1 BR   UNL     1     -11.459  16.049  64.699  1.00  0.00    -0.124 Br 
HETATM    2  C   UNL     1     -10.179  15.114  65.780  1.00  0.00    -0.341 A  
HETATM    3  C   UNL     1      -9.059  15.820  66.269  1.00  0.00    -0.338 A  
HETATM    4  N   UNL     1      -9.542  11.768  67.160  1.00  0.00    -0.179 NA 
HETATM    5  C   UNL     1      -8.169  15.120  67.082  1.00  0.00    -0.251 A  
HETATM    6  C   UNL     1     -10.387  13.745  66.042  1.00  0.00    -0.308 A  
HETATM    7  C   UNL     1     -10.597  11.109  66.645  1.00  0.00    -0.264 A  
HETATM    8  C   UNL     1      -8.358  13.770  67.361  1.00  0.00    -0.201 A  
HETATM    9  C   UNL     1      -9.438  13.075  66.853  1.00  0.00    -0.242 A  
HETATM   10  N   UNL     1     -11.447  13.048  65.546  1.00  0.00    -0.311 NA 
HETATM   11  C   UNL     1     -11.530  11.735  65.852  1.00  0.00    -0.207 A  
ENDROOT
BRANCH   3  12
HETATM   12  N   UNL     1      -8.854  17.188  65.964  1.00  0.00    -0.524 NA 
HETATM   13  H   UNL     1      -8.334  17.403  65.114  1.00  0.00     0.000 HD 
BRANCH  12  14
HETATM   14  C   UNL     1      -9.293  18.239  66.709  1.00  0.00    -0.295 A  
HETATM   15  C   UNL     1      -9.845  20.438  66.929  1.00  0.00    -0.431 A  
HETATM   16  N   UNL     1      -9.371  19.413  66.016  1.00  0.00    -0.428 NA 
HETATM   17  H   UNL     1      -9.568  17.505  68.637  1.00  0.00     0.000 HD 
HETATM   18  N   UNL     1      -9.625  18.270  67.965  1.00  0.00    -0.293 NA 
HETATM   19  C   UNL     1     -10.102  19.649  68.212  1.00  0.00    -0.449 A  
ENDBRANCH  12  14
ENDBRANCH   3  12
TORSDOF 2
ENDMDL
MODEL       62
REMARK 921   NORMALIZED FREE ENERGY PREDICTED BY IDOCK:   -4.57 KCAL/MOL
REMARK 922        TOTAL FREE ENERGY PREDICTED BY IDOCK:   -5.40 KCAL/MOL
REMARK 923 INTER-LIGAND FREE ENERGY PREDICTED BY IDOCK:   -5.24 KCAL/MOL
REMARK 924 INTRA-LIGAND FREE ENERGY PREDICTED BY IDOCK:   -0.16 KCAL/MOL
REMARK 927      BINDING AFFINITY PREDICTED BY RF-SCORE:    0.00 PKD
ROOT
HETATM    1 BR   UNL     1     -10.760   6.247  68.393  1.00  0.00    -0.395 Br 
HETATM    2  C   UNL     1     -10.843   7.296  69.998  1.00  0.00    -0.253 A  
HETATM    3  C   UNL     1     -10.987   8.697  69.885  1.00  0.00    -0.168 A  
HETATM    4  N   UNL     1     -10.733   6.903  73.649  1.00  0.00    -0.333 NA 
HETATM    5  C   UNL     1     -11.082   9.424  71.071  1.00  0.00    -0.414 A  
HETATM    6  C   UNL     1     -10.743   6.640  71.241  1.00  0.00    -0.231 A  
HETATM    7  C   UNL     1     -10.553   5.571  73.726  1.00  0.00    -0.281 A  
HETATM    8  C   UNL     1     -10.994   8.798  72.310  1.00  0.00    -0.336 A  
HETATM    9  C   UNL     1     -10.821   7.431  72.414  1.00  0.00    -0.263 A  
HETATM   10  N   UNL     1     -10.571   5.295  71.357  1.00  0.00    -0.208 NA 
HETATM   11  C   UNL     1     -10.471   4.782  72.602  1.00  0.00    -0.203 A  
ENDROOT
BRANCH   3  12
HETATM   12  N   UNL     1     -11.051   9.336  68.624  1.00  0.00    -0.458 NA 
HETATM   13  H   UNL     1     -11.206   8.744  67.808  1.00  0.00     0.000 HD 
BRANCH  12  14
HETATM   14  C   UNL     1     -10.922  10.674  68.408  1.00  0.00    -0.251 A  
HETATM   15  C   UNL     1     -11.754  12.671  67.694  1.00  0.00    -0.361 A  
HETATM   16  N   UNL     1     -12.035  11.258  67.873  1.00  0.00    -0.640 NA 
HETATM   17  H   UNL     1      -8.976  11.163  68.962  1.00  0.00     0.000 HD 
HETATM   18  N   UNL     1      -9.898  11.443  68.627  1.00  0.00    -0.204 NA 
HETATM   19  C   UNL     1     -10.352  12.810  68.286  1.00  0.00    -0.243 A  
ENDBRANCH  12  14
ENDBRANCH   3  12
TORSDOF 2
ENDMDL
MODEL       63
REMARK 921   NORMALIZED FREE ENERGY PREDICTED BY IDOCK:   -4.56 KCAL/MOL
REMARK 922        TOTAL FREE ENERGY PREDICTED BY IDOCK:   -5.38 KCAL/MOL
REMARK 923 INTER-LIGAND FREE ENERGY PREDICTED BY IDOCK:   -5.14 KCAL/MOL
REMARK 924 INTRA-LIGAND FREE ENERGY PREDICTED BY IDOCK:   -0.24 KCAL/MOL
REMARK 927      BINDING AFFINITY PREDICTED BY RF-SCORE:    0.00 PKD
ROOT
HETATM    1 BR   UNL     1     -12.959   8.993  71.887  1.00  0.00    -0.494 Br 
HETATM    2  C   UNL     1     -12.250  10.375  70.760  1.00  0.00    -0.359 A  
HETATM    3  C   UNL     1     -11.385  10.012  69.705  1.00  0.00    -0.228 A  
HETATM    4  N   UNL     1     -12.353  14.024  70.348  1.00  0.00    -0.342 NA 
HETATM    5  C   UNL     1     -10.918  11.037  68.883  1.00  0.00    -0.277 A  
HETATM    6  C   UNL     1     -12.603  11.712  71.028  1.00  0.00    -0.331 A  
HETATM    7  C   UNL     1     -13.147  14.345  71.387  1.00  0.00    -0.346 A  
HETATM    8  C   UNL     1     -11.260  12.365  69.122  1.00  0.00    -0.295 A  
HETATM    9  C   UNL     1     -12.081  12.717  70.176  1.00  0.00    -0.298 A  
HETATM   10  N   UNL     1     -13.410  12.073  72.063  1.00  0.00    -0.454 NA 
HETATM   11  C   UNL     1     -13.664  13.389  72.230  1.00  0.00    -0.607 A  
ENDROOT
BRANCH   3  12
HETATM   12  N   UNL     1     -11.018   8.664  69.477  1.00  0.00    -0.416 NA 
HETATM   13  H   UNL     1     -11.731   7.953  69.639  1.00  0.00     0.000 HD 
BRANCH  12  14
HETATM   14  C   UNL     1      -9.795   8.236  69.061  1.00  0.00    -0.176 A  
HETATM   15  C   UNL     1      -8.405   7.429  67.447  1.00  0.00    -0.116 A  
HETATM   16  N   UNL     1      -9.757   7.862  67.748  1.00  0.00    -0.150 NA 
HETATM   17  H   UNL     1      -8.559   8.305  70.734  1.00  0.00     0.000 HD 
HETATM   18  N   UNL     1      -8.692   8.129  69.738  1.00  0.00    -0.134 NA 
HETATM   19  C   UNL     1      -7.669   7.695  68.760  1.00  0.00    -0.118 A  
ENDBRANCH  12  14
ENDBRANCH   3  12
TORSDOF 2
ENDMDL
MODEL       64
REMARK 921   NORMALIZED FREE ENERGY PREDICTED BY IDOCK:   -4.54 KCAL/MOL
REMARK 922        TOTAL FREE ENERGY PREDICTED BY IDOCK:   -5.37 KCAL/MOL
REMARK 923 INTER-LIGAND FREE ENERGY PREDICTED BY IDOCK:   -5.05 KCAL/MOL
REMARK 924 INTRA-LIGAND FREE ENERGY PREDICTED BY IDOCK:   -0.32 KCAL/MOL
REMARK 927      BINDING AFFINITY PREDICTED BY RF-SCORE:    0.00 PKD
ROOT
HETATM    1 BR   UNL     1      -8.203  15.615  68.988  1.00  0.00    -0.249 Br 
HETATM    2  C   UNL     1      -9.171  16.072  67.395  1.00  0.00    -0.208 A  
HETATM    3  C   UNL     1      -9.477  15.049  66.471  1.00  0.00    -0.282 A  
HETATM    4  N   UNL     1     -10.651  18.986  65.717  1.00  0.00    -0.537 NA 
HETATM    5  C   UNL     1     -10.213  15.409  65.343  1.00  0.00    -0.408 A  
HETATM    6  C   UNL     1      -9.534  17.417  67.188  1.00  0.00    -0.257 A  
HETATM    7  C   UNL     1     -10.309  19.948  66.595  1.00  0.00    -0.485 A  
HETATM    8  C   UNL     1     -10.591  16.730  65.121  1.00  0.00    -0.134 A  
HETATM    9  C   UNL     1     -10.260  17.732  66.012  1.00  0.00    -0.293 A  
HETATM   10  N   UNL     1      -9.213  18.414  68.057  1.00  0.00    -0.286 NA 
HETATM   11  C   UNL     1      -9.601  19.669  67.742  1.00  0.00    -0.354 A  
ENDROOT
BRANCH   3  12
HETATM   12  N   UNL     1      -9.072  13.710  66.686  1.00  0.00    -0.399 NA 
HETATM   13  H   UNL     1      -8.072  13.513  66.644  1.00  0.00     0.000 HD 
BRANCH  12  14
HETATM   14  C   UNL     1      -9.902  12.663  66.944  1.00  0.00    -0.234 A  
HETATM   15  C   UNL     1     -11.594  11.701  68.128  1.00  0.00    -0.319 A  
HETATM   16  N   UNL     1     -10.782  12.893  67.963  1.00  0.00    -0.222 NA 
HETATM   17  H   UNL     1      -9.337  11.143  65.639  1.00  0.00     0.000 HD 
HETATM   18  N   UNL     1      -9.954  11.499  66.368  1.00  0.00    -0.204 NA 
HETATM   19  C   UNL     1     -11.099  10.800  66.996  1.00  0.00    -0.174 A  
ENDBRANCH  12  14
ENDBRANCH   3  12
TORSDOF 2
ENDMDL
MODEL       65
REMARK 921   NORMALIZED FREE ENERGY PREDICTED BY IDOCK:   -4.53 KCAL/MOL
REMARK 922        TOTAL FREE ENERGY PREDICTED BY IDOCK:   -5.35 KCAL/MOL
REMARK 923 INTER-LIGAND FREE ENERGY PREDICTED BY IDOCK:   -5.12 KCAL/MOL
REMARK 924 INTRA-LIGAND FREE ENERGY PREDICTED BY IDOCK:   -0.23 KCAL/MOL
REMARK 927      BINDING AFFINITY PREDICTED BY RF-SCORE:    0.00 PKD
ROOT
HETATM    1 BR   UNL     1      -9.274  12.954  67.815  1.00  0.00    -0.209 Br 
HETATM    2  C   UNL     1     -10.069  12.806  66.075  1.00  0.00    -0.268 A  
HETATM    3  C   UNL     1     -11.003  13.785  65.669  1.00  0.00    -0.288 A  
HETATM    4  N   UNL     1     -10.024  10.627  63.116  1.00  0.00    -0.298 NA 
HETATM    5  C   UNL     1     -11.532  13.667  64.386  1.00  0.00    -0.410 A  
HETATM    6  C   UNL     1      -9.710  11.715  65.259  1.00  0.00    -0.229 A  
HETATM    7  C   UNL     1      -9.164   9.684  63.545  1.00  0.00    -0.098 A  
HETATM    8  C   UNL     1     -11.186  12.603  63.558  1.00  0.00    -0.489 A  
HETATM    9  C   UNL     1     -10.298  11.630  63.972  1.00  0.00    -0.357 A  
HETATM   10  N   UNL     1      -8.837  10.749  65.655  1.00  0.00    -0.186 NA 
HETATM   11  C   UNL     1      -8.583   9.742  64.791  1.00  0.00    -0.179 A  
ENDROOT
BRANCH   3  12
HETATM   12  N   UNL     1     -11.373  14.853  66.521  1.00  0.00    -0.342 NA 
HETATM   13  H   UNL     1     -12.191  14.714  67.115  1.00  0.00     0.000 HD 
BRANCH  12  14
HETATM   14  C   UNL     1     -10.731  16.049  66.616  1.00  0.00    -0.247 A  
HETATM   15  C   UNL     1     -10.003  17.835  67.829  1.00  0.00    -0.322 A  
HETATM   16  N   UNL     1     -10.709  16.567  67.880  1.00  0.00    -0.335 NA 
HETATM   17  H   UNL     1     -10.141  16.542  64.681  1.00  0.00     0.000 HD 
HETATM   18  N   UNL     1     -10.164  16.749  65.680  1.00  0.00    -0.577 NA 
HETATM   19  C   UNL     1      -9.558  17.911  66.369  1.00  0.00    -0.286 A  
ENDBRANCH  12  14
ENDBRANCH   3  12
TORSDOF 2
ENDMDL
MODEL       66
REMARK 921   NORMALIZED FREE ENERGY PREDICTED BY IDOCK:   -4.51 KCAL/MOL
REMARK 922        TOTAL FREE ENERGY PREDICTED BY IDOCK:   -5.33 KCAL/MOL
REMARK 923 INTER-LIGAND FREE ENERGY PREDICTED BY IDOCK:   -5.09 KCAL/MOL
REMARK 924 INTRA-LIGAND FREE ENERGY PREDICTED BY IDOCK:   -0.24 KCAL/MOL
REMARK 927      BINDING AFFINITY PREDICTED BY RF-SCORE:    0.00 PKD
ROOT
HETATM    1 BR   UNL     1     -10.674  19.043  67.168  1.00  0.00    -0.494 Br 
HETATM    2  C   UNL     1      -9.163  18.179  67.976  1.00  0.00    -0.279 A  
HETATM    3  C   UNL     1      -9.311  16.858  68.453  1.00  0.00    -0.255 A  
HETATM    4  N   UNL     1      -5.646  18.827  68.821  1.00  0.00    -0.193 NA 
HETATM    5  C   UNL     1      -8.184  16.248  69.000  1.00  0.00    -0.238 A  
HETATM    6  C   UNL     1      -7.953  18.893  68.082  1.00  0.00    -0.300 A  
HETATM    7  C   UNL     1      -5.544  20.101  68.396  1.00  0.00    -0.231 A  
HETATM    8  C   UNL     1      -6.976  16.930  69.108  1.00  0.00    -0.234 A  
HETATM    9  C   UNL     1      -6.845  18.233  68.669  1.00  0.00    -0.254 A  
HETATM   10  N   UNL     1      -7.811  20.178  67.655  1.00  0.00    -0.301 NA 
HETATM   11  C   UNL     1      -6.606  20.765  67.826  1.00  0.00    -0.336 A  
ENDROOT
BRANCH   3  12
HETATM   12  N   UNL     1     -10.547  16.173  68.365  1.00  0.00    -0.271 NA 
HETATM   13  H   UNL     1     -11.032  16.199  67.468  1.00  0.00     0.000 HD 
BRANCH  12  14
HETATM   14  C   UNL     1     -11.143  15.484  69.376  1.00  0.00    -0.291 A  
HETATM   15  C   UNL     1     -11.924  15.347  71.512  1.00  0.00    -0.379 A  
HETATM   16  N   UNL     1     -11.283  16.203  70.529  1.00  0.00    -0.377 NA 
HETATM   17  H   UNL     1     -11.494  13.569  68.640  1.00  0.00     0.000 HD 
HETATM   18  N   UNL     1     -11.573  14.258  69.387  1.00  0.00    -0.287 NA 
HETATM   19  C   UNL     1     -12.201  14.073  70.715  1.00  0.00    -0.367 A  
ENDBRANCH  12  14
ENDBRANCH   3  12
TORSDOF 2
ENDMDL
MODEL       67
REMARK 921   NORMALIZED FREE ENERGY PREDICTED BY IDOCK:   -4.50 KCAL/MOL
REMARK 922        TOTAL FREE ENERGY PREDICTED BY IDOCK:   -5.32 KCAL/MOL
REMARK 923 INTER-LIGAND FREE ENERGY PREDICTED BY IDOCK:   -5.21 KCAL/MOL
REMARK 924 INTRA-LIGAND FREE ENERGY PREDICTED BY IDOCK:   -0.11 KCAL/MOL
REMARK 927      BINDING AFFINITY PREDICTED BY RF-SCORE:    0.00 PKD
ROOT
HETATM    1 BR   UNL     1     -11.830  10.838  69.681  1.00  0.00    -0.398 Br 
HETATM    2  C   UNL     1     -11.873  12.745  69.466  1.00  0.00    -0.316 A  
HETATM    3  C   UNL     1     -11.266  13.312  68.324  1.00  0.00    -0.277 A  
HETATM    4  N   UNL     1     -13.100  15.761  71.169  1.00  0.00    -0.515 NA 
HETATM    5  C   UNL     1     -11.349  14.696  68.180  1.00  0.00    -0.321 A  
HETATM    6  C   UNL     1     -12.498  13.523  70.461  1.00  0.00    -0.302 A  
HETATM    7  C   UNL     1     -13.634  15.196  72.268  1.00  0.00    -0.462 A  
HETATM    8  C   UNL     1     -11.968  15.485  69.145  1.00  0.00    -0.331 A  
HETATM    9  C   UNL     1     -12.531  14.928  70.276  1.00  0.00    -0.336 A  
HETATM   10  N   UNL     1     -13.056  12.986  71.580  1.00  0.00    -0.385 NA 
HETATM   11  C   UNL     1     -13.610  13.836  72.472  1.00  0.00    -0.575 A  
ENDROOT
BRANCH   3  12
HETATM   12  N   UNL     1     -10.615  12.511  67.355  1.00  0.00    -0.222 NA 
HETATM   13  H   UNL     1     -11.201  12.063  66.651  1.00  0.00     0.000 HD 
BRANCH  12  14
HETATM   14  C   UNL     1      -9.275  12.289  67.284  1.00  0.00    -0.185 A  
HETATM   15  C   UNL     1      -7.143  12.694  67.977  1.00  0.00    -0.103 A  
HETATM   16  N   UNL     1      -8.543  13.029  68.168  1.00  0.00    -0.183 NA 
HETATM   17  H   UNL     1      -8.999  10.920  65.740  1.00  0.00     0.000 HD 
HETATM   18  N   UNL     1      -8.619  11.493  66.493  1.00  0.00    -0.176 NA 
HETATM   19  C   UNL     1      -7.204  11.596  66.916  1.00  0.00    -0.125 A  
ENDBRANCH  12  14
ENDBRANCH   3  12
TORSDOF 2
ENDMDL
MODEL       68
REMARK 921   NORMALIZED FREE ENERGY PREDICTED BY IDOCK:   -4.49 KCAL/MOL
REMARK 922        TOTAL FREE ENERGY PREDICTED BY IDOCK:   -5.31 KCAL/MOL
REMARK 923 INTER-LIGAND FREE ENERGY PREDICTED BY IDOCK:   -5.17 KCAL/MOL
REMARK 924 INTRA-LIGAND FREE ENERGY PREDICTED BY IDOCK:   -0.14 KCAL/MOL
REMARK 927      BINDING AFFINITY PREDICTED BY RF-SCORE:    0.00 PKD
ROOT
HETATM    1 BR   UNL     1     -12.217  11.129  69.840  1.00  0.00    -0.373 Br 
HETATM    2  C   UNL     1     -11.542  11.645  68.120  1.00  0.00    -0.319 A  
HETATM    3  C   UNL     1     -11.784  12.958  67.661  1.00  0.00    -0.370 A  
HETATM    4  N   UNL     1      -9.650  10.263  65.289  1.00  0.00    -0.241 NA 
HETATM    5  C   UNL     1     -11.247  13.311  66.424  1.00  0.00    -0.325 A  
HETATM    6  C   UNL     1     -10.836  10.692  67.358  1.00  0.00    -0.296 A  
HETATM    7  C   UNL     1      -9.470   9.004  65.732  1.00  0.00    -0.236 A  
HETATM    8  C   UNL     1     -10.539  12.390  65.657  1.00  0.00    -0.297 A  
HETATM    9  C   UNL     1     -10.333  11.096  66.096  1.00  0.00    -0.250 A  
HETATM   10  N   UNL     1     -10.628   9.414  67.778  1.00  0.00    -0.263 NA 
HETATM   11  C   UNL     1      -9.952   8.587  66.952  1.00  0.00    -0.265 A  
ENDROOT
BRANCH   3  12
HETATM   12  N   UNL     1     -12.525  13.887  68.431  1.00  0.00    -0.345 NA 
HETATM   13  H   UNL     1     -13.526  13.950  68.249  1.00  0.00     0.000 HD 
BRANCH  12  14
HETATM   14  C   UNL     1     -12.014  14.703  69.393  1.00  0.00    -0.313 A  
HETATM   15  C   UNL     1     -10.792  16.517  70.031  1.00  0.00    -0.254 A  
HETATM   16  N   UNL     1     -11.272  15.740  68.903  1.00  0.00    -0.309 NA 
HETATM   17  H   UNL     1     -12.592  13.880  71.215  1.00  0.00     0.000 HD 
HETATM   18  N   UNL     1     -12.129  14.617  70.684  1.00  0.00    -0.295 NA 
HETATM   19  C   UNL     1     -11.445  15.815  71.222  1.00  0.00    -0.422 A  
ENDBRANCH  12  14
ENDBRANCH   3  12
TORSDOF 2
ENDMDL
MODEL       69
REMARK 921   NORMALIZED FREE ENERGY PREDICTED BY IDOCK:   -4.48 KCAL/MOL
REMARK 922        TOTAL FREE ENERGY PREDICTED BY IDOCK:   -5.30 KCAL/MOL
REMARK 923 INTER-LIGAND FREE ENERGY PREDICTED BY IDOCK:   -5.02 KCAL/MOL
REMARK 924 INTRA-LIGAND FREE ENERGY PREDICTED BY IDOCK:   -0.28 KCAL/MOL
REMARK 927      BINDING AFFINITY PREDICTED BY RF-SCORE:    0.00 PKD
ROOT
HETATM    1 BR   UNL     1      -7.939   9.016  70.440  1.00  0.00    -0.159 Br 
HETATM    2  C   UNL     1      -9.764   9.609  70.416  1.00  0.00    -0.245 A  
HETATM    3  C   UNL     1     -10.606   9.255  71.493  1.00  0.00    -0.335 A  
HETATM    4  N   UNL     1     -12.090  11.534  68.322  1.00  0.00    -0.575 NA 
HETATM    5  C   UNL     1     -11.915   9.734  71.462  1.00  0.00    -0.488 A  
HETATM    6  C   UNL     1     -10.213  10.367  69.317  1.00  0.00    -0.230 A  
HETATM    7  C   UNL     1     -11.276  11.821  67.288  1.00  0.00    -0.305 A  
HETATM    8  C   UNL     1     -12.380  10.492  70.391  1.00  0.00    -0.409 A  
HETATM    9  C   UNL     1     -11.561  10.808  69.325  1.00  0.00    -0.305 A  
HETATM   10  N   UNL     1      -9.417  10.684  68.260  1.00  0.00    -0.154 NA 
HETATM   11  C   UNL     1      -9.966  11.402  67.256  1.00  0.00    -0.194 A  
ENDROOT
BRANCH   3  12
HETATM   12  N   UNL     1     -10.140   8.463  72.569  1.00  0.00    -0.303 NA 
HETATM   13  H   UNL     1      -9.512   8.909  73.239  1.00  0.00     0.000 HD 
BRANCH  12  14
HETATM   14  C   UNL     1     -10.457   7.158  72.787  1.00  0.00    -0.244 A  
HETATM   15  C   UNL     1     -10.657   5.354  74.164  1.00  0.00    -0.240 A  
HETATM   16  N   UNL     1     -10.288   6.756  74.082  1.00  0.00    -0.361 NA 
HETATM   17  H   UNL     1     -10.999   6.379  70.935  1.00  0.00     0.000 HD 
HETATM   18  N   UNL     1     -10.877   6.266  71.941  1.00  0.00    -0.233 NA 
HETATM   19  C   UNL     1     -11.140   5.052  72.746  1.00  0.00    -0.241 A  
ENDBRANCH  12  14
ENDBRANCH   3  12
TORSDOF 2
ENDMDL
MODEL       70
REMARK 921   NORMALIZED FREE ENERGY PREDICTED BY IDOCK:   -4.48 KCAL/MOL
REMARK 922        TOTAL FREE ENERGY PREDICTED BY IDOCK:   -5.30 KCAL/MOL
REMARK 923 INTER-LIGAND FREE ENERGY PREDICTED BY IDOCK:   -5.05 KCAL/MOL
REMARK 924 INTRA-LIGAND FREE ENERGY PREDICTED BY IDOCK:   -0.26 KCAL/MOL
REMARK 927      BINDING AFFINITY PREDICTED BY RF-SCORE:    0.00 PKD
ROOT
HETATM    1 BR   UNL     1     -10.372  10.586  67.744  1.00  0.00    -0.268 Br 
HETATM    2  C   UNL     1     -11.395  11.438  69.126  1.00  0.00    -0.288 A  
HETATM    3  C   UNL     1     -11.550  12.841  69.088  1.00  0.00    -0.319 A  
HETATM    4  N   UNL     1     -13.282  10.616  72.170  1.00  0.00    -0.402 NA 
HETATM    5  C   UNL     1     -12.330  13.423  70.086  1.00  0.00    -0.322 A  
HETATM    6  C   UNL     1     -11.950  10.640  70.146  1.00  0.00    -0.334 A  
HETATM    7  C   UNL     1     -13.083   9.285  72.204  1.00  0.00    -0.443 A  
HETATM    8  C   UNL     1     -12.895  12.654  71.099  1.00  0.00    -0.311 A  
HETATM    9  C   UNL     1     -12.713  11.286  71.150  1.00  0.00    -0.390 A  
HETATM   10  N   UNL     1     -11.777   9.291  70.208  1.00  0.00    -0.127 NA 
HETATM   11  C   UNL     1     -12.343   8.635  71.244  1.00  0.00    -0.263 A  
ENDROOT
BRANCH   3  12
HETATM   12  N   UNL     1     -10.954  13.626  68.072  1.00  0.00    -0.244 NA 
HETATM   13  H   UNL     1     -10.937  13.234  67.130  1.00  0.00     0.000 HD 
BRANCH  12  14
HETATM   14  C   UNL     1     -10.403  14.858  68.243  1.00  0.00    -0.232 A  
HETATM   15  C   UNL     1     -10.307  17.086  67.777  1.00  0.00    -0.335 A  
HETATM   16  N   UNL     1     -10.995  15.838  67.498  1.00  0.00    -0.315 NA 
HETATM   17  H   UNL     1      -8.815  14.600  69.564  1.00  0.00     0.000 HD 
HETATM   18  N   UNL     1      -9.403  15.209  68.995  1.00  0.00    -0.210 NA 
HETATM   19  C   UNL     1      -9.299  16.679  68.851  1.00  0.00    -0.244 A  
ENDBRANCH  12  14
ENDBRANCH   3  12
TORSDOF 2
ENDMDL
MODEL       71
REMARK 921   NORMALIZED FREE ENERGY PREDICTED BY IDOCK:   -4.48 KCAL/MOL
REMARK 922        TOTAL FREE ENERGY PREDICTED BY IDOCK:   -5.30 KCAL/MOL
REMARK 923 INTER-LIGAND FREE ENERGY PREDICTED BY IDOCK:   -5.13 KCAL/MOL
REMARK 924 INTRA-LIGAND FREE ENERGY PREDICTED BY IDOCK:   -0.17 KCAL/MOL
REMARK 927      BINDING AFFINITY PREDICTED BY RF-SCORE:    0.00 PKD
ROOT
HETATM    1 BR   UNL     1     -12.374  10.802  70.575  1.00  0.00    -0.481 Br 
HETATM    2  C   UNL     1     -11.887  11.847  69.041  1.00  0.00    -0.308 A  
HETATM    3  C   UNL     1     -11.523  11.178  67.852  1.00  0.00    -0.284 A  
HETATM    4  N   UNL     1     -11.516  15.352  68.003  1.00  0.00    -0.342 NA 
HETATM    5  C   UNL     1     -11.212  11.968  66.746  1.00  0.00    -0.376 A  
HETATM    6  C   UNL     1     -11.894  13.252  69.151  1.00  0.00    -0.329 A  
HETATM    7  C   UNL     1     -11.826  15.963  69.162  1.00  0.00    -0.330 A  
HETATM    8  C   UNL     1     -11.220  13.357  66.828  1.00  0.00    -0.332 A  
HETATM    9  C   UNL     1     -11.544  14.006  68.002  1.00  0.00    -0.337 A  
HETATM   10  N   UNL     1     -12.211  13.904  70.303  1.00  0.00    -0.339 NA 
HETATM   11  C   UNL     1     -12.165  15.254  70.291  1.00  0.00    -0.363 A  
ENDROOT
BRANCH   3  12
HETATM   12  N   UNL     1     -11.492   9.765  67.777  1.00  0.00    -0.453 NA 
HETATM   13  H   UNL     1     -12.368   9.290  67.562  1.00  0.00     0.000 HD 
BRANCH  12  14
HETATM   14  C   UNL     1     -10.392   8.986  67.967  1.00  0.00    -0.224 A  
HETATM   15  C   UNL     1      -9.118   7.611  69.262  1.00  0.00    -0.145 A  
HETATM   16  N   UNL     1     -10.335   8.400  69.200  1.00  0.00    -0.219 NA 
HETATM   17  H   UNL     1      -9.262   9.147  66.226  1.00  0.00     0.000 HD 
HETATM   18  N   UNL     1      -9.408   8.747  67.153  1.00  0.00    -0.145 NA 
HETATM   19  C   UNL     1      -8.544   7.771  67.855  1.00  0.00    -0.122 A  
ENDBRANCH  12  14
ENDBRANCH   3  12
TORSDOF 2
ENDMDL
MODEL       72
REMARK 921   NORMALIZED FREE ENERGY PREDICTED BY IDOCK:   -4.42 KCAL/MOL
REMARK 922        TOTAL FREE ENERGY PREDICTED BY IDOCK:   -5.23 KCAL/MOL
REMARK 923 INTER-LIGAND FREE ENERGY PREDICTED BY IDOCK:   -5.01 KCAL/MOL
REMARK 924 INTRA-LIGAND FREE ENERGY PREDICTED BY IDOCK:   -0.21 KCAL/MOL
REMARK 927      BINDING AFFINITY PREDICTED BY RF-SCORE:    0.00 PKD
ROOT
HETATM    1 BR   UNL     1     -10.035   9.338  66.279  1.00  0.00    -0.331 Br 
HETATM    2  C   UNL     1     -10.616  10.976  65.465  1.00  0.00    -0.200 A  
HETATM    3  C   UNL     1     -10.538  11.101  64.061  1.00  0.00    -0.368 A  
HETATM    4  N   UNL     1     -11.992  14.259  66.376  1.00  0.00    -0.418 NA 
HETATM    5  C   UNL     1     -11.004  12.289  63.500  1.00  0.00    -0.521 A  
HETATM    6  C   UNL     1     -11.089  12.012  66.295  1.00  0.00    -0.317 A  
HETATM    7  C   UNL     1     -12.015  14.129  67.715  1.00  0.00    -0.354 A  
HETATM    8  C   UNL     1     -11.484  13.323  64.298  1.00  0.00    -0.435 A  
HETATM    9  C   UNL     1     -11.526  13.209  65.674  1.00  0.00    -0.323 A  
HETATM   10  N   UNL     1     -11.135  11.912  67.651  1.00  0.00    -0.240 NA 
HETATM   11  C   UNL     1     -11.593  12.979  68.342  1.00  0.00    -0.335 A  
ENDROOT
BRANCH   3  12
HETATM   12  N   UNL     1     -10.027  10.058  63.251  1.00  0.00    -0.455 NA 
HETATM   13  H   UNL     1     -10.703   9.421  62.829  1.00  0.00     0.000 HD 
BRANCH  12  14
HETATM   14  C   UNL     1      -8.711   9.832  62.989  1.00  0.00    -0.227 A  
HETATM   15  C   UNL     1      -6.931   8.428  62.767  1.00  0.00    -0.090 A  
HETATM   16  N   UNL     1      -8.350   8.517  63.063  1.00  0.00    -0.163 NA 
HETATM   17  H   UNL     1      -7.859  11.703  62.661  1.00  0.00     0.000 HD 
HETATM   18  N   UNL     1      -7.777  10.687  62.698  1.00  0.00    -0.130 NA 
HETATM   19  C   UNL     1      -6.568   9.874  62.432  1.00  0.00    -0.107 A  
ENDBRANCH  12  14
ENDBRANCH   3  12
TORSDOF 2
ENDMDL
MODEL       73
REMARK 921   NORMALIZED FREE ENERGY PREDICTED BY IDOCK:   -4.41 KCAL/MOL
REMARK 922        TOTAL FREE ENERGY PREDICTED BY IDOCK:   -5.22 KCAL/MOL
REMARK 923 INTER-LIGAND FREE ENERGY PREDICTED BY IDOCK:   -5.19 KCAL/MOL
REMARK 924 INTRA-LIGAND FREE ENERGY PREDICTED BY IDOCK:   -0.03 KCAL/MOL
REMARK 927      BINDING AFFINITY PREDICTED BY RF-SCORE:    0.00 PKD
ROOT
HETATM    1 BR   UNL     1     -11.449  14.453  66.401  1.00  0.00    -0.376 Br 
HETATM    2  C   UNL     1     -11.050  15.696  67.807  1.00  0.00    -0.311 A  
HETATM    3  C   UNL     1     -11.272  15.303  69.145  1.00  0.00    -0.278 A  
HETATM    4  N   UNL     1      -9.791  19.114  68.292  1.00  0.00    -0.364 NA 
HETATM    5  C   UNL     1     -10.936  16.217  70.142  1.00  0.00    -0.359 A  
HETATM    6  C   UNL     1     -10.561  16.972  67.462  1.00  0.00    -0.310 A  
HETATM    7  C   UNL     1      -9.629  19.478  67.006  1.00  0.00    -0.337 A  
HETATM    8  C   UNL     1     -10.443  17.479  69.826  1.00  0.00     0.378 A  
HETATM    9  C   UNL     1     -10.259  17.872  68.515  1.00  0.00    -0.390 A  
HETATM   10  N   UNL     1     -10.376  17.371  66.174  1.00  0.00    -0.382 NA 
HETATM   11  C   UNL     1      -9.919  18.625  65.967  1.00  0.00    -0.242 A  
ENDROOT
BRANCH   3  12
HETATM   12  N   UNL     1     -11.796  14.027  69.464  1.00  0.00    -0.304 NA 
HETATM   13  H   UNL     1     -11.547  13.253  68.849  1.00  0.00     0.000 HD 
BRANCH  12  14
HETATM   14  C   UNL     1     -12.604  13.746  70.523  1.00  0.00    -0.291 A  
HETATM   15  C   UNL     1     -13.384  12.317  72.116  1.00  0.00    -0.368 A  
HETATM   16  N   UNL     1     -12.466  12.474  71.002  1.00  0.00    -0.334 NA 
HETATM   17  H   UNL     1     -13.746  15.456  70.846  1.00  0.00     0.000 HD 
HETATM   18  N   UNL     1     -13.476  14.509  71.111  1.00  0.00    -0.362 NA 
HETATM   19  C   UNL     1     -13.995  13.712  72.246  1.00  0.00    -0.563 A  
ENDBRANCH  12  14
ENDBRANCH   3  12
TORSDOF 2
ENDMDL
MODEL       74
REMARK 921   NORMALIZED FREE ENERGY PREDICTED BY IDOCK:   -4.40 KCAL/MOL
REMARK 922        TOTAL FREE ENERGY PREDICTED BY IDOCK:   -5.20 KCAL/MOL
REMARK 923 INTER-LIGAND FREE ENERGY PREDICTED BY IDOCK:   -5.11 KCAL/MOL
REMARK 924 INTRA-LIGAND FREE ENERGY PREDICTED BY IDOCK:   -0.09 KCAL/MOL
REMARK 927      BINDING AFFINITY PREDICTED BY RF-SCORE:    0.00 PKD
ROOT
HETATM    1 BR   UNL     1     -10.886  15.932  65.021  1.00  0.00    -0.364 Br 
HETATM    2  C   UNL     1     -10.725  14.316  66.042  1.00  0.00    -0.304 A  
HETATM    3  C   UNL     1     -10.801  14.392  67.450  1.00  0.00    -0.292 A  
HETATM    4  N   UNL     1     -10.219  10.707  65.572  1.00  0.00    -0.271 NA 
HETATM    5  C   UNL     1     -10.717  13.194  68.159  1.00  0.00    -0.258 A  
HETATM    6  C   UNL     1     -10.521  13.101  65.357  1.00  0.00    -0.296 A  
HETATM    7  C   UNL     1     -10.108  10.669  64.231  1.00  0.00    -0.343 A  
HETATM    8  C   UNL     1     -10.524  11.982  67.504  1.00  0.00    -0.234 A  
HETATM    9  C   UNL     1     -10.418  11.916  66.128  1.00  0.00    -0.237 A  
HETATM   10  N   UNL     1     -10.413  13.024  64.003  1.00  0.00    -0.391 NA 
HETATM   11  C   UNL     1     -10.201  11.805  63.461  1.00  0.00    -0.450 A  
ENDROOT
BRANCH   3  12
HETATM   12  N   UNL     1     -10.972  15.629  68.117  1.00  0.00    -0.301 NA 
HETATM   13  H   UNL     1     -11.886  15.812  68.532  1.00  0.00     0.000 HD 
BRANCH  12  14
HETATM   14  C   UNL     1     -10.022  16.594  68.251  1.00  0.00    -0.261 A  
HETATM   15  C   UNL     1      -7.870  17.240  68.625  1.00  0.00    -0.272 A  
HETATM   16  N   UNL     1      -8.771  16.108  68.503  1.00  0.00    -0.190 NA 
HETATM   17  H   UNL     1     -11.017  18.413  68.066  1.00  0.00     0.000 HD 
HETATM   18  N   UNL     1     -10.153  17.885  68.185  1.00  0.00    -0.345 NA 
HETATM   19  C   UNL     1      -8.782  18.427  68.321  1.00  0.00    -0.302 A  
ENDBRANCH  12  14
ENDBRANCH   3  12
TORSDOF 2
ENDMDL
MODEL       75
REMARK 921   NORMALIZED FREE ENERGY PREDICTED BY IDOCK:   -4.38 KCAL/MOL
REMARK 922        TOTAL FREE ENERGY PREDICTED BY IDOCK:   -5.19 KCAL/MOL
REMARK 923 INTER-LIGAND FREE ENERGY PREDICTED BY IDOCK:   -4.91 KCAL/MOL
REMARK 924 INTRA-LIGAND FREE ENERGY PREDICTED BY IDOCK:   -0.27 KCAL/MOL
REMARK 927      BINDING AFFINITY PREDICTED BY RF-SCORE:    0.00 PKD
ROOT
HETATM    1 BR   UNL     1      -9.878  13.075  68.286  1.00  0.00    -0.206 Br 
HETATM    2  C   UNL     1      -9.935  14.993  68.290  1.00  0.00    -0.225 A  
HETATM    3  C   UNL     1     -11.137  15.635  68.661  1.00  0.00    -0.317 A  
HETATM    4  N   UNL     1      -7.793  17.893  67.581  1.00  0.00    -0.216 NA 
HETATM    5  C   UNL     1     -11.133  17.028  68.689  1.00  0.00    -0.128 A  
HETATM    6  C   UNL     1      -8.780  15.704  67.908  1.00  0.00    -0.166 A  
HETATM    7  C   UNL     1      -6.674  17.255  67.190  1.00  0.00    -0.175 A  
HETATM    8  C   UNL     1     -10.002  17.753  68.324  1.00  0.00    -0.355 A  
HETATM    9  C   UNL     1      -8.839  17.120  67.930  1.00  0.00    -0.226 A  
HETATM   10  N   UNL     1      -7.629  15.093  67.517  1.00  0.00    -0.175 NA 
HETATM   11  C   UNL     1      -6.593  15.882  67.157  1.00  0.00    -0.097 A  
ENDROOT
BRANCH   3  12
HETATM   12  N   UNL     1     -12.294  14.897  69.008  1.00  0.00    -0.589 NA 
HETATM   13  H   UNL     1     -12.785  14.416  68.254  1.00  0.00     0.000 HD 
BRANCH  12  14
HETATM   14  C   UNL     1     -12.809  14.776  70.262  1.00  0.00    -0.217 A  
HETATM   15  C   UNL     1     -13.248  13.548  72.130  1.00  0.00    -0.458 A  
HETATM   16  N   UNL     1     -12.654  13.532  70.805  1.00  0.00    -0.331 NA 
HETATM   17  H   UNL     1     -13.674  16.614  70.712  1.00  0.00     0.000 HD 
HETATM   18  N   UNL     1     -13.423  15.664  70.984  1.00  0.00    -0.563 NA 
HETATM   19  C   UNL     1     -13.682  15.005  72.284  1.00  0.00    -0.468 A  
ENDBRANCH  12  14
ENDBRANCH   3  12
TORSDOF 2
ENDMDL
MODEL       76
REMARK 921   NORMALIZED FREE ENERGY PREDICTED BY IDOCK:   -4.36 KCAL/MOL
REMARK 922        TOTAL FREE ENERGY PREDICTED BY IDOCK:   -5.17 KCAL/MOL
REMARK 923 INTER-LIGAND FREE ENERGY PREDICTED BY IDOCK:   -4.99 KCAL/MOL
REMARK 924 INTRA-LIGAND FREE ENERGY PREDICTED BY IDOCK:   -0.18 KCAL/MOL
REMARK 927      BINDING AFFINITY PREDICTED BY RF-SCORE:    0.00 PKD
ROOT
HETATM    1 BR   UNL     1     -13.282  10.148  71.909  1.00  0.00    -0.514 Br 
HETATM    2  C   UNL     1     -11.531   9.718  71.255  1.00  0.00    -0.385 A  
HETATM    3  C   UNL     1     -11.028  10.430  70.143  1.00  0.00    -0.300 A  
HETATM    4  N   UNL     1      -8.731   7.439  71.939  1.00  0.00    -0.114 NA 
HETATM    5  C   UNL     1      -9.738  10.118  69.717  1.00  0.00    -0.232 A  
HETATM    6  C   UNL     1     -10.803   8.694  71.893  1.00  0.00    -0.348 A  
HETATM    7  C   UNL     1      -9.252   6.747  72.970  1.00  0.00    -0.127 A  
HETATM    8  C   UNL     1      -8.997   9.117  70.337  1.00  0.00    -0.263 A  
HETATM    9  C   UNL     1      -9.506   8.400  71.403  1.00  0.00    -0.192 A  
HETATM   10  N   UNL     1     -11.294   7.980  72.943  1.00  0.00    -0.382 NA 
HETATM   11  C   UNL     1     -10.509   7.011  73.462  1.00  0.00    -0.375 A  
ENDROOT
BRANCH   3  12
HETATM   12  N   UNL     1     -11.792  11.432  69.498  1.00  0.00    -0.328 NA 
HETATM   13  H   UNL     1     -12.390  11.137  68.726  1.00  0.00     0.000 HD 
BRANCH  12  14
HETATM   14  C   UNL     1     -11.796  12.754  69.820  1.00  0.00    -0.310 A  
HETATM   15  C   UNL     1     -11.003  14.874  69.564  1.00  0.00    -0.273 A  
HETATM   16  N   UNL     1     -10.891  13.497  69.118  1.00  0.00    -0.186 NA 
HETATM   17  H   UNL     1     -13.199  12.973  71.342  1.00  0.00     0.000 HD 
HETATM   18  N   UNL     1     -12.524  13.380  70.695  1.00  0.00    -0.334 NA 
HETATM   19  C   UNL     1     -12.163  14.810  70.557  1.00  0.00    -0.322 A  
ENDBRANCH  12  14
ENDBRANCH   3  12
TORSDOF 2
ENDMDL
MODEL       77
REMARK 921   NORMALIZED FREE ENERGY PREDICTED BY IDOCK:   -4.34 KCAL/MOL
REMARK 922        TOTAL FREE ENERGY PREDICTED BY IDOCK:   -5.14 KCAL/MOL
REMARK 923 INTER-LIGAND FREE ENERGY PREDICTED BY IDOCK:   -4.83 KCAL/MOL
REMARK 924 INTRA-LIGAND FREE ENERGY PREDICTED BY IDOCK:   -0.31 KCAL/MOL
REMARK 927      BINDING AFFINITY PREDICTED BY RF-SCORE:    0.00 PKD
ROOT
HETATM    1 BR   UNL     1      -8.843  12.462  67.373  1.00  0.00    -0.197 Br 
HETATM    2  C   UNL     1      -9.905  13.699  66.362  1.00  0.00    -0.296 A  
HETATM    3  C   UNL     1      -9.888  15.063  66.726  1.00  0.00    -0.243 A  
HETATM    4  N   UNL     1     -12.228  13.772  63.515  1.00  0.00    -0.666 NA 
HETATM    5  C   UNL     1     -10.642  15.940  65.947  1.00  0.00    -0.348 A  
HETATM    6  C   UNL     1     -10.683  13.207  65.294  1.00  0.00    -0.303 A  
HETATM    7  C   UNL     1     -12.258  12.460  63.217  1.00  0.00    -0.418 A  
HETATM    8  C   UNL     1     -11.411  15.479  64.883  1.00  0.00    -0.339 A  
HETATM    9  C   UNL     1     -11.450  14.139  64.551  1.00  0.00    -0.372 A  
HETATM   10  N   UNL     1     -10.731  11.889  64.958  1.00  0.00    -0.282 NA 
HETATM   11  C   UNL     1     -11.526  11.535  63.925  1.00  0.00    -0.268 A  
ENDROOT
BRANCH   3  12
HETATM   12  N   UNL     1      -9.125  15.528  67.824  1.00  0.00    -0.178 NA 
HETATM   13  H   UNL     1      -9.498  15.354  68.757  1.00  0.00     0.000 HD 
BRANCH  12  14
HETATM   14  C   UNL     1      -7.937  16.186  67.740  1.00  0.00    -0.142 A  
HETATM   15  C   UNL     1      -6.666  18.056  68.016  1.00  0.00    -0.197 A  
HETATM   16  N   UNL     1      -7.991  17.483  68.166  1.00  0.00    -0.241 NA 
HETATM   17  H   UNL     1      -6.590  14.840  66.899  1.00  0.00     0.000 HD 
HETATM   18  N   UNL     1      -6.791  15.753  67.306  1.00  0.00    -0.197 NA 
HETATM   19  C   UNL     1      -5.841  16.867  67.525  1.00  0.00    -0.143 A  
ENDBRANCH  12  14
ENDBRANCH   3  12
TORSDOF 2
ENDMDL
MODEL       78
REMARK 921   NORMALIZED FREE ENERGY PREDICTED BY IDOCK:   -4.33 KCAL/MOL
REMARK 922        TOTAL FREE ENERGY PREDICTED BY IDOCK:   -5.13 KCAL/MOL
REMARK 923 INTER-LIGAND FREE ENERGY PREDICTED BY IDOCK:   -5.03 KCAL/MOL
REMARK 924 INTRA-LIGAND FREE ENERGY PREDICTED BY IDOCK:   -0.11 KCAL/MOL
REMARK 927      BINDING AFFINITY PREDICTED BY RF-SCORE:    0.00 PKD
ROOT
HETATM    1 BR   UNL     1      -8.453  11.370  67.764  1.00  0.00    -0.133 Br 
HETATM    2  C   UNL     1     -10.005  11.343  68.891  1.00  0.00    -0.131 A  
HETATM    3  C   UNL     1     -10.951  12.384  68.769  1.00  0.00    -0.246 A  
HETATM    4  N   UNL     1     -11.540   9.325  71.551  1.00  0.00    -0.356 NA 
HETATM    5  C   UNL     1     -12.085  12.314  69.576  1.00  0.00    -0.260 A  
HETATM    6  C   UNL     1     -10.149  10.291  69.819  1.00  0.00    -0.203 A  
HETATM    7  C   UNL     1     -10.602   8.367  71.676  1.00  0.00    -0.258 A  
HETATM    8  C   UNL     1     -12.253  11.280  70.493  1.00  0.00    -0.474 A  
HETATM    9  C   UNL     1     -11.310  10.282  70.632  1.00  0.00    -0.347 A  
HETATM   10  N   UNL     1      -9.226   9.302  69.966  1.00  0.00    -0.192 NA 
HETATM   11  C   UNL     1      -9.466   8.357  70.900  1.00  0.00    -0.169 A  
ENDROOT
BRANCH   3  12
HETATM   12  N   UNL     1     -10.767  13.448  67.854  1.00  0.00    -0.242 NA 
HETATM   13  H   UNL     1     -10.375  14.316  68.219  1.00  0.00     0.000 HD 
BRANCH  12  14
HETATM   14  C   UNL     1     -11.069  13.412  66.527  1.00  0.00    -0.297 A  
HETATM   15  C   UNL     1     -12.389  12.737  64.797  1.00  0.00    -0.478 A  
HETATM   16  N   UNL     1     -12.193  12.693  66.235  1.00  0.00    -0.566 NA 
HETATM   17  H   UNL     1      -9.553  14.461  65.561  1.00  0.00     0.000 HD 
HETATM   18  N   UNL     1     -10.434  13.948  65.529  1.00  0.00    -0.308 NA 
HETATM   19  C   UNL     1     -11.259  13.656  64.334  1.00  0.00    -0.367 A  
ENDBRANCH  12  14
ENDBRANCH   3  12
TORSDOF 2
ENDMDL
MODEL       79
REMARK 921   NORMALIZED FREE ENERGY PREDICTED BY IDOCK:   -4.33 KCAL/MOL
REMARK 922        TOTAL FREE ENERGY PREDICTED BY IDOCK:   -5.13 KCAL/MOL
REMARK 923 INTER-LIGAND FREE ENERGY PREDICTED BY IDOCK:   -4.81 KCAL/MOL
REMARK 924 INTRA-LIGAND FREE ENERGY PREDICTED BY IDOCK:   -0.32 KCAL/MOL
REMARK 927      BINDING AFFINITY PREDICTED BY RF-SCORE:    0.00 PKD
ROOT
HETATM    1 BR   UNL     1     -10.157  19.671  68.679  1.00  0.00    -0.499 Br 
HETATM    2  C   UNL     1      -9.256  18.283  67.708  1.00  0.00    -0.270 A  
HETATM    3  C   UNL     1      -9.901  17.037  67.550  1.00  0.00    -0.258 A  
HETATM    4  N   UNL     1      -6.098  17.655  65.938  1.00  0.00    -0.188 NA 
HETATM    5  C   UNL     1      -9.235  16.064  66.808  1.00  0.00    -0.264 A  
HETATM    6  C   UNL     1      -7.970  18.543  67.193  1.00  0.00    -0.242 A  
HETATM    7  C   UNL     1      -5.488  18.838  66.140  1.00  0.00    -0.155 A  
HETATM    8  C   UNL     1      -7.968  16.300  66.282  1.00  0.00    -0.208 A  
HETATM    9  C   UNL     1      -7.327  17.509  66.467  1.00  0.00    -0.270 A  
HETATM   10  N   UNL     1      -7.328  19.730  67.369  1.00  0.00    -0.244 NA 
HETATM   11  C   UNL     1      -6.090  19.856  66.844  1.00  0.00    -0.174 A  
ENDROOT
BRANCH   3  12
HETATM   12  N   UNL     1     -11.179  16.789  68.106  1.00  0.00    -0.256 NA 
HETATM   13  H   UNL     1     -11.960  17.333  67.741  1.00  0.00     0.000 HD 
BRANCH  12  14
HETATM   14  C   UNL     1     -11.454  15.886  69.087  1.00  0.00    -0.377 A  
HETATM   15  C   UNL     1     -11.522  15.281  71.282  1.00  0.00    -0.380 A  
HETATM   16  N   UNL     1     -11.189  16.341  70.348  1.00  0.00    -0.375 NA 
HETATM   17  H   UNL     1     -12.103  14.162  68.119  1.00  0.00     0.000 HD 
HETATM   18  N   UNL     1     -11.911  14.675  68.979  1.00  0.00    -0.302 NA 
HETATM   19  C   UNL     1     -12.093  14.197  70.368  1.00  0.00    -0.346 A  
ENDBRANCH  12  14
ENDBRANCH   3  12
TORSDOF 2
ENDMDL
MODEL       80
REMARK 921   NORMALIZED FREE ENERGY PREDICTED BY IDOCK:   -4.30 KCAL/MOL
REMARK 922        TOTAL FREE ENERGY PREDICTED BY IDOCK:   -5.10 KCAL/MOL
REMARK 923 INTER-LIGAND FREE ENERGY PREDICTED BY IDOCK:   -4.86 KCAL/MOL
REMARK 924 INTRA-LIGAND FREE ENERGY PREDICTED BY IDOCK:   -0.23 KCAL/MOL
REMARK 927      BINDING AFFINITY PREDICTED BY RF-SCORE:    0.00 PKD
ROOT
HETATM    1 BR   UNL     1      -9.627  13.784  68.096  1.00  0.00    -0.218 Br 
HETATM    2  C   UNL     1     -10.389  14.534  66.503  1.00  0.00    -0.283 A  
HETATM    3  C   UNL     1     -10.920  13.660  65.529  1.00  0.00    -0.293 A  
HETATM    4  N   UNL     1     -11.003  17.792  64.919  1.00  0.00    -0.691 NA 
HETATM    5  C   UNL     1     -11.500  14.240  64.401  1.00  0.00    -0.321 A  
HETATM    6  C   UNL     1     -10.382  15.934  66.345  1.00  0.00    -0.306 A  
HETATM    7  C   UNL     1     -10.451  18.599  65.845  1.00  0.00    -0.356 A  
HETATM    8  C   UNL     1     -11.513  15.621  64.227  1.00  0.00    -0.199 A  
HETATM    9  C   UNL     1     -10.962  16.469  65.167  1.00  0.00    -0.191 A  
HETATM   10  N   UNL     1      -9.842  16.781  67.263  1.00  0.00    -0.255 NA 
HETATM   11  C   UNL     1      -9.879  18.104  66.993  1.00  0.00    -0.322 A  
ENDROOT
BRANCH   3  12
HETATM   12  N   UNL     1     -10.884  12.255  65.695  1.00  0.00    -0.276 NA 
HETATM   13  H   UNL     1     -11.658  11.825  66.201  1.00  0.00     0.000 HD 
BRANCH  12  14
HETATM   14  C   UNL     1      -9.905  11.429  65.237  1.00  0.00    -0.248 A  
HETATM   15  C   UNL     1      -8.940  10.204  63.576  1.00  0.00    -0.245 A  
HETATM   16  N   UNL     1     -10.042  11.083  63.922  1.00  0.00    -0.326 NA 
HETATM   17  H   UNL     1      -8.673  11.034  66.868  1.00  0.00     0.000 HD 
HETATM   18  N   UNL     1      -8.890  10.929  65.877  1.00  0.00    -0.183 NA 
HETATM   19  C   UNL     1      -8.117  10.176  64.864  1.00  0.00    -0.153 A  
ENDBRANCH  12  14
ENDBRANCH   3  12
TORSDOF 2
ENDMDL
MODEL       81
REMARK 921   NORMALIZED FREE ENERGY PREDICTED BY IDOCK:   -4.28 KCAL/MOL
REMARK 922        TOTAL FREE ENERGY PREDICTED BY IDOCK:   -5.07 KCAL/MOL
REMARK 923 INTER-LIGAND FREE ENERGY PREDICTED BY IDOCK:   -5.01 KCAL/MOL
REMARK 924 INTRA-LIGAND FREE ENERGY PREDICTED BY IDOCK:   -0.06 KCAL/MOL
REMARK 927      BINDING AFFINITY PREDICTED BY RF-SCORE:    0.00 PKD
ROOT
HETATM    1 BR   UNL     1     -11.375  16.518  68.615  1.00  0.00    -0.130 Br 
HETATM    2  C   UNL     1     -11.614  14.704  69.192  1.00  0.00    -0.301 A  
HETATM    3  C   UNL     1     -10.955  13.675  68.485  1.00  0.00    -0.267 A  
HETATM    4  N   UNL     1     -13.385  12.756  71.756  1.00  0.00    -0.406 NA 
HETATM    5  C   UNL     1     -11.120  12.373  68.953  1.00  0.00    -0.307 A  
HETATM    6  C   UNL     1     -12.452  14.450  70.296  1.00  0.00    -0.354 A  
HETATM    7  C   UNL     1     -14.035  13.753  72.385  1.00  0.00    -0.548 A  
HETATM    8  C   UNL     1     -11.935  12.098  70.047  1.00  0.00    -0.391 A  
HETATM    9  C   UNL     1     -12.605  13.105  70.715  1.00  0.00    -0.260 A  
HETATM   10  N   UNL     1     -13.118  15.433  70.962  1.00  0.00    -0.486 NA 
HETATM   11  C   UNL     1     -13.906  15.066  71.995  1.00  0.00    -0.473 A  
ENDROOT
BRANCH   3  12
HETATM   12  N   UNL     1     -10.144  13.952  67.357  1.00  0.00    -0.242 NA 
HETATM   13  H   UNL     1     -10.524  13.715  66.441  1.00  0.00     0.000 HD 
BRANCH  12  14
HETATM   14  C   UNL     1      -8.903  14.508  67.393  1.00  0.00    -0.198 A  
HETATM   15  C   UNL     1      -6.784  14.611  68.223  1.00  0.00    -0.115 A  
HETATM   16  N   UNL     1      -8.058  13.919  68.291  1.00  0.00    -0.142 NA 
HETATM   17  H   UNL     1      -8.942  16.094  66.046  1.00  0.00     0.000 HD 
HETATM   18  N   UNL     1      -8.435  15.508  66.709  1.00  0.00    -0.259 NA 
HETATM   19  C   UNL     1      -7.010  15.618  67.095  1.00  0.00    -0.134 A  
ENDBRANCH  12  14
ENDBRANCH   3  12
TORSDOF 2
ENDMDL
MODEL       82
REMARK 921   NORMALIZED FREE ENERGY PREDICTED BY IDOCK:   -4.28 KCAL/MOL
REMARK 922        TOTAL FREE ENERGY PREDICTED BY IDOCK:   -5.07 KCAL/MOL
REMARK 923 INTER-LIGAND FREE ENERGY PREDICTED BY IDOCK:   -4.91 KCAL/MOL
REMARK 924 INTRA-LIGAND FREE ENERGY PREDICTED BY IDOCK:   -0.16 KCAL/MOL
REMARK 927      BINDING AFFINITY PREDICTED BY RF-SCORE:    0.00 PKD
ROOT
HETATM    1 BR   UNL     1     -10.869  12.764  68.850  1.00  0.00    -0.198 Br 
HETATM    2  C   UNL     1     -10.676  10.882  68.527  1.00  0.00    -0.204 A  
HETATM    3  C   UNL     1     -10.309  10.450  67.234  1.00  0.00    -0.228 A  
HETATM    4  N   UNL     1     -10.974   7.663  70.274  1.00  0.00    -0.253 NA 
HETATM    5  C   UNL     1     -10.142   9.079  67.044  1.00  0.00    -0.318 A  
HETATM    6  C   UNL     1     -10.922   9.986  69.587  1.00  0.00    -0.264 A  
HETATM    7  C   UNL     1     -11.364   8.101  71.486  1.00  0.00    -0.263 A  
HETATM    8  C   UNL     1     -10.370   8.175  68.077  1.00  0.00    -0.267 A  
HETATM    9  C   UNL     1     -10.761   8.601  69.332  1.00  0.00    -0.158 A  
HETATM   10  N   UNL     1     -11.308  10.393  70.827  1.00  0.00    -0.331 NA 
HETATM   11  C   UNL     1     -11.531   9.439  71.757  1.00  0.00    -0.343 A  
ENDROOT
BRANCH   3  12
HETATM   12  N   UNL     1     -10.102  11.368  66.177  1.00  0.00    -0.223 NA 
HETATM   13  H   UNL     1      -9.151  11.709  66.035  1.00  0.00     0.000 HD 
BRANCH  12  14
HETATM   14  C   UNL     1     -11.062  11.834  65.333  1.00  0.00    -0.279 A  
HETATM   15  C   UNL     1     -11.813  12.332  63.240  1.00  0.00    -0.385 A  
HETATM   16  N   UNL     1     -10.703  11.806  64.016  1.00  0.00    -0.341 NA 
HETATM   17  H   UNL     1     -12.642  12.450  66.541  1.00  0.00     0.000 HD 
HETATM   18  N   UNL     1     -12.241  12.303  65.615  1.00  0.00    -0.597 NA 
HETATM   19  C   UNL     1     -12.878  12.579  64.308  1.00  0.00    -0.255 A  
ENDBRANCH  12  14
ENDBRANCH   3  12
TORSDOF 2
ENDMDL
MODEL       83
REMARK 921   NORMALIZED FREE ENERGY PREDICTED BY IDOCK:   -4.27 KCAL/MOL
REMARK 922        TOTAL FREE ENERGY PREDICTED BY IDOCK:   -5.07 KCAL/MOL
REMARK 923 INTER-LIGAND FREE ENERGY PREDICTED BY IDOCK:   -4.80 KCAL/MOL
REMARK 924 INTRA-LIGAND FREE ENERGY PREDICTED BY IDOCK:   -0.27 KCAL/MOL
REMARK 927      BINDING AFFINITY PREDICTED BY RF-SCORE:    0.00 PKD
ROOT
HETATM    1 BR   UNL     1     -12.091  13.559  64.745  1.00  0.00    -0.466 Br 
HETATM    2  C   UNL     1     -10.575  13.231  65.876  1.00  0.00    -0.281 A  
HETATM    3  C   UNL     1     -10.180  14.233  66.789  1.00  0.00    -0.272 A  
HETATM    4  N   UNL     1      -8.061  10.640  66.563  1.00  0.00    -0.134 NA 
HETATM    5  C   UNL     1      -9.099  13.947  67.620  1.00  0.00    -0.197 A  
HETATM    6  C   UNL     1      -9.892  12.005  65.751  1.00  0.00    -0.242 A  
HETATM    7  C   UNL     1      -8.434   9.720  65.654  1.00  0.00    -0.139 A  
HETATM    8  C   UNL     1      -8.414  12.740  67.522  1.00  0.00    -0.181 A  
HETATM    9  C   UNL     1      -8.783  11.776  66.604  1.00  0.00    -0.186 A  
HETATM   10  N   UNL     1     -10.246  11.048  64.850  1.00  0.00    -0.290 NA 
HETATM   11  C   UNL     1      -9.503   9.920  64.812  1.00  0.00    -0.291 A  
ENDROOT
BRANCH   3  12
HETATM   12  N   UNL     1     -10.863  15.470  66.872  1.00  0.00    -0.315 NA 
HETATM   13  H   UNL     1     -11.874  15.438  67.000  1.00  0.00     0.000 HD 
BRANCH  12  14
HETATM   14  C   UNL     1     -10.284  16.700  66.794  1.00  0.00    -0.301 A  
HETATM   15  C   UNL     1     -10.027  18.836  67.542  1.00  0.00    -0.338 A  
HETATM   16  N   UNL     1     -10.719  17.577  67.747  1.00  0.00    -0.372 NA 
HETATM   17  H   UNL     1      -9.020  16.640  65.142  1.00  0.00     0.000 HD 
HETATM   18  N   UNL     1      -9.404  17.138  65.945  1.00  0.00    -0.527 NA 
HETATM   19  C   UNL     1      -9.077  18.512  66.389  1.00  0.00    -0.269 A  
ENDBRANCH  12  14
ENDBRANCH   3  12
TORSDOF 2
ENDMDL
MODEL       84
REMARK 921   NORMALIZED FREE ENERGY PREDICTED BY IDOCK:   -4.26 KCAL/MOL
REMARK 922        TOTAL FREE ENERGY PREDICTED BY IDOCK:   -5.06 KCAL/MOL
REMARK 923 INTER-LIGAND FREE ENERGY PREDICTED BY IDOCK:   -4.85 KCAL/MOL
REMARK 924 INTRA-LIGAND FREE ENERGY PREDICTED BY IDOCK:   -0.21 KCAL/MOL
REMARK 927      BINDING AFFINITY PREDICTED BY RF-SCORE:    0.00 PKD
ROOT
HETATM    1 BR   UNL     1      -7.594  15.954  69.224  1.00  0.00    -0.204 Br 
HETATM    2  C   UNL     1      -8.509  17.536  68.640  1.00  0.00    -0.258 A  
HETATM    3  C   UNL     1      -9.905  17.622  68.833  1.00  0.00    -0.293 A  
HETATM    4  N   UNL     1      -7.836  20.758  67.007  1.00  0.00    -0.247 NA 
HETATM    5  C   UNL     1     -10.532  18.801  68.431  1.00  0.00    -0.256 A  
HETATM    6  C   UNL     1      -7.763  18.559  68.021  1.00  0.00    -0.265 A  
HETATM    7  C   UNL     1      -6.513  20.631  66.796  1.00  0.00    -0.250 A  
HETATM    8  C   UNL     1      -9.815  19.828  67.826  1.00  0.00    -0.520 A  
HETATM    9  C   UNL     1      -8.455  19.725  67.609  1.00  0.00    -0.318 A  
HETATM   10  N   UNL     1      -6.423  18.469  67.801  1.00  0.00    -0.207 NA 
HETATM   11  C   UNL     1      -5.819  19.508  67.184  1.00  0.00    -0.174 A  
ENDROOT
BRANCH   3  12
HETATM   12  N   UNL     1     -10.638  16.566  69.426  1.00  0.00    -0.315 NA 
HETATM   13  H   UNL     1     -10.848  16.646  70.421  1.00  0.00     0.000 HD 
BRANCH  12  14
HETATM   14  C   UNL     1     -11.085  15.454  68.782  1.00  0.00    -0.283 A  
HETATM   15  C   UNL     1     -11.553  13.225  68.737  1.00  0.00    -0.312 A  
HETATM   16  N   UNL     1     -11.057  14.323  69.547  1.00  0.00    -0.233 NA 
HETATM   17  H   UNL     1     -11.541  16.055  66.842  1.00  0.00     0.000 HD 
HETATM   18  N   UNL     1     -11.511  15.332  67.561  1.00  0.00    -0.309 NA 
HETATM   19  C   UNL     1     -11.944  13.922  67.434  1.00  0.00    -0.401 A  
ENDBRANCH  12  14
ENDBRANCH   3  12
TORSDOF 2
ENDMDL
MODEL       85
REMARK 921   NORMALIZED FREE ENERGY PREDICTED BY IDOCK:   -4.20 KCAL/MOL
REMARK 922        TOTAL FREE ENERGY PREDICTED BY IDOCK:   -4.99 KCAL/MOL
REMARK 923 INTER-LIGAND FREE ENERGY PREDICTED BY IDOCK:   -4.76 KCAL/MOL
REMARK 924 INTRA-LIGAND FREE ENERGY PREDICTED BY IDOCK:   -0.23 KCAL/MOL
REMARK 927      BINDING AFFINITY PREDICTED BY RF-SCORE:    0.00 PKD
ROOT
HETATM    1 BR   UNL     1      -7.824  15.299  69.197  1.00  0.00    -0.218 Br 
HETATM    2  C   UNL     1      -9.165  14.860  67.898  1.00  0.00    -0.183 A  
HETATM    3  C   UNL     1     -10.213  15.779  67.667  1.00  0.00    -0.266 A  
HETATM    4  N   UNL     1     -10.073  12.176  65.558  1.00  0.00    -0.246 NA 
HETATM    5  C   UNL     1     -11.149  15.446  66.690  1.00  0.00    -0.236 A  
HETATM    6  C   UNL     1      -9.074  13.627  67.222  1.00  0.00    -0.228 A  
HETATM    7  C   UNL     1      -9.086  11.301  65.828  1.00  0.00    -0.203 A  
HETATM    8  C   UNL     1     -11.075  14.238  66.003  1.00  0.00    -0.319 A  
HETATM    9  C   UNL     1     -10.067  13.328  66.256  1.00  0.00    -0.294 A  
HETATM   10  N   UNL     1      -8.086  12.722  67.462  1.00  0.00    -0.168 NA 
HETATM   11  C   UNL     1      -8.113  11.566  66.763  1.00  0.00    -0.158 A  
ENDROOT
BRANCH   3  12
HETATM   12  N   UNL     1     -10.302  16.997  68.384  1.00  0.00    -0.329 NA 
HETATM   13  H   UNL     1     -10.769  16.971  69.290  1.00  0.00     0.000 HD 
BRANCH  12  14
HETATM   14  C   UNL     1      -9.816  18.198  67.967  1.00  0.00    -0.325 A  
HETATM   15  C   UNL     1     -10.032  20.142  66.798  1.00  0.00    -0.469 A  
HETATM   16  N   UNL     1     -10.678  18.895  67.168  1.00  0.00    -0.451 NA 
HETATM   17  H   UNL     1      -7.888  18.340  68.736  1.00  0.00     0.000 HD 
HETATM   18  N   UNL     1      -8.664  18.745  68.214  1.00  0.00    -0.322 NA 
HETATM   19  C   UNL     1      -8.717  20.080  67.576  1.00  0.00    -0.344 A  
ENDBRANCH  12  14
ENDBRANCH   3  12
TORSDOF 2
ENDMDL
MODEL       86
REMARK 921   NORMALIZED FREE ENERGY PREDICTED BY IDOCK:   -4.19 KCAL/MOL
REMARK 922        TOTAL FREE ENERGY PREDICTED BY IDOCK:   -4.97 KCAL/MOL
REMARK 923 INTER-LIGAND FREE ENERGY PREDICTED BY IDOCK:   -4.74 KCAL/MOL
REMARK 924 INTRA-LIGAND FREE ENERGY PREDICTED BY IDOCK:   -0.23 KCAL/MOL
REMARK 927      BINDING AFFINITY PREDICTED BY RF-SCORE:    0.00 PKD
ROOT
HETATM    1 BR   UNL     1     -10.570  17.186  65.322  1.00  0.00     0.124 Br 
HETATM    2  C   UNL     1     -10.876  15.699  66.495  1.00  0.00    -0.260 A  
HETATM    3  C   UNL     1     -10.868  15.922  67.890  1.00  0.00    -0.327 A  
HETATM    4  N   UNL     1     -11.531  12.085  66.378  1.00  0.00    -0.414 NA 
HETATM    5  C   UNL     1     -11.131  14.828  68.712  1.00  0.00    -0.277 A  
HETATM    6  C   UNL     1     -11.085  14.424  65.931  1.00  0.00    -0.319 A  
HETATM    7  C   UNL     1     -11.491  11.893  65.046  1.00  0.00    -0.244 A  
HETATM    8  C   UNL     1     -11.349  13.561  68.178  1.00  0.00    -0.319 A  
HETATM    9  C   UNL     1     -11.323  13.342  66.814  1.00  0.00    -0.327 A  
HETATM   10  N   UNL     1     -11.061  14.195  64.590  1.00  0.00    -0.381 NA 
HETATM   11  C   UNL     1     -11.258  12.927  64.168  1.00  0.00    -0.389 A  
ENDROOT
BRANCH   3  12
HETATM   12  N   UNL     1     -10.622  17.206  68.433  1.00  0.00    -0.367 NA 
HETATM   13  H   UNL     1     -11.434  17.782  68.655  1.00  0.00     0.000 HD 
BRANCH  12  14
HETATM   14  C   UNL     1      -9.394  17.737  68.685  1.00  0.00    -0.275 A  
HETATM   15  C   UNL     1      -8.012  19.525  68.971  1.00  0.00    -0.246 A  
HETATM   16  N   UNL     1      -9.374  19.102  68.698  1.00  0.00    -0.372 NA 
HETATM   17  H   UNL     1      -8.092  16.122  68.861  1.00  0.00     0.000 HD 
HETATM   18  N   UNL     1      -8.267  17.126  68.895  1.00  0.00    -0.233 NA 
HETATM   19  C   UNL     1      -7.289  18.197  69.194  1.00  0.00    -0.117 A  
ENDBRANCH  12  14
ENDBRANCH   3  12
TORSDOF 2
ENDMDL
MODEL       87
REMARK 921   NORMALIZED FREE ENERGY PREDICTED BY IDOCK:   -4.17 KCAL/MOL
REMARK 922        TOTAL FREE ENERGY PREDICTED BY IDOCK:   -4.96 KCAL/MOL
REMARK 923 INTER-LIGAND FREE ENERGY PREDICTED BY IDOCK:   -4.70 KCAL/MOL
REMARK 924 INTRA-LIGAND FREE ENERGY PREDICTED BY IDOCK:   -0.26 KCAL/MOL
REMARK 927      BINDING AFFINITY PREDICTED BY RF-SCORE:    0.00 PKD
ROOT
HETATM    1 BR   UNL     1     -10.894   9.912  70.114  1.00  0.00    -0.382 Br 
HETATM    2  C   UNL     1     -10.748  10.360  68.254  1.00  0.00    -0.235 A  
HETATM    3  C   UNL     1     -10.204   9.406  67.367  1.00  0.00    -0.239 A  
HETATM    4  N   UNL     1     -11.449  13.131  65.944  1.00  0.00    -0.322 NA 
HETATM    5  C   UNL     1     -10.147   9.750  66.017  1.00  0.00    -0.322 A  
HETATM    6  C   UNL     1     -11.175  11.635  67.830  1.00  0.00    -0.269 A  
HETATM    7  C   UNL     1     -11.924  14.037  66.819  1.00  0.00    -0.444 A  
HETATM    8  C   UNL     1     -10.571  10.999  65.573  1.00  0.00    -0.267 A  
HETATM    9  C   UNL     1     -11.072  11.942  66.450  1.00  0.00    -0.309 A  
HETATM   10  N   UNL     1     -11.669  12.572  68.684  1.00  0.00    -0.311 NA 
HETATM   11  C   UNL     1     -12.030  13.765  68.163  1.00  0.00    -0.358 A  
ENDROOT
BRANCH   3  12
HETATM   12  N   UNL     1      -9.750   8.145  67.822  1.00  0.00    -0.152 NA 
HETATM   13  H   UNL     1      -9.280   8.117  68.727  1.00  0.00     0.000 HD 
BRANCH  12  14
HETATM   14  C   UNL     1      -9.888   6.966  67.155  1.00  0.00    -0.165 A  
HETATM   15  C   UNL     1      -9.005   5.199  66.021  1.00  0.00    -0.140 A  
HETATM   16  N   UNL     1      -8.708   6.441  66.711  1.00  0.00    -0.116 NA 
HETATM   17  H   UNL     1     -11.932   6.578  67.085  1.00  0.00     0.000 HD 
HETATM   18  N   UNL     1     -10.971   6.302  66.883  1.00  0.00    -0.365 NA 
HETATM   19  C   UNL     1     -10.515   5.061  66.217  1.00  0.00    -0.303 A  
ENDBRANCH  12  14
ENDBRANCH   3  12
TORSDOF 2
ENDMDL
MODEL       88
REMARK 921   NORMALIZED FREE ENERGY PREDICTED BY IDOCK:   -4.16 KCAL/MOL
REMARK 922        TOTAL FREE ENERGY PREDICTED BY IDOCK:   -4.94 KCAL/MOL
REMARK 923 INTER-LIGAND FREE ENERGY PREDICTED BY IDOCK:   -4.66 KCAL/MOL
REMARK 924 INTRA-LIGAND FREE ENERGY PREDICTED BY IDOCK:   -0.28 KCAL/MOL
REMARK 927      BINDING AFFINITY PREDICTED BY RF-SCORE:    0.00 PKD
ROOT
HETATM    1 BR   UNL     1     -11.874  10.266  70.673  1.00  0.00    -0.472 Br 
HETATM    2  C   UNL     1     -10.963   9.877  69.029  1.00  0.00    -0.190 A  
HETATM    3  C   UNL     1     -11.228  10.682  67.900  1.00  0.00    -0.308 A  
HETATM    4  N   UNL     1      -8.521   7.513  67.634  1.00  0.00    -0.117 NA 
HETATM    5  C   UNL     1     -10.522  10.396  66.733  1.00  0.00    -0.287 A  
HETATM    6  C   UNL     1     -10.067   8.790  68.994  1.00  0.00    -0.198 A  
HETATM    7  C   UNL     1      -8.319   6.735  68.715  1.00  0.00    -0.121 A  
HETATM    8  C   UNL     1      -9.625   9.333  66.676  1.00  0.00    -0.263 A  
HETATM    9  C   UNL     1      -9.394   8.528  67.774  1.00  0.00    -0.137 A  
HETATM   10  N   UNL     1      -9.831   7.989  70.068  1.00  0.00    -0.184 NA 
HETATM   11  C   UNL     1      -8.963   6.967  69.908  1.00  0.00    -0.142 A  
ENDROOT
BRANCH   3  12
HETATM   12  N   UNL     1     -12.159  11.748  67.951  1.00  0.00    -0.559 NA 
HETATM   13  H   UNL     1     -13.145  11.502  68.032  1.00  0.00     0.000 HD 
BRANCH  12  14
HETATM   14  C   UNL     1     -11.849  13.072  67.903  1.00  0.00    -0.343 A  
HETATM   15  C   UNL     1     -11.601  15.103  68.905  1.00  0.00    -0.341 A  
HETATM   16  N   UNL     1     -11.953  13.709  69.107  1.00  0.00    -0.347 NA 
HETATM   17  H   UNL     1     -11.420  13.492  65.910  1.00  0.00     0.000 HD 
HETATM   18  N   UNL     1     -11.489  13.791  66.883  1.00  0.00    -0.331 NA 
HETATM   19  C   UNL     1     -11.201  15.136  67.430  1.00  0.00    -0.323 A  
ENDBRANCH  12  14
ENDBRANCH   3  12
TORSDOF 2
ENDMDL
MODEL       89
REMARK 921   NORMALIZED FREE ENERGY PREDICTED BY IDOCK:   -4.15 KCAL/MOL
REMARK 922        TOTAL FREE ENERGY PREDICTED BY IDOCK:   -4.92 KCAL/MOL
REMARK 923 INTER-LIGAND FREE ENERGY PREDICTED BY IDOCK:   -4.60 KCAL/MOL
REMARK 924 INTRA-LIGAND FREE ENERGY PREDICTED BY IDOCK:   -0.33 KCAL/MOL
REMARK 927      BINDING AFFINITY PREDICTED BY RF-SCORE:    0.00 PKD
ROOT
HETATM    1 BR   UNL     1      -8.087  10.307  67.905  1.00  0.00    -0.102 Br 
HETATM    2  C   UNL     1      -9.744  11.122  68.425  1.00  0.00    -0.191 A  
HETATM    3  C   UNL     1     -10.426  10.615  69.553  1.00  0.00    -0.204 A  
HETATM    4  N   UNL     1     -12.021  13.817  67.397  1.00  0.00    -0.392 NA 
HETATM    5  C   UNL     1     -11.607  11.254  69.924  1.00  0.00    -0.413 A  
HETATM    6  C   UNL     1     -10.241  12.193  67.656  1.00  0.00    -0.197 A  
HETATM    7  C   UNL     1     -11.372  14.253  66.301  1.00  0.00    -0.346 A  
HETATM    8  C   UNL     1     -12.113  12.320  69.186  1.00  0.00    -0.214 A  
HETATM    9  C   UNL     1     -11.460  12.791  68.064  1.00  0.00    -0.318 A  
HETATM   10  N   UNL     1      -9.607  12.666  66.548  1.00  0.00    -0.245 NA 
HETATM   11  C   UNL     1     -10.189  13.687  65.882  1.00  0.00    -0.311 A  
ENDROOT
BRANCH   3  12
HETATM   12  N   UNL     1      -9.923   9.515  70.289  1.00  0.00    -0.242 NA 
HETATM   13  H   UNL     1      -9.013   9.628  70.734  1.00  0.00     0.000 HD 
BRANCH  12  14
HETATM   14  C   UNL     1     -10.552   8.319  70.453  1.00  0.00    -0.224 A  
HETATM   15  C   UNL     1     -11.318   6.336  69.632  1.00  0.00    -0.422 A  
HETATM   16  N   UNL     1     -10.624   7.571  69.312  1.00  0.00    -0.224 NA 
HETATM   17  H   UNL     1     -11.177   8.262  72.437  1.00  0.00     0.000 HD 
HETATM   18  N   UNL     1     -11.089   7.817  71.524  1.00  0.00    -0.234 NA 
HETATM   19  C   UNL     1     -11.548   6.463  71.138  1.00  0.00    -0.318 A  
ENDBRANCH  12  14
ENDBRANCH   3  12
TORSDOF 2
ENDMDL
MODEL       90
REMARK 921   NORMALIZED FREE ENERGY PREDICTED BY IDOCK:   -4.13 KCAL/MOL
REMARK 922        TOTAL FREE ENERGY PREDICTED BY IDOCK:   -4.91 KCAL/MOL
REMARK 923 INTER-LIGAND FREE ENERGY PREDICTED BY IDOCK:   -4.66 KCAL/MOL
REMARK 924 INTRA-LIGAND FREE ENERGY PREDICTED BY IDOCK:   -0.25 KCAL/MOL
REMARK 927      BINDING AFFINITY PREDICTED BY RF-SCORE:    0.00 PKD
ROOT
HETATM    1 BR   UNL     1     -11.824  12.858  69.636  1.00  0.00    -0.350 Br 
HETATM    2  C   UNL     1     -11.340  11.988  67.996  1.00  0.00    -0.296 A  
HETATM    3  C   UNL     1     -10.737  10.713  68.057  1.00  0.00    -0.233 A  
HETATM    4  N   UNL     1     -11.425  12.540  64.364  1.00  0.00    -0.329 NA 
HETATM    5  C   UNL     1     -10.432  10.094  66.845  1.00  0.00    -0.286 A  
HETATM    6  C   UNL     1     -11.587  12.655  66.779  1.00  0.00    -0.374 A  
HETATM    7  C   UNL     1     -11.962  13.775  64.338  1.00  0.00    -0.445 A  
HETATM    8  C   UNL     1     -10.675  10.728  65.631  1.00  0.00    -0.142 A  
HETATM    9  C   UNL     1     -11.234  11.990  65.578  1.00  0.00    -0.321 A  
HETATM   10  N   UNL     1     -12.136  13.898  66.714  1.00  0.00    -0.439 NA 
HETATM   11  C   UNL     1     -12.309  14.442  65.489  1.00  0.00    -0.345 A  
ENDROOT
BRANCH   3  12
HETATM   12  N   UNL     1     -10.468  10.078  69.293  1.00  0.00    -0.210 NA 
HETATM   13  H   UNL     1     -11.269   9.750  69.833  1.00  0.00     0.000 HD 
BRANCH  12  14
HETATM   14  C   UNL     1      -9.232   9.869  69.823  1.00  0.00    -0.227 A  
HETATM   15  C   UNL     1      -7.848   8.862  71.327  1.00  0.00    -0.125 A  
HETATM   16  N   UNL     1      -9.219   8.983  70.862  1.00  0.00    -0.238 NA 
HETATM   17  H   UNL     1      -7.937  11.120  68.778  1.00  0.00     0.000 HD 
HETATM   18  N   UNL     1      -8.097  10.401  69.485  1.00  0.00    -0.158 NA 
HETATM   19  C   UNL     1      -7.083   9.745  70.342  1.00  0.00    -0.141 A  
ENDBRANCH  12  14
ENDBRANCH   3  12
TORSDOF 2
ENDMDL
MODEL       91
REMARK 921   NORMALIZED FREE ENERGY PREDICTED BY IDOCK:   -4.10 KCAL/MOL
REMARK 922        TOTAL FREE ENERGY PREDICTED BY IDOCK:   -4.88 KCAL/MOL
REMARK 923 INTER-LIGAND FREE ENERGY PREDICTED BY IDOCK:   -4.75 KCAL/MOL
REMARK 924 INTRA-LIGAND FREE ENERGY PREDICTED BY IDOCK:   -0.13 KCAL/MOL
REMARK 927      BINDING AFFINITY PREDICTED BY RF-SCORE:    0.00 PKD
ROOT
HETATM    1 BR   UNL     1     -10.697   9.997  67.677  1.00  0.00    -0.334 Br 
HETATM    2  C   UNL     1     -10.534  10.642  65.877  1.00  0.00    -0.174 A  
HETATM    3  C   UNL     1      -9.744   9.910  64.963  1.00  0.00    -0.288 A  
HETATM    4  N   UNL     1     -11.662  13.416  63.748  1.00  0.00    -0.407 NA 
HETATM    5  C   UNL     1      -9.678  10.386  63.655  1.00  0.00    -0.338 A  
HETATM    6  C   UNL     1     -11.195  11.835  65.524  1.00  0.00    -0.258 A  
HETATM    7  C   UNL     1     -12.374  14.117  64.651  1.00  0.00    -0.410 A  
HETATM    8  C   UNL     1     -10.329  11.557  63.280  1.00  0.00    -0.435 A  
HETATM    9  C   UNL     1     -11.074  12.287  64.186  1.00  0.00    -0.366 A  
HETATM   10  N   UNL     1     -11.931  12.564  66.407  1.00  0.00    -0.577 NA 
HETATM   11  C   UNL     1     -12.504  13.701  65.956  1.00  0.00    -0.426 A  
ENDROOT
BRANCH   3  12
HETATM   12  N   UNL     1      -9.062   8.732  65.352  1.00  0.00    -0.376 NA 
HETATM   13  H   UNL     1      -9.573   7.852  65.281  1.00  0.00     0.000 HD 
BRANCH  12  14
HETATM   14  C   UNL     1      -7.782   8.674  65.811  1.00  0.00    -0.090 A  
HETATM   15  C   UNL     1      -5.785   9.660  66.288  1.00  0.00    -0.053 A  
HETATM   16  N   UNL     1      -7.127   9.872  65.778  1.00  0.00    -0.104 NA 
HETATM   17  H   UNL     1      -7.431   6.679  66.289  1.00  0.00     0.000 HD 
HETATM   18  N   UNL     1      -7.118   7.649  66.253  1.00  0.00    -0.069 NA 
HETATM   19  C   UNL     1      -5.810   8.186  66.692  1.00  0.00    -0.044 A  
ENDBRANCH  12  14
ENDBRANCH   3  12
TORSDOF 2
ENDMDL
MODEL       92
REMARK 921   NORMALIZED FREE ENERGY PREDICTED BY IDOCK:   -4.10 KCAL/MOL
REMARK 922        TOTAL FREE ENERGY PREDICTED BY IDOCK:   -4.87 KCAL/MOL
REMARK 923 INTER-LIGAND FREE ENERGY PREDICTED BY IDOCK:   -4.62 KCAL/MOL
REMARK 924 INTRA-LIGAND FREE ENERGY PREDICTED BY IDOCK:   -0.25 KCAL/MOL
REMARK 927      BINDING AFFINITY PREDICTED BY RF-SCORE:    0.00 PKD
ROOT
HETATM    1 BR   UNL     1      -8.802  12.784  68.054  1.00  0.00    -0.200 Br 
HETATM    2  C   UNL     1      -9.279  11.050  67.384  1.00  0.00    -0.151 A  
HETATM    3  C   UNL     1      -9.492  10.893  65.997  1.00  0.00    -0.203 A  
HETATM    4  N   UNL     1      -9.915   7.631  68.570  1.00  0.00    -0.174 NA 
HETATM    5  C   UNL     1      -9.799   9.613  65.540  1.00  0.00    -0.352 A  
HETATM    6  C   UNL     1      -9.417   9.987  68.298  1.00  0.00    -0.140 A  
HETATM    7  C   UNL     1      -9.748   7.818  69.893  1.00  0.00    -0.176 A  
HETATM    8  C   UNL     1      -9.933   8.546  66.422  1.00  0.00    -0.314 A  
HETATM    9  C   UNL     1      -9.756   8.711  67.782  1.00  0.00    -0.165 A  
HETATM   10  N   UNL     1      -9.246  10.137  69.640  1.00  0.00    -0.208 NA 
HETATM   11  C   UNL     1      -9.422   9.047  70.419  1.00  0.00    -0.210 A  
ENDROOT
BRANCH   3  12
HETATM   12  N   UNL     1      -9.380  11.985  65.102  1.00  0.00    -0.431 NA 
HETATM   13  H   UNL     1      -8.441  12.251  64.806  1.00  0.00     0.000 HD 
BRANCH  12  14
HETATM   14  C   UNL     1     -10.419  12.709  64.604  1.00  0.00    -0.337 A  
HETATM   15  C   UNL     1     -11.700  14.593  64.557  1.00  0.00    -0.401 A  
HETATM   16  N   UNL     1     -10.560  13.941  65.178  1.00  0.00    -0.355 NA 
HETATM   17  H   UNL     1     -11.354  11.488  63.202  1.00  0.00     0.000 HD 
HETATM   18  N   UNL     1     -11.278  12.382  63.686  1.00  0.00    -0.442 NA 
HETATM   19  C   UNL     1     -12.124  13.582  63.492  1.00  0.00    -0.364 A  
ENDBRANCH  12  14
ENDBRANCH   3  12
TORSDOF 2
ENDMDL
MODEL       93
REMARK 921   NORMALIZED FREE ENERGY PREDICTED BY IDOCK:   -4.10 KCAL/MOL
REMARK 922        TOTAL FREE ENERGY PREDICTED BY IDOCK:   -4.87 KCAL/MOL
REMARK 923 INTER-LIGAND FREE ENERGY PREDICTED BY IDOCK:   -4.63 KCAL/MOL
REMARK 924 INTRA-LIGAND FREE ENERGY PREDICTED BY IDOCK:   -0.24 KCAL/MOL
REMARK 927      BINDING AFFINITY PREDICTED BY RF-SCORE:    0.00 PKD
ROOT
HETATM    1 BR   UNL     1      -9.416   9.770  65.176  1.00  0.00    -0.330 Br 
HETATM    2  C   UNL     1      -9.990   9.773  67.007  1.00  0.00    -0.203 A  
HETATM    3  C   UNL     1     -10.171  11.012  67.660  1.00  0.00    -0.182 A  
HETATM    4  N   UNL     1     -10.863   7.437  69.706  1.00  0.00    -0.247 NA 
HETATM    5  C   UNL     1     -10.624  10.978  68.978  1.00  0.00    -0.258 A  
HETATM    6  C   UNL     1     -10.200   8.537  67.652  1.00  0.00    -0.236 A  
HETATM    7  C   UNL     1     -10.641   6.270  69.072  1.00  0.00    -0.267 A  
HETATM    8  C   UNL     1     -10.847   9.771  69.632  1.00  0.00    -0.274 A  
HETATM    9  C   UNL     1     -10.637   8.561  69.000  1.00  0.00    -0.154 A  
HETATM   10  N   UNL     1      -9.996   7.339  67.040  1.00  0.00    -0.204 NA 
HETATM   11  C   UNL     1     -10.214   6.221  67.766  1.00  0.00    -0.170 A  
ENDROOT
BRANCH   3  12
HETATM   12  N   UNL     1      -9.920  12.240  67.001  1.00  0.00    -0.209 NA 
HETATM   13  H   UNL     1      -8.961  12.585  67.007  1.00  0.00     0.000 HD 
BRANCH  12  14
HETATM   14  C   UNL     1     -10.852  12.999  66.362  1.00  0.00    -0.278 A  
HETATM   15  C   UNL     1     -11.458  14.439  64.704  1.00  0.00    -0.387 A  
HETATM   16  N   UNL     1     -10.366  13.675  65.279  1.00  0.00    -0.337 NA 
HETATM   17  H   UNL     1     -12.613  12.791  67.451  1.00  0.00     0.000 HD 
HETATM   18  N   UNL     1     -12.107  13.169  66.650  1.00  0.00    -0.378 NA 
HETATM   19  C   UNL     1     -12.647  14.026  65.571  1.00  0.00    -0.516 A  
ENDBRANCH  12  14
ENDBRANCH   3  12
TORSDOF 2
ENDMDL
MODEL       94
REMARK 921   NORMALIZED FREE ENERGY PREDICTED BY IDOCK:   -4.07 KCAL/MOL
REMARK 922        TOTAL FREE ENERGY PREDICTED BY IDOCK:   -4.84 KCAL/MOL
REMARK 923 INTER-LIGAND FREE ENERGY PREDICTED BY IDOCK:   -4.54 KCAL/MOL
REMARK 924 INTRA-LIGAND FREE ENERGY PREDICTED BY IDOCK:   -0.30 KCAL/MOL
REMARK 927      BINDING AFFINITY PREDICTED BY RF-SCORE:    0.00 PKD
ROOT
HETATM    1 BR   UNL     1      -9.774   9.036  68.715  1.00  0.00    -0.172 Br 
HETATM    2  C   UNL     1     -11.075   9.255  70.108  1.00  0.00    -0.230 A  
HETATM    3  C   UNL     1     -11.483   8.119  70.841  1.00  0.00    -0.271 A  
HETATM    4  N   UNL     1     -13.109  11.869  71.700  1.00  0.00    -0.407 NA 
HETATM    5  C   UNL     1     -12.401   8.319  71.870  1.00  0.00    -0.379 A  
HETATM    6  C   UNL     1     -11.597  10.542  70.349  1.00  0.00    -0.342 A  
HETATM    7  C   UNL     1     -12.734  12.928  70.958  1.00  0.00    -0.251 A  
HETATM    8  C   UNL     1     -12.924   9.582  72.132  1.00  0.00    -0.497 A  
HETATM    9  C   UNL     1     -12.547  10.685  71.391  1.00  0.00    -0.421 A  
HETATM   10  N   UNL     1     -11.235  11.636  69.626  1.00  0.00    -0.217 NA 
HETATM   11  C   UNL     1     -11.817  12.814  69.939  1.00  0.00    -0.301 A  
ENDROOT
BRANCH   3  12
HETATM   12  N   UNL     1     -10.969   6.831  70.557  1.00  0.00    -0.263 NA 
HETATM   13  H   UNL     1     -11.320   6.362  69.722  1.00  0.00     0.000 HD 
BRANCH  12  14
HETATM   14  C   UNL     1     -10.045   6.165  71.303  1.00  0.00    -0.188 A  
HETATM   15  C   UNL     1      -9.481   4.547  72.804  1.00  0.00    -0.132 A  
HETATM   16  N   UNL     1     -10.570   5.161  72.066  1.00  0.00    -0.218 NA 
HETATM   17  H   UNL     1      -8.224   7.105  70.940  1.00  0.00     0.000 HD 
HETATM   18  N   UNL     1      -8.765   6.366  71.390  1.00  0.00    -0.131 NA 
HETATM   19  C   UNL     1      -8.257   5.297  72.280  1.00  0.00    -0.118 A  
ENDBRANCH  12  14
ENDBRANCH   3  12
TORSDOF 2
ENDMDL
MODEL       95
REMARK 921   NORMALIZED FREE ENERGY PREDICTED BY IDOCK:   -4.03 KCAL/MOL
REMARK 922        TOTAL FREE ENERGY PREDICTED BY IDOCK:   -4.80 KCAL/MOL
REMARK 923 INTER-LIGAND FREE ENERGY PREDICTED BY IDOCK:   -4.61 KCAL/MOL
REMARK 924 INTRA-LIGAND FREE ENERGY PREDICTED BY IDOCK:   -0.19 KCAL/MOL
REMARK 927      BINDING AFFINITY PREDICTED BY RF-SCORE:    0.00 PKD
ROOT
HETATM    1 BR   UNL     1      -7.152  15.366  68.875  1.00  0.00    -0.143 Br 
HETATM    2  C   UNL     1      -7.383  17.067  68.018  1.00  0.00    -0.180 A  
HETATM    3  C   UNL     1      -8.095  17.122  66.800  1.00  0.00    -0.243 A  
HETATM    4  N   UNL     1      -6.517  20.609  68.473  1.00  0.00    -0.281 NA 
HETATM    5  C   UNL     1      -8.277  18.379  66.225  1.00  0.00    -0.245 A  
HETATM    6  C   UNL     1      -6.821  18.210  68.622  1.00  0.00    -0.250 A  
HETATM    7  C   UNL     1      -5.805  20.521  69.613  1.00  0.00    -0.350 A  
HETATM    8  C   UNL     1      -7.739  19.523  66.807  1.00  0.00    -0.277 A  
HETATM    9  C   UNL     1      -7.015  19.459  67.981  1.00  0.00    -0.255 A  
HETATM   10  N   UNL     1      -6.104  18.160  69.778  1.00  0.00    -0.231 NA 
HETATM   11  C   UNL     1      -5.601  19.320  70.252  1.00  0.00    -0.236 A  
ENDROOT
BRANCH   3  12
HETATM   12  N   UNL     1      -8.621  15.955  66.196  1.00  0.00    -0.332 NA 
HETATM   13  H   UNL     1      -8.080  15.539  65.438  1.00  0.00     0.000 HD 
BRANCH  12  14
HETATM   14  C   UNL     1      -9.786  15.342  66.539  1.00  0.00    -0.272 A  
HETATM   15  C   UNL     1     -11.191  13.549  66.487  1.00  0.00    -0.306 A  
HETATM   16  N   UNL     1      -9.909  14.073  66.049  1.00  0.00    -0.307 NA 
HETATM   17  H   UNL     1     -10.874  16.740  67.633  1.00  0.00     0.000 HD 
HETATM   18  N   UNL     1     -10.775  15.802  67.245  1.00  0.00    -0.315 NA 
HETATM   19  C   UNL     1     -11.730  14.677  67.366  1.00  0.00    -0.390 A  
ENDBRANCH  12  14
ENDBRANCH   3  12
TORSDOF 2
ENDMDL
MODEL       96
REMARK 921   NORMALIZED FREE ENERGY PREDICTED BY IDOCK:   -4.03 KCAL/MOL
REMARK 922        TOTAL FREE ENERGY PREDICTED BY IDOCK:   -4.80 KCAL/MOL
REMARK 923 INTER-LIGAND FREE ENERGY PREDICTED BY IDOCK:   -4.72 KCAL/MOL
REMARK 924 INTRA-LIGAND FREE ENERGY PREDICTED BY IDOCK:   -0.07 KCAL/MOL
REMARK 927      BINDING AFFINITY PREDICTED BY RF-SCORE:    0.00 PKD
ROOT
HETATM    1 BR   UNL     1     -10.471  17.180  67.318  1.00  0.00    -0.280 Br 
HETATM    2  C   UNL     1      -9.564  15.522  67.649  1.00  0.00    -0.210 A  
HETATM    3  C   UNL     1     -10.159  14.322  67.202  1.00  0.00    -0.254 A  
HETATM    4  N   UNL     1      -6.501  14.232  69.216  1.00  0.00    -0.108 NA 
HETATM    5  C   UNL     1      -9.456  13.140  67.426  1.00  0.00    -0.214 A  
HETATM    6  C   UNL     1      -8.336  15.549  68.340  1.00  0.00    -0.154 A  
HETATM    7  C   UNL     1      -5.977  15.387  69.667  1.00  0.00    -0.130 A  
HETATM    8  C   UNL     1      -8.238  13.142  68.099  1.00  0.00    -0.160 A  
HETATM    9  C   UNL     1      -7.675  14.315  68.563  1.00  0.00    -0.137 A  
HETATM   10  N   UNL     1      -7.772  16.698  68.803  1.00  0.00    -0.222 NA 
HETATM   11  C   UNL     1      -6.601  16.596  69.468  1.00  0.00    -0.212 A  
ENDROOT
BRANCH   3  12
HETATM   12  N   UNL     1     -11.410  14.317  66.539  1.00  0.00    -0.336 NA 
HETATM   13  H   UNL     1     -12.121  14.965  66.879  1.00  0.00     0.000 HD 
BRANCH  12  14
HETATM   14  C   UNL     1     -11.745  13.522  65.487  1.00  0.00    -0.340 A  
HETATM   15  C   UNL     1     -11.277  12.584  63.464  1.00  0.00    -0.462 A  
HETATM   16  N   UNL     1     -10.786  13.455  64.516  1.00  0.00    -0.387 NA 
HETATM   17  H   UNL     1     -13.670  12.833  65.874  1.00  0.00     0.000 HD 
HETATM   18  N   UNL     1     -12.837  12.847  65.287  1.00  0.00    -0.715 NA 
HETATM   19  C   UNL     1     -12.615  12.103  64.026  1.00  0.00    -0.403 A  
ENDBRANCH  12  14
ENDBRANCH   3  12
TORSDOF 2
ENDMDL
MODEL       97
REMARK 921   NORMALIZED FREE ENERGY PREDICTED BY IDOCK:   -4.03 KCAL/MOL
REMARK 922        TOTAL FREE ENERGY PREDICTED BY IDOCK:   -4.79 KCAL/MOL
REMARK 923 INTER-LIGAND FREE ENERGY PREDICTED BY IDOCK:   -4.49 KCAL/MOL
REMARK 924 INTRA-LIGAND FREE ENERGY PREDICTED BY IDOCK:   -0.30 KCAL/MOL
REMARK 927      BINDING AFFINITY PREDICTED BY RF-SCORE:    0.00 PKD
ROOT
HETATM    1 BR   UNL     1     -11.099  16.315  64.894  1.00  0.00    -0.176 Br 
HETATM    2  C   UNL     1     -10.361  15.724  66.564  1.00  0.00    -0.294 A  
HETATM    3  C   UNL     1      -9.800  16.684  67.435  1.00  0.00    -0.254 A  
HETATM    4  N   UNL     1      -9.823  12.643  68.492  1.00  0.00    -0.191 NA 
HETATM    5  C   UNL     1      -9.307  16.225  68.655  1.00  0.00    -0.219 A  
HETATM    6  C   UNL     1     -10.387  14.348  66.865  1.00  0.00    -0.265 A  
HETATM    7  C   UNL     1     -10.326  11.745  67.624  1.00  0.00    -0.200 A  
HETATM    8  C   UNL     1      -9.330  14.872  68.979  1.00  0.00    -0.179 A  
HETATM    9  C   UNL     1      -9.850  13.934  68.110  1.00  0.00    -0.240 A  
HETATM   10  N   UNL     1     -10.896  13.413  66.017  1.00  0.00    -0.273 NA 
HETATM   11  C   UNL     1     -10.850  12.121  66.409  1.00  0.00    -0.271 A  
ENDROOT
BRANCH   3  12
HETATM   12  N   UNL     1      -9.755  18.057  67.094  1.00  0.00    -0.288 NA 
HETATM   13  H   UNL     1     -10.609  18.598  67.225  1.00  0.00     0.000 HD 
BRANCH  12  14
HETATM   14  C   UNL     1      -8.668  18.716  66.606  1.00  0.00    -0.302 A  
HETATM   15  C   UNL     1      -7.326  20.554  66.506  1.00  0.00    -0.203 A  
HETATM   16  N   UNL     1      -8.510  19.974  67.114  1.00  0.00    -0.322 NA 
HETATM   17  H   UNL     1      -7.795  17.438  65.214  1.00  0.00     0.000 HD 
HETATM   18  N   UNL     1      -7.793  18.316  65.733  1.00  0.00    -0.520 NA 
HETATM   19  C   UNL     1      -6.794  19.406  65.649  1.00  0.00    -0.291 A  
ENDBRANCH  12  14
ENDBRANCH   3  12
TORSDOF 2
ENDMDL
MODEL       98
REMARK 921   NORMALIZED FREE ENERGY PREDICTED BY IDOCK:   -4.02 KCAL/MOL
REMARK 922        TOTAL FREE ENERGY PREDICTED BY IDOCK:   -4.79 KCAL/MOL
REMARK 923 INTER-LIGAND FREE ENERGY PREDICTED BY IDOCK:   -4.47 KCAL/MOL
REMARK 924 INTRA-LIGAND FREE ENERGY PREDICTED BY IDOCK:   -0.32 KCAL/MOL
REMARK 927      BINDING AFFINITY PREDICTED BY RF-SCORE:    0.00 PKD
ROOT
HETATM    1 BR   UNL     1      -9.140   9.387  68.931  1.00  0.00    -0.143 Br 
HETATM    2  C   UNL     1     -10.450   8.400  69.927  1.00  0.00    -0.222 A  
HETATM    3  C   UNL     1     -10.375   6.990  69.935  1.00  0.00    -0.210 A  
HETATM    4  N   UNL     1     -13.408   8.947  72.038  1.00  0.00    -0.390 NA 
HETATM    5  C   UNL     1     -11.319   6.306  70.699  1.00  0.00    -0.409 A  
HETATM    6  C   UNL     1     -11.456   9.111  70.611  1.00  0.00    -0.262 A  
HETATM    7  C   UNL     1     -13.480  10.290  71.979  1.00  0.00    -0.281 A  
HETATM    8  C   UNL     1     -12.317   6.986  71.390  1.00  0.00    -0.419 A  
HETATM    9  C   UNL     1     -12.405   8.364  71.353  1.00  0.00    -0.299 A  
HETATM   10  N   UNL     1     -11.554  10.468  70.582  1.00  0.00    -0.339 NA 
HETATM   11  C   UNL     1     -12.573  11.036  71.263  1.00  0.00    -0.412 A  
ENDROOT
BRANCH   3  12
HETATM   12  N   UNL     1      -9.375   6.297  69.212  1.00  0.00    -0.136 NA 
HETATM   13  H   UNL     1      -8.404   6.475  69.471  1.00  0.00     0.000 HD 
BRANCH  12  14
HETATM   14  C   UNL     1      -9.597   5.413  68.200  1.00  0.00    -0.124 A  
HETATM   15  C   UNL     1     -10.532   4.866  66.197  1.00  0.00    -0.302 A  
HETATM   16  N   UNL     1     -10.377   5.909  67.194  1.00  0.00    -0.203 NA 
HETATM   17  H   UNL     1      -8.649   3.646  68.759  1.00  0.00     0.000 HD 
HETATM   18  N   UNL     1      -9.184   4.188  68.080  1.00  0.00    -0.137 NA 
HETATM   19  C   UNL     1      -9.655   3.743  66.748  1.00  0.00    -0.180 A  
ENDBRANCH  12  14
ENDBRANCH   3  12
TORSDOF 2
ENDMDL
MODEL       99
REMARK 921   NORMALIZED FREE ENERGY PREDICTED BY IDOCK:   -4.02 KCAL/MOL
REMARK 922        TOTAL FREE ENERGY PREDICTED BY IDOCK:   -4.79 KCAL/MOL
REMARK 923 INTER-LIGAND FREE ENERGY PREDICTED BY IDOCK:   -4.57 KCAL/MOL
REMARK 924 INTRA-LIGAND FREE ENERGY PREDICTED BY IDOCK:   -0.22 KCAL/MOL
REMARK 927      BINDING AFFINITY PREDICTED BY RF-SCORE:    0.00 PKD
ROOT
HETATM    1 BR   UNL     1      -8.308  14.507  68.960  1.00  0.00     0.001 Br 
HETATM    2  C   UNL     1      -9.720  13.566  68.063  1.00  0.00    -0.228 A  
HETATM    3  C   UNL     1     -11.056  13.945  68.318  1.00  0.00    -0.258 A  
HETATM    4  N   UNL     1     -10.224  10.823  65.671  1.00  0.00    -0.258 NA 
HETATM    5  C   UNL     1     -12.055  13.267  67.622  1.00  0.00    -0.295 A  
HETATM    6  C   UNL     1      -9.382  12.516  67.187  1.00  0.00    -0.201 A  
HETATM    7  C   UNL     1      -8.943  10.456  65.478  1.00  0.00    -0.176 A  
HETATM    8  C   UNL     1     -11.746  12.231  66.745  1.00  0.00    -0.411 A  
HETATM    9  C   UNL     1     -10.439  11.843  66.524  1.00  0.00    -0.221 A  
HETATM   10  N   UNL     1      -8.099  12.123  66.961  1.00  0.00    -0.172 NA 
HETATM   11  C   UNL     1      -7.900  11.090  66.113  1.00  0.00    -0.117 A  
ENDROOT
BRANCH   3  12
HETATM   12  N   UNL     1     -11.371  14.982  69.229  1.00  0.00    -0.278 NA 
HETATM   13  H   UNL     1     -10.873  15.865  69.121  1.00  0.00     0.000 HD 
BRANCH  12  14
HETATM   14  C   UNL     1     -12.282  14.901  70.237  1.00  0.00    -0.335 A  
HETATM   15  C   UNL     1     -13.200  13.815  72.017  1.00  0.00    -0.432 A  
HETATM   16  N   UNL     1     -12.171  13.769  70.993  1.00  0.00    -0.352 NA 
HETATM   17  H   UNL     1     -13.487  16.590  70.063  1.00  0.00     0.000 HD 
HETATM   18  N   UNL     1     -13.227  15.734  70.554  1.00  0.00    -0.332 NA 
HETATM   19  C   UNL     1     -13.849  15.178  71.778  1.00  0.00    -0.506 A  
ENDBRANCH  12  14
ENDBRANCH   3  12
TORSDOF 2
ENDMDL
MODEL      100
REMARK 921   NORMALIZED FREE ENERGY PREDICTED BY IDOCK:   -4.01 KCAL/MOL
REMARK 922        TOTAL FREE ENERGY PREDICTED BY IDOCK:   -4.77 KCAL/MOL
REMARK 923 INTER-LIGAND FREE ENERGY PREDICTED BY IDOCK:   -4.63 KCAL/MOL
REMARK 924 INTRA-LIGAND FREE ENERGY PREDICTED BY IDOCK:   -0.14 KCAL/MOL
REMARK 927      BINDING AFFINITY PREDICTED BY RF-SCORE:    0.00 PKD
ROOT
HETATM    1 BR   UNL     1      -6.210  17.815  68.609  1.00  0.00    -0.203 Br 
HETATM    2  C   UNL     1      -7.639  17.239  67.465  1.00  0.00    -0.178 A  
HETATM    3  C   UNL     1      -7.662  15.895  67.032  1.00  0.00    -0.233 A  
HETATM    4  N   UNL     1     -10.650  18.548  65.814  1.00  0.00    -0.584 NA 
HETATM    5  C   UNL     1      -8.733  15.501  66.233  1.00  0.00    -0.283 A  
HETATM    6  C   UNL     1      -8.615  18.179  67.077  1.00  0.00    -0.254 A  
HETATM    7  C   UNL     1     -10.580  19.834  66.207  1.00  0.00    -0.464 A  
HETATM    8  C   UNL     1      -9.714  16.409  65.844  1.00  0.00    -0.327 A  
HETATM    9  C   UNL     1      -9.670  17.730  66.243  1.00  0.00    -0.267 A  
HETATM   10  N   UNL     1      -8.582  19.484  67.463  1.00  0.00    -0.299 NA 
HETATM   11  C   UNL     1      -9.565  20.294  67.013  1.00  0.00    -0.435 A  
ENDROOT
BRANCH   3  12
HETATM   12  N   UNL     1      -6.650  14.979  67.407  1.00  0.00    -0.296 NA 
HETATM   13  H   UNL     1      -5.694  15.331  67.449  1.00  0.00     0.000 HD 
BRANCH  12  14
HETATM   14  C   UNL     1      -6.845  13.668  67.717  1.00  0.00    -0.168 A  
HETATM   15  C   UNL     1      -6.232  11.477  67.604  1.00  0.00    -0.062 A  
HETATM   16  N   UNL     1      -5.897  12.831  67.202  1.00  0.00    -0.327 NA 
HETATM   17  H   UNL     1      -8.614  13.590  68.811  1.00  0.00     0.000 HD 
HETATM   18  N   UNL     1      -7.801  13.124  68.409  1.00  0.00    -0.137 NA 
HETATM   19  C   UNL     1      -7.459  11.686  68.491  1.00  0.00    -0.113 A  
ENDBRANCH  12  14
ENDBRANCH   3  12
TORSDOF 2
ENDMDL
MODEL      101
REMARK 921   NORMALIZED FREE ENERGY PREDICTED BY IDOCK:   -3.99 KCAL/MOL
REMARK 922        TOTAL FREE ENERGY PREDICTED BY IDOCK:   -4.75 KCAL/MOL
REMARK 923 INTER-LIGAND FREE ENERGY PREDICTED BY IDOCK:   -4.48 KCAL/MOL
REMARK 924 INTRA-LIGAND FREE ENERGY PREDICTED BY IDOCK:   -0.27 KCAL/MOL
REMARK 927      BINDING AFFINITY PREDICTED BY RF-SCORE:    0.00 PKD
ROOT
HETATM    1 BR   UNL     1      -8.803   8.283  69.109  1.00  0.00    -0.144 Br 
HETATM    2  C   UNL     1     -10.281   9.008  70.095  1.00  0.00    -0.197 A  
HETATM    3  C   UNL     1     -10.911   8.199  71.066  1.00  0.00    -0.235 A  
HETATM    4  N   UNL     1     -12.270  12.086  70.364  1.00  0.00    -0.325 NA 
HETATM    5  C   UNL     1     -11.956   8.770  71.790  1.00  0.00    -0.418 A  
HETATM    6  C   UNL     1     -10.703  10.322  69.811  1.00  0.00    -0.285 A  
HETATM    7  C   UNL     1     -11.678  12.820  69.402  1.00  0.00    -0.319 A  
HETATM    8  C   UNL     1     -12.386  10.069  71.533  1.00  0.00    -0.513 A  
HETATM    9  C   UNL     1     -11.788  10.844  70.560  1.00  0.00    -0.360 A  
HETATM   10  N   UNL     1     -10.123  11.096  68.853  1.00  0.00    -0.201 NA 
HETATM   11  C   UNL     1     -10.627  12.335  68.660  1.00  0.00    -0.224 A  
ENDROOT
BRANCH   3  12
HETATM   12  N   UNL     1     -10.489   6.870  71.310  1.00  0.00    -0.207 NA 
HETATM   13  H   UNL     1     -10.329   6.275  70.497  1.00  0.00     0.000 HD 
BRANCH  12  14
HETATM   14  C   UNL     1     -10.279   6.319  72.536  1.00  0.00    -0.184 A  
HETATM   15  C   UNL     1     -10.768   4.781  74.144  1.00  0.00    -0.271 A  
HETATM   16  N   UNL     1     -11.098   5.261  72.815  1.00  0.00    -0.274 NA 
HETATM   17  H   UNL     1      -8.794   7.465  73.438  1.00  0.00     0.000 HD 
HETATM   18  N   UNL     1      -9.431   6.669  73.456  1.00  0.00    -0.145 NA 
HETATM   19  C   UNL     1      -9.587   5.668  74.536  1.00  0.00    -0.177 A  
ENDBRANCH  12  14
ENDBRANCH   3  12
TORSDOF 2
ENDMDL
MODEL      102
REMARK 921   NORMALIZED FREE ENERGY PREDICTED BY IDOCK:   -3.99 KCAL/MOL
REMARK 922        TOTAL FREE ENERGY PREDICTED BY IDOCK:   -4.75 KCAL/MOL
REMARK 923 INTER-LIGAND FREE ENERGY PREDICTED BY IDOCK:   -4.53 KCAL/MOL
REMARK 924 INTRA-LIGAND FREE ENERGY PREDICTED BY IDOCK:   -0.22 KCAL/MOL
REMARK 927      BINDING AFFINITY PREDICTED BY RF-SCORE:    0.00 PKD
ROOT
HETATM    1 BR   UNL     1     -10.752  16.172  66.430  1.00  0.00    -0.147 Br 
HETATM    2  C   UNL     1     -10.205  14.339  66.277  1.00  0.00    -0.301 A  
HETATM    3  C   UNL     1      -9.232  13.845  67.173  1.00  0.00    -0.239 A  
HETATM    4  N   UNL     1     -10.857  11.347  64.247  1.00  0.00    -0.355 NA 
HETATM    5  C   UNL     1      -8.885  12.500  67.059  1.00  0.00    -0.212 A  
HETATM    6  C   UNL     1     -10.779  13.544  65.266  1.00  0.00    -0.323 A  
HETATM    7  C   UNL     1     -11.751  11.856  63.379  1.00  0.00    -0.403 A  
HETATM    8  C   UNL     1      -9.445  11.693  66.074  1.00  0.00    -0.246 A  
HETATM    9  C   UNL     1     -10.372  12.189  65.178  1.00  0.00    -0.279 A  
HETATM   10  N   UNL     1     -11.693  14.022  64.377  1.00  0.00    -0.402 NA 
HETATM   11  C   UNL     1     -12.160  13.168  63.440  1.00  0.00    -0.486 A  
ENDROOT
BRANCH   3  12
HETATM   12  N   UNL     1      -8.644  14.674  68.160  1.00  0.00    -0.159 NA 
HETATM   13  H   UNL     1      -9.038  14.631  69.100  1.00  0.00     0.000 HD 
BRANCH  12  14
HETATM   14  C   UNL     1      -7.599  15.522  67.961  1.00  0.00    -0.125 A  
HETATM   15  C   UNL     1      -6.536  17.503  68.330  1.00  0.00    -0.190 A  
HETATM   16  N   UNL     1      -7.708  16.703  68.638  1.00  0.00    -0.212 NA 
HETATM   17  H   UNL     1      -6.336  14.574  66.605  1.00  0.00     0.000 HD 
HETATM   18  N   UNL     1      -6.545  15.362  67.218  1.00  0.00    -0.295 NA 
HETATM   19  C   UNL     1      -5.713  16.564  67.450  1.00  0.00    -0.159 A  
ENDBRANCH  12  14
ENDBRANCH   3  12
TORSDOF 2
ENDMDL
MODEL      103
REMARK 921   NORMALIZED FREE ENERGY PREDICTED BY IDOCK:   -3.97 KCAL/MOL
REMARK 922        TOTAL FREE ENERGY PREDICTED BY IDOCK:   -4.73 KCAL/MOL
REMARK 923 INTER-LIGAND FREE ENERGY PREDICTED BY IDOCK:   -4.48 KCAL/MOL
REMARK 924 INTRA-LIGAND FREE ENERGY PREDICTED BY IDOCK:   -0.25 KCAL/MOL
REMARK 927      BINDING AFFINITY PREDICTED BY RF-SCORE:    0.00 PKD
ROOT
HETATM    1 BR   UNL     1     -13.147  10.026  71.666  1.00  0.00    -0.566 Br 
HETATM    2  C   UNL     1     -11.651  10.207  70.477  1.00  0.00    -0.329 A  
HETATM    3  C   UNL     1     -10.768   9.116  70.327  1.00  0.00    -0.231 A  
HETATM    4  N   UNL     1     -10.104  12.664  68.225  1.00  0.00    -0.230 NA 
HETATM    5  C   UNL     1      -9.714   9.268  69.428  1.00  0.00    -0.175 A  
HETATM    6  C   UNL     1     -11.470  11.430  69.800  1.00  0.00    -0.300 A  
HETATM    7  C   UNL     1     -10.938  13.703  68.420  1.00  0.00    -0.262 A  
HETATM    8  C   UNL     1      -9.520  10.463  68.741  1.00  0.00    -0.175 A  
HETATM    9  C   UNL     1     -10.368  11.539  68.916  1.00  0.00    -0.169 A  
HETATM   10  N   UNL     1     -12.298  12.498  69.965  1.00  0.00    -0.148 NA 
HETATM   11  C   UNL     1     -12.013  13.623  69.275  1.00  0.00    -0.336 A  
ENDROOT
BRANCH   3  12
HETATM   12  N   UNL     1     -10.952   7.910  71.045  1.00  0.00    -0.240 NA 
HETATM   13  H   UNL     1     -11.575   7.214  70.635  1.00  0.00     0.000 HD 
BRANCH  12  14
HETATM   14  C   UNL     1     -10.369   7.599  72.234  1.00  0.00    -0.224 A  
HETATM   15  C   UNL     1     -10.276   6.378  74.155  1.00  0.00    -0.343 A  
HETATM   16  N   UNL     1     -10.999   6.597  72.915  1.00  0.00    -0.256 NA 
HETATM   17  H   UNL     1      -8.776   8.921  72.458  1.00  0.00     0.000 HD 
HETATM   18  N   UNL     1      -9.325   8.130  72.796  1.00  0.00    -0.254 NA 
HETATM   19  C   UNL     1      -9.100   7.345  74.031  1.00  0.00    -0.243 A  
ENDBRANCH  12  14
ENDBRANCH   3  12
TORSDOF 2
ENDMDL
MODEL      104
REMARK 921   NORMALIZED FREE ENERGY PREDICTED BY IDOCK:   -3.97 KCAL/MOL
REMARK 922        TOTAL FREE ENERGY PREDICTED BY IDOCK:   -4.72 KCAL/MOL
REMARK 923 INTER-LIGAND FREE ENERGY PREDICTED BY IDOCK:   -4.44 KCAL/MOL
REMARK 924 INTRA-LIGAND FREE ENERGY PREDICTED BY IDOCK:   -0.28 KCAL/MOL
REMARK 927      BINDING AFFINITY PREDICTED BY RF-SCORE:    0.00 PKD
ROOT
HETATM    1 BR   UNL     1      -7.799  13.156  68.201  1.00  0.00    -0.156 Br 
HETATM    2  C   UNL     1      -9.294  12.730  67.077  1.00  0.00    -0.229 A  
HETATM    3  C   UNL     1      -9.715  11.385  66.989  1.00  0.00    -0.190 A  
HETATM    4  N   UNL     1     -11.696  14.354  64.819  1.00  0.00    -0.395 NA 
HETATM    5  C   UNL     1     -10.828  11.116  66.193  1.00  0.00    -0.247 A  
HETATM    6  C   UNL     1      -9.920  13.770  66.361  1.00  0.00    -0.297 A  
HETATM    7  C   UNL     1     -11.247  15.622  64.889  1.00  0.00    -0.369 A  
HETATM    8  C   UNL     1     -11.467  12.128  65.483  1.00  0.00    -0.394 A  
HETATM    9  C   UNL     1     -11.031  13.437  65.546  1.00  0.00    -0.283 A  
HETATM   10  N   UNL     1      -9.499  15.063  66.414  1.00  0.00    -0.279 NA 
HETATM   11  C   UNL     1     -10.168  15.970  65.669  1.00  0.00    -0.386 A  
ENDROOT
BRANCH   3  12
HETATM   12  N   UNL     1      -9.049  10.352  67.692  1.00  0.00    -0.138 NA 
HETATM   13  H   UNL     1      -8.102  10.121  67.393  1.00  0.00     0.000 HD 
BRANCH  12  14
HETATM   14  C   UNL     1      -9.565   9.643  68.733  1.00  0.00    -0.152 A  
HETATM   15  C   UNL     1      -9.703   9.175  70.958  1.00  0.00    -0.289 A  
HETATM   16  N   UNL     1      -9.072  10.011  69.952  1.00  0.00    -0.198 NA 
HETATM   17  H   UNL     1     -10.854   8.241  67.892  1.00  0.00     0.000 HD 
HETATM   18  N   UNL     1     -10.434   8.677  68.713  1.00  0.00    -0.209 NA 
HETATM   19  C   UNL     1     -10.684   8.343  70.133  1.00  0.00    -0.236 A  
ENDBRANCH  12  14
ENDBRANCH   3  12
TORSDOF 2
ENDMDL
MODEL      105
REMARK 921   NORMALIZED FREE ENERGY PREDICTED BY IDOCK:   -3.96 KCAL/MOL
REMARK 922        TOTAL FREE ENERGY PREDICTED BY IDOCK:   -4.72 KCAL/MOL
REMARK 923 INTER-LIGAND FREE ENERGY PREDICTED BY IDOCK:   -4.40 KCAL/MOL
REMARK 924 INTRA-LIGAND FREE ENERGY PREDICTED BY IDOCK:   -0.32 KCAL/MOL
REMARK 927      BINDING AFFINITY PREDICTED BY RF-SCORE:    0.00 PKD
ROOT
HETATM    1 BR   UNL     1      -9.823   7.989  66.853  1.00  0.00    -0.343 Br 
HETATM    2  C   UNL     1     -10.476   9.789  66.725  1.00  0.00    -0.189 A  
HETATM    3  C   UNL     1     -10.429  10.440  65.473  1.00  0.00    -0.122 A  
HETATM    4  N   UNL     1     -11.947  12.425  68.820  1.00  0.00    -0.282 NA 
HETATM    5  C   UNL     1     -10.945  11.733  65.407  1.00  0.00    -0.352 A  
HETATM    6  C   UNL     1     -10.969  10.414  67.888  1.00  0.00    -0.297 A  
HETATM    7  C   UNL     1     -11.941  11.795  70.010  1.00  0.00    -0.344 A  
HETATM    8  C   UNL     1     -11.446  12.368  66.541  1.00  0.00    -0.427 A  
HETATM    9  C   UNL     1     -11.459  11.738  67.770  1.00  0.00    -0.311 A  
HETATM   10  N   UNL     1     -10.986   9.805  69.105  1.00  0.00    -0.207 NA 
HETATM   11  C   UNL     1     -11.467  10.511  70.151  1.00  0.00    -0.325 A  
ENDROOT
BRANCH   3  12
HETATM   12  N   UNL     1      -9.898   9.803  64.326  1.00  0.00    -0.425 NA 
HETATM   13  H   UNL     1     -10.438   9.037  63.925  1.00  0.00     0.000 HD 
BRANCH  12  14
HETATM   14  C   UNL     1      -8.727  10.127  63.712  1.00  0.00    -0.212 A  
HETATM   15  C   UNL     1      -6.450  10.181  63.655  1.00  0.00    -0.127 A  
HETATM   16  N   UNL     1      -7.614   9.774  64.421  1.00  0.00    -0.129 NA 
HETATM   17  H   UNL     1      -9.250  11.106  61.951  1.00  0.00     0.000 HD 
HETATM   18  N   UNL     1      -8.538  10.725  62.574  1.00  0.00    -0.242 NA 
HETATM   19  C   UNL     1      -7.071  10.736  62.373  1.00  0.00    -0.063 A  
ENDBRANCH  12  14
ENDBRANCH   3  12
TORSDOF 2
ENDMDL
MODEL      106
REMARK 921   NORMALIZED FREE ENERGY PREDICTED BY IDOCK:   -3.96 KCAL/MOL
REMARK 922        TOTAL FREE ENERGY PREDICTED BY IDOCK:   -4.72 KCAL/MOL
REMARK 923 INTER-LIGAND FREE ENERGY PREDICTED BY IDOCK:   -4.67 KCAL/MOL
REMARK 924 INTRA-LIGAND FREE ENERGY PREDICTED BY IDOCK:   -0.05 KCAL/MOL
REMARK 927      BINDING AFFINITY PREDICTED BY RF-SCORE:    0.00 PKD
ROOT
HETATM    1 BR   UNL     1     -11.892   9.877  70.902  1.00  0.00    -0.476 Br 
HETATM    2  C   UNL     1     -11.503  10.767  69.247  1.00  0.00    -0.298 A  
HETATM    3  C   UNL     1     -11.022  10.001  68.162  1.00  0.00    -0.235 A  
HETATM    4  N   UNL     1     -11.560  14.123  67.753  1.00  0.00    -0.327 NA 
HETATM    5  C   UNL     1     -10.785  10.673  66.964  1.00  0.00    -0.317 A  
HETATM    6  C   UNL     1     -11.694  12.161  69.168  1.00  0.00    -0.328 A  
HETATM    7  C   UNL     1     -11.979  14.835  68.816  1.00  0.00    -0.257 A  
HETATM    8  C   UNL     1     -10.975  12.047  66.859  1.00  0.00    -0.328 A  
HETATM    9  C   UNL     1     -11.414  12.797  67.933  1.00  0.00    -0.317 A  
HETATM   10  N   UNL     1     -12.125  12.911  70.219  1.00  0.00    -0.344 NA 
HETATM   11  C   UNL     1     -12.253  14.241  70.027  1.00  0.00    -0.359 A  
ENDROOT
BRANCH   3  12
HETATM   12  N   UNL     1     -10.806   8.607  68.277  1.00  0.00    -0.455 NA 
HETATM   13  H   UNL     1     -11.617   7.999  68.166  1.00  0.00     0.000 HD 
BRANCH  12  14
HETATM   14  C   UNL     1      -9.609   8.009  68.524  1.00  0.00    -0.155 A  
HETATM   15  C   UNL     1      -7.331   8.001  68.465  1.00  0.00    -0.097 A  
HETATM   16  N   UNL     1      -8.529   8.758  68.149  1.00  0.00    -0.129 NA 
HETATM   17  H   UNL     1     -10.051   6.138  69.321  1.00  0.00     0.000 HD 
HETATM   18  N   UNL     1      -9.368   6.844  69.045  1.00  0.00    -0.136 NA 
HETATM   19  C   UNL     1      -7.894   6.756  69.150  1.00  0.00    -0.111 A  
ENDBRANCH  12  14
ENDBRANCH   3  12
TORSDOF 2
ENDMDL
MODEL      107
REMARK 921   NORMALIZED FREE ENERGY PREDICTED BY IDOCK:   -3.92 KCAL/MOL
REMARK 922        TOTAL FREE ENERGY PREDICTED BY IDOCK:   -4.68 KCAL/MOL
REMARK 923 INTER-LIGAND FREE ENERGY PREDICTED BY IDOCK:   -4.39 KCAL/MOL
REMARK 924 INTRA-LIGAND FREE ENERGY PREDICTED BY IDOCK:   -0.29 KCAL/MOL
REMARK 927      BINDING AFFINITY PREDICTED BY RF-SCORE:    0.00 PKD
ROOT
HETATM    1 BR   UNL     1      -8.453  12.490  67.798  1.00  0.00    -0.183 Br 
HETATM    2  C   UNL     1      -9.437  12.049  66.210  1.00  0.00    -0.229 A  
HETATM    3  C   UNL     1      -9.227  10.787  65.611  1.00  0.00    -0.199 A  
HETATM    4  N   UNL     1     -11.930  13.491  63.929  1.00  0.00    -0.457 NA 
HETATM    5  C   UNL     1      -9.985  10.484  64.482  1.00  0.00    -0.413 A  
HETATM    6  C   UNL     1     -10.329  13.002  65.681  1.00  0.00    -0.285 A  
HETATM    7  C   UNL     1     -12.079  14.703  64.496  1.00  0.00    -0.475 A  
HETATM    8  C   UNL     1     -10.879  11.406  63.945  1.00  0.00    -0.463 A  
HETATM    9  C   UNL     1     -11.056  12.651  64.516  1.00  0.00    -0.327 A  
HETATM   10  N   UNL     1     -10.512  14.233  66.233  1.00  0.00    -0.285 NA 
HETATM   11  C   UNL     1     -11.382  15.068  65.625  1.00  0.00    -0.297 A  
ENDROOT
BRANCH   3  12
HETATM   12  N   UNL     1      -8.300   9.859  66.143  1.00  0.00    -0.120 NA 
HETATM   13  H   UNL     1      -7.309  10.062  66.012  1.00  0.00     0.000 HD 
BRANCH  12  14
HETATM   14  C   UNL     1      -8.618   8.719  66.815  1.00  0.00    -0.115 A  
HETATM   15  C   UNL     1      -8.937   7.566  68.754  1.00  0.00    -0.129 A  
HETATM   16  N   UNL     1      -8.583   8.849  68.174  1.00  0.00    -0.129 NA 
HETATM   17  H   UNL     1      -8.944   7.265  65.362  1.00  0.00     0.000 HD 
HETATM   18  N   UNL     1      -8.930   7.550  66.341  1.00  0.00    -0.161 NA 
HETATM   19  C   UNL     1      -9.258   6.720  67.522  1.00  0.00    -0.122 A  
ENDBRANCH  12  14
ENDBRANCH   3  12
TORSDOF 2
ENDMDL
MODEL      108
REMARK 921   NORMALIZED FREE ENERGY PREDICTED BY IDOCK:   -3.91 KCAL/MOL
REMARK 922        TOTAL FREE ENERGY PREDICTED BY IDOCK:   -4.66 KCAL/MOL
REMARK 923 INTER-LIGAND FREE ENERGY PREDICTED BY IDOCK:   -4.38 KCAL/MOL
REMARK 924 INTRA-LIGAND FREE ENERGY PREDICTED BY IDOCK:   -0.29 KCAL/MOL
REMARK 927      BINDING AFFINITY PREDICTED BY RF-SCORE:    0.00 PKD
ROOT
HETATM    1 BR   UNL     1     -11.157  10.394  68.256  1.00  0.00    -0.327 Br 
HETATM    2  C   UNL     1     -10.325  11.964  67.531  1.00  0.00    -0.200 A  
HETATM    3  C   UNL     1      -9.103  12.401  68.086  1.00  0.00    -0.200 A  
HETATM    4  N   UNL     1     -10.858  14.511  64.937  1.00  0.00    -0.408 NA 
HETATM    5  C   UNL     1      -8.507  13.523  67.510  1.00  0.00    -0.192 A  
HETATM    6  C   UNL     1     -10.966  12.642  66.475  1.00  0.00    -0.269 A  
HETATM    7  C   UNL     1     -12.045  14.096  64.456  1.00  0.00    -0.468 A  
HETATM    8  C   UNL     1      -9.116  14.204  66.461  1.00  0.00    -0.198 A  
HETATM    9  C   UNL     1     -10.328  13.791  65.943  1.00  0.00    -0.309 A  
HETATM   10  N   UNL     1     -12.161  12.245  65.957  1.00  0.00    -0.630 NA 
HETATM   11  C   UNL     1     -12.685  12.986  64.957  1.00  0.00    -0.410 A  
ENDROOT
BRANCH   3  12
HETATM   12  N   UNL     1      -8.496  11.722  69.169  1.00  0.00    -0.343 NA 
HETATM   13  H   UNL     1      -9.021  11.673  70.042  1.00  0.00     0.000 HD 
BRANCH  12  14
HETATM   14  C   UNL     1      -7.270  11.130  69.146  1.00  0.00    -0.123 A  
HETATM   15  C   UNL     1      -5.199  10.789  70.031  1.00  0.00    -0.045 A  
HETATM   16  N   UNL     1      -6.463  11.487  70.188  1.00  0.00    -0.161 NA 
HETATM   17  H   UNL     1      -7.220   9.979  67.412  1.00  0.00     0.000 HD 
HETATM   18  N   UNL     1      -6.780  10.301  68.274  1.00  0.00    -0.057 NA 
HETATM   19  C   UNL     1      -5.447   9.923  68.797  1.00  0.00    -0.035 A  
ENDBRANCH  12  14
ENDBRANCH   3  12
TORSDOF 2
ENDMDL
MODEL      109
REMARK 921   NORMALIZED FREE ENERGY PREDICTED BY IDOCK:   -3.90 KCAL/MOL
REMARK 922        TOTAL FREE ENERGY PREDICTED BY IDOCK:   -4.65 KCAL/MOL
REMARK 923 INTER-LIGAND FREE ENERGY PREDICTED BY IDOCK:   -4.35 KCAL/MOL
REMARK 924 INTRA-LIGAND FREE ENERGY PREDICTED BY IDOCK:   -0.30 KCAL/MOL
REMARK 927      BINDING AFFINITY PREDICTED BY RF-SCORE:    0.00 PKD
ROOT
HETATM    1 BR   UNL     1     -12.217  13.646  65.926  1.00  0.00    -0.517 Br 
HETATM    2  C   UNL     1     -10.488  13.647  66.757  1.00  0.00    -0.270 A  
HETATM    3  C   UNL     1      -9.676  12.499  66.634  1.00  0.00    -0.242 A  
HETATM    4  N   UNL     1      -8.319  15.813  68.784  1.00  0.00    -0.180 NA 
HETATM    5  C   UNL     1      -8.410  12.547  67.218  1.00  0.00    -0.185 A  
HETATM    6  C   UNL     1     -10.084  14.789  67.477  1.00  0.00    -0.224 A  
HETATM    7  C   UNL     1      -9.131  16.878  68.920  1.00  0.00    -0.223 A  
HETATM    8  C   UNL     1      -7.987  13.667  67.927  1.00  0.00    -0.161 A  
HETATM    9  C   UNL     1      -8.798  14.775  68.072  1.00  0.00    -0.169 A  
HETATM   10  N   UNL     1     -10.874  15.887  67.628  1.00  0.00    -0.316 NA 
HETATM   11  C   UNL     1     -10.385  16.915  68.356  1.00  0.00    -0.338 A  
ENDROOT
BRANCH   3  12
HETATM   12  N   UNL     1     -10.117  11.350  65.933  1.00  0.00    -0.233 NA 
HETATM   13  H   UNL     1     -10.744  10.716  66.427  1.00  0.00     0.000 HD 
BRANCH  12  14
HETATM   14  C   UNL     1      -9.775  11.022  64.658  1.00  0.00    -0.266 A  
HETATM   15  C   UNL     1      -8.634   9.733  63.165  1.00  0.00    -0.198 A  
HETATM   16  N   UNL     1      -8.912   9.966  64.571  1.00  0.00    -0.216 NA 
HETATM   17  H   UNL     1     -10.731  12.404  63.430  1.00  0.00     0.000 HD 
HETATM   18  N   UNL     1     -10.144  11.577  63.543  1.00  0.00    -0.368 NA 
HETATM   19  C   UNL     1      -9.534  10.756  62.473  1.00  0.00    -0.244 A  
ENDBRANCH  12  14
ENDBRANCH   3  12
TORSDOF 2
ENDMDL
MODEL      110
REMARK 921   NORMALIZED FREE ENERGY PREDICTED BY IDOCK:   -3.88 KCAL/MOL
REMARK 922        TOTAL FREE ENERGY PREDICTED BY IDOCK:   -4.62 KCAL/MOL
REMARK 923 INTER-LIGAND FREE ENERGY PREDICTED BY IDOCK:   -4.42 KCAL/MOL
REMARK 924 INTRA-LIGAND FREE ENERGY PREDICTED BY IDOCK:   -0.20 KCAL/MOL
REMARK 927      BINDING AFFINITY PREDICTED BY RF-SCORE:    0.00 PKD
ROOT
HETATM    1 BR   UNL     1     -11.244  14.591  64.865  1.00  0.00    -0.404 Br 
HETATM    2  C   UNL     1      -9.849  15.170  66.049  1.00  0.00    -0.320 A  
HETATM    3  C   UNL     1      -9.053  14.194  66.687  1.00  0.00    -0.216 A  
HETATM    4  N   UNL     1      -8.374  18.254  67.395  1.00  0.00    -0.242 NA 
HETATM    5  C   UNL     1      -8.025  14.649  67.511  1.00  0.00    -0.208 A  
HETATM    6  C   UNL     1      -9.670  16.552  66.258  1.00  0.00    -0.305 A  
HETATM    7  C   UNL     1      -9.176  19.161  66.807  1.00  0.00    -0.320 A  
HETATM    8  C   UNL     1      -7.823  16.009  67.727  1.00  0.00    -0.155 A  
HETATM    9  C   UNL     1      -8.626  16.959  67.126  1.00  0.00    -0.197 A  
HETATM   10  N   UNL     1     -10.455  17.497  65.673  1.00  0.00    -0.607 NA 
HETATM   11  C   UNL     1     -10.198  18.791  65.964  1.00  0.00    -0.372 A  
ENDROOT
BRANCH   3  12
HETATM   12  N   UNL     1      -9.275  12.810  66.487  1.00  0.00    -0.338 NA 
HETATM   13  H   UNL     1      -9.926  12.544  65.749  1.00  0.00     0.000 HD 
BRANCH  12  14
HETATM   14  C   UNL     1      -8.693  11.804  67.197  1.00  0.00    -0.169 A  
HETATM   15  C   UNL     1      -8.568  10.476  69.043  1.00  0.00    -0.157 A  
HETATM   16  N   UNL     1      -9.290  11.560  68.401  1.00  0.00    -0.192 NA 
HETATM   17  H   UNL     1      -7.067  11.165  66.065  1.00  0.00     0.000 HD 
HETATM   18  N   UNL     1      -7.662  11.076  66.889  1.00  0.00    -0.133 NA 
HETATM   19  C   UNL     1      -7.533  10.092  67.987  1.00  0.00    -0.088 A  
ENDBRANCH  12  14
ENDBRANCH   3  12
TORSDOF 2
ENDMDL
MODEL      111
REMARK 921   NORMALIZED FREE ENERGY PREDICTED BY IDOCK:   -3.87 KCAL/MOL
REMARK 922        TOTAL FREE ENERGY PREDICTED BY IDOCK:   -4.61 KCAL/MOL
REMARK 923 INTER-LIGAND FREE ENERGY PREDICTED BY IDOCK:   -4.31 KCAL/MOL
REMARK 924 INTRA-LIGAND FREE ENERGY PREDICTED BY IDOCK:   -0.30 KCAL/MOL
REMARK 927      BINDING AFFINITY PREDICTED BY RF-SCORE:    0.00 PKD
ROOT
HETATM    1 BR   UNL     1      -8.334   9.924  65.111  1.00  0.00    -0.165 Br 
HETATM    2  C   UNL     1      -9.668  10.883  66.103  1.00  0.00    -0.210 A  
HETATM    3  C   UNL     1      -9.615  10.855  67.514  1.00  0.00    -0.155 A  
HETATM    4  N   UNL     1     -12.638  12.979  65.564  1.00  0.00    -0.546 NA 
HETATM    5  C   UNL     1     -10.576  11.593  68.203  1.00  0.00    -0.230 A  
HETATM    6  C   UNL     1     -10.670  11.575  65.394  1.00  0.00    -0.278 A  
HETATM    7  C   UNL     1     -12.689  12.953  64.219  1.00  0.00    -0.205 A  
HETATM    8  C   UNL     1     -11.571  12.292  67.524  1.00  0.00    -0.422 A  
HETATM    9  C   UNL     1     -11.638  12.289  66.145  1.00  0.00    -0.390 A  
HETATM   10  N   UNL     1     -10.748  11.579  64.035  1.00  0.00    -0.356 NA 
HETATM   11  C   UNL     1     -11.764  12.265  63.469  1.00  0.00    -0.499 A  
ENDROOT
BRANCH   3  12
HETATM   12  N   UNL     1      -8.618  10.125  68.204  1.00  0.00    -0.117 NA 
HETATM   13  H   UNL     1      -7.687  10.538  68.253  1.00  0.00     0.000 HD 
BRANCH  12  14
HETATM   14  C   UNL     1      -8.796   8.918  68.807  1.00  0.00    -0.137 A  
HETATM   15  C   UNL     1      -9.124   7.643  70.666  1.00  0.00    -0.158 A  
HETATM   16  N   UNL     1      -8.950   8.993  70.162  1.00  0.00    -0.168 NA 
HETATM   17  H   UNL     1      -8.668   7.493  67.295  1.00  0.00     0.000 HD 
HETATM   18  N   UNL     1      -8.824   7.733  68.273  1.00  0.00    -0.130 NA 
HETATM   19  C   UNL     1      -9.132   6.807  69.387  1.00  0.00    -0.144 A  
ENDBRANCH  12  14
ENDBRANCH   3  12
TORSDOF 2
ENDMDL
MODEL      112
REMARK 921   NORMALIZED FREE ENERGY PREDICTED BY IDOCK:   -3.86 KCAL/MOL
REMARK 922        TOTAL FREE ENERGY PREDICTED BY IDOCK:   -4.61 KCAL/MOL
REMARK 923 INTER-LIGAND FREE ENERGY PREDICTED BY IDOCK:   -4.37 KCAL/MOL
REMARK 924 INTRA-LIGAND FREE ENERGY PREDICTED BY IDOCK:   -0.24 KCAL/MOL
REMARK 927      BINDING AFFINITY PREDICTED BY RF-SCORE:    0.00 PKD
ROOT
HETATM    1 BR   UNL     1      -9.419  11.107  68.162  1.00  0.00    -0.188 Br 
HETATM    2  C   UNL     1      -9.914  11.719  66.412  1.00  0.00    -0.211 A  
HETATM    3  C   UNL     1     -10.111  10.764  65.390  1.00  0.00    -0.285 A  
HETATM    4  N   UNL     1     -10.588  14.835  64.585  1.00  0.00    -0.312 NA 
HETATM    5  C   UNL     1     -10.506  11.240  64.141  1.00  0.00    -0.431 A  
HETATM    6  C   UNL     1     -10.052  13.104  66.194  1.00  0.00    -0.291 A  
HETATM    7  C   UNL     1     -10.352  15.726  65.567  1.00  0.00    -0.404 A  
HETATM    8  C   UNL     1     -10.658  12.603  63.904  1.00  0.00    -0.460 A  
HETATM    9  C   UNL     1     -10.432  13.535  64.898  1.00  0.00    -0.402 A  
HETATM   10  N   UNL     1      -9.831  14.032  67.165  1.00  0.00    -0.235 NA 
HETATM   11  C   UNL     1      -9.979  15.333  66.832  1.00  0.00    -0.239 A  
ENDROOT
BRANCH   3  12
HETATM   12  N   UNL     1      -9.932   9.380  65.625  1.00  0.00    -0.410 NA 
HETATM   13  H   UNL     1     -10.667   8.896  66.142  1.00  0.00     0.000 HD 
BRANCH  12  14
HETATM   14  C   UNL     1      -8.865   8.639  65.220  1.00  0.00    -0.135 A  
HETATM   15  C   UNL     1      -7.716   6.674  65.130  1.00  0.00    -0.101 A  
HETATM   16  N   UNL     1      -8.910   7.335  65.625  1.00  0.00    -0.075 NA 
HETATM   17  H   UNL     1      -7.608   9.948  64.200  1.00  0.00     0.000 HD 
HETATM   18  N   UNL     1      -7.829   9.008  64.528  1.00  0.00    -0.116 NA 
HETATM   19  C   UNL     1      -7.037   7.775  64.316  1.00  0.00    -0.074 A  
ENDBRANCH  12  14
ENDBRANCH   3  12
TORSDOF 2
ENDMDL
MODEL      113
REMARK 921   NORMALIZED FREE ENERGY PREDICTED BY IDOCK:   -3.83 KCAL/MOL
REMARK 922        TOTAL FREE ENERGY PREDICTED BY IDOCK:   -4.57 KCAL/MOL
REMARK 923 INTER-LIGAND FREE ENERGY PREDICTED BY IDOCK:   -4.27 KCAL/MOL
REMARK 924 INTRA-LIGAND FREE ENERGY PREDICTED BY IDOCK:   -0.30 KCAL/MOL
REMARK 927      BINDING AFFINITY PREDICTED BY RF-SCORE:    0.00 PKD
ROOT
HETATM    1 BR   UNL     1     -10.306   9.278  68.368  1.00  0.00    -0.250 Br 
HETATM    2  C   UNL     1     -10.571  10.643  67.046  1.00  0.00    -0.262 A  
HETATM    3  C   UNL     1     -10.256  10.354  65.700  1.00  0.00    -0.238 A  
HETATM    4  N   UNL     1     -11.721  14.121  66.756  1.00  0.00    -0.391 NA 
HETATM    5  C   UNL     1     -10.497  11.355  64.760  1.00  0.00    -0.366 A  
HETATM    6  C   UNL     1     -11.059  11.899  67.459  1.00  0.00    -0.273 A  
HETATM    7  C   UNL     1     -11.973  14.383  68.052  1.00  0.00    -0.291 A  
HETATM    8  C   UNL     1     -10.986  12.601  65.143  1.00  0.00    -0.324 A  
HETATM    9  C   UNL     1     -11.262  12.889  66.465  1.00  0.00    -0.302 A  
HETATM   10  N   UNL     1     -11.334  12.195  68.759  1.00  0.00    -0.264 NA 
HETATM   11  C   UNL     1     -11.781  13.440  69.035  1.00  0.00    -0.323 A  
ENDROOT
BRANCH   3  12
HETATM   12  N   UNL     1      -9.735   9.096  65.314  1.00  0.00    -0.443 NA 
HETATM   13  H   UNL     1     -10.371   8.299  65.342  1.00  0.00     0.000 HD 
BRANCH  12  14
HETATM   14  C   UNL     1      -8.457   8.859  64.910  1.00  0.00    -0.178 A  
HETATM   15  C   UNL     1      -6.206   9.110  65.154  1.00  0.00    -0.061 A  
HETATM   16  N   UNL     1      -7.509   9.442  65.702  1.00  0.00    -0.094 NA 
HETATM   17  H   UNL     1      -8.603   7.732  63.166  1.00  0.00     0.000 HD 
HETATM   18  N   UNL     1      -8.036   8.178  63.887  1.00  0.00    -0.143 NA 
HETATM   19  C   UNL     1      -6.559   8.186  63.989  1.00  0.00    -0.067 A  
ENDBRANCH  12  14
ENDBRANCH   3  12
TORSDOF 2
ENDMDL
MODEL      114
REMARK 921   NORMALIZED FREE ENERGY PREDICTED BY IDOCK:   -3.81 KCAL/MOL
REMARK 922        TOTAL FREE ENERGY PREDICTED BY IDOCK:   -4.55 KCAL/MOL
REMARK 923 INTER-LIGAND FREE ENERGY PREDICTED BY IDOCK:   -4.41 KCAL/MOL
REMARK 924 INTRA-LIGAND FREE ENERGY PREDICTED BY IDOCK:   -0.13 KCAL/MOL
REMARK 927      BINDING AFFINITY PREDICTED BY RF-SCORE:    0.00 PKD
ROOT
HETATM    1 BR   UNL     1      -9.271  14.737  66.459  1.00  0.00    -0.290 Br 
HETATM    2  C   UNL     1     -10.231  13.620  67.689  1.00  0.00    -0.239 A  
HETATM    3  C   UNL     1     -10.054  12.221  67.616  1.00  0.00    -0.200 A  
HETATM    4  N   UNL     1     -12.637  13.868  70.456  1.00  0.00    -0.331 NA 
HETATM    5  C   UNL     1     -10.737  11.443  68.549  1.00  0.00    -0.235 A  
HETATM    6  C   UNL     1     -11.096  14.229  68.621  1.00  0.00    -0.253 A  
HETATM    7  C   UNL     1     -12.819  15.202  70.475  1.00  0.00    -0.348 A  
HETATM    8  C   UNL     1     -11.590  12.021  69.484  1.00  0.00    -0.389 A  
HETATM    9  C   UNL     1     -11.786  13.388  69.530  1.00  0.00    -0.324 A  
HETATM   10  N   UNL     1     -11.298  15.574  68.676  1.00  0.00    -0.324 NA 
HETATM   11  C   UNL     1     -12.165  16.039  69.601  1.00  0.00    -0.001 A  
ENDROOT
BRANCH   3  12
HETATM   12  N   UNL     1      -9.205  11.631  66.649  1.00  0.00    -0.185 NA 
HETATM   13  H   UNL     1      -8.260  11.387  66.945  1.00  0.00     0.000 HD 
BRANCH  12  14
HETATM   14  C   UNL     1      -9.542  11.363  65.358  1.00  0.00    -0.228 A  
HETATM   15  C   UNL     1      -9.189  10.279  63.386  1.00  0.00    -0.292 A  
HETATM   16  N   UNL     1      -8.716  10.463  64.746  1.00  0.00    -0.179 NA 
HETATM   17  H   UNL     1     -11.183  12.569  64.927  1.00  0.00     0.000 HD 
HETATM   18  N   UNL     1     -10.516  11.850  64.649  1.00  0.00    -0.280 NA 
HETATM   19  C   UNL     1     -10.451  11.140  63.351  1.00  0.00    -0.317 A  
ENDBRANCH  12  14
ENDBRANCH   3  12
TORSDOF 2
ENDMDL
MODEL      115
REMARK 921   NORMALIZED FREE ENERGY PREDICTED BY IDOCK:   -3.80 KCAL/MOL
REMARK 922        TOTAL FREE ENERGY PREDICTED BY IDOCK:   -4.54 KCAL/MOL
REMARK 923 INTER-LIGAND FREE ENERGY PREDICTED BY IDOCK:   -4.42 KCAL/MOL
REMARK 924 INTRA-LIGAND FREE ENERGY PREDICTED BY IDOCK:   -0.13 KCAL/MOL
REMARK 927      BINDING AFFINITY PREDICTED BY RF-SCORE:    0.00 PKD
ROOT
HETATM    1 BR   UNL     1     -11.065  16.216  69.579  1.00  0.00    -0.344 Br 
HETATM    2  C   UNL     1      -9.797  15.108  68.660  1.00  0.00    -0.218 A  
HETATM    3  C   UNL     1      -8.487  15.597  68.462  1.00  0.00    -0.175 A  
HETATM    4  N   UNL     1      -9.556  11.815  67.047  1.00  0.00    -0.184 NA 
HETATM    5  C   UNL     1      -7.581  14.751  67.824  1.00  0.00    -0.174 A  
HETATM    6  C   UNL     1     -10.214  13.845  68.196  1.00  0.00    -0.249 A  
HETATM    7  C   UNL     1     -10.824  11.392  67.212  1.00  0.00    -0.263 A  
HETATM    8  C   UNL     1      -7.967  13.496  67.365  1.00  0.00    -0.165 A  
HETATM    9  C   UNL     1      -9.259  13.036  67.531  1.00  0.00    -0.195 A  
HETATM   10  N   UNL     1     -11.484  13.380  68.353  1.00  0.00    -0.293 NA 
HETATM   11  C   UNL     1     -11.770  12.160  67.850  1.00  0.00    -0.336 A  
ENDROOT
BRANCH   3  12
HETATM   12  N   UNL     1      -8.101  16.884  68.908  1.00  0.00    -0.244 NA 
HETATM   13  H   UNL     1      -7.549  16.935  69.764  1.00  0.00     0.000 HD 
BRANCH  12  14
HETATM   14  C   UNL     1      -8.404  18.059  68.292  1.00  0.00    -0.290 A  
HETATM   15  C   UNL     1      -8.572  19.347  66.420  1.00  0.00    -0.354 A  
HETATM   16  N   UNL     1      -8.217  18.038  66.939  1.00  0.00    -0.234 NA 
HETATM   17  H   UNL     1      -8.959  19.377  69.804  1.00  0.00     0.000 HD 
HETATM   18  N   UNL     1      -8.825  19.171  68.814  1.00  0.00    -0.355 NA 
HETATM   19  C   UNL     1      -9.067  20.077  67.668  1.00  0.00    -0.342 A  
ENDBRANCH  12  14
ENDBRANCH   3  12
TORSDOF 2
ENDMDL
MODEL      116
REMARK 921   NORMALIZED FREE ENERGY PREDICTED BY IDOCK:   -3.80 KCAL/MOL
REMARK 922        TOTAL FREE ENERGY PREDICTED BY IDOCK:   -4.54 KCAL/MOL
REMARK 923 INTER-LIGAND FREE ENERGY PREDICTED BY IDOCK:   -4.25 KCAL/MOL
REMARK 924 INTRA-LIGAND FREE ENERGY PREDICTED BY IDOCK:   -0.29 KCAL/MOL
REMARK 927      BINDING AFFINITY PREDICTED BY RF-SCORE:    0.00 PKD
ROOT
HETATM    1 BR   UNL     1      -7.369  12.136  67.455  1.00  0.00    -0.146 Br 
HETATM    2  C   UNL     1      -9.228  12.433  67.089  1.00  0.00    -0.199 A  
HETATM    3  C   UNL     1     -10.130  11.357  67.239  1.00  0.00    -0.192 A  
HETATM    4  N   UNL     1     -11.511  15.102  66.006  1.00  0.00    -0.229 NA 
HETATM    5  C   UNL     1     -11.479  11.618  67.001  1.00  0.00    -0.336 A  
HETATM    6  C   UNL     1      -9.638  13.714  66.668  1.00  0.00    -0.283 A  
HETATM    7  C   UNL     1     -10.623  16.099  65.831  1.00  0.00    -0.312 A  
HETATM    8  C   UNL     1     -11.908  12.877  66.593  1.00  0.00    -0.461 A  
HETATM    9  C   UNL     1     -11.018  13.918  66.416  1.00  0.00    -0.303 A  
HETATM   10  N   UNL     1      -8.770  14.748  66.489  1.00  0.00    -0.195 NA 
HETATM   11  C   UNL     1      -9.279  15.925  66.065  1.00  0.00    -0.337 A  
ENDROOT
BRANCH   3  12
HETATM   12  N   UNL     1      -9.689  10.070  67.631  1.00  0.00    -0.155 NA 
HETATM   13  H   UNL     1      -9.113   9.552  66.967  1.00  0.00     0.000 HD 
BRANCH  12  14
HETATM   14  C   UNL     1      -9.969   9.465  68.817  1.00  0.00    -0.179 A  
HETATM   15  C   UNL     1     -10.595   7.641  70.031  1.00  0.00    -0.238 A  
HETATM   16  N   UNL     1     -10.323   8.151  68.699  1.00  0.00    -0.208 NA 
HETATM   17  H   UNL     1      -9.775  10.938  70.276  1.00  0.00     0.000 HD 
HETATM   18  N   UNL     1      -9.956   9.968  70.015  1.00  0.00    -0.247 NA 
HETATM   19  C   UNL     1     -10.259   8.837  70.921  1.00  0.00    -0.226 A  
ENDBRANCH  12  14
ENDBRANCH   3  12
TORSDOF 2
ENDMDL
MODEL      117
REMARK 921   NORMALIZED FREE ENERGY PREDICTED BY IDOCK:   -3.80 KCAL/MOL
REMARK 922        TOTAL FREE ENERGY PREDICTED BY IDOCK:   -4.54 KCAL/MOL
REMARK 923 INTER-LIGAND FREE ENERGY PREDICTED BY IDOCK:   -4.29 KCAL/MOL
REMARK 924 INTRA-LIGAND FREE ENERGY PREDICTED BY IDOCK:   -0.25 KCAL/MOL
REMARK 927      BINDING AFFINITY PREDICTED BY RF-SCORE:    0.00 PKD
ROOT
HETATM    1 BR   UNL     1      -7.044  14.432  68.064  1.00  0.00    -0.167 Br 
HETATM    2  C   UNL     1      -8.726  15.275  68.440  1.00  0.00    -0.170 A  
HETATM    3  C   UNL     1      -9.883  14.470  68.529  1.00  0.00    -0.231 A  
HETATM    4  N   UNL     1     -10.151  18.605  69.061  1.00  0.00    -0.347 NA 
HETATM    5  C   UNL     1     -11.082  15.110  68.841  1.00  0.00    -0.276 A  
HETATM    6  C   UNL     1      -8.760  16.675  68.601  1.00  0.00    -0.250 A  
HETATM    7  C   UNL     1      -9.039  19.353  68.928  1.00  0.00    -0.314 A  
HETATM    8  C   UNL     1     -11.139  16.490  69.013  1.00  0.00    -0.284 A  
HETATM    9  C   UNL     1     -10.010  17.277  68.892  1.00  0.00    -0.307 A  
HETATM   10  N   UNL     1      -7.655  17.461  68.484  1.00  0.00    -0.244 NA 
HETATM   11  C   UNL     1      -7.815  18.793  68.643  1.00  0.00    -0.328 A  
ENDROOT
BRANCH   3  12
HETATM   12  N   UNL     1      -9.829  13.070  68.330  1.00  0.00    -0.227 NA 
HETATM   13  H   UNL     1      -9.632  12.490  69.145  1.00  0.00     0.000 HD 
BRANCH  12  14
HETATM   14  C   UNL     1     -10.018  12.432  67.142  1.00  0.00    -0.207 A  
HETATM   15  C   UNL     1      -9.395  10.895  65.580  1.00  0.00    -0.207 A  
HETATM   16  N   UNL     1      -9.073  11.484  66.867  1.00  0.00    -0.174 NA 
HETATM   17  H   UNL     1     -11.689  13.315  66.271  1.00  0.00     0.000 HD 
HETATM   18  N   UNL     1     -10.949  12.614  66.254  1.00  0.00    -0.275 NA 
HETATM   19  C   UNL     1     -10.706  11.590  65.213  1.00  0.00    -0.279 A  
ENDBRANCH  12  14
ENDBRANCH   3  12
TORSDOF 2
ENDMDL
MODEL      118
REMARK 921   NORMALIZED FREE ENERGY PREDICTED BY IDOCK:   -3.80 KCAL/MOL
REMARK 922        TOTAL FREE ENERGY PREDICTED BY IDOCK:   -4.54 KCAL/MOL
REMARK 923 INTER-LIGAND FREE ENERGY PREDICTED BY IDOCK:   -4.27 KCAL/MOL
REMARK 924 INTRA-LIGAND FREE ENERGY PREDICTED BY IDOCK:   -0.27 KCAL/MOL
REMARK 927      BINDING AFFINITY PREDICTED BY RF-SCORE:    0.00 PKD
ROOT
HETATM    1 BR   UNL     1      -9.664  10.176  68.586  1.00  0.00    -0.178 Br 
HETATM    2  C   UNL     1      -9.974  10.549  66.729  1.00  0.00    -0.204 A  
HETATM    3  C   UNL     1     -10.916  11.543  66.385  1.00  0.00    -0.284 A  
HETATM    4  N   UNL     1      -8.871   9.460  63.398  1.00  0.00    -0.212 NA 
HETATM    5  C   UNL     1     -11.089  11.815  65.029  1.00  0.00    -0.343 A  
HETATM    6  C   UNL     1      -9.263   9.809  65.763  1.00  0.00    -0.191 A  
HETATM    7  C   UNL     1      -8.010   8.488  63.754  1.00  0.00    -0.161 A  
HETATM    8  C   UNL     1     -10.391  11.104  64.057  1.00  0.00    -0.437 A  
HETATM    9  C   UNL     1      -9.496  10.110  64.398  1.00  0.00    -0.308 A  
HETATM   10  N   UNL     1      -8.378   8.827  66.086  1.00  0.00    -0.119 NA 
HETATM   11  C   UNL     1      -7.769   8.175  65.072  1.00  0.00    -0.113 A  
ENDROOT
BRANCH   3  12
HETATM   12  N   UNL     1     -11.643  12.249  67.374  1.00  0.00    -0.385 NA 
HETATM   13  H   UNL     1     -12.488  11.808  67.734  1.00  0.00     0.000 HD 
BRANCH  12  14
HETATM   14  C   UNL     1     -11.309  13.466  67.884  1.00  0.00    -0.289 A  
HETATM   15  C   UNL     1     -11.625  15.716  68.052  1.00  0.00    -0.239 A  
HETATM   16  N   UNL     1     -12.095  14.489  67.434  1.00  0.00    -0.337 NA 
HETATM   17  H   UNL     1      -9.645  13.148  69.094  1.00  0.00     0.000 HD 
HETATM   18  N   UNL     1     -10.355  13.773  68.711  1.00  0.00    -0.224 NA 
HETATM   19  C   UNL     1     -10.516  15.220  68.979  1.00  0.00    -0.248 A  
ENDBRANCH  12  14
ENDBRANCH   3  12
TORSDOF 2
ENDMDL
MODEL      119
REMARK 921   NORMALIZED FREE ENERGY PREDICTED BY IDOCK:   -3.71 KCAL/MOL
REMARK 922        TOTAL FREE ENERGY PREDICTED BY IDOCK:   -4.44 KCAL/MOL
REMARK 923 INTER-LIGAND FREE ENERGY PREDICTED BY IDOCK:   -4.20 KCAL/MOL
REMARK 924 INTRA-LIGAND FREE ENERGY PREDICTED BY IDOCK:   -0.24 KCAL/MOL
REMARK 927      BINDING AFFINITY PREDICTED BY RF-SCORE:    0.00 PKD
ROOT
HETATM    1 BR   UNL     1      -5.812  19.029  69.118  1.00  0.00    -0.253 Br 
HETATM    2  C   UNL     1      -7.391  17.999  68.759  1.00  0.00    -0.273 A  
HETATM    3  C   UNL     1      -7.398  16.628  69.096  1.00  0.00    -0.217 A  
HETATM    4  N   UNL     1     -10.759  18.378  67.338  1.00  0.00    -0.407 NA 
HETATM    5  C   UNL     1      -8.574  15.919  68.856  1.00  0.00    -0.221 A  
HETATM    6  C   UNL     1      -8.493  18.639  68.156  1.00  0.00    -0.312 A  
HETATM    7  C   UNL     1     -10.709  19.677  66.988  1.00  0.00    -0.455 A  
HETATM    8  C   UNL     1      -9.677  16.530  68.270  1.00  0.00    -0.231 A  
HETATM    9  C   UNL     1      -9.654  17.864  67.912  1.00  0.00    -0.286 A  
HETATM   10  N   UNL     1      -8.482  19.952  67.798  1.00  0.00    -0.312 NA 
HETATM   11  C   UNL     1      -9.593  20.449  67.211  1.00  0.00    -0.452 A  
ENDROOT
BRANCH   3  12
HETATM   12  N   UNL     1      -6.266  16.000  69.669  1.00  0.00    -0.174 NA 
HETATM   13  H   UNL     1      -5.620  16.591  70.193  1.00  0.00     0.000 HD 
BRANCH  12  14
HETATM   14  C   UNL     1      -5.966  14.676  69.582  1.00  0.00    -0.110 A  
HETATM   15  C   UNL     1      -5.713  12.618  70.527  1.00  0.00    -0.169 A  
HETATM   16  N   UNL     1      -6.062  14.007  70.769  1.00  0.00    -0.177 NA 
HETATM   17  H   UNL     1      -5.418  14.338  67.602  1.00  0.00     0.000 HD 
HETATM   18  N   UNL     1      -5.597  13.988  68.543  1.00  0.00    -0.089 NA 
HETATM   19  C   UNL     1      -5.491  12.589  69.015  1.00  0.00    -0.067 A  
ENDBRANCH  12  14
ENDBRANCH   3  12
TORSDOF 2
ENDMDL
MODEL      120
REMARK 921   NORMALIZED FREE ENERGY PREDICTED BY IDOCK:   -3.71 KCAL/MOL
REMARK 922        TOTAL FREE ENERGY PREDICTED BY IDOCK:   -4.43 KCAL/MOL
REMARK 923 INTER-LIGAND FREE ENERGY PREDICTED BY IDOCK:   -4.11 KCAL/MOL
REMARK 924 INTRA-LIGAND FREE ENERGY PREDICTED BY IDOCK:   -0.32 KCAL/MOL
REMARK 927      BINDING AFFINITY PREDICTED BY RF-SCORE:    0.00 PKD
ROOT
HETATM    1 BR   UNL     1      -6.701  14.438  68.523  1.00  0.00    -0.108 Br 
HETATM    2  C   UNL     1      -8.540  14.841  68.150  1.00  0.00    -0.159 A  
HETATM    3  C   UNL     1      -8.968  16.185  68.222  1.00  0.00    -0.189 A  
HETATM    4  N   UNL     1     -11.678  13.165  67.230  1.00  0.00    -0.357 NA 
HETATM    5  C   UNL     1     -10.301  16.447  67.908  1.00  0.00    -0.286 A  
HETATM    6  C   UNL     1      -9.413  13.782  67.829  1.00  0.00    -0.216 A  
HETATM    7  C   UNL     1     -11.252  11.888  67.210  1.00  0.00    -0.317 A  
HETATM    8  C   UNL     1     -11.179  15.419  67.580  1.00  0.00    -0.311 A  
HETATM    9  C   UNL     1     -10.763  14.102  67.543  1.00  0.00    -0.269 A  
HETATM   10  N   UNL     1      -9.015  12.481  67.791  1.00  0.00    -0.175 NA 
HETATM   11  C   UNL     1      -9.947  11.551  67.487  1.00  0.00    -0.190 A  
ENDROOT
BRANCH   3  12
HETATM   12  N   UNL     1      -8.080  17.227  68.580  1.00  0.00    -0.255 NA 
HETATM   13  H   UNL     1      -7.604  17.147  69.478  1.00  0.00     0.000 HD 
BRANCH  12  14
HETATM   14  C   UNL     1      -7.806  18.328  67.826  1.00  0.00    -0.240 A  
HETATM   15  C   UNL     1      -6.839  19.320  66.018  1.00  0.00    -0.245 A  
HETATM   16  N   UNL     1      -7.054  18.066  66.717  1.00  0.00    -0.194 NA 
HETATM   17  H   UNL     1      -8.654  19.941  68.833  1.00  0.00     0.000 HD 
HETATM   18  N   UNL     1      -8.149  19.564  68.030  1.00  0.00    -0.305 NA 
HETATM   19  C   UNL     1      -7.652  20.310  66.852  1.00  0.00    -0.299 A  
ENDBRANCH  12  14
ENDBRANCH   3  12
TORSDOF 2
ENDMDL
MODEL      121
REMARK 921   NORMALIZED FREE ENERGY PREDICTED BY IDOCK:   -3.70 KCAL/MOL
REMARK 922        TOTAL FREE ENERGY PREDICTED BY IDOCK:   -4.43 KCAL/MOL
REMARK 923 INTER-LIGAND FREE ENERGY PREDICTED BY IDOCK:   -4.17 KCAL/MOL
REMARK 924 INTRA-LIGAND FREE ENERGY PREDICTED BY IDOCK:   -0.26 KCAL/MOL
REMARK 927      BINDING AFFINITY PREDICTED BY RF-SCORE:    0.00 PKD
ROOT
HETATM    1 BR   UNL     1     -11.573  10.163  68.779  1.00  0.00     0.079 Br 
HETATM    2  C   UNL     1     -11.405  11.929  68.048  1.00  0.00    -0.288 A  
HETATM    3  C   UNL     1     -10.942  12.073  66.722  1.00  0.00    -0.285 A  
HETATM    4  N   UNL     1     -11.905  15.446  68.991  1.00  0.00    -0.348 NA 
HETATM    5  C   UNL     1     -10.867  13.367  66.210  1.00  0.00    -0.294 A  
HETATM    6  C   UNL     1     -11.735  13.032  68.861  1.00  0.00    -0.328 A  
HETATM    7  C   UNL     1     -12.303  15.281  70.266  1.00  0.00    -0.366 A  
HETATM    8  C   UNL     1     -11.196  14.471  66.991  1.00  0.00    -0.342 A  
HETATM    9  C   UNL     1     -11.618  14.327  68.298  1.00  0.00    -0.324 A  
HETATM   10  N   UNL     1     -12.151  12.903  70.151  1.00  0.00    -0.337 NA 
HETATM   11  C   UNL     1     -12.422  14.035  70.837  1.00  0.00    -0.369 A  
ENDROOT
BRANCH   3  12
HETATM   12  N   UNL     1     -10.584  10.951  65.936  1.00  0.00    -0.216 NA 
HETATM   13  H   UNL     1     -11.344  10.403  65.533  1.00  0.00     0.000 HD 
BRANCH  12  14
HETATM   14  C   UNL     1      -9.313  10.542  65.673  1.00  0.00    -0.200 A  
HETATM   15  C   UNL     1      -7.135  10.273  66.285  1.00  0.00    -0.117 A  
HETATM   16  N   UNL     1      -8.441  10.749  66.704  1.00  0.00    -0.137 NA 
HETATM   17  H   UNL     1      -9.326   9.838  63.715  1.00  0.00     0.000 HD 
HETATM   18  N   UNL     1      -8.834  10.006  64.592  1.00  0.00    -0.182 NA 
HETATM   19  C   UNL     1      -7.420   9.691  64.901  1.00  0.00    -0.118 A  
ENDBRANCH  12  14
ENDBRANCH   3  12
TORSDOF 2
ENDMDL
MODEL      122
REMARK 921   NORMALIZED FREE ENERGY PREDICTED BY IDOCK:   -3.68 KCAL/MOL
REMARK 922        TOTAL FREE ENERGY PREDICTED BY IDOCK:   -4.41 KCAL/MOL
REMARK 923 INTER-LIGAND FREE ENERGY PREDICTED BY IDOCK:   -4.27 KCAL/MOL
REMARK 924 INTRA-LIGAND FREE ENERGY PREDICTED BY IDOCK:   -0.14 KCAL/MOL
REMARK 927      BINDING AFFINITY PREDICTED BY RF-SCORE:    0.00 PKD
ROOT
HETATM    1 BR   UNL     1     -10.560  14.585  64.991  1.00  0.00    -0.458 Br 
HETATM    2  C   UNL     1     -10.610  13.015  66.093  1.00  0.00    -0.277 A  
HETATM    3  C   UNL     1     -10.122  11.800  65.565  1.00  0.00    -0.249 A  
HETATM    4  N   UNL     1     -11.654  11.941  69.449  1.00  0.00    -0.302 NA 
HETATM    5  C   UNL     1     -10.139  10.687  66.405  1.00  0.00    -0.279 A  
HETATM    6  C   UNL     1     -11.145  13.118  67.393  1.00  0.00    -0.275 A  
HETATM    7  C   UNL     1     -12.151  13.103  69.912  1.00  0.00    -0.287 A  
HETATM    8  C   UNL     1     -10.655  10.766  67.695  1.00  0.00    -0.271 A  
HETATM    9  C   UNL     1     -11.161  11.950  68.196  1.00  0.00    -0.242 A  
HETATM   10  N   UNL     1     -11.648  14.278  67.897  1.00  0.00    -0.317 NA 
HETATM   11  C   UNL     1     -12.151  14.249  69.151  1.00  0.00    -0.302 A  
ENDROOT
BRANCH   3  12
HETATM   12  N   UNL     1      -9.620  11.714  64.244  1.00  0.00    -0.414 NA 
HETATM   13  H   UNL     1      -9.869  12.466  63.601  1.00  0.00     0.000 HD 
BRANCH  12  14
HETATM   14  C   UNL     1      -8.834  10.715  63.760  1.00  0.00    -0.171 A  
HETATM   15  C   UNL     1      -6.855   9.588  63.685  1.00  0.00    -0.104 A  
HETATM   16  N   UNL     1      -7.576  10.692  64.292  1.00  0.00     0.091 NA 
HETATM   17  H   UNL     1      -9.978   9.721  62.333  1.00  0.00     0.000 HD 
HETATM   18  N   UNL     1      -9.116   9.811  62.869  1.00  0.00    -0.261 NA 
HETATM   19  C   UNL     1      -7.920   8.941  62.799  1.00  0.00    -0.147 A  
ENDBRANCH  12  14
ENDBRANCH   3  12
TORSDOF 2
ENDMDL
MODEL      123
REMARK 921   NORMALIZED FREE ENERGY PREDICTED BY IDOCK:   -3.68 KCAL/MOL
REMARK 922        TOTAL FREE ENERGY PREDICTED BY IDOCK:   -4.41 KCAL/MOL
REMARK 923 INTER-LIGAND FREE ENERGY PREDICTED BY IDOCK:   -4.17 KCAL/MOL
REMARK 924 INTRA-LIGAND FREE ENERGY PREDICTED BY IDOCK:   -0.24 KCAL/MOL
REMARK 927      BINDING AFFINITY PREDICTED BY RF-SCORE:    0.00 PKD
ROOT
HETATM    1 BR   UNL     1      -8.824  10.996  62.347  1.00  0.00    -0.316 Br 
HETATM    2  C   UNL     1      -8.921  10.331  64.144  1.00  0.00    -0.237 A  
HETATM    3  C   UNL     1      -9.325  11.210  65.172  1.00  0.00    -0.213 A  
HETATM    4  N   UNL     1      -8.348   7.246  66.057  1.00  0.00    -0.133 NA 
HETATM    5  C   UNL     1      -9.421  10.683  66.459  1.00  0.00    -0.199 A  
HETATM    6  C   UNL     1      -8.571   8.987  64.387  1.00  0.00    -0.150 A  
HETATM    7  C   UNL     1      -7.925   6.442  65.064  1.00  0.00    -0.120 A  
HETATM    8  C   UNL     1      -9.089   9.358  66.722  1.00  0.00    -0.168 A  
HETATM    9  C   UNL     1      -8.662   8.511  65.718  1.00  0.00    -0.179 A  
HETATM   10  N   UNL     1      -8.148   8.143  63.406  1.00  0.00    -0.145 NA 
HETATM   11  C   UNL     1      -7.824   6.881  63.764  1.00  0.00    -0.108 A  
ENDROOT
BRANCH   3  12
HETATM   12  N   UNL     1      -9.639  12.565  64.908  1.00  0.00    -0.472 NA 
HETATM   13  H   UNL     1      -9.072  13.047  64.211  1.00  0.00     0.000 HD 
BRANCH  12  14
HETATM   14  C   UNL     1     -10.632  13.278  65.505  1.00  0.00    -0.287 A  
HETATM   15  C   UNL     1     -12.781  14.031  65.585  1.00  0.00    -0.481 A  
HETATM   16  N   UNL     1     -11.825  13.228  64.842  1.00  0.00    -0.345 NA 
HETATM   17  H   UNL     1      -9.770  14.184  67.170  1.00  0.00     0.000 HD 
HETATM   18  N   UNL     1     -10.587  13.992  66.590  1.00  0.00    -0.273 NA 
HETATM   19  C   UNL     1     -11.973  14.467  66.806  1.00  0.00    -0.342 A  
ENDBRANCH  12  14
ENDBRANCH   3  12
TORSDOF 2
ENDMDL
MODEL      124
REMARK 921   NORMALIZED FREE ENERGY PREDICTED BY IDOCK:   -3.67 KCAL/MOL
REMARK 922        TOTAL FREE ENERGY PREDICTED BY IDOCK:   -4.39 KCAL/MOL
REMARK 923 INTER-LIGAND FREE ENERGY PREDICTED BY IDOCK:   -4.47 KCAL/MOL
REMARK 924 INTRA-LIGAND FREE ENERGY PREDICTED BY IDOCK:    0.08 KCAL/MOL
REMARK 927      BINDING AFFINITY PREDICTED BY RF-SCORE:    0.00 PKD
ROOT
HETATM    1 BR   UNL     1      -8.344  13.852  68.022  1.00  0.00    -0.179 Br 
HETATM    2  C   UNL     1      -9.552  14.103  66.552  1.00  0.00    -0.296 A  
HETATM    3  C   UNL     1     -10.084  12.965  65.908  1.00  0.00    -0.289 A  
HETATM    4  N   UNL     1     -11.123  16.795  64.605  1.00  0.00    -0.937 NA 
HETATM    5  C   UNL     1     -10.987  13.183  64.869  1.00  0.00    -0.337 A  
HETATM    6  C   UNL     1      -9.861  15.418  66.148  1.00  0.00    -0.311 A  
HETATM    7  C   UNL     1     -10.568  17.862  65.209  1.00  0.00     0.286 A  
HETATM    8  C   UNL     1     -11.314  14.472  64.458  1.00  0.00    -0.323 A  
HETATM    9  C   UNL     1     -10.765  15.583  65.069  1.00  0.00    -0.441 A  
HETATM   10  N   UNL     1      -9.326  16.520  66.741  1.00  0.00    -0.231 NA 
HETATM   11  C   UNL     1      -9.685  17.728  66.255  1.00  0.00    -0.267 A  
ENDROOT
BRANCH   3  12
HETATM   12  N   UNL     1      -9.732  11.654  66.311  1.00  0.00    -0.212 NA 
HETATM   13  H   UNL     1      -9.246  11.071  65.629  1.00  0.00     0.000 HD 
BRANCH  12  14
HETATM   14  C   UNL     1      -9.986  11.105  67.530  1.00  0.00    -0.181 A  
HETATM   15  C   UNL     1      -9.493   9.638  69.202  1.00  0.00    -0.171 A  
HETATM   16  N   UNL     1      -9.100  10.131  67.894  1.00  0.00    -0.131 NA 
HETATM   17  H   UNL     1     -11.720  12.022  68.225  1.00  0.00     0.000 HD 
HETATM   18  N   UNL     1     -10.946  11.373  68.363  1.00  0.00    -0.199 NA 
HETATM   19  C   UNL     1     -10.678  10.536  69.555  1.00  0.00    -0.255 A  
ENDBRANCH  12  14
ENDBRANCH   3  12
TORSDOF 2
ENDMDL
MODEL      125
REMARK 921   NORMALIZED FREE ENERGY PREDICTED BY IDOCK:   -3.64 KCAL/MOL
REMARK 922        TOTAL FREE ENERGY PREDICTED BY IDOCK:   -4.37 KCAL/MOL
REMARK 923 INTER-LIGAND FREE ENERGY PREDICTED BY IDOCK:   -4.11 KCAL/MOL
REMARK 924 INTRA-LIGAND FREE ENERGY PREDICTED BY IDOCK:   -0.26 KCAL/MOL
REMARK 927      BINDING AFFINITY PREDICTED BY RF-SCORE:    0.00 PKD
ROOT
HETATM    1 BR   UNL     1      -7.748  16.605  68.203  1.00  0.00    -0.183 Br 
HETATM    2  C   UNL     1      -7.699  14.688  68.143  1.00  0.00    -0.125 A  
HETATM    3  C   UNL     1      -8.430  14.022  67.135  1.00  0.00    -0.190 A  
HETATM    4  N   UNL     1      -6.225  11.833  69.927  1.00  0.00    -0.144 NA 
HETATM    5  C   UNL     1      -8.342  12.631  67.097  1.00  0.00    -0.172 A  
HETATM    6  C   UNL     1      -6.946  14.000  69.115  1.00  0.00    -0.103 A  
HETATM    7  C   UNL     1      -5.572  12.492  70.903  1.00  0.00    -0.124 A  
HETATM    8  C   UNL     1      -7.598  11.930  68.041  1.00  0.00    -0.122 A  
HETATM    9  C   UNL     1      -6.911  12.584  69.045  1.00  0.00    -0.089 A  
HETATM   10  N   UNL     1      -6.265  14.632  70.110  1.00  0.00    -0.157 NA 
HETATM   11  C   UNL     1      -5.593  13.865  70.995  1.00  0.00    -0.206 A  
ENDROOT
BRANCH   3  12
HETATM   12  N   UNL     1      -9.206  14.734  66.189  1.00  0.00    -0.474 NA 
HETATM   13  H   UNL     1      -8.858  15.645  65.891  1.00  0.00     0.000 HD 
BRANCH  12  14
HETATM   14  C   UNL     1     -10.378  14.307  65.645  1.00  0.00    -0.336 A  
HETATM   15  C   UNL     1     -12.641  14.054  65.723  1.00  0.00    -0.479 A  
HETATM   16  N   UNL     1     -11.474  14.563  66.420  1.00  0.00    -0.354 NA 
HETATM   17  H   UNL     1      -9.877  13.372  63.854  1.00  0.00     0.000 HD 
HETATM   18  N   UNL     1     -10.581  13.692  64.519  1.00  0.00    -0.430 NA 
HETATM   19  C   UNL     1     -12.051  13.552  64.406  1.00  0.00    -0.420 A  
ENDBRANCH  12  14
ENDBRANCH   3  12
TORSDOF 2
ENDMDL
MODEL      126
REMARK 921   NORMALIZED FREE ENERGY PREDICTED BY IDOCK:   -3.64 KCAL/MOL
REMARK 922        TOTAL FREE ENERGY PREDICTED BY IDOCK:   -4.36 KCAL/MOL
REMARK 923 INTER-LIGAND FREE ENERGY PREDICTED BY IDOCK:   -4.21 KCAL/MOL
REMARK 924 INTRA-LIGAND FREE ENERGY PREDICTED BY IDOCK:   -0.15 KCAL/MOL
REMARK 927      BINDING AFFINITY PREDICTED BY RF-SCORE:    0.00 PKD
ROOT
HETATM    1 BR   UNL     1      -9.540   9.296  68.048  1.00  0.00    -0.167 Br 
HETATM    2  C   UNL     1      -9.828   7.535  68.753  1.00  0.00    -0.166 A  
HETATM    3  C   UNL     1     -10.172   7.399  70.116  1.00  0.00    -0.205 A  
HETATM    4  N   UNL     1      -9.782   4.016  67.696  1.00  0.00    -0.151 NA 
HETATM    5  C   UNL     1     -10.411   6.109  70.587  1.00  0.00    -0.268 A  
HETATM    6  C   UNL     1      -9.675   6.429  67.894  1.00  0.00    -0.121 A  
HETATM    7  C   UNL     1      -9.412   4.173  66.411  1.00  0.00    -0.189 A  
HETATM    8  C   UNL     1     -10.274   5.001  69.755  1.00  0.00    -0.336 A  
HETATM    9  C   UNL     1      -9.905   5.138  68.431  1.00  0.00    -0.152 A  
HETATM   10  N   UNL     1      -9.311   6.550  66.588  1.00  0.00    -0.155 NA 
HETATM   11  C   UNL     1      -9.179   5.416  65.868  1.00  0.00    -0.156 A  
ENDROOT
BRANCH   3  12
HETATM   12  N   UNL     1     -10.287   8.524  70.968  1.00  0.00    -0.201 NA 
HETATM   13  H   UNL     1      -9.426   8.893  71.372  1.00  0.00     0.000 HD 
BRANCH  12  14
HETATM   14  C   UNL     1     -11.448   9.154  71.293  1.00  0.00    -0.335 A  
HETATM   15  C   UNL     1     -13.473   9.198  72.337  1.00  0.00    -0.476 A  
HETATM   16  N   UNL     1     -12.283   8.408  72.075  1.00  0.00    -0.339 NA 
HETATM   17  H   UNL     1     -11.392  10.999  70.330  1.00  0.00     0.000 HD 
HETATM   18  N   UNL     1     -11.858  10.339  70.953  1.00  0.00    -0.349 NA 
HETATM   19  C   UNL     1     -13.146  10.529  71.659  1.00  0.00    -0.446 A  
ENDBRANCH  12  14
ENDBRANCH   3  12
TORSDOF 2
ENDMDL
MODEL      127
REMARK 921   NORMALIZED FREE ENERGY PREDICTED BY IDOCK:   -3.64 KCAL/MOL
REMARK 922        TOTAL FREE ENERGY PREDICTED BY IDOCK:   -4.36 KCAL/MOL
REMARK 923 INTER-LIGAND FREE ENERGY PREDICTED BY IDOCK:   -4.24 KCAL/MOL
REMARK 924 INTRA-LIGAND FREE ENERGY PREDICTED BY IDOCK:   -0.11 KCAL/MOL
REMARK 927      BINDING AFFINITY PREDICTED BY RF-SCORE:    0.00 PKD
ROOT
HETATM    1 BR   UNL     1     -11.230  13.246  67.646  1.00  0.00    -0.329 Br 
HETATM    2  C   UNL     1     -11.318  14.650  68.950  1.00  0.00    -0.283 A  
HETATM    3  C   UNL     1     -10.769  15.911  68.628  1.00  0.00    -0.274 A  
HETATM    4  N   UNL     1     -12.528  15.275  72.363  1.00  0.00    -0.337 NA 
HETATM    5  C   UNL     1     -10.884  16.919  69.584  1.00  0.00    -0.101 A  
HETATM    6  C   UNL     1     -11.914  14.378  70.198  1.00  0.00    -0.322 A  
HETATM    7  C   UNL     1     -13.005  14.051  72.659  1.00  0.00    -0.387 A  
HETATM    8  C   UNL     1     -11.477  16.676  70.819  1.00  0.00     0.155 A  
HETATM    9  C   UNL     1     -11.982  15.432  71.142  1.00  0.00    -0.362 A  
HETATM   10  N   UNL     1     -12.415  13.156  70.528  1.00  0.00    -0.289 NA 
HETATM   11  C   UNL     1     -12.948  13.011  71.761  1.00  0.00    -0.321 A  
ENDROOT
BRANCH   3  12
HETATM   12  N   UNL     1     -10.145  16.150  67.380  1.00  0.00    -0.252 NA 
HETATM   13  H   UNL     1     -10.502  15.637  66.574  1.00  0.00     0.000 HD 
BRANCH  12  14
HETATM   14  C   UNL     1      -9.108  17.006  67.165  1.00  0.00    -0.223 A  
HETATM   15  C   UNL     1      -6.907  17.409  66.738  1.00  0.00    -0.212 A  
HETATM   16  N   UNL     1      -7.913  16.382  66.946  1.00  0.00    -0.207 NA 
HETATM   17  H   UNL     1      -9.894  18.924  67.359  1.00  0.00     0.000 HD 
HETATM   18  N   UNL     1      -9.109  18.305  67.156  1.00  0.00    -0.260 NA 
HETATM   19  C   UNL     1      -7.729  18.696  66.788  1.00  0.00    -0.242 A  
ENDBRANCH  12  14
ENDBRANCH   3  12
TORSDOF 2
ENDMDL
MODEL      128
REMARK 921   NORMALIZED FREE ENERGY PREDICTED BY IDOCK:   -3.62 KCAL/MOL
REMARK 922        TOTAL FREE ENERGY PREDICTED BY IDOCK:   -4.34 KCAL/MOL
REMARK 923 INTER-LIGAND FREE ENERGY PREDICTED BY IDOCK:   -4.06 KCAL/MOL
REMARK 924 INTRA-LIGAND FREE ENERGY PREDICTED BY IDOCK:   -0.28 KCAL/MOL
REMARK 927      BINDING AFFINITY PREDICTED BY RF-SCORE:    0.00 PKD
ROOT
HETATM    1 BR   UNL     1     -11.839  12.630  66.902  1.00  0.00    -0.358 Br 
HETATM    2  C   UNL     1     -10.026  12.302  67.436  1.00  0.00    -0.201 A  
HETATM    3  C   UNL     1      -9.021  13.199  67.012  1.00  0.00    -0.228 A  
HETATM    4  N   UNL     1      -8.033   9.895  69.369  1.00  0.00    -0.121 NA 
HETATM    5  C   UNL     1      -7.721  12.953  67.450  1.00  0.00    -0.160 A  
HETATM    6  C   UNL     1      -9.748  11.167  68.224  1.00  0.00    -0.188 A  
HETATM    7  C   UNL     1      -9.004   9.033  69.723  1.00  0.00    -0.154 A  
HETATM    8  C   UNL     1      -7.423  11.843  68.235  1.00  0.00    -0.104 A  
HETATM    9  C   UNL     1      -8.404  10.950  68.620  1.00  0.00    -0.148 A  
HETATM   10  N   UNL     1     -10.705  10.280  68.608  1.00  0.00    -0.211 NA 
HETATM   11  C   UNL     1     -10.315   9.219  69.349  1.00  0.00    -0.215 A  
ENDROOT
BRANCH   3  12
HETATM   12  N   UNL     1      -9.321  14.314  66.193  1.00  0.00    -0.492 NA 
HETATM   13  H   UNL     1      -9.381  14.151  65.188  1.00  0.00     0.000 HD 
BRANCH  12  14
HETATM   14  C   UNL     1      -9.535  15.584  66.632  1.00  0.00    -0.259 A  
HETATM   15  C   UNL     1      -8.893  17.760  66.840  1.00  0.00    -0.248 A  
HETATM   16  N   UNL     1      -8.535  16.457  66.309  1.00  0.00    -0.326 NA 
HETATM   17  H   UNL     1     -11.330  15.536  67.684  1.00  0.00     0.000 HD 
HETATM   18  N   UNL     1     -10.536  16.057  67.312  1.00  0.00    -0.313 NA 
HETATM   19  C   UNL     1     -10.280  17.510  67.433  1.00  0.00    -0.337 A  
ENDBRANCH  12  14
ENDBRANCH   3  12
TORSDOF 2
ENDMDL
MODEL      129
REMARK 921   NORMALIZED FREE ENERGY PREDICTED BY IDOCK:   -3.61 KCAL/MOL
REMARK 922        TOTAL FREE ENERGY PREDICTED BY IDOCK:   -4.33 KCAL/MOL
REMARK 923 INTER-LIGAND FREE ENERGY PREDICTED BY IDOCK:   -4.50 KCAL/MOL
REMARK 924 INTRA-LIGAND FREE ENERGY PREDICTED BY IDOCK:    0.17 KCAL/MOL
REMARK 927      BINDING AFFINITY PREDICTED BY RF-SCORE:    0.00 PKD
ROOT
HETATM    1 BR   UNL     1      -9.840   9.818  66.467  1.00  0.00    -0.306 Br 
HETATM    2  C   UNL     1     -10.665  11.542  66.636  1.00  0.00    -0.268 A  
HETATM    3  C   UNL     1     -10.715  12.149  67.910  1.00  0.00    -0.207 A  
HETATM    4  N   UNL     1     -12.354  14.087  64.593  1.00  0.00    -0.573 NA 
HETATM    5  C   UNL     1     -11.287  13.417  67.990  1.00  0.00    -0.320 A  
HETATM    6  C   UNL     1     -11.210  12.146  65.485  1.00  0.00    -0.334 A  
HETATM    7  C   UNL     1     -12.330  13.467  63.398  1.00  0.00    -0.269 A  
HETATM    8  C   UNL     1     -11.824  14.038  66.866  1.00  0.00    -0.458 A  
HETATM    9  C   UNL     1     -11.802  13.426  65.628  1.00  0.00    -0.370 A  
HETATM   10  N   UNL     1     -11.195  11.553  64.260  1.00  0.00    -0.319 NA 
HETATM   11  C   UNL     1     -11.764  12.223  63.234  1.00  0.00    -0.364 A  
ENDROOT
BRANCH   3  12
HETATM   12  N   UNL     1     -10.190  11.506  69.057  1.00  0.00    -0.384 NA 
HETATM   13  H   UNL     1     -10.833  11.334  69.830  1.00  0.00     0.000 HD 
BRANCH  12  14
HETATM   14  C   UNL     1      -8.901  11.100  69.217  1.00  0.00     0.188 A  
HETATM   15  C   UNL     1      -7.359   9.595  69.956  1.00  0.00    -0.130 A  
HETATM   16  N   UNL     1      -8.775   9.897  69.852  1.00  0.00    -0.213 NA 
HETATM   17  H   UNL     1      -7.715  12.623  68.439  1.00  0.00     0.000 HD 
HETATM   18  N   UNL     1      -7.805  11.701  68.864  1.00  0.00    -0.087 NA 
HETATM   19  C   UNL     1      -6.713  10.763  69.211  1.00  0.00    -0.081 A  
ENDBRANCH  12  14
ENDBRANCH   3  12
TORSDOF 2
ENDMDL
MODEL      130
REMARK 921   NORMALIZED FREE ENERGY PREDICTED BY IDOCK:   -3.58 KCAL/MOL
REMARK 922        TOTAL FREE ENERGY PREDICTED BY IDOCK:   -4.29 KCAL/MOL
REMARK 923 INTER-LIGAND FREE ENERGY PREDICTED BY IDOCK:   -3.98 KCAL/MOL
REMARK 924 INTRA-LIGAND FREE ENERGY PREDICTED BY IDOCK:   -0.32 KCAL/MOL
REMARK 927      BINDING AFFINITY PREDICTED BY RF-SCORE:    0.00 PKD
ROOT
HETATM    1 BR   UNL     1      -9.546  10.276  69.052  1.00  0.00    -0.222 Br 
HETATM    2  C   UNL     1     -10.573   8.799  69.721  1.00  0.00    -0.224 A  
HETATM    3  C   UNL     1     -10.242   7.494  69.295  1.00  0.00    -0.201 A  
HETATM    4  N   UNL     1     -13.410   8.099  71.949  1.00  0.00    -0.335 NA 
HETATM    5  C   UNL     1     -10.983   6.442  69.829  1.00  0.00    -0.417 A  
HETATM    6  C   UNL     1     -11.636   9.062  70.608  1.00  0.00    -0.224 A  
HETATM    7  C   UNL     1     -13.730   9.357  72.306  1.00  0.00    -0.426 A  
HETATM    8  C   UNL     1     -12.033   6.676  70.713  1.00  0.00    -0.412 A  
HETATM    9  C   UNL     1     -12.374   7.956  71.101  1.00  0.00    -0.230 A  
HETATM   10  N   UNL     1     -11.983  10.319  70.997  1.00  0.00    -0.359 NA 
HETATM   11  C   UNL     1     -13.033  10.447  71.838  1.00  0.00    -0.450 A  
ENDROOT
BRANCH   3  12
HETATM   12  N   UNL     1      -9.190   7.259  68.377  1.00  0.00    -0.138 NA 
HETATM   13  H   UNL     1      -9.313   7.610  67.427  1.00  0.00     0.000 HD 
BRANCH  12  14
HETATM   14  C   UNL     1      -8.030   6.604  68.654  1.00  0.00    -0.118 A  
HETATM   15  C   UNL     1      -6.188   6.266  69.951  1.00  0.00    -0.031 A  
HETATM   16  N   UNL     1      -7.402   7.045  69.784  1.00  0.00    -0.086 NA 
HETATM   17  H   UNL     1      -7.749   5.245  67.102  1.00  0.00     0.000 HD 
HETATM   18  N   UNL     1      -7.452   5.648  67.991  1.00  0.00    -0.073 NA 
HETATM   19  C   UNL     1      -6.270   5.268  68.797  1.00  0.00    -0.030 A  
ENDBRANCH  12  14
ENDBRANCH   3  12
TORSDOF 2
ENDMDL
MODEL      131
REMARK 921   NORMALIZED FREE ENERGY PREDICTED BY IDOCK:   -3.55 KCAL/MOL
REMARK 922        TOTAL FREE ENERGY PREDICTED BY IDOCK:   -4.26 KCAL/MOL
REMARK 923 INTER-LIGAND FREE ENERGY PREDICTED BY IDOCK:   -4.05 KCAL/MOL
REMARK 924 INTRA-LIGAND FREE ENERGY PREDICTED BY IDOCK:   -0.21 KCAL/MOL
REMARK 927      BINDING AFFINITY PREDICTED BY RF-SCORE:    0.00 PKD
ROOT
HETATM    1 BR   UNL     1      -8.781   8.276  69.517  1.00  0.00    -0.139 Br 
HETATM    2  C   UNL     1     -10.305   7.862  70.607  1.00  0.00    -0.202 A  
HETATM    3  C   UNL     1     -10.453   6.546  71.096  1.00  0.00    -0.220 A  
HETATM    4  N   UNL     1     -13.304   9.459  72.007  1.00  0.00    -0.419 NA 
HETATM    5  C   UNL     1     -11.551   6.290  71.915  1.00  0.00    -0.369 A  
HETATM    6  C   UNL     1     -11.241   8.882  70.875  1.00  0.00    -0.279 A  
HETATM    7  C   UNL     1     -13.161  10.695  71.493  1.00  0.00    -0.424 A  
HETATM    8  C   UNL     1     -12.483   7.282  72.202  1.00  0.00    -0.203 A  
HETATM    9  C   UNL     1     -12.352   8.560  71.694  1.00  0.00    -0.326 A  
HETATM   10  N   UNL     1     -11.124  10.144  70.380  1.00  0.00    -0.306 NA 
HETATM   11  C   UNL     1     -12.093  11.031  70.693  1.00  0.00    -0.373 A  
ENDROOT
BRANCH   3  12
HETATM   12  N   UNL     1      -9.517   5.531  70.784  1.00  0.00    -0.162 NA 
HETATM   13  H   UNL     1      -8.917   5.682  69.973  1.00  0.00     0.000 HD 
BRANCH  12  14
HETATM   14  C   UNL     1      -9.350   4.370  71.474  1.00  0.00    -0.143 A  
HETATM   15  C   UNL     1      -9.542   2.107  71.652  1.00  0.00    -0.139 A  
HETATM   16  N   UNL     1      -9.776   3.260  70.802  1.00  0.00    -0.158 NA 
HETATM   17  H   UNL     1      -8.555   4.906  73.322  1.00  0.00     0.000 HD 
HETATM   18  N   UNL     1      -8.861   4.189  72.664  1.00  0.00    -0.103 NA 
HETATM   19  C   UNL     1      -8.844   2.722  72.864  1.00  0.00    -0.082 A  
ENDBRANCH  12  14
ENDBRANCH   3  12
TORSDOF 2
ENDMDL
MODEL      132
REMARK 921   NORMALIZED FREE ENERGY PREDICTED BY IDOCK:   -3.50 KCAL/MOL
REMARK 922        TOTAL FREE ENERGY PREDICTED BY IDOCK:   -4.20 KCAL/MOL
REMARK 923 INTER-LIGAND FREE ENERGY PREDICTED BY IDOCK:   -4.02 KCAL/MOL
REMARK 924 INTRA-LIGAND FREE ENERGY PREDICTED BY IDOCK:   -0.18 KCAL/MOL
REMARK 927      BINDING AFFINITY PREDICTED BY RF-SCORE:    0.00 PKD
ROOT
HETATM    1 BR   UNL     1     -11.260   6.408  69.710  1.00  0.00    -0.494 Br 
HETATM    2  C   UNL     1      -9.925   7.755  69.998  1.00  0.00    -0.187 A  
HETATM    3  C   UNL     1      -9.936   8.907  69.181  1.00  0.00    -0.190 A  
HETATM    4  N   UNL     1      -7.030   8.461  72.149  1.00  0.00    -0.088 NA 
HETATM    5  C   UNL     1      -8.975   9.882  69.442  1.00  0.00    -0.204 A  
HETATM    6  C   UNL     1      -8.963   7.549  71.007  1.00  0.00    -0.147 A  
HETATM    7  C   UNL     1      -7.018   7.333  72.885  1.00  0.00    -0.068 A  
HETATM    8  C   UNL     1      -8.020   9.705  70.439  1.00  0.00    -0.191 A  
HETATM    9  C   UNL     1      -7.993   8.562  71.214  1.00  0.00    -0.132 A  
HETATM   10  N   UNL     1      -8.926   6.426  71.777  1.00  0.00    -0.140 NA 
HETATM   11  C   UNL     1      -7.945   6.334  72.701  1.00  0.00    -0.106 A  
ENDROOT
BRANCH   3  12
HETATM   12  N   UNL     1     -10.892   9.075  68.151  1.00  0.00    -0.463 NA 
HETATM   13  H   UNL     1     -11.590   8.341  68.038  1.00  0.00     0.000 HD 
BRANCH  12  14
HETATM   14  C   UNL     1     -10.958  10.134  67.298  1.00  0.00    -0.183 A  
HETATM   15  C   UNL     1     -11.657  12.239  66.778  1.00  0.00    -0.369 A  
HETATM   16  N   UNL     1     -11.667  11.195  67.787  1.00  0.00    -0.602 NA 
HETATM   17  H   UNL     1      -9.957   9.547  65.570  1.00  0.00     0.000 HD 
HETATM   18  N   UNL     1     -10.457  10.256  66.106  1.00  0.00    -0.176 NA 
HETATM   19  C   UNL     1     -10.768  11.642  65.688  1.00  0.00    -0.278 A  
ENDBRANCH  12  14
ENDBRANCH   3  12
TORSDOF 2
ENDMDL
MODEL      133
REMARK 921   NORMALIZED FREE ENERGY PREDICTED BY IDOCK:   -3.45 KCAL/MOL
REMARK 922        TOTAL FREE ENERGY PREDICTED BY IDOCK:   -4.15 KCAL/MOL
REMARK 923 INTER-LIGAND FREE ENERGY PREDICTED BY IDOCK:   -4.13 KCAL/MOL
REMARK 924 INTRA-LIGAND FREE ENERGY PREDICTED BY IDOCK:   -0.02 KCAL/MOL
REMARK 927      BINDING AFFINITY PREDICTED BY RF-SCORE:    0.00 PKD
ROOT
HETATM    1 BR   UNL     1      -8.943  10.284  67.576  1.00  0.00    -0.142 Br 
HETATM    2  C   UNL     1     -10.221  10.449  68.998  1.00  0.00    -0.217 A  
HETATM    3  C   UNL     1     -10.469   9.329  69.820  1.00  0.00    -0.222 A  
HETATM    4  N   UNL     1     -12.504  12.916  70.482  1.00  0.00    -0.265 NA 
HETATM    5  C   UNL     1     -11.375   9.494  70.866  1.00  0.00    -0.410 A  
HETATM    6  C   UNL     1     -10.885  11.680  69.170  1.00  0.00    -0.184 A  
HETATM    7  C   UNL     1     -12.279  13.955  69.657  1.00  0.00    -0.321 A  
HETATM    8  C   UNL     1     -12.037  10.703  71.062  1.00  0.00    -0.473 A  
HETATM    9  C   UNL     1     -11.815  11.786  70.234  1.00  0.00    -0.295 A  
HETATM   10  N   UNL     1     -10.676  12.754  68.361  1.00  0.00    -0.243 NA 
HETATM   11  C   UNL     1     -11.384  13.876  68.614  1.00  0.00    -0.278 A  
ENDROOT
BRANCH   3  12
HETATM   12  N   UNL     1      -9.814   8.092  69.605  1.00  0.00    -0.181 NA 
HETATM   13  H   UNL     1      -9.087   7.828  70.270  1.00  0.00     0.000 HD 
BRANCH  12  14
HETATM   14  C   UNL     1     -10.073   7.226  68.588  1.00  0.00    -0.176 A  
HETATM   15  C   UNL     1      -9.632   5.311  67.435  1.00  0.00    -0.134 A  
HETATM   16  N   UNL     1      -9.247   6.138  68.565  1.00  0.00    -0.116 NA 
HETATM   17  H   UNL     1     -11.624   8.073  67.488  1.00  0.00     0.000 HD 
HETATM   18  N   UNL     1     -10.972   7.306  67.654  1.00  0.00    -0.159 NA 
HETATM   19  C   UNL     1     -10.849   6.050  66.879  1.00  0.00    -0.318 A  
ENDBRANCH  12  14
ENDBRANCH   3  12
TORSDOF 2
ENDMDL
MODEL      134
REMARK 921   NORMALIZED FREE ENERGY PREDICTED BY IDOCK:   -3.45 KCAL/MOL
REMARK 922        TOTAL FREE ENERGY PREDICTED BY IDOCK:   -4.14 KCAL/MOL
REMARK 923 INTER-LIGAND FREE ENERGY PREDICTED BY IDOCK:   -3.90 KCAL/MOL
REMARK 924 INTRA-LIGAND FREE ENERGY PREDICTED BY IDOCK:   -0.24 KCAL/MOL
REMARK 927      BINDING AFFINITY PREDICTED BY RF-SCORE:    0.00 PKD
ROOT
HETATM    1 BR   UNL     1      -8.526   9.057  64.335  1.00  0.00    -0.172 Br 
HETATM    2  C   UNL     1      -9.463   8.822  65.993  1.00  0.00    -0.233 A  
HETATM    3  C   UNL     1     -10.060   9.949  66.600  1.00  0.00    -0.233 A  
HETATM    4  N   UNL     1     -10.328   6.194  68.411  1.00  0.00    -0.178 NA 
HETATM    5  C   UNL     1     -10.764   9.736  67.784  1.00  0.00    -0.329 A  
HETATM    6  C   UNL     1      -9.514   7.535  66.564  1.00  0.00    -0.179 A  
HETATM    7  C   UNL     1      -9.713   5.146  67.833  1.00  0.00    -0.145 A  
HETATM    8  C   UNL     1     -10.836   8.473  68.363  1.00  0.00     0.021 A  
HETATM    9  C   UNL     1     -10.222   7.380  67.782  1.00  0.00    -0.196 A  
HETATM   10  N   UNL     1      -8.913   6.451  66.003  1.00  0.00    -0.152 NA 
HETATM   11  C   UNL     1      -9.017   5.271  66.653  1.00  0.00    -0.117 A  
ENDROOT
BRANCH   3  12
HETATM   12  N   UNL     1      -9.965  11.238  66.024  1.00  0.00    -0.222 NA 
HETATM   13  H   UNL     1      -9.048  11.535  65.692  1.00  0.00     0.000 HD 
BRANCH  12  14
HETATM   14  C   UNL     1     -10.995  12.116  65.875  1.00  0.00    -0.292 A  
HETATM   15  C   UNL     1     -12.137  13.981  66.512  1.00  0.00    -0.459 A  
HETATM   16  N   UNL     1     -10.991  13.133  66.786  1.00  0.00    -0.276 NA 
HETATM   17  H   UNL     1     -12.149  11.390  64.302  1.00  0.00     0.000 HD 
HETATM   18  N   UNL     1     -11.962  12.102  65.007  1.00  0.00    -0.329 NA 
HETATM   19  C   UNL     1     -12.736  13.339  65.260  1.00  0.00    -0.412 A  
ENDBRANCH  12  14
ENDBRANCH   3  12
TORSDOF 2
ENDMDL
MODEL      135
REMARK 921   NORMALIZED FREE ENERGY PREDICTED BY IDOCK:   -3.43 KCAL/MOL
REMARK 922        TOTAL FREE ENERGY PREDICTED BY IDOCK:   -4.13 KCAL/MOL
REMARK 923 INTER-LIGAND FREE ENERGY PREDICTED BY IDOCK:   -3.92 KCAL/MOL
REMARK 924 INTRA-LIGAND FREE ENERGY PREDICTED BY IDOCK:   -0.21 KCAL/MOL
REMARK 927      BINDING AFFINITY PREDICTED BY RF-SCORE:    0.00 PKD
ROOT
HETATM    1 BR   UNL     1      -7.487   9.284  68.507  1.00  0.00    -0.081 Br 
HETATM    2  C   UNL     1      -8.950   8.081  68.201  1.00  0.00    -0.135 A  
HETATM    3  C   UNL     1      -9.338   7.809  66.871  1.00  0.00    -0.169 A  
HETATM    4  N   UNL     1     -11.365   6.027  70.059  1.00  0.00    -0.363 NA 
HETATM    5  C   UNL     1     -10.380   6.902  66.683  1.00  0.00    -0.214 A  
HETATM    6  C   UNL     1      -9.604   7.515  69.314  1.00  0.00    -0.158 A  
HETATM    7  C   UNL     1     -11.002   6.337  71.317  1.00  0.00    -0.275 A  
HETATM    8  C   UNL     1     -11.035   6.324  67.766  1.00  0.00    -0.427 A  
HETATM    9  C   UNL     1     -10.673   6.619  69.066  1.00  0.00    -0.259 A  
HETATM   10  N   UNL     1      -9.258   7.798  70.599  1.00  0.00    -0.160 NA 
HETATM   11  C   UNL     1      -9.970   7.208  71.583  1.00  0.00    -0.177 A  
ENDROOT
BRANCH   3  12
HETATM   12  N   UNL     1      -8.687   8.417  65.770  1.00  0.00    -0.162 NA 
HETATM   13  H   UNL     1      -7.764   8.062  65.520  1.00  0.00     0.000 HD 
BRANCH  12  14
HETATM   14  C   UNL     1      -9.188   9.434  65.017  1.00  0.00    -0.218 A  
HETATM   15  C   UNL     1     -10.603  11.196  64.728  1.00  0.00    -0.303 A  
HETATM   16  N   UNL     1     -10.163  10.158  65.643  1.00  0.00    -0.256 NA 
HETATM   17  H   UNL     1      -8.219   9.322  63.178  1.00  0.00     0.000 HD 
HETATM   18  N   UNL     1      -8.875   9.786  63.806  1.00  0.00    -0.221 NA 
HETATM   19  C   UNL     1      -9.674  11.002  63.531  1.00  0.00    -0.337 A  
ENDBRANCH  12  14
ENDBRANCH   3  12
TORSDOF 2
ENDMDL
MODEL      136
REMARK 921   NORMALIZED FREE ENERGY PREDICTED BY IDOCK:   -3.39 KCAL/MOL
REMARK 922        TOTAL FREE ENERGY PREDICTED BY IDOCK:   -4.09 KCAL/MOL
REMARK 923 INTER-LIGAND FREE ENERGY PREDICTED BY IDOCK:   -4.06 KCAL/MOL
REMARK 924 INTRA-LIGAND FREE ENERGY PREDICTED BY IDOCK:   -0.02 KCAL/MOL
REMARK 927      BINDING AFFINITY PREDICTED BY RF-SCORE:    0.00 PKD
ROOT
HETATM    1 BR   UNL     1     -12.611   8.685  71.555  1.00  0.00    -0.361 Br 
HETATM    2  C   UNL     1     -11.345   7.488  70.752  1.00  0.00    -0.280 A  
HETATM    3  C   UNL     1     -10.782   7.834  69.504  1.00  0.00    -0.198 A  
HETATM    4  N   UNL     1      -9.706   4.260  71.379  1.00  0.00    -0.172 NA 
HETATM    5  C   UNL     1      -9.837   6.960  68.967  1.00  0.00    -0.152 A  
HETATM    6  C   UNL     1     -11.025   6.292  71.424  1.00  0.00    -0.275 A  
HETATM    7  C   UNL     1     -10.291   3.935  72.547  1.00  0.00    -0.138 A  
HETATM    8  C   UNL     1      -9.499   5.777  69.616  1.00  0.00    -0.174 A  
HETATM    9  C   UNL     1     -10.078   5.427  70.821  1.00  0.00    -0.220 A  
HETATM   10  N   UNL     1     -11.589   5.935  72.611  1.00  0.00    -0.275 NA 
HETATM   11  C   UNL     1     -11.216   4.755  73.151  1.00  0.00    -0.308 A  
ENDROOT
BRANCH   3  12
HETATM   12  N   UNL     1     -11.144   9.026  68.832  1.00  0.00    -0.437 NA 
HETATM   13  H   UNL     1     -11.909   9.571  69.229  1.00  0.00     0.000 HD 
BRANCH  12  14
HETATM   14  C   UNL     1     -10.559   9.506  67.701  1.00  0.00    -0.269 A  
HETATM   15  C   UNL     1      -9.444  11.138  66.567  1.00  0.00    -0.193 A  
HETATM   16  N   UNL     1     -10.025  10.755  67.842  1.00  0.00    -0.171 NA 
HETATM   17  H   UNL     1     -10.850   8.054  66.239  1.00  0.00     0.000 HD 
HETATM   18  N   UNL     1     -10.458   8.949  66.532  1.00  0.00    -0.191 NA 
HETATM   19  C   UNL     1      -9.655   9.887  65.715  1.00  0.00    -0.250 A  
ENDBRANCH  12  14
ENDBRANCH   3  12
TORSDOF 2
ENDMDL
MODEL      137
REMARK 921   NORMALIZED FREE ENERGY PREDICTED BY IDOCK:   -3.38 KCAL/MOL
REMARK 922        TOTAL FREE ENERGY PREDICTED BY IDOCK:   -4.08 KCAL/MOL
REMARK 923 INTER-LIGAND FREE ENERGY PREDICTED BY IDOCK:   -3.95 KCAL/MOL
REMARK 924 INTRA-LIGAND FREE ENERGY PREDICTED BY IDOCK:   -0.13 KCAL/MOL
REMARK 927      BINDING AFFINITY PREDICTED BY RF-SCORE:    0.00 PKD
ROOT
HETATM    1 BR   UNL     1     -10.151  13.588  68.366  1.00  0.00    -0.223 Br 
HETATM    2  C   UNL     1      -9.888  12.499  66.808  1.00  0.00    -0.229 A  
HETATM    3  C   UNL     1      -8.888  11.503  66.837  1.00  0.00    -0.182 A  
HETATM    4  N   UNL     1     -11.203  12.059  63.405  1.00  0.00    -0.414 NA 
HETATM    5  C   UNL     1      -8.750  10.705  65.702  1.00  0.00    -0.198 A  
HETATM    6  C   UNL     1     -10.691  12.736  65.675  1.00  0.00    -0.273 A  
HETATM    7  C   UNL     1     -12.120  13.044  63.390  1.00  0.00    -0.515 A  
HETATM    8  C   UNL     1      -9.537  10.915  64.574  1.00  0.00    -0.312 A  
HETATM    9  C   UNL     1     -10.491  11.913  64.539  1.00  0.00    -0.296 A  
HETATM   10  N   UNL     1     -11.634  13.717  65.627  1.00  0.00    -0.320 NA 
HETATM   11  C   UNL     1     -12.331  13.859  64.479  1.00  0.00    -0.372 A  
ENDROOT
BRANCH   3  12
HETATM   12  N   UNL     1      -8.071  11.306  67.976  1.00  0.00    -0.122 NA 
HETATM   13  H   UNL     1      -8.320  10.541  68.603  1.00  0.00     0.000 HD 
BRANCH  12  14
HETATM   14  C   UNL     1      -6.981  12.052  68.307  1.00  0.00    -0.075 A  
HETATM   15  C   UNL     1      -5.176  13.316  67.728  1.00  0.00    -0.075 A  
HETATM   16  N   UNL     1      -6.307  12.553  67.230  1.00  0.00    -0.155 NA 
HETATM   17  H   UNL     1      -6.847  11.989  70.383  1.00  0.00     0.000 HD 
HETATM   18  N   UNL     1      -6.506  12.329  69.483  1.00  0.00    -0.114 NA 
HETATM   19  C   UNL     1      -5.364  13.241  69.243  1.00  0.00    -0.075 A  
ENDBRANCH  12  14
ENDBRANCH   3  12
TORSDOF 2
ENDMDL
MODEL      138
REMARK 921   NORMALIZED FREE ENERGY PREDICTED BY IDOCK:   -3.37 KCAL/MOL
REMARK 922        TOTAL FREE ENERGY PREDICTED BY IDOCK:   -4.06 KCAL/MOL
REMARK 923 INTER-LIGAND FREE ENERGY PREDICTED BY IDOCK:   -3.89 KCAL/MOL
REMARK 924 INTRA-LIGAND FREE ENERGY PREDICTED BY IDOCK:   -0.17 KCAL/MOL
REMARK 927      BINDING AFFINITY PREDICTED BY RF-SCORE:    0.00 PKD
ROOT
HETATM    1 BR   UNL     1      -7.277  12.640  67.916  1.00  0.00    -0.133 Br 
HETATM    2  C   UNL     1      -8.776  13.786  67.566  1.00  0.00    -0.194 A  
HETATM    3  C   UNL     1      -9.920  13.237  66.946  1.00  0.00    -0.250 A  
HETATM    4  N   UNL     1      -9.822  17.285  67.972  1.00  0.00    -0.272 NA 
HETATM    5  C   UNL     1     -11.004  14.089  66.741  1.00  0.00    -0.298 A  
HETATM    6  C   UNL     1      -8.685  15.146  67.925  1.00  0.00    -0.157 A  
HETATM    7  C   UNL     1      -8.703  17.791  68.523  1.00  0.00    -0.283 A  
HETATM    8  C   UNL     1     -10.941  15.433  67.095  1.00  0.00    -0.317 A  
HETATM    9  C   UNL     1      -9.808  15.973  67.671  1.00  0.00    -0.235 A  
HETATM   10  N   UNL     1      -7.574  15.690  68.492  1.00  0.00    -0.127 NA 
HETATM   11  C   UNL     1      -7.599  17.010  68.776  1.00  0.00    -0.243 A  
ENDROOT
BRANCH   3  12
HETATM   12  N   UNL     1      -9.974  11.875  66.564  1.00  0.00    -0.199 NA 
HETATM   13  H   UNL     1     -10.168  11.193  67.297  1.00  0.00     0.000 HD 
BRANCH  12  14
HETATM   14  C   UNL     1      -9.788  11.399  65.303  1.00  0.00    -0.248 A  
HETATM   15  C   UNL     1     -10.482  11.120  63.151  1.00  0.00    -0.176 A  
HETATM   16  N   UNL     1     -10.812  11.688  64.446  1.00  0.00    -0.322 NA 
HETATM   17  H   UNL     1      -7.985  10.360  65.338  1.00  0.00     0.000 HD 
HETATM   18  N   UNL     1      -8.794  10.711  64.827  1.00  0.00    -0.190 NA 
HETATM   19  C   UNL     1      -9.086  10.544  63.385  1.00  0.00    -0.249 A  
ENDBRANCH  12  14
ENDBRANCH   3  12
TORSDOF 2
ENDMDL
MODEL      139
REMARK 921   NORMALIZED FREE ENERGY PREDICTED BY IDOCK:   -3.32 KCAL/MOL
REMARK 922        TOTAL FREE ENERGY PREDICTED BY IDOCK:   -4.01 KCAL/MOL
REMARK 923 INTER-LIGAND FREE ENERGY PREDICTED BY IDOCK:   -3.90 KCAL/MOL
REMARK 924 INTRA-LIGAND FREE ENERGY PREDICTED BY IDOCK:   -0.11 KCAL/MOL
REMARK 927      BINDING AFFINITY PREDICTED BY RF-SCORE:    0.00 PKD
ROOT
HETATM    1 BR   UNL     1      -8.607   9.921  69.395  1.00  0.00    -0.196 Br 
HETATM    2  C   UNL     1      -9.698   8.361  69.641  1.00  0.00    -0.173 A  
HETATM    3  C   UNL     1      -9.297   7.150  69.035  1.00  0.00    -0.140 A  
HETATM    4  N   UNL     1     -12.803   7.310  71.302  1.00  0.00    -0.367 NA 
HETATM    5  C   UNL     1     -10.093   6.029  69.266  1.00  0.00    -0.235 A  
HETATM    6  C   UNL     1     -10.875   8.474  70.408  1.00  0.00    -0.234 A  
HETATM    7  C   UNL     1     -13.183   8.487  71.833  1.00  0.00    -0.369 A  
HETATM    8  C   UNL     1     -11.255   6.114  70.027  1.00  0.00    -0.471 A  
HETATM    9  C   UNL     1     -11.660   7.308  70.590  1.00  0.00    -0.290 A  
HETATM   10  N   UNL     1     -11.285   9.645  70.968  1.00  0.00    -0.345 NA 
HETATM   11  C   UNL     1     -12.440   9.634  71.667  1.00  0.00    -0.407 A  
ENDROOT
BRANCH   3  12
HETATM   12  N   UNL     1      -8.128   7.070  68.241  1.00  0.00    -0.122 NA 
HETATM   13  H   UNL     1      -7.331   6.570  68.634  1.00  0.00     0.000 HD 
BRANCH  12  14
HETATM   14  C   UNL     1      -7.978   7.605  66.998  1.00  0.00    -0.116 A  
HETATM   15  C   UNL     1      -6.680   8.494  65.351  1.00  0.00    -0.063 A  
HETATM   16  N   UNL     1      -6.689   7.937  66.692  1.00  0.00    -0.061 NA 
HETATM   17  H   UNL     1      -9.889   7.715  66.182  1.00  0.00     0.000 HD 
HETATM   18  N   UNL     1      -8.881   7.845  66.096  1.00  0.00    -0.160 NA 
HETATM   19  C   UNL     1      -8.138   8.346  64.918  1.00  0.00    -0.149 A  
ENDBRANCH  12  14
ENDBRANCH   3  12
TORSDOF 2
ENDMDL
MODEL      140
REMARK 921   NORMALIZED FREE ENERGY PREDICTED BY IDOCK:   -3.32 KCAL/MOL
REMARK 922        TOTAL FREE ENERGY PREDICTED BY IDOCK:   -4.00 KCAL/MOL
REMARK 923 INTER-LIGAND FREE ENERGY PREDICTED BY IDOCK:   -3.72 KCAL/MOL
REMARK 924 INTRA-LIGAND FREE ENERGY PREDICTED BY IDOCK:   -0.28 KCAL/MOL
REMARK 927      BINDING AFFINITY PREDICTED BY RF-SCORE:    0.00 PKD
ROOT
HETATM    1 BR   UNL     1     -11.886  12.842  66.386  1.00  0.00    -0.446 Br 
HETATM    2  C   UNL     1     -10.120  13.393  66.896  1.00  0.00    -0.255 A  
HETATM    3  C   UNL     1      -9.273  12.457  67.528  1.00  0.00    -0.183 A  
HETATM    4  N   UNL     1      -7.940  16.349  66.810  1.00  0.00    -0.230 NA 
HETATM    5  C   UNL     1      -7.984  12.879  67.850  1.00  0.00    -0.156 A  
HETATM    6  C   UNL     1      -9.726  14.721  66.638  1.00  0.00    -0.267 A  
HETATM    7  C   UNL     1      -8.783  17.233  66.244  1.00  0.00    -0.224 A  
HETATM    8  C   UNL     1      -7.569  14.183  67.597  1.00  0.00    -0.193 A  
HETATM    9  C   UNL     1      -8.413  15.105  67.009  1.00  0.00    -0.229 A  
HETATM   10  N   UNL     1     -10.548  15.639  66.059  1.00  0.00    -0.317 NA 
HETATM   11  C   UNL     1     -10.063  16.886  65.878  1.00  0.00    -0.283 A  
ENDROOT
BRANCH   3  12
HETATM   12  N   UNL     1      -9.704  11.137  67.807  1.00  0.00    -0.169 NA 
HETATM   13  H   UNL     1     -10.310  11.007  68.617  1.00  0.00     0.000 HD 
BRANCH  12  14
HETATM   14  C   UNL     1      -9.380  10.029  67.087  1.00  0.00    -0.149 A  
HETATM   15  C   UNL     1      -9.162   7.771  66.886  1.00  0.00    -0.152 A  
HETATM   16  N   UNL     1      -9.547   8.858  67.768  1.00  0.00    -0.144 NA 
HETATM   17  H   UNL     1      -8.693  10.718  65.247  1.00  0.00     0.000 HD 
HETATM   18  N   UNL     1      -8.930   9.947  65.871  1.00  0.00    -0.146 NA 
HETATM   19  C   UNL     1      -8.836   8.498  65.582  1.00  0.00    -0.173 A  
ENDBRANCH  12  14
ENDBRANCH   3  12
TORSDOF 2
ENDMDL
MODEL      141
REMARK 921   NORMALIZED FREE ENERGY PREDICTED BY IDOCK:   -3.19 KCAL/MOL
REMARK 922        TOTAL FREE ENERGY PREDICTED BY IDOCK:   -3.86 KCAL/MOL
REMARK 923 INTER-LIGAND FREE ENERGY PREDICTED BY IDOCK:   -3.56 KCAL/MOL
REMARK 924 INTRA-LIGAND FREE ENERGY PREDICTED BY IDOCK:   -0.30 KCAL/MOL
REMARK 927      BINDING AFFINITY PREDICTED BY RF-SCORE:    0.00 PKD
ROOT
HETATM    1 BR   UNL     1      -7.067   7.263  69.718  1.00  0.00    -0.074 Br 
HETATM    2  C   UNL     1      -8.633   8.034  70.514  1.00  0.00    -0.134 A  
HETATM    3  C   UNL     1      -9.155   9.227  69.967  1.00  0.00    -0.210 A  
HETATM    4  N   UNL     1     -10.997   7.444  73.265  1.00  0.00    -0.368 NA 
HETATM    5  C   UNL     1     -10.315   9.740  70.546  1.00  0.00    -0.348 A  
HETATM    6  C   UNL     1      -9.209   7.395  71.631  1.00  0.00    -0.142 A  
HETATM    7  C   UNL     1     -10.454   6.330  73.792  1.00  0.00    -0.290 A  
HETATM    8  C   UNL     1     -10.906   9.122  71.644  1.00  0.00    -0.442 A  
HETATM    9  C   UNL     1     -10.373   7.973  72.196  1.00  0.00    -0.254 A  
HETATM   10  N   UNL     1      -8.693   6.264  72.184  1.00  0.00    -0.133 NA 
HETATM   11  C   UNL     1      -9.322   5.753  73.264  1.00  0.00    -0.135 A  
ENDROOT
BRANCH   3  12
HETATM   12  N   UNL     1      -8.539   9.869  68.866  1.00  0.00    -0.128 NA 
HETATM   13  H   UNL     1      -7.646  10.331  69.035  1.00  0.00     0.000 HD 
BRANCH  12  14
HETATM   14  C   UNL     1      -9.038   9.922  67.601  1.00  0.00    -0.131 A  
HETATM   15  C   UNL     1      -9.166   9.128  65.469  1.00  0.00    -0.224 A  
HETATM   16  N   UNL     1      -8.556   8.946  66.775  1.00  0.00    -0.114 NA 
HETATM   17  H   UNL     1     -10.288  11.585  67.543  1.00  0.00     0.000 HD 
HETATM   18  N   UNL     1      -9.881  10.767  67.089  1.00  0.00    -0.181 NA 
HETATM   19  C   UNL     1     -10.124  10.294  65.707  1.00  0.00    -0.255 A  
ENDBRANCH  12  14
ENDBRANCH   3  12
TORSDOF 2
ENDMDL
MODEL      142
REMARK 921   NORMALIZED FREE ENERGY PREDICTED BY IDOCK:   -3.18 KCAL/MOL
REMARK 922        TOTAL FREE ENERGY PREDICTED BY IDOCK:   -3.85 KCAL/MOL
REMARK 923 INTER-LIGAND FREE ENERGY PREDICTED BY IDOCK:   -3.55 KCAL/MOL
REMARK 924 INTRA-LIGAND FREE ENERGY PREDICTED BY IDOCK:   -0.30 KCAL/MOL
REMARK 927      BINDING AFFINITY PREDICTED BY RF-SCORE:    0.00 PKD
ROOT
HETATM    1 BR   UNL     1      -6.524  20.235  68.359  1.00  0.00    -0.340 Br 
HETATM    2  C   UNL     1      -7.417  18.754  67.529  1.00  0.00    -0.228 A  
HETATM    3  C   UNL     1      -6.819  17.476  67.595  1.00  0.00    -0.163 A  
HETATM    4  N   UNL     1     -10.457  17.993  65.609  1.00  0.00    -0.621 NA 
HETATM    5  C   UNL     1      -7.513  16.416  67.015  1.00  0.00    -0.250 A  
HETATM    6  C   UNL     1      -8.638  18.987  66.864  1.00  0.00    -0.295 A  
HETATM    7  C   UNL     1     -10.983  19.230  65.524  1.00  0.00     0.072 A  
HETATM    8  C   UNL     1      -8.724  16.620  66.360  1.00  0.00    -0.345 A  
HETATM    9  C   UNL     1      -9.289  17.877  66.269  1.00  0.00    -0.197 A  
HETATM   10  N   UNL     1      -9.205  20.221  66.767  1.00  0.00    -0.345 NA 
HETATM   11  C   UNL     1     -10.369  20.323  66.090  1.00  0.00    -0.268 A  
ENDROOT
BRANCH   3  12
HETATM   12  N   UNL     1      -5.575  17.274  68.240  1.00  0.00    -0.134 NA 
HETATM   13  H   UNL     1      -4.749  17.676  67.797  1.00  0.00     0.000 HD 
BRANCH  12  14
HETATM   14  C   UNL     1      -5.387  16.587  69.400  1.00  0.00    -0.138 A  
HETATM   15  C   UNL     1      -5.125  16.522  71.662  1.00  0.00     0.192 A  
HETATM   16  N   UNL     1      -5.331  17.381  70.510  1.00  0.00    -0.255 NA 
HETATM   17  H   UNL     1      -5.200  14.585  68.862  1.00  0.00     0.000 HD 
HETATM   18  N   UNL     1      -5.245  15.309  69.580  1.00  0.00    -0.093 NA 
HETATM   19  C   UNL     1      -5.159  15.124  71.046  1.00  0.00    -0.141 A  
ENDBRANCH  12  14
ENDBRANCH   3  12
TORSDOF 2
ENDMDL
MODEL      143
REMARK 921   NORMALIZED FREE ENERGY PREDICTED BY IDOCK:   -3.17 KCAL/MOL
REMARK 922        TOTAL FREE ENERGY PREDICTED BY IDOCK:   -3.83 KCAL/MOL
REMARK 923 INTER-LIGAND FREE ENERGY PREDICTED BY IDOCK:   -3.56 KCAL/MOL
REMARK 924 INTRA-LIGAND FREE ENERGY PREDICTED BY IDOCK:   -0.27 KCAL/MOL
REMARK 927      BINDING AFFINITY PREDICTED BY RF-SCORE:    0.00 PKD
ROOT
HETATM    1 BR   UNL     1      -7.850   6.366  69.855  1.00  0.00    -0.116 Br 
HETATM    2  C   UNL     1      -9.152   7.707  70.291  1.00  0.00    -0.149 A  
HETATM    3  C   UNL     1      -9.542   7.861  71.639  1.00  0.00    -0.163 A  
HETATM    4  N   UNL     1     -11.217  10.282  68.676  1.00  0.00    -0.234 NA 
HETATM    5  C   UNL     1     -10.461   8.869  71.926  1.00  0.00    -0.415 A  
HETATM    6  C   UNL     1      -9.691   8.490  69.250  1.00  0.00    -0.173 A  
HETATM    7  C   UNL     1     -10.858  10.085  67.394  1.00  0.00    -0.249 A  
HETATM    8  C   UNL     1     -11.001   9.660  70.916  1.00  0.00    -0.412 A  
HETATM    9  C   UNL     1     -10.640   9.484  69.595  1.00  0.00    -0.228 A  
HETATM   10  N   UNL     1      -9.344   8.325  67.944  1.00  0.00    -0.138 NA 
HETATM   11  C   UNL     1      -9.942   9.124  67.034  1.00  0.00    -0.230 A  
ENDROOT
BRANCH   3  12
HETATM   12  N   UNL     1      -9.011   7.039  72.663  1.00  0.00    -0.123 NA 
HETATM   13  H   UNL     1      -8.064   7.244  72.981  1.00  0.00     0.000 HD 
BRANCH  12  14
HETATM   14  C   UNL     1      -9.657   5.999  73.258  1.00  0.00    -0.143 A  
HETATM   15  C   UNL     1     -11.061   4.207  73.170  1.00  0.00    -0.173 A  
HETATM   16  N   UNL     1     -10.436   5.270  72.404  1.00  0.00    -0.208 NA 
HETATM   17  H   UNL     1      -9.163   6.092  75.277  1.00  0.00     0.000 HD 
HETATM   18  N   UNL     1      -9.638   5.629  74.503  1.00  0.00    -0.158 NA 
HETATM   19  C   UNL     1     -10.453   4.394  74.560  1.00  0.00    -0.249 A  
ENDBRANCH  12  14
ENDBRANCH   3  12
TORSDOF 2
ENDMDL
MODEL      144
REMARK 921   NORMALIZED FREE ENERGY PREDICTED BY IDOCK:   -3.17 KCAL/MOL
REMARK 922        TOTAL FREE ENERGY PREDICTED BY IDOCK:   -3.83 KCAL/MOL
REMARK 923 INTER-LIGAND FREE ENERGY PREDICTED BY IDOCK:   -3.67 KCAL/MOL
REMARK 924 INTRA-LIGAND FREE ENERGY PREDICTED BY IDOCK:   -0.16 KCAL/MOL
REMARK 927      BINDING AFFINITY PREDICTED BY RF-SCORE:    0.00 PKD
ROOT
HETATM    1 BR   UNL     1     -10.945   6.407  68.153  1.00  0.00    -0.365 Br 
HETATM    2  C   UNL     1      -9.675   7.593  68.966  1.00  0.00    -0.160 A  
HETATM    3  C   UNL     1      -9.876   7.987  70.308  1.00  0.00    -0.184 A  
HETATM    4  N   UNL     1      -6.580   9.408  68.171  1.00  0.00    -0.058 NA 
HETATM    5  C   UNL     1      -8.915   8.819  70.879  1.00  0.00    -0.247 A  
HETATM    6  C   UNL     1      -8.586   8.049  68.196  1.00  0.00    -0.126 A  
HETATM    7  C   UNL     1      -6.436   9.050  66.881  1.00  0.00    -0.064 A  
HETATM    8  C   UNL     1      -7.826   9.275  70.141  1.00  0.00    -0.129 A  
HETATM    9  C   UNL     1      -7.652   8.914  68.819  1.00  0.00    -0.091 A  
HETATM   10  N   UNL     1      -8.403   7.701  66.893  1.00  0.00    -0.122 NA 
HETATM   11  C   UNL     1      -7.331   8.215  66.253  1.00  0.00    -0.078 A  
ENDROOT
BRANCH   3  12
HETATM   12  N   UNL     1     -10.996   7.543  71.050  1.00  0.00    -0.247 NA 
HETATM   13  H   UNL     1     -11.022   6.557  71.311  1.00  0.00     0.000 HD 
BRANCH  12  14
HETATM   14  C   UNL     1     -12.042   8.319  71.445  1.00  0.00    -0.300 A  
HETATM   15  C   UNL     1     -14.180   8.558  72.194  1.00  0.00    -0.434 A  
HETATM   16  N   UNL     1     -13.153   7.609  71.804  1.00  0.00    -0.337 NA 
HETATM   17  H   UNL     1     -11.413  10.291  71.226  1.00  0.00     0.000 HD 
HETATM   18  N   UNL     1     -12.121   9.614  71.511  1.00  0.00    -0.376 NA 
HETATM   19  C   UNL     1     -13.455   9.899  72.085  1.00  0.00    -0.356 A  
ENDBRANCH  12  14
ENDBRANCH   3  12
TORSDOF 2
ENDMDL
MODEL      145
REMARK 921   NORMALIZED FREE ENERGY PREDICTED BY IDOCK:   -3.16 KCAL/MOL
REMARK 922        TOTAL FREE ENERGY PREDICTED BY IDOCK:   -3.83 KCAL/MOL
REMARK 923 INTER-LIGAND FREE ENERGY PREDICTED BY IDOCK:   -3.68 KCAL/MOL
REMARK 924 INTRA-LIGAND FREE ENERGY PREDICTED BY IDOCK:   -0.15 KCAL/MOL
REMARK 927      BINDING AFFINITY PREDICTED BY RF-SCORE:    0.00 PKD
ROOT
HETATM    1 BR   UNL     1      -9.387  14.911  67.954  1.00  0.00    -0.194 Br 
HETATM    2  C   UNL     1      -8.335  16.516  67.987  1.00  0.00    -0.180 A  
HETATM    3  C   UNL     1      -7.089  16.497  68.653  1.00  0.00    -0.175 A  
HETATM    4  N   UNL     1      -8.439  19.997  66.816  1.00  0.00    -0.318 NA 
HETATM    5  C   UNL     1      -6.334  17.668  68.625  1.00  0.00    -0.192 A  
HETATM    6  C   UNL     1      -8.843  17.670  67.359  1.00  0.00    -0.235 A  
HETATM    7  C   UNL     1      -9.649  19.998  66.225  1.00  0.00    -0.407 A  
HETATM    8  C   UNL     1      -6.811  18.818  68.004  1.00  0.00    -0.244 A  
HETATM    9  C   UNL     1      -8.044  18.841  67.383  1.00  0.00    -0.251 A  
HETATM   10  N   UNL     1     -10.057  17.706  66.745  1.00  0.00    -0.320 NA 
HETATM   11  C   UNL     1     -10.444  18.876  66.192  1.00  0.00    -0.457 A  
ENDROOT
BRANCH   3  12
HETATM   12  N   UNL     1      -6.616  15.333  69.306  1.00  0.00    -0.130 NA 
HETATM   13  H   UNL     1      -6.675  15.313  70.324  1.00  0.00     0.000 HD 
BRANCH  12  14
HETATM   14  C   UNL     1      -6.088  14.240  68.691  1.00  0.00    -0.088 A  
HETATM   15  C   UNL     1      -5.780  11.988  68.541  1.00  0.00    -0.052 A  
HETATM   16  N   UNL     1      -6.409  13.057  69.295  1.00  0.00    -0.102 NA 
HETATM   17  H   UNL     1      -4.948  14.962  67.107  1.00  0.00     0.000 HD 
HETATM   18  N   UNL     1      -5.329  14.180  67.639  1.00  0.00    -0.333 NA 
HETATM   19  C   UNL     1      -5.131  12.736  67.377  1.00  0.00    -0.002 A  
ENDBRANCH  12  14
ENDBRANCH   3  12
TORSDOF 2
ENDMDL
MODEL      146
REMARK 921   NORMALIZED FREE ENERGY PREDICTED BY IDOCK:   -3.05 KCAL/MOL
REMARK 922        TOTAL FREE ENERGY PREDICTED BY IDOCK:   -3.70 KCAL/MOL
REMARK 923 INTER-LIGAND FREE ENERGY PREDICTED BY IDOCK:   -3.43 KCAL/MOL
REMARK 924 INTRA-LIGAND FREE ENERGY PREDICTED BY IDOCK:   -0.28 KCAL/MOL
REMARK 927      BINDING AFFINITY PREDICTED BY RF-SCORE:    0.00 PKD
ROOT
HETATM    1 BR   UNL     1     -10.696   8.256  69.807  1.00  0.00    -0.187 Br 
HETATM    2  C   UNL     1     -10.059   8.294  67.997  1.00  0.00    -0.198 A  
HETATM    3  C   UNL     1     -10.360   9.416  67.195  1.00  0.00    -0.258 A  
HETATM    4  N   UNL     1      -8.137   6.247  65.627  1.00  0.00    -0.122 NA 
HETATM    5  C   UNL     1      -9.850   9.428  65.898  1.00  0.00    -0.362 A  
HETATM    6  C   UNL     1      -9.321   7.193  67.517  1.00  0.00    -0.124 A  
HETATM    7  C   UNL     1      -7.901   5.171  66.400  1.00  0.00    -0.103 A  
HETATM    8  C   UNL     1      -9.112   8.357  65.404  1.00  0.00    -0.050 A  
HETATM    9  C   UNL     1      -8.848   7.247  66.182  1.00  0.00    -0.158 A  
HETATM   10  N   UNL     1      -9.055   6.093  68.273  1.00  0.00    -0.114 NA 
HETATM   11  C   UNL     1      -8.353   5.093  67.697  1.00  0.00    -0.105 A  
ENDROOT
BRANCH   3  12
HETATM   12  N   UNL     1     -11.132  10.495  67.690  1.00  0.00    -0.316 NA 
HETATM   13  H   UNL     1     -12.034  10.269  68.110  1.00  0.00     0.000 HD 
BRANCH  12  14
HETATM   14  C   UNL     1     -10.774  11.807  67.652  1.00  0.00    -0.214 A  
HETATM   15  C   UNL     1     -11.063  13.935  66.892  1.00  0.00    -0.301 A  
HETATM   16  N   UNL     1     -11.560  12.572  66.837  1.00  0.00    -0.352 NA 
HETATM   17  H   UNL     1      -9.087  11.980  68.859  1.00  0.00     0.000 HD 
HETATM   18  N   UNL     1      -9.799  12.407  68.266  1.00  0.00    -0.223 NA 
HETATM   19  C   UNL     1      -9.938  13.840  67.922  1.00  0.00    -0.240 A  
ENDBRANCH  12  14
ENDBRANCH   3  12
TORSDOF 2
ENDMDL
MODEL      147
REMARK 921   NORMALIZED FREE ENERGY PREDICTED BY IDOCK:   -3.04 KCAL/MOL
REMARK 922        TOTAL FREE ENERGY PREDICTED BY IDOCK:   -3.69 KCAL/MOL
REMARK 923 INTER-LIGAND FREE ENERGY PREDICTED BY IDOCK:   -3.40 KCAL/MOL
REMARK 924 INTRA-LIGAND FREE ENERGY PREDICTED BY IDOCK:   -0.29 KCAL/MOL
REMARK 927      BINDING AFFINITY PREDICTED BY RF-SCORE:    0.00 PKD
ROOT
HETATM    1 BR   UNL     1      -7.186   7.536  68.813  1.00  0.00    -0.084 Br 
HETATM    2  C   UNL     1      -8.995   7.097  69.277  1.00  0.00    -0.138 A  
HETATM    3  C   UNL     1      -9.849   6.589  68.274  1.00  0.00    -0.132 A  
HETATM    4  N   UNL     1     -11.267   7.134  72.165  1.00  0.00    -0.247 NA 
HETATM    5  C   UNL     1     -11.145   6.246  68.654  1.00  0.00    -0.409 A  
HETATM    6  C   UNL     1      -9.423   7.310  70.603  1.00  0.00    -0.164 A  
HETATM    7  C   UNL     1     -10.444   7.659  73.091  1.00  0.00    -0.374 A  
HETATM    8  C   UNL     1     -11.588   6.438  69.959  1.00  0.00    -0.446 A  
HETATM    9  C   UNL     1     -10.759   6.967  70.929  1.00  0.00    -0.230 A  
HETATM   10  N   UNL     1      -8.616   7.830  71.568  1.00  0.00    -0.114 NA 
HETATM   11  C   UNL     1      -9.144   8.004  72.799  1.00  0.00    -0.238 A  
ENDROOT
BRANCH   3  12
HETATM   12  N   UNL     1      -9.405   6.417  66.941  1.00  0.00    -0.130 NA 
HETATM   13  H   UNL     1      -9.325   7.254  66.364  1.00  0.00     0.000 HD 
BRANCH  12  14
HETATM   14  C   UNL     1      -9.076   5.229  66.363  1.00  0.00    -0.137 A  
HETATM   15  C   UNL     1      -9.589   3.432  65.061  1.00  0.00    -0.141 A  
HETATM   16  N   UNL     1     -10.075   4.687  65.606  1.00  0.00    -0.220 NA 
HETATM   17  H   UNL     1      -7.150   4.784  67.015  1.00  0.00     0.000 HD 
HETATM   18  N   UNL     1      -7.968   4.557  66.450  1.00  0.00    -0.102 NA 
HETATM   19  C   UNL     1      -8.143   3.391  65.553  1.00  0.00    -0.093 A  
ENDBRANCH  12  14
ENDBRANCH   3  12
TORSDOF 2
ENDMDL
MODEL      148
REMARK 921   NORMALIZED FREE ENERGY PREDICTED BY IDOCK:   -3.03 KCAL/MOL
REMARK 922        TOTAL FREE ENERGY PREDICTED BY IDOCK:   -3.68 KCAL/MOL
REMARK 923 INTER-LIGAND FREE ENERGY PREDICTED BY IDOCK:   -3.46 KCAL/MOL
REMARK 924 INTRA-LIGAND FREE ENERGY PREDICTED BY IDOCK:   -0.22 KCAL/MOL
REMARK 927      BINDING AFFINITY PREDICTED BY RF-SCORE:    0.00 PKD
ROOT
HETATM    1 BR   UNL     1      -7.131   8.082  68.683  1.00  0.00    -0.073 Br 
HETATM    2  C   UNL     1      -8.693   8.156  69.795  1.00  0.00    -0.135 A  
HETATM    3  C   UNL     1      -9.254   9.416  70.094  1.00  0.00    -0.234 A  
HETATM    4  N   UNL     1     -10.973   5.933  71.629  1.00  0.00    -0.267 NA 
HETATM    5  C   UNL     1     -10.410   9.431  70.873  1.00  0.00    -0.380 A  
HETATM    6  C   UNL     1      -9.226   6.950  70.293  1.00  0.00    -0.156 A  
HETATM    7  C   UNL     1     -10.392   4.747  71.363  1.00  0.00    -0.122 A  
HETATM    8  C   UNL     1     -10.960   8.253  71.369  1.00  0.00    -0.301 A  
HETATM    9  C   UNL     1     -10.388   7.025  71.101  1.00  0.00    -0.206 A  
HETATM   10  N   UNL     1      -8.671   5.733  70.038  1.00  0.00    -0.130 NA 
HETATM   11  C   UNL     1      -9.262   4.649  70.585  1.00  0.00    -0.136 A  
ENDROOT
BRANCH   3  12
HETATM   12  N   UNL     1      -8.681  10.616  69.609  1.00  0.00    -0.389 NA 
HETATM   13  H   UNL     1      -8.006  11.087  70.211  1.00  0.00     0.000 HD 
BRANCH  12  14
HETATM   14  C   UNL     1      -8.953  11.195  68.407  1.00  0.00    -0.165 A  
HETATM   15  C   UNL     1      -8.874  12.970  66.982  1.00  0.00    -0.212 A  
HETATM   16  N   UNL     1      -8.514  12.484  68.302  1.00  0.00    -0.173 NA 
HETATM   17  H   UNL     1     -10.014   9.778  67.312  1.00  0.00     0.000 HD 
HETATM   18  N   UNL     1      -9.573  10.695  67.381  1.00  0.00    -0.157 NA 
HETATM   19  C   UNL     1      -9.503  11.738  66.332  1.00  0.00    -0.221 A  
ENDBRANCH  12  14
ENDBRANCH   3  12
TORSDOF 2
ENDMDL
MODEL      149
REMARK 921   NORMALIZED FREE ENERGY PREDICTED BY IDOCK:   -3.00 KCAL/MOL
REMARK 922        TOTAL FREE ENERGY PREDICTED BY IDOCK:   -3.64 KCAL/MOL
REMARK 923 INTER-LIGAND FREE ENERGY PREDICTED BY IDOCK:   -3.38 KCAL/MOL
REMARK 924 INTRA-LIGAND FREE ENERGY PREDICTED BY IDOCK:   -0.27 KCAL/MOL
REMARK 927      BINDING AFFINITY PREDICTED BY RF-SCORE:    0.00 PKD
ROOT
HETATM    1 BR   UNL     1      -7.564   7.754  68.850  1.00  0.00    -0.102 Br 
HETATM    2  C   UNL     1      -8.903   6.763  67.897  1.00  0.00    -0.118 A  
HETATM    3  C   UNL     1     -10.204   7.301  67.799  1.00  0.00    -0.195 A  
HETATM    4  N   UNL     1      -9.317   3.612  66.052  1.00  0.00    -0.165 NA 
HETATM    5  C   UNL     1     -11.142   6.573  67.068  1.00  0.00    -0.411 A  
HETATM    6  C   UNL     1      -8.551   5.519  67.335  1.00  0.00    -0.108 A  
HETATM    7  C   UNL     1      -8.080   3.102  66.197  1.00  0.00    -0.089 A  
HETATM    8  C   UNL     1     -10.815   5.347  66.496  1.00  0.00    -0.222 A  
HETATM    9  C   UNL     1      -9.550   4.809  66.623  1.00  0.00    -0.174 A  
HETATM   10  N   UNL     1      -7.308   4.978  67.454  1.00  0.00    -0.081 NA 
HETATM   11  C   UNL     1      -7.094   3.771  66.887  1.00  0.00    -0.063 A  
ENDROOT
BRANCH   3  12
HETATM   12  N   UNL     1     -10.543   8.537  68.401  1.00  0.00    -0.383 NA 
HETATM   13  H   UNL     1     -10.604   8.558  69.419  1.00  0.00     0.000 HD 
BRANCH  12  14
HETATM   14  C   UNL     1     -10.792   9.698  67.737  1.00  0.00    -0.217 A  
HETATM   15  C   UNL     1     -11.719  11.777  67.628  1.00  0.00    -0.250 A  
HETATM   16  N   UNL     1     -11.527  10.599  68.455  1.00  0.00    -0.336 NA 
HETATM   17  H   UNL     1      -9.947   9.477  65.848  1.00  0.00     0.000 HD 
HETATM   18  N   UNL     1     -10.441  10.046  66.536  1.00  0.00    -0.189 NA 
HETATM   19  C   UNL     1     -10.911  11.441  66.375  1.00  0.00    -0.271 A  
ENDBRANCH  12  14
ENDBRANCH   3  12
TORSDOF 2
ENDMDL
MODEL      150
REMARK 921   NORMALIZED FREE ENERGY PREDICTED BY IDOCK:   -2.98 KCAL/MOL
REMARK 922        TOTAL FREE ENERGY PREDICTED BY IDOCK:   -3.63 KCAL/MOL
REMARK 923 INTER-LIGAND FREE ENERGY PREDICTED BY IDOCK:   -3.49 KCAL/MOL
REMARK 924 INTRA-LIGAND FREE ENERGY PREDICTED BY IDOCK:   -0.14 KCAL/MOL
REMARK 927      BINDING AFFINITY PREDICTED BY RF-SCORE:    0.00 PKD
ROOT
HETATM    1 BR   UNL     1      -7.097  11.994  67.299  1.00  0.00    -0.139 Br 
HETATM    2  C   UNL     1      -8.941  11.582  67.634  1.00  0.00    -0.160 A  
HETATM    3  C   UNL     1      -9.256  10.395  68.331  1.00  0.00    -0.147 A  
HETATM    4  N   UNL     1     -12.303  12.935  67.023  1.00  0.00    -0.314 NA 
HETATM    5  C   UNL     1     -10.602  10.146  68.590  1.00  0.00    -0.236 A  
HETATM    6  C   UNL     1      -9.929  12.470  67.162  1.00  0.00    -0.216 A  
HETATM    7  C   UNL     1     -11.977  14.038  66.324  1.00  0.00    -0.432 A  
HETATM    8  C   UNL     1     -11.595  11.012  68.142  1.00  0.00    -0.345 A  
HETATM    9  C   UNL     1     -11.284  12.155  67.432  1.00  0.00    -0.302 A  
HETATM   10  N   UNL     1      -9.636  13.599  66.461  1.00  0.00    -0.284 NA 
HETATM   11  C   UNL     1     -10.669  14.364  66.046  1.00  0.00    -0.302 A  
ENDROOT
BRANCH   3  12
HETATM   12  N   UNL     1      -8.247   9.502  68.766  1.00  0.00    -0.110 NA 
HETATM   13  H   UNL     1      -7.603   9.838  69.481  1.00  0.00     0.000 HD 
BRANCH  12  14
HETATM   14  C   UNL     1      -8.063   8.233  68.309  1.00  0.00    -0.124 A  
HETATM   15  C   UNL     1      -6.716   6.555  67.561  1.00  0.00    -0.067 A  
HETATM   16  N   UNL     1      -6.760   7.925  68.040  1.00  0.00    -0.066 NA 
HETATM   17  H   UNL     1      -9.960   7.386  68.180  1.00  0.00     0.000 HD 
HETATM   18  N   UNL     1      -8.947   7.307  68.090  1.00  0.00    -0.132 NA 
HETATM   19  C   UNL     1      -8.174   6.112  67.683  1.00  0.00    -0.113 A  
ENDBRANCH  12  14
ENDBRANCH   3  12
TORSDOF 2
ENDMDL
MODEL      151
REMARK 921   NORMALIZED FREE ENERGY PREDICTED BY IDOCK:   -2.86 KCAL/MOL
REMARK 922        TOTAL FREE ENERGY PREDICTED BY IDOCK:   -3.49 KCAL/MOL
REMARK 923 INTER-LIGAND FREE ENERGY PREDICTED BY IDOCK:   -3.36 KCAL/MOL
REMARK 924 INTRA-LIGAND FREE ENERGY PREDICTED BY IDOCK:   -0.12 KCAL/MOL
REMARK 927      BINDING AFFINITY PREDICTED BY RF-SCORE:    0.00 PKD
ROOT
HETATM    1 BR   UNL     1      -7.060   9.551  69.241  1.00  0.00    -0.061 Br 
HETATM    2  C   UNL     1      -8.359   9.964  67.891  1.00  0.00    -0.114 A  
HETATM    3  C   UNL     1      -9.027   8.901  67.245  1.00  0.00    -0.128 A  
HETATM    4  N   UNL     1      -9.872  12.858  66.206  1.00  0.00    -0.270 NA 
HETATM    5  C   UNL     1      -9.991   9.238  66.296  1.00  0.00    -0.357 A  
HETATM    6  C   UNL     1      -8.598  11.316  67.574  1.00  0.00    -0.134 A  
HETATM    7  C   UNL     1      -9.190  13.850  66.809  1.00  0.00    -0.254 A  
HETATM    8  C   UNL     1     -10.251  10.566  65.973  1.00  0.00    -0.310 A  
HETATM    9  C   UNL     1      -9.572  11.601  66.584  1.00  0.00    -0.204 A  
HETATM   10  N   UNL     1      -7.935  12.345  68.169  1.00  0.00    -0.144 NA 
HETATM   11  C   UNL     1      -8.238  13.599  67.770  1.00  0.00    -0.179 A  
ENDROOT
BRANCH   3  12
HETATM   12  N   UNL     1      -8.745   7.550  67.557  1.00  0.00    -0.125 NA 
HETATM   13  H   UNL     1      -8.064   7.068  66.970  1.00  0.00     0.000 HD 
BRANCH  12  14
HETATM   14  C   UNL     1      -9.304   6.839  68.574  1.00  0.00    -0.126 A  
HETATM   15  C   UNL     1     -11.124   6.032  69.681  1.00  0.00    -0.404 A  
HETATM   16  N   UNL     1     -10.670   6.815  68.546  1.00  0.00    -0.227 NA 
HETATM   17  H   UNL     1      -7.722   6.175  69.753  1.00  0.00     0.000 HD 
HETATM   18  N   UNL     1      -8.721   6.208  69.548  1.00  0.00    -0.129 NA 
HETATM   19  C   UNL     1      -9.813   5.549  70.300  1.00  0.00    -0.198 A  
ENDBRANCH  12  14
ENDBRANCH   3  12
TORSDOF 2
ENDMDL
MODEL      152
REMARK 921   NORMALIZED FREE ENERGY PREDICTED BY IDOCK:   -2.82 KCAL/MOL
REMARK 922        TOTAL FREE ENERGY PREDICTED BY IDOCK:   -3.45 KCAL/MOL
REMARK 923 INTER-LIGAND FREE ENERGY PREDICTED BY IDOCK:   -3.15 KCAL/MOL
REMARK 924 INTRA-LIGAND FREE ENERGY PREDICTED BY IDOCK:   -0.30 KCAL/MOL
REMARK 927      BINDING AFFINITY PREDICTED BY RF-SCORE:    0.00 PKD
ROOT
HETATM    1 BR   UNL     1      -7.308   9.566  64.315  1.00  0.00    -0.124 Br 
HETATM    2  C   UNL     1      -8.315   8.572  65.612  1.00  0.00    -0.148 A  
HETATM    3  C   UNL     1      -9.598   9.037  65.975  1.00  0.00    -0.272 A  
HETATM    4  N   UNL     1      -8.043   5.574  67.718  1.00  0.00    -0.101 NA 
HETATM    5  C   UNL     1     -10.317   8.271  66.891  1.00  0.00    -0.391 A  
HETATM    6  C   UNL     1      -7.738   7.416  66.174  1.00  0.00    -0.094 A  
HETATM    7  C   UNL     1      -6.800   5.178  67.385  1.00  0.00    -0.057 A  
HETATM    8  C   UNL     1      -9.772   7.121  67.454  1.00  0.00    -0.186 A  
HETATM    9  C   UNL     1      -8.503   6.689  67.120  1.00  0.00    -0.113 A  
HETATM   10  N   UNL     1      -6.489   6.981  65.854  1.00  0.00    -0.050 NA 
HETATM   11  C   UNL     1      -6.036   5.869  66.473  1.00  0.00    -0.026 A  
ENDROOT
BRANCH   3  12
HETATM   12  N   UNL     1     -10.142  10.220  65.420  1.00  0.00    -0.298 NA 
HETATM   13  H   UNL     1     -10.518  10.162  64.474  1.00  0.00     0.000 HD 
BRANCH  12  14
HETATM   14  C   UNL     1     -10.207  11.429  66.043  1.00  0.00    -0.245 A  
HETATM   15  C   UNL     1     -11.207  13.446  66.388  1.00  0.00    -0.304 A  
HETATM   16  N   UNL     1     -11.267  12.196  65.653  1.00  0.00    -0.324 NA 
HETATM   17  H   UNL     1      -8.537  11.530  67.281  1.00  0.00     0.000 HD 
HETATM   18  N   UNL     1      -9.402  11.937  66.927  1.00  0.00    -0.191 NA 
HETATM   19  C   UNL     1     -10.006  13.233  67.310  1.00  0.00    -0.231 A  
ENDBRANCH  12  14
ENDBRANCH   3  12
TORSDOF 2
ENDMDL
MODEL      153
REMARK 921   NORMALIZED FREE ENERGY PREDICTED BY IDOCK:   -2.82 KCAL/MOL
REMARK 922        TOTAL FREE ENERGY PREDICTED BY IDOCK:   -3.45 KCAL/MOL
REMARK 923 INTER-LIGAND FREE ENERGY PREDICTED BY IDOCK:   -3.52 KCAL/MOL
REMARK 924 INTRA-LIGAND FREE ENERGY PREDICTED BY IDOCK:    0.07 KCAL/MOL
REMARK 927      BINDING AFFINITY PREDICTED BY RF-SCORE:    0.00 PKD
ROOT
HETATM    1 BR   UNL     1      -7.925  16.558  67.961  1.00  0.00    -0.168 Br 
HETATM    2  C   UNL     1      -9.028  15.137  67.295  1.00  0.00    -0.199 A  
HETATM    3  C   UNL     1      -8.874  13.845  67.843  1.00  0.00    -0.184 A  
HETATM    4  N   UNL     1     -11.674  14.526  64.819  1.00  0.00    -0.402 NA 
HETATM    5  C   UNL     1      -9.717  12.844  67.363  1.00  0.00    -0.201 A  
HETATM    6  C   UNL     1      -9.950  15.421  66.267  1.00  0.00    -0.288 A  
HETATM    7  C   UNL     1     -11.770  15.758  64.285  1.00  0.00    -0.162 A  
HETATM    8  C   UNL     1     -10.641  13.102  66.355  1.00  0.00    -0.293 A  
HETATM    9  C   UNL     1     -10.765  14.361  65.799  1.00  0.00    -0.307 A  
HETATM   10  N   UNL     1     -10.081  16.656  65.711  1.00  0.00    -0.517 NA 
HETATM   11  C   UNL     1     -10.987  16.803  64.720  1.00  0.00    -0.025 A  
ENDROOT
BRANCH   3  12
HETATM   12  N   UNL     1      -7.917  13.577  68.851  1.00  0.00    -0.339 NA 
HETATM   13  H   UNL     1      -7.958  14.146  69.696  1.00  0.00     0.000 HD 
BRANCH  12  14
HETATM   14  C   UNL     1      -6.947  12.624  68.788  1.00  0.00    -0.096 A  
HETATM   15  C   UNL     1      -5.701  11.116  67.621  1.00  0.00    -0.044 A  
HETATM   16  N   UNL     1      -6.752  12.115  67.536  1.00  0.00    -0.115 NA 
HETATM   17  H   UNL     1      -6.268  12.362  70.739  1.00  0.00     0.000 HD 
HETATM   18  N   UNL     1      -6.212  12.141  69.745  1.00  0.00    -0.139 NA 
HETATM   19  C   UNL     1      -5.277  11.200  69.086  1.00  0.00    -0.040 A  
ENDBRANCH  12  14
ENDBRANCH   3  12
TORSDOF 2
ENDMDL
MODEL      154
REMARK 921   NORMALIZED FREE ENERGY PREDICTED BY IDOCK:   -2.81 KCAL/MOL
REMARK 922        TOTAL FREE ENERGY PREDICTED BY IDOCK:   -3.44 KCAL/MOL
REMARK 923 INTER-LIGAND FREE ENERGY PREDICTED BY IDOCK:   -3.14 KCAL/MOL
REMARK 924 INTRA-LIGAND FREE ENERGY PREDICTED BY IDOCK:   -0.30 KCAL/MOL
REMARK 927      BINDING AFFINITY PREDICTED BY RF-SCORE:    0.00 PKD
ROOT
HETATM    1 BR   UNL     1      -7.294   8.405  70.254  1.00  0.00    -0.058 Br 
HETATM    2  C   UNL     1      -8.877   7.323  70.179  1.00  0.00    -0.145 A  
HETATM    3  C   UNL     1      -8.787   6.026  69.628  1.00  0.00    -0.133 A  
HETATM    4  N   UNL     1     -12.447   7.462  71.041  1.00  0.00    -0.289 NA 
HETATM    5  C   UNL     1      -9.948   5.254  69.623  1.00  0.00    -0.302 A  
HETATM    6  C   UNL     1     -10.087   7.861  70.661  1.00  0.00    -0.194 A  
HETATM    7  C   UNL     1     -12.513   8.718  71.521  1.00  0.00    -0.326 A  
HETATM    8  C   UNL     1     -11.152   5.760  70.102  1.00  0.00    -0.323 A  
HETATM    9  C   UNL     1     -11.242   7.042  70.609  1.00  0.00    -0.288 A  
HETATM   10  N   UNL     1     -10.189   9.123  71.162  1.00  0.00    -0.289 NA 
HETATM   11  C   UNL     1     -11.407   9.534  71.579  1.00  0.00    -0.385 A  
ENDROOT
BRANCH   3  12
HETATM   12  N   UNL     1      -7.567   5.520  69.119  1.00  0.00    -0.085 NA 
HETATM   13  H   UNL     1      -6.821   5.339  69.790  1.00  0.00     0.000 HD 
BRANCH  12  14
HETATM   14  C   UNL     1      -7.305   5.256  67.810  1.00  0.00    -0.076 A  
HETATM   15  C   UNL     1      -6.811   3.804  66.126  1.00  0.00    -0.057 A  
HETATM   16  N   UNL     1      -7.078   3.935  67.547  1.00  0.00    -0.055 NA 
HETATM   17  H   UNL     1      -7.314   7.096  66.836  1.00  0.00     0.000 HD 
HETATM   18  N   UNL     1      -7.232   6.080  66.808  1.00  0.00    -0.070 NA 
HETATM   19  C   UNL     1      -7.005   5.231  65.616  1.00  0.00    -0.066 A  
ENDBRANCH  12  14
ENDBRANCH   3  12
TORSDOF 2
ENDMDL
MODEL      155
REMARK 921   NORMALIZED FREE ENERGY PREDICTED BY IDOCK:   -2.80 KCAL/MOL
REMARK 922        TOTAL FREE ENERGY PREDICTED BY IDOCK:   -3.42 KCAL/MOL
REMARK 923 INTER-LIGAND FREE ENERGY PREDICTED BY IDOCK:   -3.14 KCAL/MOL
REMARK 924 INTRA-LIGAND FREE ENERGY PREDICTED BY IDOCK:   -0.29 KCAL/MOL
REMARK 927      BINDING AFFINITY PREDICTED BY RF-SCORE:    0.00 PKD
ROOT
HETATM    1 BR   UNL     1      -6.786   7.143  69.000  1.00  0.00    -0.058 Br 
HETATM    2  C   UNL     1      -8.099   7.810  67.771  1.00  0.00    -0.125 A  
HETATM    3  C   UNL     1      -9.466   7.621  68.070  1.00  0.00    -0.143 A  
HETATM    4  N   UNL     1      -8.334   9.583  64.560  1.00  0.00    -0.152 NA 
HETATM    5  C   UNL     1     -10.394   8.151  67.175  1.00  0.00    -0.391 A  
HETATM    6  C   UNL     1      -7.661   8.456  66.597  1.00  0.00    -0.089 A  
HETATM    7  C   UNL     1      -7.023   9.711  64.279  1.00  0.00    -0.116 A  
HETATM    8  C   UNL     1      -9.985   8.801  66.014  1.00  0.00    -0.153 A  
HETATM    9  C   UNL     1      -8.647   8.954  65.709  1.00  0.00    -0.160 A  
HETATM   10  N   UNL     1      -6.345   8.612  66.285  1.00  0.00    -0.060 NA 
HETATM   11  C   UNL     1      -6.048   9.234  65.124  1.00  0.00    -0.064 A  
ENDROOT
BRANCH   3  12
HETATM   12  N   UNL     1      -9.882   6.939  69.239  1.00  0.00    -0.156 NA 
HETATM   13  H   UNL     1      -9.474   6.020  69.412  1.00  0.00     0.000 HD 
BRANCH  12  14
HETATM   14  C   UNL     1     -10.778   7.405  70.151  1.00  0.00    -0.242 A  
HETATM   15  C   UNL     1     -11.466   8.972  71.654  1.00  0.00    -0.361 A  
HETATM   16  N   UNL     1     -10.430   8.603  70.706  1.00  0.00    -0.197 NA 
HETATM   17  H   UNL     1     -12.260   5.951  70.297  1.00  0.00     0.000 HD 
HETATM   18  N   UNL     1     -11.885   6.862  70.560  1.00  0.00    -0.352 NA 
HETATM   19  C   UNL     1     -12.487   7.847  71.487  1.00  0.00    -0.318 A  
ENDBRANCH  12  14
ENDBRANCH   3  12
TORSDOF 2
ENDMDL
MODEL      156
REMARK 921   NORMALIZED FREE ENERGY PREDICTED BY IDOCK:   -2.76 KCAL/MOL
REMARK 922        TOTAL FREE ENERGY PREDICTED BY IDOCK:   -3.38 KCAL/MOL
REMARK 923 INTER-LIGAND FREE ENERGY PREDICTED BY IDOCK:   -3.48 KCAL/MOL
REMARK 924 INTRA-LIGAND FREE ENERGY PREDICTED BY IDOCK:    0.10 KCAL/MOL
REMARK 927      BINDING AFFINITY PREDICTED BY RF-SCORE:    0.00 PKD
ROOT
HETATM    1 BR   UNL     1     -11.455   6.225  70.034  1.00  0.00    -0.352 Br 
HETATM    2  C   UNL     1      -9.982   7.412  70.354  1.00  0.00    -0.188 A  
HETATM    3  C   UNL     1      -9.402   8.085  69.256  1.00  0.00    -0.151 A  
HETATM    4  N   UNL     1      -7.908   8.675  73.111  1.00  0.00    -0.399 NA 
HETATM    5  C   UNL     1      -8.359   8.968  69.528  1.00  0.00    -0.117 A  
HETATM    6  C   UNL     1      -9.512   7.567  71.673  1.00  0.00    -0.149 A  
HETATM    7  C   UNL     1      -8.452   7.989  74.134  1.00  0.00    -0.233 A  
HETATM    8  C   UNL     1      -7.883   9.144  70.824  1.00  0.00    -0.173 A  
HETATM    9  C   UNL     1      -8.432   8.459  71.890  1.00  0.00    -0.177 A  
HETATM   10  N   UNL     1     -10.044   6.897  72.732  1.00  0.00    -0.170 NA 
HETATM   11  C   UNL     1      -9.498   7.115  73.948  1.00  0.00    -0.257 A  
ENDROOT
BRANCH   3  12
HETATM   12  N   UNL     1      -9.870   7.887  67.934  1.00  0.00    -0.159 NA 
HETATM   13  H   UNL     1     -10.355   8.666  67.490  1.00  0.00     0.000 HD 
BRANCH  12  14
HETATM   14  C   UNL     1      -9.727   6.745  67.207  1.00  0.00    -0.140 A  
HETATM   15  C   UNL     1     -10.601   5.042  65.972  1.00  0.00    -0.232 A  
HETATM   16  N   UNL     1     -10.902   6.252  66.715  1.00  0.00    -0.330 NA 
HETATM   17  H   UNL     1      -7.702   6.266  67.275  1.00  0.00     0.000 HD 
HETATM   18  N   UNL     1      -8.647   6.075  66.940  1.00  0.00    -0.108 NA 
HETATM   19  C   UNL     1      -9.076   4.975  66.046  1.00  0.00    -0.146 A  
ENDBRANCH  12  14
ENDBRANCH   3  12
TORSDOF 2
ENDMDL
MODEL      157
REMARK 921   NORMALIZED FREE ENERGY PREDICTED BY IDOCK:   -2.73 KCAL/MOL
REMARK 922        TOTAL FREE ENERGY PREDICTED BY IDOCK:   -3.34 KCAL/MOL
REMARK 923 INTER-LIGAND FREE ENERGY PREDICTED BY IDOCK:   -3.17 KCAL/MOL
REMARK 924 INTRA-LIGAND FREE ENERGY PREDICTED BY IDOCK:   -0.17 KCAL/MOL
REMARK 927      BINDING AFFINITY PREDICTED BY RF-SCORE:    0.00 PKD
ROOT
HETATM    1 BR   UNL     1      -6.679   7.455  69.256  1.00  0.00    -0.042 Br 
HETATM    2  C   UNL     1      -8.352   7.541  68.321  1.00  0.00    -0.125 A  
HETATM    3  C   UNL     1      -9.361   6.608  68.647  1.00  0.00    -0.129 A  
HETATM    4  N   UNL     1     -10.030   9.478  65.687  1.00  0.00    -0.280 NA 
HETATM    5  C   UNL     1     -10.576   6.722  67.975  1.00  0.00    -0.283 A  
HETATM    6  C   UNL     1      -8.521   8.524  67.325  1.00  0.00    -0.123 A  
HETATM    7  C   UNL     1      -9.036  10.328  65.367  1.00  0.00    -0.178 A  
HETATM    8  C   UNL     1     -10.769   7.690  66.994  1.00  0.00    -0.340 A  
HETATM    9  C   UNL     1      -9.768   8.580  66.655  1.00  0.00    -0.249 A  
HETATM   10  N   UNL     1      -7.542   9.406  66.982  1.00  0.00    -0.091 NA 
HETATM   11  C   UNL     1      -7.815  10.292  66.000  1.00  0.00    -0.133 A  
ENDROOT
BRANCH   3  12
HETATM   12  N   UNL     1      -9.156   5.607  69.627  1.00  0.00    -0.128 NA 
HETATM   13  H   UNL     1      -8.468   4.883  69.418  1.00  0.00     0.000 HD 
BRANCH  12  14
HETATM   14  C   UNL     1      -9.798   5.530  70.825  1.00  0.00    -0.188 A  
HETATM   15  C   UNL     1     -10.922   6.496  72.554  1.00  0.00    -0.248 A  
HETATM   16  N   UNL     1     -10.271   6.728  71.278  1.00  0.00    -0.202 NA 
HETATM   17  H   UNL     1      -9.666   3.540  71.422  1.00  0.00     0.000 HD 
HETATM   18  N   UNL     1     -10.001   4.491  71.578  1.00  0.00    -0.189 NA 
HETATM   19  C   UNL     1     -10.820   4.979  72.710  1.00  0.00    -0.244 A  
ENDBRANCH  12  14
ENDBRANCH   3  12
TORSDOF 2
ENDMDL
MODEL      158
REMARK 921   NORMALIZED FREE ENERGY PREDICTED BY IDOCK:   -2.66 KCAL/MOL
REMARK 922        TOTAL FREE ENERGY PREDICTED BY IDOCK:   -3.26 KCAL/MOL
REMARK 923 INTER-LIGAND FREE ENERGY PREDICTED BY IDOCK:   -3.00 KCAL/MOL
REMARK 924 INTRA-LIGAND FREE ENERGY PREDICTED BY IDOCK:   -0.26 KCAL/MOL
REMARK 927      BINDING AFFINITY PREDICTED BY RF-SCORE:    0.00 PKD
ROOT
HETATM    1 BR   UNL     1     -10.792   6.230  67.744  1.00  0.00    -0.439 Br 
HETATM    2  C   UNL     1      -9.236   7.095  67.027  1.00  0.00    -0.144 A  
HETATM    3  C   UNL     1      -8.813   8.314  67.600  1.00  0.00    -0.136 A  
HETATM    4  N   UNL     1      -6.708   6.653  64.398  1.00  0.00    -0.041 NA 
HETATM    5  C   UNL     1      -7.658   8.896  67.080  1.00  0.00    -0.094 A  
HETATM    6  C   UNL     1      -8.569   6.494  65.941  1.00  0.00    -0.149 A  
HETATM    7  C   UNL     1      -7.157   5.511  63.844  1.00  0.00    -0.049 A  
HETATM    8  C   UNL     1      -6.978   8.317  66.012  1.00  0.00    -0.065 A  
HETATM    9  C   UNL     1      -7.414   7.141  65.434  1.00  0.00    -0.087 A  
HETATM   10  N   UNL     1      -8.989   5.336  65.362  1.00  0.00    -0.159 NA 
HETATM   11  C   UNL     1      -8.278   4.866  64.314  1.00  0.00    -0.121 A  
ENDROOT
BRANCH   3  12
HETATM   12  N   UNL     1      -9.520   8.915  68.669  1.00  0.00    -0.150 NA 
HETATM   13  H   UNL     1      -9.323   8.573  69.609  1.00  0.00     0.000 HD 
BRANCH  12  14
HETATM   14  C   UNL     1     -10.441   9.911  68.549  1.00  0.00    -0.205 A  
HETATM   15  C   UNL     1     -11.990  11.317  69.450  1.00  0.00    -0.341 A  
HETATM   16  N   UNL     1     -11.038  10.257  69.728  1.00  0.00    -0.268 NA 
HETATM   17  H   UNL     1     -10.528  10.375  66.522  1.00  0.00     0.000 HD 
HETATM   18  N   UNL     1     -10.823  10.547  67.483  1.00  0.00    -0.284 NA 
HETATM   19  C   UNL     1     -11.778  11.573  67.958  1.00  0.00    -0.273 A  
ENDBRANCH  12  14
ENDBRANCH   3  12
TORSDOF 2
ENDMDL
MODEL      159
REMARK 921   NORMALIZED FREE ENERGY PREDICTED BY IDOCK:   -2.65 KCAL/MOL
REMARK 922        TOTAL FREE ENERGY PREDICTED BY IDOCK:   -3.25 KCAL/MOL
REMARK 923 INTER-LIGAND FREE ENERGY PREDICTED BY IDOCK:   -3.14 KCAL/MOL
REMARK 924 INTRA-LIGAND FREE ENERGY PREDICTED BY IDOCK:   -0.11 KCAL/MOL
REMARK 927      BINDING AFFINITY PREDICTED BY RF-SCORE:    0.00 PKD
ROOT
HETATM    1 BR   UNL     1      -6.846  18.045  70.013  1.00  0.00     0.806 Br 
HETATM    2  C   UNL     1      -7.927  18.593  68.526  1.00  0.00    -0.337 A  
HETATM    3  C   UNL     1      -9.270  18.161  68.467  1.00  0.00    -0.314 A  
HETATM    4  N   UNL     1      -7.703  20.571  65.437  1.00  0.00     0.135 NA 
HETATM    5  C   UNL     1     -10.037  18.609  67.393  1.00  0.00    -0.397 A  
HETATM    6  C   UNL     1      -7.344  19.399  67.527  1.00  0.00    -0.231 A  
HETATM    7  C   UNL     1      -6.407  20.933  65.496  1.00  0.00    -0.199 A  
HETATM    8  C   UNL     1      -9.486  19.412  66.399  1.00  0.00    -0.432 A  
HETATM    9  C   UNL     1      -8.163  19.805  66.444  1.00  0.00    -0.347 A  
HETATM   10  N   UNL     1      -6.041  19.792  67.559  1.00  0.00    -0.189 NA 
HETATM   11  C   UNL     1      -5.591  20.549  66.535  1.00  0.00    -0.171 A  
ENDROOT
BRANCH   3  12
HETATM   12  N   UNL     1      -9.823  17.324  69.466  1.00  0.00     0.046 NA 
HETATM   13  H   UNL     1      -9.574  17.526  70.434  1.00  0.00     0.000 HD 
BRANCH  12  14
HETATM   14  C   UNL     1     -10.658  16.272  69.244  1.00  0.00    -0.293 A  
HETATM   15  C   UNL     1     -12.349  14.892  69.896  1.00  0.00    -0.280 A  
HETATM   16  N   UNL     1     -11.532  16.034  70.266  1.00  0.00    -0.357 NA 
HETATM   17  H   UNL     1     -10.107  15.478  67.400  1.00  0.00     0.000 HD 
HETATM   18  N   UNL     1     -10.719  15.480  68.216  1.00  0.00    -0.262 NA 
HETATM   19  C   UNL     1     -11.864  14.579  68.481  1.00  0.00    -0.320 A  
ENDBRANCH  12  14
ENDBRANCH   3  12
TORSDOF 2
ENDMDL
MODEL      160
REMARK 921   NORMALIZED FREE ENERGY PREDICTED BY IDOCK:   -2.63 KCAL/MOL
REMARK 922        TOTAL FREE ENERGY PREDICTED BY IDOCK:   -3.23 KCAL/MOL
REMARK 923 INTER-LIGAND FREE ENERGY PREDICTED BY IDOCK:   -3.34 KCAL/MOL
REMARK 924 INTRA-LIGAND FREE ENERGY PREDICTED BY IDOCK:    0.12 KCAL/MOL
REMARK 927      BINDING AFFINITY PREDICTED BY RF-SCORE:    0.00 PKD
ROOT
HETATM    1 BR   UNL     1     -11.378   7.621  71.307  1.00  0.00    -0.303 Br 
HETATM    2  C   UNL     1     -10.203   7.558  69.792  1.00  0.00    -0.211 A  
HETATM    3  C   UNL     1      -9.870   8.766  69.141  1.00  0.00    -0.181 A  
HETATM    4  N   UNL     1      -8.327   5.138  67.760  1.00  0.00    -0.105 NA 
HETATM    5  C   UNL     1      -8.984   8.688  68.067  1.00  0.00    -0.141 A  
HETATM    6  C   UNL     1      -9.719   6.305  69.363  1.00  0.00    -0.141 A  
HETATM    7  C   UNL     1      -8.696   3.997  68.373  1.00  0.00    -0.100 A  
HETATM    8  C   UNL     1      -8.486   7.464  67.631  1.00  0.00    -0.120 A  
HETATM    9  C   UNL     1      -8.842   6.281  68.250  1.00  0.00    -0.114 A  
HETATM   10  N   UNL     1     -10.063   5.133  69.964  1.00  0.00    -0.253 NA 
HETATM   11  C   UNL     1      -9.549   3.994  69.452  1.00  0.00    -0.187 A  
ENDROOT
BRANCH   3  12
HETATM   12  N   UNL     1     -10.396  10.008  69.570  1.00  0.00    -0.219 NA 
HETATM   13  H   UNL     1     -10.704  10.074  70.540  1.00  0.00     0.000 HD 
BRANCH  12  14
HETATM   14  C   UNL     1     -10.525  11.122  68.798  1.00  0.00    -0.203 A  
HETATM   15  C   UNL     1     -11.761  12.850  67.977  1.00  0.00    -0.356 A  
HETATM   16  N   UNL     1     -11.768  11.685  68.844  1.00  0.00    -0.309 NA 
HETATM   17  H   UNL     1      -8.695  11.374  67.839  1.00  0.00     0.000 HD 
HETATM   18  N   UNL     1      -9.644  11.694  68.034  1.00  0.00    -0.178 NA 
HETATM   19  C   UNL     1     -10.308  12.907  67.507  1.00  0.00    -0.223 A  
ENDBRANCH  12  14
ENDBRANCH   3  12
TORSDOF 2
ENDMDL
MODEL      161
REMARK 921   NORMALIZED FREE ENERGY PREDICTED BY IDOCK:   -2.59 KCAL/MOL
REMARK 922        TOTAL FREE ENERGY PREDICTED BY IDOCK:   -3.18 KCAL/MOL
REMARK 923 INTER-LIGAND FREE ENERGY PREDICTED BY IDOCK:   -2.94 KCAL/MOL
REMARK 924 INTRA-LIGAND FREE ENERGY PREDICTED BY IDOCK:   -0.24 KCAL/MOL
REMARK 927      BINDING AFFINITY PREDICTED BY RF-SCORE:    0.00 PKD
ROOT
HETATM    1 BR   UNL     1     -10.698  10.957  64.733  1.00  0.00    -0.139 Br 
HETATM    2  C   UNL     1      -9.350  11.275  66.061  1.00  0.00    -0.214 A  
HETATM    3  C   UNL     1      -9.732  11.851  67.292  1.00  0.00    -0.184 A  
HETATM    4  N   UNL     1      -5.733  10.881  66.576  1.00  0.00    -0.086 NA 
HETATM    5  C   UNL     1      -8.734  12.033  68.248  1.00  0.00    -0.178 A  
HETATM    6  C   UNL     1      -8.015  10.936  65.763  1.00  0.00    -0.075 A  
HETATM    7  C   UNL     1      -5.390  10.372  65.378  1.00  0.00    -0.101 A  
HETATM    8  C   UNL     1      -7.410  11.698  67.980  1.00  0.00    -0.089 A  
HETATM    9  C   UNL     1      -7.036  11.165  66.762  1.00  0.00    -0.137 A  
HETATM   10  N   UNL     1      -7.633  10.411  64.567  1.00  0.00    -0.088 NA 
HETATM   11  C   UNL     1      -6.321  10.143  64.391  1.00  0.00    -0.127 A  
ENDROOT
BRANCH   3  12
HETATM   12  N   UNL     1     -11.075  12.214  67.555  1.00  0.00    -0.259 NA 
HETATM   13  H   UNL     1     -11.567  12.737  66.831  1.00  0.00     0.000 HD 
BRANCH  12  14
HETATM   14  C   UNL     1     -11.765  11.924  68.692  1.00  0.00    -0.323 A  
HETATM   15  C   UNL     1     -12.637  12.529  70.708  1.00  0.00    -0.212 A  
HETATM   16  N   UNL     1     -11.890  12.981  69.548  1.00  0.00    -0.321 NA 
HETATM   17  H   UNL     1     -12.243   9.901  68.578  1.00  0.00     0.000 HD 
HETATM   18  N   UNL     1     -12.294  10.797  69.063  1.00  0.00    -0.355 NA 
HETATM   19  C   UNL     1     -12.987  11.087  70.339  1.00  0.00    -0.053 A  
ENDBRANCH  12  14
ENDBRANCH   3  12
TORSDOF 2
ENDMDL
MODEL      162
REMARK 921   NORMALIZED FREE ENERGY PREDICTED BY IDOCK:   -2.50 KCAL/MOL
REMARK 922        TOTAL FREE ENERGY PREDICTED BY IDOCK:   -3.09 KCAL/MOL
REMARK 923 INTER-LIGAND FREE ENERGY PREDICTED BY IDOCK:   -2.77 KCAL/MOL
REMARK 924 INTRA-LIGAND FREE ENERGY PREDICTED BY IDOCK:   -0.32 KCAL/MOL
REMARK 927      BINDING AFFINITY PREDICTED BY RF-SCORE:    0.00 PKD
ROOT
HETATM    1 BR   UNL     1      -6.995   7.985  70.507  1.00  0.00    -0.041 Br 
HETATM    2  C   UNL     1      -8.648   7.042  70.262  1.00  0.00    -0.140 A  
HETATM    3  C   UNL     1      -8.622   5.784  69.620  1.00  0.00    -0.116 A  
HETATM    4  N   UNL     1     -12.242   7.401  70.936  1.00  0.00    -0.271 NA 
HETATM    5  C   UNL     1      -9.835   5.109  69.493  1.00  0.00    -0.278 A  
HETATM    6  C   UNL     1      -9.841   7.638  70.718  1.00  0.00    -0.177 A  
HETATM    7  C   UNL     1     -12.242   8.621  71.506  1.00  0.00    -0.318 A  
HETATM    8  C   UNL     1     -11.025   5.674  69.942  1.00  0.00    -0.309 A  
HETATM    9  C   UNL     1     -11.049   6.919  70.540  1.00  0.00    -0.288 A  
HETATM   10  N   UNL     1      -9.878   8.864  71.307  1.00  0.00    -0.263 NA 
HETATM   11  C   UNL     1     -11.084   9.340  71.687  1.00  0.00    -0.368 A  
ENDROOT
BRANCH   3  12
HETATM   12  N   UNL     1      -7.415   5.221  69.141  1.00  0.00    -0.068 NA 
HETATM   13  H   UNL     1      -6.930   5.721  68.397  1.00  0.00     0.000 HD 
BRANCH  12  14
HETATM   14  C   UNL     1      -6.847   4.069  69.590  1.00  0.00    -0.041 A  
HETATM   15  C   UNL     1      -5.521   2.934  71.055  1.00  0.00    -0.008 A  
HETATM   16  N   UNL     1      -6.059   4.233  70.694  1.00  0.00    -0.017 NA 
HETATM   17  H   UNL     1      -7.436   2.579  68.261  1.00  0.00     0.000 HD 
HETATM   18  N   UNL     1      -6.944   2.867  69.107  1.00  0.00    -0.041 NA 
HETATM   19  C   UNL     1      -6.189   2.003  70.043  1.00  0.00    -0.024 A  
ENDBRANCH  12  14
ENDBRANCH   3  12
TORSDOF 2
ENDMDL
MODEL      163
REMARK 921   NORMALIZED FREE ENERGY PREDICTED BY IDOCK:   -2.43 KCAL/MOL
REMARK 922        TOTAL FREE ENERGY PREDICTED BY IDOCK:   -3.01 KCAL/MOL
REMARK 923 INTER-LIGAND FREE ENERGY PREDICTED BY IDOCK:   -2.89 KCAL/MOL
REMARK 924 INTRA-LIGAND FREE ENERGY PREDICTED BY IDOCK:   -0.12 KCAL/MOL
REMARK 927      BINDING AFFINITY PREDICTED BY RF-SCORE:    0.00 PKD
ROOT
HETATM    1 BR   UNL     1      -8.809   8.742  65.336  1.00  0.00    -0.197 Br 
HETATM    2  C   UNL     1      -8.588  10.391  66.292  1.00  0.00    -0.142 A  
HETATM    3  C   UNL     1      -7.600  10.465  67.298  1.00  0.00    -0.095 A  
HETATM    4  N   UNL     1      -9.991  13.783  66.451  1.00  0.00    -0.289 NA 
HETATM    5  C   UNL     1      -7.441  11.689  67.946  1.00  0.00    -0.105 A  
HETATM    6  C   UNL     1      -9.428  11.476  65.971  1.00  0.00    -0.229 A  
HETATM    7  C   UNL     1     -10.954  13.671  65.516  1.00  0.00    -0.293 A  
HETATM    8  C   UNL     1      -8.253  12.777  67.641  1.00  0.00    -0.175 A  
HETATM    9  C   UNL     1      -9.240  12.689  66.678  1.00  0.00    -0.218 A  
HETATM   10  N   UNL     1     -10.405  11.402  65.026  1.00  0.00    -0.272 NA 
HETATM   11  C   UNL     1     -11.159  12.503  64.818  1.00  0.00    -0.301 A  
ENDROOT
BRANCH   3  12
HETATM   12  N   UNL     1      -6.791   9.350  67.626  1.00  0.00    -0.075 NA 
HETATM   13  H   UNL     1      -5.834   9.349  67.273  1.00  0.00     0.000 HD 
BRANCH  12  14
HETATM   14  C   UNL     1      -7.181   8.280  68.370  1.00  0.00    -0.092 A  
HETATM   15  C   UNL     1      -8.265   7.383  70.162  1.00  0.00    -0.133 A  
HETATM   16  N   UNL     1      -7.927   8.612  69.466  1.00  0.00    -0.095 NA 
HETATM   17  H   UNL     1      -6.346   6.606  67.458  1.00  0.00     0.000 HD 
HETATM   18  N   UNL     1      -6.931   7.019  68.184  1.00  0.00    -0.077 NA 
HETATM   19  C   UNL     1      -7.674   6.309  69.250  1.00  0.00    -0.100 A  
ENDBRANCH  12  14
ENDBRANCH   3  12
TORSDOF 2
ENDMDL
MODEL      164
REMARK 921   NORMALIZED FREE ENERGY PREDICTED BY IDOCK:   -2.32 KCAL/MOL
REMARK 922        TOTAL FREE ENERGY PREDICTED BY IDOCK:   -2.89 KCAL/MOL
REMARK 923 INTER-LIGAND FREE ENERGY PREDICTED BY IDOCK:   -2.60 KCAL/MOL
REMARK 924 INTRA-LIGAND FREE ENERGY PREDICTED BY IDOCK:   -0.29 KCAL/MOL
REMARK 927      BINDING AFFINITY PREDICTED BY RF-SCORE:    0.00 PKD
ROOT
HETATM    1 BR   UNL     1      -9.566   5.404  70.391  1.00  0.00    -0.249 Br 
HETATM    2  C   UNL     1      -8.457   6.939  70.695  1.00  0.00    -0.136 A  
HETATM    3  C   UNL     1      -7.985   7.667  69.580  1.00  0.00    -0.124 A  
HETATM    4  N   UNL     1      -6.955   8.849  73.452  1.00  0.00    -0.346 NA 
HETATM    5  C   UNL     1      -7.213   8.798  69.838  1.00  0.00    -0.051 A  
HETATM    6  C   UNL     1      -8.133   7.288  72.022  1.00  0.00    -0.094 A  
HETATM    7  C   UNL     1      -7.383   8.112  74.494  1.00  0.00    -0.198 A  
HETATM    8  C   UNL     1      -6.887   9.167  71.140  1.00  0.00    -0.088 A  
HETATM    9  C   UNL     1      -7.324   8.433  72.226  1.00  0.00    -0.093 A  
HETATM   10  N   UNL     1      -8.556   6.573  73.100  1.00  0.00    -0.121 NA 
HETATM   11  C   UNL     1      -8.167   6.995  74.322  1.00  0.00    -0.141 A  
ENDROOT
BRANCH   3  12
HETATM   12  N   UNL     1      -8.296   7.277  68.256  1.00  0.00    -0.124 NA 
HETATM   13  H   UNL     1      -8.263   6.280  68.043  1.00  0.00     0.000 HD 
BRANCH  12  14
HETATM   14  C   UNL     1      -8.636   8.119  67.242  1.00  0.00    -0.124 A  
HETATM   15  C   UNL     1     -10.149   9.436  66.162  1.00  0.00    -0.254 A  
HETATM   16  N   UNL     1      -9.928   8.558  67.297  1.00  0.00    -0.203 NA 
HETATM   17  H   UNL     1      -6.955   8.262  66.023  1.00  0.00     0.000 HD 
HETATM   18  N   UNL     1      -7.911   8.536  66.248  1.00  0.00    -0.100 NA 
HETATM   19  C   UNL     1      -8.767   9.493  65.510  1.00  0.00    -0.154 A  
ENDBRANCH  12  14
ENDBRANCH   3  12
TORSDOF 2
ENDMDL
MODEL      165
REMARK 921   NORMALIZED FREE ENERGY PREDICTED BY IDOCK:   -2.29 KCAL/MOL
REMARK 922        TOTAL FREE ENERGY PREDICTED BY IDOCK:   -2.85 KCAL/MOL
REMARK 923 INTER-LIGAND FREE ENERGY PREDICTED BY IDOCK:   -2.55 KCAL/MOL
REMARK 924 INTRA-LIGAND FREE ENERGY PREDICTED BY IDOCK:   -0.30 KCAL/MOL
REMARK 927      BINDING AFFINITY PREDICTED BY RF-SCORE:    0.00 PKD
ROOT
HETATM    1 BR   UNL     1     -11.137   6.258  69.492  1.00  0.00    -0.491 Br 
HETATM    2  C   UNL     1      -9.450   6.402  70.397  1.00  0.00    -0.162 A  
HETATM    3  C   UNL     1      -8.265   6.378  69.630  1.00  0.00    -0.126 A  
HETATM    4  N   UNL     1      -8.074   6.737  73.787  1.00  0.00    -0.105 NA 
HETATM    5  C   UNL     1      -7.060   6.522  70.315  1.00  0.00    -0.072 A  
HETATM    6  C   UNL     1      -9.444   6.511  71.802  1.00  0.00    -0.152 A  
HETATM    7  C   UNL     1      -9.218   6.713  74.497  1.00  0.00    -0.212 A  
HETATM    8  C   UNL     1      -7.029   6.641  71.701  1.00  0.00    -0.075 A  
HETATM    9  C   UNL     1      -8.189   6.630  72.450  1.00  0.00    -0.103 A  
HETATM   10  N   UNL     1     -10.581   6.501  72.551  1.00  0.00    -0.206 NA 
HETATM   11  C   UNL     1     -10.447   6.596  73.891  1.00  0.00    -0.326 A  
ENDROOT
BRANCH   3  12
HETATM   12  N   UNL     1      -8.296   6.233  68.222  1.00  0.00    -0.115 NA 
HETATM   13  H   UNL     1      -8.598   7.040  67.677  1.00  0.00     0.000 HD 
BRANCH  12  14
HETATM   14  C   UNL     1      -7.957   5.108  67.535  1.00  0.00    -0.100 A  
HETATM   15  C   UNL     1      -6.943   4.071  65.778  1.00  0.00    -0.062 A  
HETATM   16  N   UNL     1      -7.227   5.349  66.405  1.00  0.00    -0.076 NA 
HETATM   17  H   UNL     1      -8.822   3.520  68.565  1.00  0.00     0.000 HD 
HETATM   18  N   UNL     1      -8.242   3.869  67.802  1.00  0.00    -0.092 NA 
HETATM   19  C   UNL     1      -7.546   3.072  66.766  1.00  0.00    -0.075 A  
ENDBRANCH  12  14
ENDBRANCH   3  12
TORSDOF 2
ENDMDL
MODEL      166
REMARK 921   NORMALIZED FREE ENERGY PREDICTED BY IDOCK:   -2.25 KCAL/MOL
REMARK 922        TOTAL FREE ENERGY PREDICTED BY IDOCK:   -2.81 KCAL/MOL
REMARK 923 INTER-LIGAND FREE ENERGY PREDICTED BY IDOCK:   -2.69 KCAL/MOL
REMARK 924 INTRA-LIGAND FREE ENERGY PREDICTED BY IDOCK:   -0.12 KCAL/MOL
REMARK 927      BINDING AFFINITY PREDICTED BY RF-SCORE:    0.00 PKD
ROOT
HETATM    1 BR   UNL     1     -10.624   6.560  68.062  1.00  0.00    -0.355 Br 
HETATM    2  C   UNL     1      -9.891   7.022  69.774  1.00  0.00    -0.169 A  
HETATM    3  C   UNL     1      -9.433   8.341  69.982  1.00  0.00    -0.167 A  
HETATM    4  N   UNL     1      -9.171   5.516  73.048  1.00  0.00    -0.137 NA 
HETATM    5  C   UNL     1      -8.941   8.653  71.249  1.00  0.00    -0.268 A  
HETATM    6  C   UNL     1      -9.819   6.027  70.770  1.00  0.00    -0.181 A  
HETATM    7  C   UNL     1      -9.576   4.255  72.809  1.00  0.00    -0.128 A  
HETATM    8  C   UNL     1      -8.868   7.690  72.250  1.00  0.00    -0.170 A  
HETATM    9  C   UNL     1      -9.287   6.392  72.032  1.00  0.00    -0.151 A  
HETATM   10  N   UNL     1     -10.228   4.745  70.567  1.00  0.00    -0.218 NA 
HETATM   11  C   UNL     1     -10.092   3.875  71.591  1.00  0.00    -0.097 A  
ENDROOT
BRANCH   3  12
HETATM   12  N   UNL     1      -9.485   9.314  68.955  1.00  0.00    -0.153 NA 
HETATM   13  H   UNL     1     -10.286   9.946  68.952  1.00  0.00     0.000 HD 
BRANCH  12  14
HETATM   14  C   UNL     1      -8.558   9.479  67.973  1.00  0.00    -0.120 A  
HETATM   15  C   UNL     1      -6.446   9.226  67.157  1.00  0.00    -0.063 A  
HETATM   16  N   UNL     1      -7.326   8.978  68.285  1.00  0.00    -0.082 NA 
HETATM   17  H   UNL     1      -9.514  10.523  66.446  1.00  0.00     0.000 HD 
HETATM   18  N   UNL     1      -8.689  10.048  66.812  1.00  0.00    -0.129 NA 
HETATM   19  C   UNL     1      -7.386   9.862  66.133  1.00  0.00    -0.104 A  
ENDBRANCH  12  14
ENDBRANCH   3  12
TORSDOF 2
ENDMDL
MODEL      167
REMARK 921   NORMALIZED FREE ENERGY PREDICTED BY IDOCK:   -2.14 KCAL/MOL
REMARK 922        TOTAL FREE ENERGY PREDICTED BY IDOCK:   -2.68 KCAL/MOL
REMARK 923 INTER-LIGAND FREE ENERGY PREDICTED BY IDOCK:   -2.53 KCAL/MOL
REMARK 924 INTRA-LIGAND FREE ENERGY PREDICTED BY IDOCK:   -0.15 KCAL/MOL
REMARK 927      BINDING AFFINITY PREDICTED BY RF-SCORE:    0.00 PKD
ROOT
HETATM    1 BR   UNL     1     -11.740   9.821  70.326  1.00  0.00    -0.216 Br 
HETATM    2  C   UNL     1     -11.040   8.453  69.177  1.00  0.00     0.213 A  
HETATM    3  C   UNL     1     -11.035   8.675  67.783  1.00  0.00     0.150 A  
HETATM    4  N   UNL     1      -9.565   5.091  69.347  1.00  0.00    -0.150 NA 
HETATM    5  C   UNL     1     -10.485   7.676  66.981  1.00  0.00    -0.419 A  
HETATM    6  C   UNL     1     -10.566   7.259  69.758  1.00  0.00    -0.235 A  
HETATM    7  C   UNL     1      -9.622   4.889  70.677  1.00  0.00    -0.186 A  
HETATM    8  C   UNL     1     -10.002   6.493  67.532  1.00  0.00    -0.169 A  
HETATM    9  C   UNL     1     -10.040   6.267  68.894  1.00  0.00    -0.168 A  
HETATM   10  N   UNL     1     -10.598   7.024  71.098  1.00  0.00    -0.216 NA 
HETATM   11  C   UNL     1     -10.131   5.835  71.536  1.00  0.00    -0.196 A  
ENDROOT
BRANCH   3  12
HETATM   12  N   UNL     1     -11.548   9.868  67.221  1.00  0.00     0.022 NA 
HETATM   13  H   UNL     1     -12.549  10.037  67.320  1.00  0.00     0.000 HD 
BRANCH  12  14
HETATM   14  C   UNL     1     -10.820  10.809  66.560  1.00  0.00    -0.130 A  
HETATM   15  C   UNL     1     -10.197  12.973  66.214  1.00  0.00    -0.288 A  
HETATM   16  N   UNL     1     -11.027  12.083  67.006  1.00  0.00    -0.259 NA 
HETATM   17  H   UNL     1      -9.762   9.789  65.086  1.00  0.00     0.000 HD 
HETATM   18  N   UNL     1      -9.986  10.655  65.576  1.00  0.00    -0.256 NA 
HETATM   19  C   UNL     1      -9.429  12.002  65.317  1.00  0.00    -0.026 A  
ENDBRANCH  12  14
ENDBRANCH   3  12
TORSDOF 2
ENDMDL
MODEL      168
REMARK 921   NORMALIZED FREE ENERGY PREDICTED BY IDOCK:   -1.98 KCAL/MOL
REMARK 922        TOTAL FREE ENERGY PREDICTED BY IDOCK:   -2.51 KCAL/MOL
REMARK 923 INTER-LIGAND FREE ENERGY PREDICTED BY IDOCK:   -2.19 KCAL/MOL
REMARK 924 INTRA-LIGAND FREE ENERGY PREDICTED BY IDOCK:   -0.31 KCAL/MOL
REMARK 927      BINDING AFFINITY PREDICTED BY RF-SCORE:    0.00 PKD
ROOT
HETATM    1 BR   UNL     1     -10.530   9.111  69.460  1.00  0.00    -0.236 Br 
HETATM    2  C   UNL     1      -9.001   8.074  69.979  1.00  0.00    -0.144 A  
HETATM    3  C   UNL     1      -8.049   7.729  68.994  1.00  0.00    -0.125 A  
HETATM    4  N   UNL     1      -7.529   6.489  72.949  1.00  0.00    -0.093 NA 
HETATM    5  C   UNL     1      -6.932   7.007  69.413  1.00  0.00    -0.066 A  
HETATM    6  C   UNL     1      -8.880   7.675  71.325  1.00  0.00    -0.133 A  
HETATM    7  C   UNL     1      -8.473   6.796  73.858  1.00  0.00    -0.134 A  
HETATM    8  C   UNL     1      -6.787   6.609  70.738  1.00  0.00    -0.063 A  
HETATM    9  C   UNL     1      -7.737   6.921  71.691  1.00  0.00    -0.095 A  
HETATM   10  N   UNL     1      -9.810   7.975  72.273  1.00  0.00    -0.213 NA 
HETATM   11  C   UNL     1      -9.593   7.523  73.527  1.00  0.00    -0.285 A  
ENDROOT
BRANCH   3  12
HETATM   12  N   UNL     1      -8.210   8.113  67.641  1.00  0.00    -0.126 NA 
HETATM   13  H   UNL     1      -8.936   7.637  67.105  1.00  0.00     0.000 HD 
BRANCH  12  14
HETATM   14  C   UNL     1      -7.479   9.062  66.995  1.00  0.00    -0.087 A  
HETATM   15  C   UNL     1      -6.836  11.226  66.696  1.00  0.00    -0.130 A  
HETATM   16  N   UNL     1      -7.668  10.327  67.475  1.00  0.00    -0.094 NA 
HETATM   17  H   UNL     1      -6.447   8.067  65.486  1.00  0.00     0.000 HD 
HETATM   18  N   UNL     1      -6.656   8.923  66.000  1.00  0.00    -0.064 NA 
HETATM   19  C   UNL     1      -6.088  10.270  65.767  1.00  0.00    -0.107 A  
ENDBRANCH  12  14
ENDBRANCH   3  12
TORSDOF 2
ENDMDL
MODEL      169
REMARK 921   NORMALIZED FREE ENERGY PREDICTED BY IDOCK:   -1.73 KCAL/MOL
REMARK 922        TOTAL FREE ENERGY PREDICTED BY IDOCK:   -2.23 KCAL/MOL
REMARK 923 INTER-LIGAND FREE ENERGY PREDICTED BY IDOCK:   -2.53 KCAL/MOL
REMARK 924 INTRA-LIGAND FREE ENERGY PREDICTED BY IDOCK:    0.30 KCAL/MOL
REMARK 927      BINDING AFFINITY PREDICTED BY RF-SCORE:    0.00 PKD
ROOT
HETATM    1 BR   UNL     1     -10.788  12.909  65.279  1.00  0.00    -0.329 Br 
HETATM    2  C   UNL     1      -9.092  12.550  66.102  1.00  0.00    -0.005 A  
HETATM    3  C   UNL     1      -8.305  13.639  66.536  1.00  0.00     0.465 A  
HETATM    4  N   UNL     1      -6.936   9.724  67.032  1.00  0.00    -0.084 NA 
HETATM    5  C   UNL     1      -7.096  13.341  67.163  1.00  0.00     0.146 A  
HETATM    6  C   UNL     1      -8.676  11.211  66.236  1.00  0.00    -0.182 A  
HETATM    7  C   UNL     1      -7.689   8.707  66.571  1.00  0.00    -0.095 A  
HETATM    8  C   UNL     1      -6.668  12.026  67.314  1.00  0.00    -0.144 A  
HETATM    9  C   UNL     1      -7.427  10.966  66.859  1.00  0.00    -0.128 A  
HETATM   10  N   UNL     1      -9.414  10.158  65.791  1.00  0.00    -0.192 NA 
HETATM   11  C   UNL     1      -8.903   8.919  65.960  1.00  0.00    -0.172 A  
ENDROOT
BRANCH   3  12
HETATM   12  N   UNL     1      -8.730  14.978  66.359  1.00  0.00    -0.460 NA 
HETATM   13  H   UNL     1      -9.675  15.124  66.007  1.00  0.00     0.000 HD 
BRANCH  12  14
HETATM   14  C   UNL     1      -7.983  16.086  66.619  1.00  0.00    -0.256 A  
HETATM   15  C   UNL     1      -7.431  18.260  66.222  1.00  0.00    -0.260 A  
HETATM   16  N   UNL     1      -8.303  17.163  65.842  1.00  0.00    -0.530 NA 
HETATM   17  H   UNL     1      -6.619  15.531  68.090  1.00  0.00     0.000 HD 
HETATM   18  N   UNL     1      -7.022  16.242  67.479  1.00  0.00    -0.141 NA 
HETATM   19  C   UNL     1      -6.635  17.668  67.384  1.00  0.00    -0.159 A  
ENDBRANCH  12  14
ENDBRANCH   3  12
TORSDOF 2
ENDMDL
MODEL      170
REMARK 921   NORMALIZED FREE ENERGY PREDICTED BY IDOCK:   -1.48 KCAL/MOL
REMARK 922        TOTAL FREE ENERGY PREDICTED BY IDOCK:   -1.95 KCAL/MOL
REMARK 923 INTER-LIGAND FREE ENERGY PREDICTED BY IDOCK:   -2.03 KCAL/MOL
REMARK 924 INTRA-LIGAND FREE ENERGY PREDICTED BY IDOCK:    0.09 KCAL/MOL
REMARK 927      BINDING AFFINITY PREDICTED BY RF-SCORE:    0.00 PKD
ROOT
HETATM    1 BR   UNL     1      -7.984  15.481  70.020  1.00  0.00     0.585 Br 
HETATM    2  C   UNL     1      -9.706  15.361  69.182  1.00  0.00    -0.252 A  
HETATM    3  C   UNL     1     -10.851  15.243  69.999  1.00  0.00    -0.286 A  
HETATM    4  N   UNL     1     -11.232  15.309  65.839  1.00  0.00    -0.288 NA 
HETATM    5  C   UNL     1     -12.089  15.196  69.358  1.00  0.00    -0.293 A  
HETATM    6  C   UNL     1      -9.775  15.379  67.774  1.00  0.00    -0.211 A  
HETATM    7  C   UNL     1     -10.119  15.380  65.084  1.00  0.00    -0.264 A  
HETATM    8  C   UNL     1     -12.183  15.221  67.970  1.00  0.00     0.275 A  
HETATM    9  C   UNL     1     -11.057  15.303  67.174  1.00  0.00    -0.323 A  
HETATM   10  N   UNL     1      -8.673  15.459  66.979  1.00  0.00    -0.211 NA 
HETATM   11  C   UNL     1      -8.864  15.450  65.642  1.00  0.00     0.609 A  
ENDROOT
BRANCH   3  12
HETATM   12  N   UNL     1     -10.753  15.193  71.410  1.00  0.00    -0.428 NA 
HETATM   13  H   UNL     1      -9.920  14.757  71.804  1.00  0.00     0.000 HD 
BRANCH  12  14
HETATM   14  C   UNL     1     -11.677  15.676  72.285  1.00  0.00    -0.481 A  
HETATM   15  C   UNL     1     -13.714  15.572  73.300  1.00  0.00    -0.171 A  
HETATM   16  N   UNL     1     -12.827  14.942  72.337  1.00  0.00    -0.325 NA 
HETATM   17  H   UNL     1     -10.856  17.413  73.088  1.00  0.00     0.000 HD 
HETATM   18  N   UNL     1     -11.610  16.726  73.047  1.00  0.00    -0.014 NA 
HETATM   19  C   UNL     1     -12.858  16.716  73.843  1.00  0.00     0.042 A  
ENDBRANCH  12  14
ENDBRANCH   3  12
TORSDOF 2
ENDMDL
MODEL      171
REMARK 921   NORMALIZED FREE ENERGY PREDICTED BY IDOCK:   -1.24 KCAL/MOL
REMARK 922        TOTAL FREE ENERGY PREDICTED BY IDOCK:   -1.68 KCAL/MOL
REMARK 923 INTER-LIGAND FREE ENERGY PREDICTED BY IDOCK:   -1.88 KCAL/MOL
REMARK 924 INTRA-LIGAND FREE ENERGY PREDICTED BY IDOCK:    0.21 KCAL/MOL
REMARK 927      BINDING AFFINITY PREDICTED BY RF-SCORE:    0.00 PKD
ROOT
HETATM    1 BR   UNL     1      -9.804  14.448  64.482  1.00  0.00     1.349 Br 
HETATM    2  C   UNL     1      -9.837  13.720  66.258  1.00  0.00    -0.303 A  
HETATM    3  C   UNL     1      -9.252  12.455  66.483  1.00  0.00    -0.215 A  
HETATM    4  N   UNL     1     -11.026  14.544  69.636  1.00  0.00    -0.228 NA 
HETATM    5  C   UNL     1      -9.260  11.973  67.791  1.00  0.00    -0.190 A  
HETATM    6  C   UNL     1     -10.457  14.464  67.282  1.00  0.00    -0.269 A  
HETATM    7  C   UNL     1     -11.613  15.729  69.384  1.00  0.00    -0.365 A  
HETATM    8  C   UNL     1      -9.858  12.694  68.821  1.00  0.00     0.016 A  
HETATM    9  C   UNL     1     -10.458  13.916  68.589  1.00  0.00    -0.246 A  
HETATM   10  N   UNL     1     -11.052  15.669  67.066  1.00  0.00    -0.257 NA 
HETATM   11  C   UNL     1     -11.628  16.280  68.123  1.00  0.00    -0.072 A  
ENDROOT
BRANCH   3  12
HETATM   12  N   UNL     1      -8.666  11.712  65.431  1.00  0.00    -0.389 NA 
HETATM   13  H   UNL     1      -8.208  12.238  64.687  1.00  0.00     0.000 HD 
BRANCH  12  14
HETATM   14  C   UNL     1      -8.661  10.354  65.328  1.00  0.00    -0.176 A  
HETATM   15  C   UNL     1      -8.183   8.440  64.189  1.00  0.00    -0.119 A  
HETATM   16  N   UNL     1      -8.118   9.890  64.163  1.00  0.00    -0.144 NA 
HETATM   17  H   UNL     1      -9.591   9.641  67.048  1.00  0.00     0.000 HD 
HETATM   18  N   UNL     1      -9.106   9.469  66.167  1.00  0.00    -0.156 NA 
HETATM   19  C   UNL     1      -8.763   8.156  65.575  1.00  0.00    -0.120 A  
ENDBRANCH  12  14
ENDBRANCH   3  12
TORSDOF 2
ENDMDL
MODEL      172
REMARK 921   NORMALIZED FREE ENERGY PREDICTED BY IDOCK:   -0.76 KCAL/MOL
REMARK 922        TOTAL FREE ENERGY PREDICTED BY IDOCK:   -1.14 KCAL/MOL
REMARK 923 INTER-LIGAND FREE ENERGY PREDICTED BY IDOCK:   -1.26 KCAL/MOL
REMARK 924 INTRA-LIGAND FREE ENERGY PREDICTED BY IDOCK:    0.12 KCAL/MOL
REMARK 927      BINDING AFFINITY PREDICTED BY RF-SCORE:    0.00 PKD
ROOT
HETATM    1 BR   UNL     1      -8.431   7.562  64.055  1.00  0.00     0.387 Br 
HETATM    2  C   UNL     1      -7.760   9.051  65.063  1.00  0.00    -0.109 A  
HETATM    3  C   UNL     1      -6.377   9.115  65.338  1.00  0.00    -0.064 A  
HETATM    4  N   UNL     1      -8.937  12.111  66.721  1.00  0.00    -0.200 NA 
HETATM    5  C   UNL     1      -5.918  10.228  66.040  1.00  0.00    -0.089 A  
HETATM    6  C   UNL     1      -8.670  10.028  65.513  1.00  0.00    -0.155 A  
HETATM    7  C   UNL     1     -10.258  12.002  66.481  1.00  0.00    -0.206 A  
HETATM    8  C   UNL     1      -6.796  11.211  66.487  1.00  0.00    -0.126 A  
HETATM    9  C   UNL     1      -8.153  11.126  66.244  1.00  0.00    -0.142 A  
HETATM   10  N   UNL     1     -10.010   9.956  65.281  1.00  0.00    -0.310 NA 
HETATM   11  C   UNL     1     -10.785  10.944  65.777  1.00  0.00    -0.109 A  
ENDROOT
BRANCH   3  12
HETATM   12  N   UNL     1      -5.487   8.103  64.904  1.00  0.00    -0.039 NA 
HETATM   13  H   UNL     1      -4.734   8.382  64.276  1.00  0.00     0.000 HD 
BRANCH  12  14
HETATM   14  C   UNL     1      -5.551   6.789  65.255  1.00  0.00    -0.030 A  
HETATM   15  C   UNL     1      -5.889   5.148  66.799  1.00  0.00    -0.022 A  
HETATM   16  N   UNL     1      -5.860   6.582  66.569  1.00  0.00    -0.017 NA 
HETATM   17  H   UNL     1      -5.054   5.711  63.545  1.00  0.00     0.000 HD 
HETATM   18  N   UNL     1      -5.349   5.736  64.521  1.00  0.00    -0.016 NA 
HETATM   19  C   UNL     1      -5.637   4.582  65.402  1.00  0.00    -0.014 A  
ENDBRANCH  12  14
ENDBRANCH   3  12
TORSDOF 2
ENDMDL
MODEL      173
REMARK 921   NORMALIZED FREE ENERGY PREDICTED BY IDOCK:    2.39 KCAL/MOL
REMARK 922        TOTAL FREE ENERGY PREDICTED BY IDOCK:    2.38 KCAL/MOL
REMARK 923 INTER-LIGAND FREE ENERGY PREDICTED BY IDOCK:   -3.13 KCAL/MOL
REMARK 924 INTRA-LIGAND FREE ENERGY PREDICTED BY IDOCK:    5.51 KCAL/MOL
REMARK 927      BINDING AFFINITY PREDICTED BY RF-SCORE:    0.00 PKD
ROOT
HETATM    1 BR   UNL     1      -9.034   9.457  69.032  1.00  0.00    -0.146 Br 
HETATM    2  C   UNL     1      -9.578  10.021  67.281  1.00  0.00    -0.156 A  
HETATM    3  C   UNL     1     -10.801  10.712  67.140  1.00  0.00    -0.270 A  
HETATM    4  N   UNL     1      -8.441   9.911  63.788  1.00  0.00    -0.165 NA 
HETATM    5  C   UNL     1     -11.148  11.140  65.859  1.00  0.00    -0.105 A  
HETATM    6  C   UNL     1      -8.747   9.716  66.184  1.00  0.00    -0.136 A  
HETATM    7  C   UNL     1      -7.300   9.213  63.946  1.00  0.00    -0.097 A  
HETATM    8  C   UNL     1     -10.339  10.859  64.762  1.00  0.00    -0.391 A  
HETATM    9  C   UNL     1      -9.160  10.154  64.900  1.00  0.00    -0.215 A  
HETATM   10  N   UNL     1      -7.583   9.022  66.307  1.00  0.00    -0.091 NA 
HETATM   11  C   UNL     1      -6.880   8.775  65.180  1.00  0.00    -0.075 A  
ENDROOT
BRANCH   3  12
HETATM   12  N   UNL     1     -11.635  10.977  68.253  1.00  0.00    -0.457 NA 
HETATM   13  H   UNL     1     -12.482  11.520  68.083  1.00  0.00     0.000 HD 
BRANCH  12  14
HETATM   14  C   UNL     1     -11.403  10.569  69.530  1.00  0.00    -0.278 A  
HETATM   15  C   UNL     1     -12.138  10.013  71.614  1.00  0.00    -0.334 A  
HETATM   16  N   UNL     1     -12.534  10.447  70.286  1.00  0.00    -0.260 NA 
HETATM   17  H   UNL     1      -9.337  10.397  69.715  1.00  0.00     0.000 HD 
HETATM   18  N   UNL     1     -10.272  10.301  70.110  1.00  0.00    -0.179 NA 
HETATM   19  C   UNL     1     -10.628   9.827  71.467  1.00  0.00     0.224 A  
ENDBRANCH  12  14
ENDBRANCH   3  12
TORSDOF 2
ENDMDL
