MODEL        1
REMARK 921   NORMALIZED FREE ENERGY PREDICTED BY IDOCK:   -6.22 KCAL/MOL
REMARK 922        TOTAL FREE ENERGY PREDICTED BY IDOCK:   -9.50 KCAL/MOL
REMARK 923 INTER-LIGAND FREE ENERGY PREDICTED BY IDOCK:   -8.77 KCAL/MOL
REMARK 924 INTRA-LIGAND FREE ENERGY PREDICTED BY IDOCK:   -0.73 KCAL/MOL
REMARK 927      BINDING AFFINITY PREDICTED BY RF-SCORE:    0.00 PKD
ROOT
HETATM    1  C   UNL     1     -13.589  15.684  72.626  1.00  0.00    -0.667 C  
HETATM    2  C   UNL     1     -12.079  15.782  72.455  1.00  0.00    -0.489 C  
ENDROOT
BRANCH   2   3
HETATM    3  N   UNL     1     -11.568  14.599  71.760  1.00  0.00    -0.439 NA 
HETATM    4  H   UNL     1     -11.422  13.832  72.416  1.00  0.00     0.000 HD 
BRANCH   3   5
HETATM    5  C   UNL     1     -12.407  14.166  70.632  1.00  0.00    -0.365 C  
HETATM    6  C   UNL     1     -12.013  14.801  69.232  1.00  0.00    -0.294 C  
HETATM    7  N   UNL     1     -10.848  14.177  68.541  1.00  0.00    -0.244 N  
HETATM    8  C   UNL     1     -12.936  11.741  71.598  1.00  0.00    -0.467 A  
HETATM    9  S   UNL     1     -10.974  12.541  68.177  1.00  0.00    -0.244 S  
HETATM   10  O   UNL     1     -12.006  12.385  67.172  1.00  0.00    -0.528 OA 
HETATM   11  C   UNL     1     -11.727  11.913  69.643  1.00  0.00    -0.343 A  
HETATM   12  C   UNL     1     -12.656  10.412  71.324  1.00  0.00    -0.419 A  
HETATM   13  O   UNL     1      -9.664  11.945  68.066  1.00  0.00    -0.180 OA 
HETATM   14  S   UNL     1     -11.765  10.239  69.874  1.00  0.00    -0.195 SA 
HETATM   15  C   UNL     1     -12.361  12.639  70.634  1.00  0.00    -0.375 A  
BRANCH   7  16
HETATM   16  C   UNL     1      -9.532  14.824  68.580  1.00  0.00    -0.214 C  
BRANCH  16  17
HETATM   17  C   UNL     1      -9.437  16.042  67.681  1.00  0.00    -0.216 C  
BRANCH  17  18
HETATM   18  C   UNL     1      -9.257  15.641  66.224  1.00  0.00    -0.330 C  
BRANCH  18  19
HETATM   19  O   UNL     1     -10.196  16.374  65.440  1.00  0.00    -0.546 OA 
HETATM   20  C   UNL     1     -11.108  15.510  64.777  1.00  0.00    -0.407 C  
ENDBRANCH  18  19
ENDBRANCH  17  18
ENDBRANCH  16  17
ENDBRANCH   7  16
BRANCH  12  21
HETATM   21  S   UNL     1     -13.057   8.895  72.161  1.00  0.00    -0.447 S  
HETATM   22  O   UNL     1     -11.885   8.549  72.927  1.00  0.00    -0.238 OA 
HETATM   23  O   UNL     1     -14.351   9.141  72.752  1.00  0.00    -0.563 OA 
HETATM   24  N   UNL     1     -13.269   7.724  70.979  1.00  0.00    -0.559 N  
HETATM   25  H1  UNL     1     -13.499   6.853  71.460  1.00  0.00     0.000 HD 
HETATM   26  H2  UNL     1     -13.183   7.855  69.971  1.00  0.00     0.000 HD 
ENDBRANCH  12  21
ENDBRANCH   3   5
ENDBRANCH   2   3
TORSDOF 7
ENDMDL
MODEL        2
REMARK 921   NORMALIZED FREE ENERGY PREDICTED BY IDOCK:   -6.20 KCAL/MOL
REMARK 922        TOTAL FREE ENERGY PREDICTED BY IDOCK:   -9.47 KCAL/MOL
REMARK 923 INTER-LIGAND FREE ENERGY PREDICTED BY IDOCK:   -8.77 KCAL/MOL
REMARK 924 INTRA-LIGAND FREE ENERGY PREDICTED BY IDOCK:   -0.70 KCAL/MOL
REMARK 927      BINDING AFFINITY PREDICTED BY RF-SCORE:    0.00 PKD
ROOT
HETATM    1  C   UNL     1     -12.328  15.789  73.350  1.00  0.00    -0.638 C  
HETATM    2  C   UNL     1     -11.967  15.966  71.882  1.00  0.00    -0.504 C  
ENDROOT
BRANCH   2   3
HETATM    3  N   UNL     1     -11.502  14.698  71.315  1.00  0.00    -0.526 NA 
HETATM    4  H   UNL     1     -11.362  14.005  72.052  1.00  0.00     0.000 HD 
BRANCH   3   5
HETATM    5  C   UNL     1     -12.377  14.164  70.260  1.00  0.00    -0.356 C  
HETATM    6  C   UNL     1     -12.152  14.808  68.827  1.00  0.00    -0.190 C  
HETATM    7  N   UNL     1     -10.987  14.286  68.056  1.00  0.00    -0.244 N  
HETATM    8  C   UNL     1     -12.594  11.719  71.292  1.00  0.00    -0.401 A  
HETATM    9  S   UNL     1     -10.980  12.638  67.722  1.00  0.00    -0.246 S  
HETATM   10  O   UNL     1     -12.065  12.366  66.800  1.00  0.00    -0.578 OA 
HETATM   11  C   UNL     1     -11.557  11.969  69.248  1.00  0.00    -0.321 A  
HETATM   12  C   UNL     1     -12.208  10.418  71.012  1.00  0.00    -0.393 A  
HETATM   13  O   UNL     1      -9.631  12.169  67.518  1.00  0.00    -0.174 OA 
HETATM   14  S   UNL     1     -11.415  10.304  69.501  1.00  0.00    -0.176 SA 
HETATM   15  C   UNL     1     -12.183  12.650  70.276  1.00  0.00    -0.347 A  
BRANCH   7  16
HETATM   16  C   UNL     1      -9.742  15.056  67.987  1.00  0.00    -0.213 C  
BRANCH  16  17
HETATM   17  C   UNL     1      -9.383  15.491  66.579  1.00  0.00    -0.311 C  
BRANCH  17  18
HETATM   18  C   UNL     1     -10.343  16.554  66.066  1.00  0.00    -0.345 C  
BRANCH  18  19
HETATM   19  O   UNL     1     -10.690  16.233  64.721  1.00  0.00    -0.680 OA 
HETATM   20  C   UNL     1     -11.584  15.130  64.663  1.00  0.00    -0.357 C  
ENDBRANCH  18  19
ENDBRANCH  17  18
ENDBRANCH  16  17
ENDBRANCH   7  16
BRANCH  12  21
HETATM   21  S   UNL     1     -12.396   8.886  71.896  1.00  0.00    -0.400 S  
HETATM   22  O   UNL     1     -11.096   8.587  72.444  1.00  0.00    -0.361 OA 
HETATM   23  O   UNL     1     -13.576   9.079  72.704  1.00  0.00    -0.465 OA 
HETATM   24  N   UNL     1     -12.762   7.707  70.759  1.00  0.00    -0.547 N  
HETATM   25  H1  UNL     1     -12.870   6.828  71.266  1.00  0.00     0.000 HD 
HETATM   26  H2  UNL     1     -12.858   7.842  69.753  1.00  0.00     0.000 HD 
ENDBRANCH  12  21
ENDBRANCH   3   5
ENDBRANCH   2   3
TORSDOF 7
ENDMDL
MODEL        3
REMARK 921   NORMALIZED FREE ENERGY PREDICTED BY IDOCK:   -6.10 KCAL/MOL
REMARK 922        TOTAL FREE ENERGY PREDICTED BY IDOCK:   -9.32 KCAL/MOL
REMARK 923 INTER-LIGAND FREE ENERGY PREDICTED BY IDOCK:   -8.63 KCAL/MOL
REMARK 924 INTRA-LIGAND FREE ENERGY PREDICTED BY IDOCK:   -0.69 KCAL/MOL
REMARK 927      BINDING AFFINITY PREDICTED BY RF-SCORE:    0.00 PKD
ROOT
HETATM    1  C   UNL     1     -13.703  15.459  72.345  1.00  0.00    -0.644 C  
HETATM    2  C   UNL     1     -12.244  15.704  71.984  1.00  0.00    -0.436 C  
ENDROOT
BRANCH   2   3
HETATM    3  N   UNL     1     -11.662  14.504  71.380  1.00  0.00    -0.481 NA 
HETATM    4  H   UNL     1     -11.465  13.801  72.093  1.00  0.00     0.000 HD 
BRANCH   3   5
HETATM    5  C   UNL     1     -12.476  13.931  70.297  1.00  0.00    -0.314 C  
HETATM    6  C   UNL     1     -12.229  14.580  68.870  1.00  0.00    -0.159 C  
HETATM    7  N   UNL     1     -11.017  14.106  68.142  1.00  0.00    -0.243 N  
HETATM    8  C   UNL     1     -12.625  11.481  71.329  1.00  0.00    -0.452 A  
HETATM    9  S   UNL     1     -10.928  12.459  67.814  1.00  0.00    -0.242 S  
HETATM   10  O   UNL     1     -11.967  12.139  66.857  1.00  0.00    -0.603 OA 
HETATM   11  C   UNL     1     -11.529  11.770  69.323  1.00  0.00    -0.306 A  
HETATM   12  C   UNL     1     -12.174  10.197  71.069  1.00  0.00    -0.374 A  
HETATM   13  O   UNL     1      -9.554  12.048  67.660  1.00  0.00    -0.180 OA 
HETATM   14  S   UNL     1     -11.324  10.113  69.587  1.00  0.00    -0.209 SA 
HETATM   15  C   UNL     1     -12.218  12.426  70.326  1.00  0.00    -0.345 A  
BRANCH   7  16
HETATM   16  C   UNL     1      -9.804  14.929  68.113  1.00  0.00    -0.218 C  
BRANCH  16  17
HETATM   17  C   UNL     1      -9.963  16.204  67.307  1.00  0.00    -0.248 C  
BRANCH  17  18
HETATM   18  C   UNL     1     -10.354  15.903  65.868  1.00  0.00    -0.365 C  
BRANCH  18  19
HETATM   19  O   UNL     1     -10.631  17.139  65.212  1.00  0.00    -0.662 OA 
HETATM   20  C   UNL     1     -10.420  18.246  66.077  1.00  0.00    -0.361 C  
ENDBRANCH  18  19
ENDBRANCH  17  18
ENDBRANCH  16  17
ENDBRANCH   7  16
BRANCH  12  21
HETATM   21  S   UNL     1     -12.327   8.660  71.951  1.00  0.00    -0.381 S  
HETATM   22  O   UNL     1     -12.773   7.693  70.978  1.00  0.00    -0.239 OA 
HETATM   23  O   UNL     1     -11.091   8.541  72.686  1.00  0.00    -0.323 OA 
HETATM   24  N   UNL     1     -13.554   8.863  73.078  1.00  0.00    -0.844 N  
HETATM   25  H1  UNL     1     -13.642   7.981  73.584  1.00  0.00     0.000 HD 
HETATM   26  H2  UNL     1     -14.107   9.706  73.229  1.00  0.00     0.000 HD 
ENDBRANCH  12  21
ENDBRANCH   3   5
ENDBRANCH   2   3
TORSDOF 7
ENDMDL
MODEL        4
REMARK 921   NORMALIZED FREE ENERGY PREDICTED BY IDOCK:   -6.09 KCAL/MOL
REMARK 922        TOTAL FREE ENERGY PREDICTED BY IDOCK:   -9.31 KCAL/MOL
REMARK 923 INTER-LIGAND FREE ENERGY PREDICTED BY IDOCK:   -8.50 KCAL/MOL
REMARK 924 INTRA-LIGAND FREE ENERGY PREDICTED BY IDOCK:   -0.81 KCAL/MOL
REMARK 927      BINDING AFFINITY PREDICTED BY RF-SCORE:    0.00 PKD
ROOT
HETATM    1  C   UNL     1     -13.553  15.520  72.136  1.00  0.00    -0.596 C  
HETATM    2  C   UNL     1     -12.126  15.704  71.641  1.00  0.00    -0.426 C  
ENDROOT
BRANCH   2   3
HETATM    3  N   UNL     1     -11.572  14.423  71.197  1.00  0.00    -0.507 NA 
HETATM    4  H   UNL     1     -11.473  13.781  71.985  1.00  0.00     0.000 HD 
BRANCH   3   5
HETATM    5  C   UNL     1     -12.334  13.793  70.108  1.00  0.00    -0.323 C  
HETATM    6  C   UNL     1     -12.034  14.383  68.665  1.00  0.00    -0.297 C  
HETATM    7  N   UNL     1     -10.788  13.893  68.009  1.00  0.00    -0.242 N  
HETATM    8  C   UNL     1     -12.501  11.389  71.240  1.00  0.00    -0.423 A  
HETATM    9  S   UNL     1     -10.668  12.234  67.758  1.00  0.00    -0.225 S  
HETATM   10  O   UNL     1     -11.663  11.860  66.774  1.00  0.00    -0.548 OA 
HETATM   11  C   UNL     1     -11.325  11.604  69.269  1.00  0.00    -0.290 A  
HETATM   12  C   UNL     1     -12.026  10.101  71.055  1.00  0.00    -0.378 A  
HETATM   13  O   UNL     1      -9.285  11.833  67.679  1.00  0.00    -0.172 OA 
HETATM   14  S   UNL     1     -11.114   9.963  69.614  1.00  0.00    -0.221 SA 
HETATM   15  C   UNL     1     -12.062  12.294  70.213  1.00  0.00    -0.376 A  
BRANCH   7  16
HETATM   16  C   UNL     1      -9.583  14.728  67.995  1.00  0.00    -0.209 C  
BRANCH  16  17
HETATM   17  C   UNL     1      -9.074  15.022  66.596  1.00  0.00    -0.309 C  
BRANCH  17  18
HETATM   18  C   UNL     1     -10.184  15.560  65.705  1.00  0.00    -0.366 C  
BRANCH  18  19
HETATM   19  O   UNL     1     -10.550  14.538  64.780  1.00  0.00    -0.425 OA 
HETATM   20  C   UNL     1     -11.956  14.489  64.588  1.00  0.00    -0.468 C  
ENDBRANCH  18  19
ENDBRANCH  17  18
ENDBRANCH  16  17
ENDBRANCH   7  16
BRANCH  12  21
HETATM   21  S   UNL     1     -12.200   8.602  71.997  1.00  0.00    -0.394 S  
HETATM   22  O   UNL     1     -12.574   7.584  71.046  1.00  0.00    -0.281 OA 
HETATM   23  O   UNL     1     -11.004   8.540  72.801  1.00  0.00    -0.251 OA 
HETATM   24  N   UNL     1     -13.490   8.830  73.046  1.00  0.00    -0.774 N  
HETATM   25  H1  UNL     1     -13.591   7.970  73.586  1.00  0.00     0.000 HD 
HETATM   26  H2  UNL     1     -14.065   9.668  73.128  1.00  0.00     0.000 HD 
ENDBRANCH  12  21
ENDBRANCH   3   5
ENDBRANCH   2   3
TORSDOF 7
ENDMDL
MODEL        5
REMARK 921   NORMALIZED FREE ENERGY PREDICTED BY IDOCK:   -6.07 KCAL/MOL
REMARK 922        TOTAL FREE ENERGY PREDICTED BY IDOCK:   -9.29 KCAL/MOL
REMARK 923 INTER-LIGAND FREE ENERGY PREDICTED BY IDOCK:   -8.67 KCAL/MOL
REMARK 924 INTRA-LIGAND FREE ENERGY PREDICTED BY IDOCK:   -0.62 KCAL/MOL
REMARK 927      BINDING AFFINITY PREDICTED BY RF-SCORE:    0.00 PKD
ROOT
HETATM    1  C   UNL     1     -13.509  15.607  72.664  1.00  0.00    -0.655 C  
HETATM    2  C   UNL     1     -12.117  15.854  72.098  1.00  0.00    -0.506 C  
ENDROOT
BRANCH   2   3
HETATM    3  N   UNL     1     -11.606  14.640  71.458  1.00  0.00    -0.488 NA 
HETATM    4  H   UNL     1     -11.429  13.914  72.153  1.00  0.00     0.000 HD 
BRANCH   3   5
HETATM    5  C   UNL     1     -12.469  14.130  70.381  1.00  0.00    -0.357 C  
HETATM    6  C   UNL     1     -12.232  14.809  68.967  1.00  0.00    -0.145 C  
HETATM    7  N   UNL     1     -11.058  14.310  68.195  1.00  0.00    -0.250 N  
HETATM    8  C   UNL     1     -12.687  11.659  71.350  1.00  0.00    -0.445 A  
HETATM    9  S   UNL     1     -11.042  12.671  67.820  1.00  0.00    -0.264 S  
HETATM   10  O   UNL     1     -12.116  12.417  66.882  1.00  0.00    -0.564 OA 
HETATM   11  C   UNL     1     -11.631  11.963  69.324  1.00  0.00    -0.315 A  
HETATM   12  C   UNL     1     -12.293  10.367  71.043  1.00  0.00    -0.387 A  
HETATM   13  O   UNL     1      -9.689  12.211  67.619  1.00  0.00    -0.182 OA 
HETATM   14  S   UNL     1     -11.485  10.292  69.538  1.00  0.00    -0.176 SA 
HETATM   15  C   UNL     1     -12.269  12.616  70.362  1.00  0.00    -0.368 A  
BRANCH   7  16
HETATM   16  C   UNL     1      -9.814  15.086  68.157  1.00  0.00    -0.216 C  
BRANCH  16  17
HETATM   17  C   UNL     1      -9.580  15.778  66.827  1.00  0.00    -0.253 C  
BRANCH  17  18
HETATM   18  C   UNL     1      -9.601  17.292  66.980  1.00  0.00    -0.261 C  
BRANCH  18  19
HETATM   19  O   UNL     1     -10.221  17.849  65.823  1.00  0.00    -0.577 OA 
HETATM   20  C   UNL     1     -10.489  19.234  65.992  1.00  0.00    -0.487 C  
ENDBRANCH  18  19
ENDBRANCH  17  18
ENDBRANCH  16  17
ENDBRANCH   7  16
BRANCH  12  21
HETATM   21  S   UNL     1     -12.485   8.813  71.887  1.00  0.00    -0.400 S  
HETATM   22  O   UNL     1     -11.199   8.525  72.474  1.00  0.00    -0.357 OA 
HETATM   23  O   UNL     1     -13.695   8.968  72.657  1.00  0.00    -0.470 OA 
HETATM   24  N   UNL     1     -12.789   7.652  70.714  1.00  0.00    -0.546 N  
HETATM   25  H1  UNL     1     -12.899   6.761  71.198  1.00  0.00     0.000 HD 
HETATM   26  H2  UNL     1     -12.853   7.808  69.708  1.00  0.00     0.000 HD 
ENDBRANCH  12  21
ENDBRANCH   3   5
ENDBRANCH   2   3
TORSDOF 7
ENDMDL
MODEL        6
REMARK 921   NORMALIZED FREE ENERGY PREDICTED BY IDOCK:   -5.96 KCAL/MOL
REMARK 922        TOTAL FREE ENERGY PREDICTED BY IDOCK:   -9.12 KCAL/MOL
REMARK 923 INTER-LIGAND FREE ENERGY PREDICTED BY IDOCK:   -8.47 KCAL/MOL
REMARK 924 INTRA-LIGAND FREE ENERGY PREDICTED BY IDOCK:   -0.65 KCAL/MOL
REMARK 927      BINDING AFFINITY PREDICTED BY RF-SCORE:    0.00 PKD
ROOT
HETATM    1  C   UNL     1     -13.589  15.459  72.410  1.00  0.00    -0.618 C  
HETATM    2  C   UNL     1     -12.130  15.750  72.086  1.00  0.00    -0.478 C  
ENDROOT
BRANCH   2   3
HETATM    3  N   UNL     1     -11.534  14.622  71.368  1.00  0.00    -0.517 NA 
HETATM    4  H   UNL     1     -11.268  13.881  72.018  1.00  0.00     0.000 HD 
BRANCH   3   5
HETATM    5  C   UNL     1     -12.384  14.088  70.293  1.00  0.00    -0.358 C  
HETATM    6  C   UNL     1     -12.104  14.709  68.859  1.00  0.00    -0.216 C  
HETATM    7  N   UNL     1     -10.924  14.158  68.132  1.00  0.00    -0.243 N  
HETATM    8  C   UNL     1     -12.674  11.661  71.348  1.00  0.00    -0.445 A  
HETATM    9  S   UNL     1     -10.934  12.506  67.819  1.00  0.00    -0.247 S  
HETATM   10  O   UNL     1     -11.993  12.239  66.868  1.00  0.00    -0.578 OA 
HETATM   11  C   UNL     1     -11.570  11.867  69.335  1.00  0.00    -0.325 A  
HETATM   12  C   UNL     1     -12.301  10.350  71.097  1.00  0.00    -0.400 A  
HETATM   13  O   UNL     1      -9.587  12.013  67.665  1.00  0.00    -0.180 OA 
HETATM   14  S   UNL     1     -11.462  10.203  69.614  1.00  0.00    -0.158 SA 
HETATM   15  C   UNL     1     -12.216  12.571  70.334  1.00  0.00    -0.368 A  
BRANCH   7  16
HETATM   16  C   UNL     1      -9.664  14.907  68.093  1.00  0.00    -0.214 C  
BRANCH  16  17
HETATM   17  C   UNL     1      -9.832  16.337  67.615  1.00  0.00    -0.238 C  
BRANCH  17  18
HETATM   18  C   UNL     1      -9.706  16.434  66.102  1.00  0.00    -0.327 C  
BRANCH  18  19
HETATM   19  O   UNL     1      -8.823  17.511  65.796  1.00  0.00    -0.514 OA 
HETATM   20  C   UNL     1      -7.499  17.241  66.236  1.00  0.00    -0.319 C  
ENDBRANCH  18  19
ENDBRANCH  17  18
ENDBRANCH  16  17
ENDBRANCH   7  16
BRANCH  12  21
HETATM   21  S   UNL     1     -12.542   8.833  71.994  1.00  0.00    -0.409 S  
HETATM   22  O   UNL     1     -11.264   8.518  72.582  1.00  0.00    -0.331 OA 
HETATM   23  O   UNL     1     -13.741   9.057  72.765  1.00  0.00    -0.434 OA 
HETATM   24  N   UNL     1     -12.897   7.646  70.863  1.00  0.00    -0.557 N  
HETATM   25  H1  UNL     1     -13.036   6.776  71.377  1.00  0.00     0.000 HD 
HETATM   26  H2  UNL     1     -12.962   7.770  69.852  1.00  0.00     0.000 HD 
ENDBRANCH  12  21
ENDBRANCH   3   5
ENDBRANCH   2   3
TORSDOF 7
ENDMDL
MODEL        7
REMARK 921   NORMALIZED FREE ENERGY PREDICTED BY IDOCK:   -5.67 KCAL/MOL
REMARK 922        TOTAL FREE ENERGY PREDICTED BY IDOCK:   -8.72 KCAL/MOL
REMARK 923 INTER-LIGAND FREE ENERGY PREDICTED BY IDOCK:   -8.17 KCAL/MOL
REMARK 924 INTRA-LIGAND FREE ENERGY PREDICTED BY IDOCK:   -0.55 KCAL/MOL
REMARK 927      BINDING AFFINITY PREDICTED BY RF-SCORE:    0.00 PKD
ROOT
HETATM    1  C   UNL     1     -12.659  15.339  71.152  1.00  0.00    -0.457 C  
HETATM    2  C   UNL     1     -11.722  14.307  70.537  1.00  0.00    -0.243 C  
ENDROOT
BRANCH   2   3
HETATM    3  N   UNL     1     -10.754  14.961  69.654  1.00  0.00    -0.326 NA 
HETATM    4  H   UNL     1     -10.176  14.268  69.178  1.00  0.00     0.000 HD 
BRANCH   3   5
HETATM    5  C   UNL     1     -11.365  15.883  68.684  1.00  0.00    -0.376 C  
HETATM    6  C   UNL     1     -10.765  17.352  68.700  1.00  0.00    -0.249 C  
HETATM    7  N   UNL     1      -9.471  17.533  67.982  1.00  0.00    -0.272 N  
HETATM    8  C   UNL     1     -11.939  14.027  66.863  1.00  0.00    -0.479 A  
HETATM    9  S   UNL     1      -9.456  17.151  66.345  1.00  0.00    -0.257 S  
HETATM   10  O   UNL     1     -10.291  18.112  65.655  1.00  0.00    -0.603 OA 
HETATM   11  C   UNL     1     -10.420  15.674  66.322  1.00  0.00    -0.306 A  
HETATM   12  C   UNL     1     -11.554  13.646  65.588  1.00  0.00    -0.328 A  
HETATM   13  O   UNL     1      -8.120  16.810  65.918  1.00  0.00    -0.416 OA 
HETATM   14  S   UNL     1     -10.419  14.735  64.917  1.00  0.00    -0.291 SA 
HETATM   15  C   UNL     1     -11.249  15.201  67.323  1.00  0.00    -0.324 A  
BRANCH   7  16
HETATM   16  C   UNL     1      -8.214  17.607  68.733  1.00  0.00    -0.224 C  
BRANCH  16  17
HETATM   17  C   UNL     1      -7.725  19.028  68.945  1.00  0.00    -0.344 C  
BRANCH  17  18
HETATM   18  C   UNL     1      -8.674  20.039  68.318  1.00  0.00    -0.129 C  
BRANCH  18  19
HETATM   19  O   UNL     1      -7.999  20.674  67.235  1.00  0.00    -0.335 OA 
HETATM   20  C   UNL     1      -6.738  21.190  67.639  1.00  0.00    -0.290 C  
ENDBRANCH  18  19
ENDBRANCH  17  18
ENDBRANCH  16  17
ENDBRANCH   7  16
BRANCH  12  21
HETATM   21  S   UNL     1     -12.023  12.287  64.540  1.00  0.00    -0.368 S  
HETATM   22  O   UNL     1     -11.224  11.166  64.972  1.00  0.00    -0.105 OA 
HETATM   23  O   UNL     1     -13.465  12.294  64.565  1.00  0.00    -0.686 OA 
HETATM   24  N   UNL     1     -11.553  12.686  62.980  1.00  0.00    -0.761 N  
HETATM   25  H1  UNL     1     -11.822  11.906  62.379  1.00  0.00     0.000 HD 
HETATM   26  H2  UNL     1     -11.087  13.545  62.687  1.00  0.00     0.000 HD 
ENDBRANCH  12  21
ENDBRANCH   3   5
ENDBRANCH   2   3
TORSDOF 7
ENDMDL
MODEL        8
REMARK 921   NORMALIZED FREE ENERGY PREDICTED BY IDOCK:   -5.64 KCAL/MOL
REMARK 922        TOTAL FREE ENERGY PREDICTED BY IDOCK:   -8.68 KCAL/MOL
REMARK 923 INTER-LIGAND FREE ENERGY PREDICTED BY IDOCK:   -8.02 KCAL/MOL
REMARK 924 INTRA-LIGAND FREE ENERGY PREDICTED BY IDOCK:   -0.66 KCAL/MOL
REMARK 927      BINDING AFFINITY PREDICTED BY RF-SCORE:    0.00 PKD
ROOT
HETATM    1  C   UNL     1     -13.064  11.760  71.788  1.00  0.00    -0.480 C  
HETATM    2  C   UNL     1     -13.123  10.411  71.084  1.00  0.00    -0.383 C  
ENDROOT
BRANCH   2   3
HETATM    3  N   UNL     1     -12.741  10.554  69.678  1.00  0.00    -0.616 NA 
HETATM    4  H   UNL     1     -13.336  11.240  69.211  1.00  0.00     0.000 HD 
BRANCH   3   5
HETATM    5  C   UNL     1     -11.320  10.880  69.480  1.00  0.00    -0.283 C  
HETATM    6  C   UNL     1     -10.313   9.728  69.902  1.00  0.00    -0.254 C  
HETATM    7  N   UNL     1     -10.145   8.620  68.919  1.00  0.00    -0.197 N  
HETATM    8  C   UNL     1     -11.691  12.478  67.383  1.00  0.00    -0.432 A  
HETATM    9  S   UNL     1      -9.592   9.045  67.389  1.00  0.00    -0.161 S  
HETATM   10  O   UNL     1      -8.225   9.506  67.521  1.00  0.00    -0.119 OA 
HETATM   11  C   UNL     1     -10.501  10.527  67.089  1.00  0.00    -0.249 A  
HETATM   12  C   UNL     1     -11.431  12.511  66.023  1.00  0.00    -0.377 A  
HETATM   13  O   UNL     1     -10.009   8.069  66.411  1.00  0.00    -0.229 OA 
HETATM   14  S   UNL     1     -10.514  11.157  65.520  1.00  0.00    -0.233 SA 
HETATM   15  C   UNL     1     -11.181  11.293  68.017  1.00  0.00    -0.351 A  
BRANCH   7  16
HETATM   16  C   UNL     1     -10.828   7.338  69.125  1.00  0.00    -0.136 C  
BRANCH  16  17
HETATM   17  C   UNL     1     -11.414   7.189  70.516  1.00  0.00    -0.334 C  
BRANCH  17  18
HETATM   18  C   UNL     1     -10.850   5.966  71.225  1.00  0.00    -0.270 C  
BRANCH  18  19
HETATM   19  O   UNL     1     -10.865   6.216  72.629  1.00  0.00    -0.221 OA 
HETATM   20  C   UNL     1     -11.079   5.022  73.368  1.00  0.00    -0.335 C  
ENDBRANCH  18  19
ENDBRANCH  17  18
ENDBRANCH  16  17
ENDBRANCH   7  16
BRANCH  12  21
HETATM   21  S   UNL     1     -11.840  13.676  64.742  1.00  0.00    -0.409 S  
HETATM   22  O   UNL     1     -13.214  14.047  64.975  1.00  0.00    -0.720 OA 
HETATM   23  O   UNL     1     -10.748  14.619  64.750  1.00  0.00    -0.412 OA 
HETATM   24  N   UNL     1     -11.767  12.848  63.285  1.00  0.00    -0.815 N  
HETATM   25  H1  UNL     1     -12.002  13.516  62.550  1.00  0.00     0.000 HD 
HETATM   26  H2  UNL     1     -11.533  11.863  63.157  1.00  0.00     0.000 HD 
ENDBRANCH  12  21
ENDBRANCH   3   5
ENDBRANCH   2   3
TORSDOF 7
ENDMDL
MODEL        9
REMARK 921   NORMALIZED FREE ENERGY PREDICTED BY IDOCK:   -5.55 KCAL/MOL
REMARK 922        TOTAL FREE ENERGY PREDICTED BY IDOCK:   -8.56 KCAL/MOL
REMARK 923 INTER-LIGAND FREE ENERGY PREDICTED BY IDOCK:   -7.78 KCAL/MOL
REMARK 924 INTRA-LIGAND FREE ENERGY PREDICTED BY IDOCK:   -0.77 KCAL/MOL
REMARK 927      BINDING AFFINITY PREDICTED BY RF-SCORE:    0.00 PKD
ROOT
HETATM    1  C   UNL     1      -7.591  11.201  67.817  1.00  0.00    -0.100 C  
HETATM    2  C   UNL     1      -6.610  12.361  67.710  1.00  0.00    -0.113 C  
ENDROOT
BRANCH   2   3
HETATM    3  N   UNL     1      -7.242  13.501  67.043  1.00  0.00    -0.355 NA 
HETATM    4  H   UNL     1      -7.455  13.276  66.070  1.00  0.00     0.000 HD 
BRANCH   3   5
HETATM    5  C   UNL     1      -8.439  14.004  67.734  1.00  0.00    -0.184 C  
HETATM    6  C   UNL     1      -8.211  15.332  68.571  1.00  0.00    -0.146 C  
HETATM    7  N   UNL     1      -8.192  16.600  67.786  1.00  0.00    -0.175 N  
HETATM    8  C   UNL     1     -10.191  13.100  65.944  1.00  0.00    -0.294 A  
HETATM    9  S   UNL     1      -9.576  16.960  66.902  1.00  0.00    -0.265 S  
HETATM   10  O   UNL     1     -10.647  17.232  67.839  1.00  0.00    -0.365 OA 
HETATM   11  C   UNL     1      -9.993  15.377  66.246  1.00  0.00    -0.288 A  
HETATM   12  C   UNL     1     -11.077  13.587  64.996  1.00  0.00    -0.328 A  
HETATM   13  O   UNL     1      -9.256  17.825  65.792  1.00  0.00    -0.505 OA 
HETATM   14  S   UNL     1     -11.152  15.295  65.017  1.00  0.00    -0.413 SA 
HETATM   15  C   UNL     1      -9.517  14.147  66.662  1.00  0.00    -0.303 A  
BRANCH   7  16
HETATM   16  C   UNL     1      -6.919  17.247  67.456  1.00  0.00    -0.158 C  
BRANCH  16  17
HETATM   17  C   UNL     1      -6.422  18.182  68.543  1.00  0.00    -0.214 C  
BRANCH  17  18
HETATM   18  C   UNL     1      -7.489  19.196  68.930  1.00  0.00    -0.343 C  
BRANCH  18  19
HETATM   19  O   UNL     1      -7.605  20.148  67.874  1.00  0.00    -0.298 OA 
HETATM   20  C   UNL     1      -6.436  20.949  67.765  1.00  0.00    -0.348 C  
ENDBRANCH  18  19
ENDBRANCH  17  18
ENDBRANCH  16  17
ENDBRANCH   7  16
BRANCH  12  21
HETATM   21  S   UNL     1     -12.138  12.789  63.812  1.00  0.00    -0.536 S  
HETATM   22  O   UNL     1     -13.149  12.111  64.585  1.00  0.00    -0.673 OA 
HETATM   23  O   UNL     1     -12.431  13.816  62.842  1.00  0.00    -0.601 OA 
HETATM   24  N   UNL     1     -11.214  11.624  63.034  1.00  0.00    -0.776 N  
HETATM   25  H1  UNL     1     -11.823  11.166  62.355  1.00  0.00     0.000 HD 
HETATM   26  H2  UNL     1     -10.232  11.412  63.207  1.00  0.00     0.000 HD 
ENDBRANCH  12  21
ENDBRANCH   3   5
ENDBRANCH   2   3
TORSDOF 7
ENDMDL
MODEL       10
REMARK 921   NORMALIZED FREE ENERGY PREDICTED BY IDOCK:   -5.55 KCAL/MOL
REMARK 922        TOTAL FREE ENERGY PREDICTED BY IDOCK:   -8.56 KCAL/MOL
REMARK 923 INTER-LIGAND FREE ENERGY PREDICTED BY IDOCK:   -7.91 KCAL/MOL
REMARK 924 INTRA-LIGAND FREE ENERGY PREDICTED BY IDOCK:   -0.65 KCAL/MOL
REMARK 927      BINDING AFFINITY PREDICTED BY RF-SCORE:    0.00 PKD
ROOT
HETATM    1  C   UNL     1      -6.485  12.969  69.204  1.00  0.00    -0.108 C  
HETATM    2  C   UNL     1      -6.539  13.006  67.683  1.00  0.00    -0.159 C  
ENDROOT
BRANCH   2   3
HETATM    3  N   UNL     1      -7.028  14.308  67.223  1.00  0.00    -0.381 NA 
HETATM    4  H   UNL     1      -7.150  14.308  66.210  1.00  0.00     0.000 HD 
BRANCH   3   5
HETATM    5  C   UNL     1      -8.261  14.748  67.894  1.00  0.00    -0.150 C  
HETATM    6  C   UNL     1      -8.143  16.142  68.643  1.00  0.00    -0.203 C  
HETATM    7  N   UNL     1      -8.239  17.354  67.780  1.00  0.00    -0.213 N  
HETATM    8  C   UNL     1      -9.938  13.586  66.184  1.00  0.00    -0.310 A  
HETATM    9  S   UNL     1      -9.653  17.537  66.890  1.00  0.00    -0.290 S  
HETATM   10  O   UNL     1     -10.738  17.775  67.820  1.00  0.00    -0.390 OA 
HETATM   11  C   UNL     1      -9.935  15.885  66.339  1.00  0.00    -0.287 A  
HETATM   12  C   UNL     1     -10.868  13.933  65.217  1.00  0.00    -0.333 A  
HETATM   13  O   UNL     1      -9.415  18.354  65.724  1.00  0.00    -0.452 OA 
HETATM   14  S   UNL     1     -11.089  15.627  65.131  1.00  0.00    -0.313 SA 
HETATM   15  C   UNL     1      -9.353  14.731  66.827  1.00  0.00    -0.268 A  
BRANCH   7  16
HETATM   16  C   UNL     1      -7.027  18.086  67.396  1.00  0.00    -0.191 C  
BRANCH  16  17
HETATM   17  C   UNL     1      -6.271  17.436  66.253  1.00  0.00    -0.241 C  
BRANCH  17  18
HETATM   18  C   UNL     1      -5.457  18.459  65.475  1.00  0.00    -0.186 C  
BRANCH  18  19
HETATM   19  O   UNL     1      -6.302  19.044  64.487  1.00  0.00    -0.480 OA 
HETATM   20  C   UNL     1      -6.300  20.462  64.574  1.00  0.00    -0.285 C  
ENDBRANCH  18  19
ENDBRANCH  17  18
ENDBRANCH  16  17
ENDBRANCH   7  16
BRANCH  12  21
HETATM   21  S   UNL     1     -11.862  12.974  64.097  1.00  0.00    -0.448 S  
HETATM   22  O   UNL     1     -10.947  12.084  63.425  1.00  0.00    -0.409 OA 
HETATM   23  O   UNL     1     -12.972  12.519  64.899  1.00  0.00    -0.821 OA 
HETATM   24  N   UNL     1     -12.480  14.037  62.956  1.00  0.00    -0.988 N  
HETATM   25  H1  UNL     1     -13.050  13.487  62.313  1.00  0.00     0.000 HD 
HETATM   26  H2  UNL     1     -12.317  15.043  62.912  1.00  0.00     0.000 HD 
ENDBRANCH  12  21
ENDBRANCH   3   5
ENDBRANCH   2   3
TORSDOF 7
ENDMDL
MODEL       11
REMARK 921   NORMALIZED FREE ENERGY PREDICTED BY IDOCK:   -5.43 KCAL/MOL
REMARK 922        TOTAL FREE ENERGY PREDICTED BY IDOCK:   -8.39 KCAL/MOL
REMARK 923 INTER-LIGAND FREE ENERGY PREDICTED BY IDOCK:   -7.69 KCAL/MOL
REMARK 924 INTRA-LIGAND FREE ENERGY PREDICTED BY IDOCK:   -0.70 KCAL/MOL
REMARK 927      BINDING AFFINITY PREDICTED BY RF-SCORE:    0.00 PKD
ROOT
HETATM    1  C   UNL     1     -14.403   8.447  71.853  1.00  0.00    -0.561 C  
HETATM    2  C   UNL     1     -13.416   9.597  72.000  1.00  0.00    -0.428 C  
ENDROOT
BRANCH   2   3
HETATM    3  N   UNL     1     -13.040  10.116  70.683  1.00  0.00    -0.585 NA 
HETATM    4  H   UNL     1     -13.574  10.956  70.461  1.00  0.00     0.000 HD 
BRANCH   3   5
HETATM    5  C   UNL     1     -11.597  10.364  70.534  1.00  0.00    -0.344 C  
HETATM    6  C   UNL     1     -10.671   9.143  70.945  1.00  0.00    -0.275 C  
HETATM    7  N   UNL     1     -10.539   8.058  69.931  1.00  0.00    -0.240 N  
HETATM    8  C   UNL     1     -11.816  12.046  68.481  1.00  0.00    -0.369 A  
HETATM    9  S   UNL     1      -9.919   8.497  68.431  1.00  0.00    -0.193 S  
HETATM   10  O   UNL     1      -8.532   8.873  68.615  1.00  0.00    -0.126 OA 
HETATM   11  C   UNL     1     -10.732  10.038  68.155  1.00  0.00    -0.239 A  
HETATM   12  C   UNL     1     -11.515  12.106  67.130  1.00  0.00    -0.346 A  
HETATM   13  O   UNL     1     -10.362   7.578  67.412  1.00  0.00    -0.221 OA 
HETATM   14  S   UNL     1     -10.663  10.717  66.609  1.00  0.00    -0.164 SA 
HETATM   15  C   UNL     1     -11.393  10.814  69.089  1.00  0.00    -0.348 A  
BRANCH   7  16
HETATM   16  C   UNL     1     -11.300   6.813  70.077  1.00  0.00    -0.342 C  
BRANCH  16  17
HETATM   17  C   UNL     1     -11.492   6.394  71.522  1.00  0.00    -0.360 C  
BRANCH  17  18
HETATM   18  C   UNL     1     -10.278   5.640  72.046  1.00  0.00    -0.205 C  
BRANCH  18  19
HETATM   19  O   UNL     1     -10.388   5.546  73.464  1.00  0.00    -0.193 OA 
HETATM   20  C   UNL     1     -10.016   6.762  74.097  1.00  0.00    -0.342 C  
ENDBRANCH  18  19
ENDBRANCH  17  18
ENDBRANCH  16  17
ENDBRANCH   7  16
BRANCH  12  21
HETATM   21  S   UNL     1     -11.820  13.332  65.878  1.00  0.00    -0.416 S  
HETATM   22  O   UNL     1     -10.523  13.699  65.365  1.00  0.00    -0.299 OA 
HETATM   23  O   UNL     1     -12.867  12.763  65.064  1.00  0.00    -0.743 OA 
HETATM   24  N   UNL     1     -12.469  14.672  66.652  1.00  0.00    -0.349 N  
HETATM   25  H1  UNL     1     -12.644  15.375  65.933  1.00  0.00     0.000 HD 
HETATM   26  H2  UNL     1     -12.654  14.766  67.650  1.00  0.00     0.000 HD 
ENDBRANCH  12  21
ENDBRANCH   3   5
ENDBRANCH   2   3
TORSDOF 7
ENDMDL
MODEL       12
REMARK 921   NORMALIZED FREE ENERGY PREDICTED BY IDOCK:   -5.43 KCAL/MOL
REMARK 922        TOTAL FREE ENERGY PREDICTED BY IDOCK:   -8.38 KCAL/MOL
REMARK 923 INTER-LIGAND FREE ENERGY PREDICTED BY IDOCK:   -7.59 KCAL/MOL
REMARK 924 INTRA-LIGAND FREE ENERGY PREDICTED BY IDOCK:   -0.79 KCAL/MOL
REMARK 927      BINDING AFFINITY PREDICTED BY RF-SCORE:    0.00 PKD
ROOT
HETATM    1  C   UNL     1     -13.843  13.522  72.413  1.00  0.00    -0.687 C  
HETATM    2  C   UNL     1     -12.865  14.550  71.859  1.00  0.00    -0.338 C  
ENDROOT
BRANCH   2   3
HETATM    3  N   UNL     1     -11.779  13.882  71.140  1.00  0.00    -0.413 NA 
HETATM    4  H   UNL     1     -11.296  13.222  71.749  1.00  0.00     0.000 HD 
BRANCH   3   5
HETATM    5  C   UNL     1     -12.209  13.223  69.897  1.00  0.00    -0.246 C  
HETATM    6  C   UNL     1     -11.843  14.012  68.570  1.00  0.00    -0.364 C  
HETATM    7  N   UNL     1     -10.435  13.873  68.098  1.00  0.00    -0.239 N  
HETATM    8  C   UNL     1     -11.986  10.733  70.814  1.00  0.00    -0.464 A  
HETATM    9  S   UNL     1      -9.905  12.315  67.754  1.00  0.00    -0.207 S  
HETATM   10  O   UNL     1     -10.632  11.842  66.594  1.00  0.00    -0.224 OA 
HETATM   11  C   UNL     1     -10.614  11.403  69.087  1.00  0.00    -0.160 A  
HETATM   12  C   UNL     1     -11.207   9.604  70.621  1.00  0.00    -0.320 A  
HETATM   13  O   UNL     1      -8.470  12.231  67.879  1.00  0.00    -0.146 OA 
HETATM   14  S   UNL     1     -10.086   9.817  69.346  1.00  0.00    -0.225 SA 
HETATM   15  C   UNL     1     -11.620  11.815  69.941  1.00  0.00    -0.351 A  
BRANCH   7  16
HETATM   16  C   UNL     1      -9.465  14.944  68.343  1.00  0.00    -0.209 C  
BRANCH  16  17
HETATM   17  C   UNL     1      -9.680  16.161  67.462  1.00  0.00    -0.233 C  
BRANCH  17  18
HETATM   18  C   UNL     1      -9.270  15.882  66.024  1.00  0.00    -0.337 C  
BRANCH  18  19
HETATM   19  O   UNL     1     -10.328  16.308  65.168  1.00  0.00    -0.587 OA 
HETATM   20  C   UNL     1     -11.190  15.231  64.830  1.00  0.00    -0.396 C  
ENDBRANCH  18  19
ENDBRANCH  17  18
ENDBRANCH  16  17
ENDBRANCH   7  16
BRANCH  12  21
HETATM   21  S   UNL     1     -11.170   8.011  71.412  1.00  0.00    -0.260 S  
HETATM   22  O   UNL     1      -9.837   7.502  71.207  1.00  0.00    -0.178 OA 
HETATM   23  O   UNL     1     -11.742   8.244  72.717  1.00  0.00    -0.397 OA 
HETATM   24  N   UNL     1     -12.236   7.023  70.575  1.00  0.00    -0.607 N  
HETATM   25  H1  UNL     1     -12.215   6.109  71.029  1.00  0.00     0.000 HD 
HETATM   26  H2  UNL     1     -12.798   7.284  69.765  1.00  0.00     0.000 HD 
ENDBRANCH  12  21
ENDBRANCH   3   5
ENDBRANCH   2   3
TORSDOF 7
ENDMDL
MODEL       13
REMARK 921   NORMALIZED FREE ENERGY PREDICTED BY IDOCK:   -5.42 KCAL/MOL
REMARK 922        TOTAL FREE ENERGY PREDICTED BY IDOCK:   -8.37 KCAL/MOL
REMARK 923 INTER-LIGAND FREE ENERGY PREDICTED BY IDOCK:   -7.69 KCAL/MOL
REMARK 924 INTRA-LIGAND FREE ENERGY PREDICTED BY IDOCK:   -0.68 KCAL/MOL
REMARK 927      BINDING AFFINITY PREDICTED BY RF-SCORE:    0.00 PKD
ROOT
HETATM    1  C   UNL     1     -14.212   8.583  71.706  1.00  0.00    -0.525 C  
HETATM    2  C   UNL     1     -13.345   9.828  71.832  1.00  0.00    -0.436 C  
ENDROOT
BRANCH   2   3
HETATM    3  N   UNL     1     -12.967  10.322  70.506  1.00  0.00    -0.549 NA 
HETATM    4  H   UNL     1     -13.495  11.163  70.272  1.00  0.00     0.000 HD 
BRANCH   3   5
HETATM    5  C   UNL     1     -11.523  10.554  70.349  1.00  0.00    -0.341 C  
HETATM    6  C   UNL     1     -10.606   9.345  70.814  1.00  0.00    -0.303 C  
HETATM    7  N   UNL     1     -10.479   8.217  69.848  1.00  0.00    -0.222 N  
HETATM    8  C   UNL     1     -11.728  12.147  68.225  1.00  0.00    -0.401 A  
HETATM    9  S   UNL     1      -9.854   8.587  68.332  1.00  0.00    -0.178 S  
HETATM   10  O   UNL     1      -8.465   8.962  68.501  1.00  0.00    -0.126 OA 
HETATM   11  C   UNL     1     -10.656  10.120  67.988  1.00  0.00    -0.231 A  
HETATM   12  C   UNL     1     -11.424  12.146  66.873  1.00  0.00    -0.351 A  
HETATM   13  O   UNL     1     -10.302   7.627  67.352  1.00  0.00    -0.223 OA 
HETATM   14  S   UNL     1     -10.581  10.731  66.414  1.00  0.00    -0.162 SA 
HETATM   15  C   UNL     1     -11.314  10.939  68.886  1.00  0.00    -0.354 A  
BRANCH   7  16
HETATM   16  C   UNL     1     -11.248   6.984  70.046  1.00  0.00    -0.269 C  
BRANCH  16  17
HETATM   17  C   UNL     1     -10.725   6.128  71.183  1.00  0.00    -0.312 C  
BRANCH  17  18
HETATM   18  C   UNL     1     -11.735   6.037  72.317  1.00  0.00    -0.284 C  
BRANCH  18  19
HETATM   19  O   UNL     1     -11.468   4.850  73.060  1.00  0.00    -0.293 OA 
HETATM   20  C   UNL     1     -10.368   4.133  72.518  1.00  0.00    -0.159 C  
ENDBRANCH  18  19
ENDBRANCH  17  18
ENDBRANCH  16  17
ENDBRANCH   7  16
BRANCH  12  21
HETATM   21  S   UNL     1     -11.719  13.319  65.569  1.00  0.00    -0.366 S  
HETATM   22  O   UNL     1     -12.693  12.703  64.701  1.00  0.00    -0.643 OA 
HETATM   23  O   UNL     1     -11.940  14.571  66.252  1.00  0.00    -0.382 OA 
HETATM   24  N   UNL     1     -10.285  13.470  64.712  1.00  0.00    -0.574 N  
HETATM   25  H1  UNL     1     -10.454  14.143  63.963  1.00  0.00     0.000 HD 
HETATM   26  H2  UNL     1      -9.410  12.982  64.902  1.00  0.00     0.000 HD 
ENDBRANCH  12  21
ENDBRANCH   3   5
ENDBRANCH   2   3
TORSDOF 7
ENDMDL
MODEL       14
REMARK 921   NORMALIZED FREE ENERGY PREDICTED BY IDOCK:   -5.39 KCAL/MOL
REMARK 922        TOTAL FREE ENERGY PREDICTED BY IDOCK:   -8.32 KCAL/MOL
REMARK 923 INTER-LIGAND FREE ENERGY PREDICTED BY IDOCK:   -7.52 KCAL/MOL
REMARK 924 INTRA-LIGAND FREE ENERGY PREDICTED BY IDOCK:   -0.80 KCAL/MOL
REMARK 927      BINDING AFFINITY PREDICTED BY RF-SCORE:    0.00 PKD
ROOT
HETATM    1  C   UNL     1      -9.280  11.399  62.950  1.00  0.00    -0.313 C  
HETATM    2  C   UNL     1     -10.617  12.019  63.334  1.00  0.00    -0.428 C  
ENDROOT
BRANCH   2   3
HETATM    3  N   UNL     1     -10.409  13.319  63.976  1.00  0.00    -0.690 NA 
HETATM    4  H   UNL     1     -10.271  14.048  63.275  1.00  0.00     0.000 HD 
BRANCH   3   5
HETATM    5  C   UNL     1     -11.479  13.695  64.912  1.00  0.00    -0.340 C  
HETATM    6  C   UNL     1     -12.035  12.499  65.795  1.00  0.00    -0.420 C  
HETATM    7  N   UNL     1     -11.204  12.119  66.973  1.00  0.00    -0.294 N  
HETATM    8  C   UNL     1     -10.633  16.188  65.313  1.00  0.00    -0.390 A  
HETATM    9  S   UNL     1     -10.926  13.318  68.118  1.00  0.00    -0.267 S  
HETATM   10  O   UNL     1     -12.189  13.624  68.759  1.00  0.00    -0.339 OA 
HETATM   11  C   UNL     1     -10.632  14.721  67.091  1.00  0.00    -0.285 A  
HETATM   12  C   UNL     1     -10.085  16.967  66.319  1.00  0.00    -0.320 A  
HETATM   13  O   UNL     1      -9.712  13.047  68.849  1.00  0.00     0.000 OA 
HETATM   14  S   UNL     1      -9.988  16.115  67.799  1.00  0.00    -0.240 SA 
HETATM   15  C   UNL     1     -10.924  14.849  65.746  1.00  0.00    -0.345 A  
BRANCH   7  16
HETATM   16  C   UNL     1     -10.334  10.940  66.915  1.00  0.00    -0.238 C  
BRANCH  16  17
HETATM   17  C   UNL     1     -10.815   9.797  67.789  1.00  0.00    -0.306 C  
BRANCH  17  18
HETATM   18  C   UNL     1      -9.749   9.381  68.792  1.00  0.00    -0.156 C  
BRANCH  18  19
HETATM   19  O   UNL     1      -9.979  10.090  70.008  1.00  0.00    -0.249 OA 
HETATM   20  C   UNL     1     -11.361  10.133  70.332  1.00  0.00    -0.326 C  
ENDBRANCH  18  19
ENDBRANCH  17  18
ENDBRANCH  16  17
ENDBRANCH   7  16
BRANCH  12  21
HETATM   21  S   UNL     1      -9.503  18.647  66.364  1.00  0.00    -0.280 S  
HETATM   22  O   UNL     1      -8.139  18.602  65.897  1.00  0.00    -0.483 OA 
HETATM   23  O   UNL     1     -10.543  19.407  65.713  1.00  0.00    -0.496 OA 
HETATM   24  N   UNL     1      -9.483  19.117  67.975  1.00  0.00    -0.316 N  
HETATM   25  H1  UNL     1      -9.149  20.080  68.001  1.00  0.00     0.000 HD 
HETATM   26  H2  UNL     1      -9.753  18.547  68.776  1.00  0.00     0.000 HD 
ENDBRANCH  12  21
ENDBRANCH   3   5
ENDBRANCH   2   3
TORSDOF 7
ENDMDL
MODEL       15
REMARK 921   NORMALIZED FREE ENERGY PREDICTED BY IDOCK:   -5.36 KCAL/MOL
REMARK 922        TOTAL FREE ENERGY PREDICTED BY IDOCK:   -8.29 KCAL/MOL
REMARK 923 INTER-LIGAND FREE ENERGY PREDICTED BY IDOCK:   -7.57 KCAL/MOL
REMARK 924 INTRA-LIGAND FREE ENERGY PREDICTED BY IDOCK:   -0.72 KCAL/MOL
REMARK 927      BINDING AFFINITY PREDICTED BY RF-SCORE:    0.00 PKD
ROOT
HETATM    1  C   UNL     1     -10.629  11.905  63.464  1.00  0.00    -0.507 C  
HETATM    2  C   UNL     1     -11.677  12.989  63.677  1.00  0.00    -0.490 C  
ENDROOT
BRANCH   2   3
HETATM    3  N   UNL     1     -11.068  14.171  64.290  1.00  0.00    -0.598 NA 
HETATM    4  H   UNL     1     -11.010  14.936  63.617  1.00  0.00     0.000 HD 
BRANCH   3   5
HETATM    5  C   UNL     1     -11.742  14.613  65.521  1.00  0.00    -0.316 C  
HETATM    6  C   UNL     1     -12.162  13.438  66.502  1.00  0.00    -0.356 C  
HETATM    7  N   UNL     1     -11.072  12.885  67.356  1.00  0.00    -0.263 N  
HETATM    8  C   UNL     1     -10.484  16.953  65.701  1.00  0.00    -0.252 A  
HETATM    9  S   UNL     1     -10.300  13.964  68.389  1.00  0.00    -0.251 S  
HETATM   10  O   UNL     1     -11.255  14.379  69.395  1.00  0.00    -0.264 OA 
HETATM   11  C   UNL     1     -10.144  15.385  67.355  1.00  0.00    -0.233 A  
HETATM   12  C   UNL     1      -9.557  17.593  66.507  1.00  0.00    -0.292 A  
HETATM   13  O   UNL     1      -8.969  13.500  68.701  1.00  0.00    -0.124 OA 
HETATM   14  S   UNL     1      -9.132  16.641  67.863  1.00  0.00    -0.221 SA 
HETATM   15  C   UNL     1     -10.810  15.634  66.170  1.00  0.00    -0.264 A  
BRANCH   7  16
HETATM   16  C   UNL     1     -10.429  11.615  67.004  1.00  0.00    -0.224 C  
BRANCH  16  17
HETATM   17  C   UNL     1     -11.081  10.411  67.657  1.00  0.00    -0.361 C  
BRANCH  17  18
HETATM   18  C   UNL     1     -11.072  10.533  69.174  1.00  0.00    -0.250 C  
BRANCH  18  19
HETATM   19  O   UNL     1     -12.388  10.875  69.603  1.00  0.00    -0.328 OA 
HETATM   20  C   UNL     1     -12.411  11.231  70.978  1.00  0.00    -0.400 C  
ENDBRANCH  18  19
ENDBRANCH  17  18
ENDBRANCH  16  17
ENDBRANCH   7  16
BRANCH  12  21
HETATM   21  S   UNL     1      -8.766  19.183  66.410  1.00  0.00    -0.310 S  
HETATM   22  O   UNL     1      -8.666  19.654  67.770  1.00  0.00    -0.309 OA 
HETATM   23  O   UNL     1      -7.624  18.966  65.556  1.00  0.00    -0.466 OA 
HETATM   24  N   UNL     1      -9.813  20.203  65.586  1.00  0.00    -0.491 N  
HETATM   25  H1  UNL     1      -9.360  21.115  65.531  1.00  0.00     0.000 HD 
HETATM   26  H2  UNL     1     -10.730  19.957  65.211  1.00  0.00     0.000 HD 
ENDBRANCH  12  21
ENDBRANCH   3   5
ENDBRANCH   2   3
TORSDOF 7
ENDMDL
MODEL       16
REMARK 921   NORMALIZED FREE ENERGY PREDICTED BY IDOCK:   -5.32 KCAL/MOL
REMARK 922        TOTAL FREE ENERGY PREDICTED BY IDOCK:   -8.22 KCAL/MOL
REMARK 923 INTER-LIGAND FREE ENERGY PREDICTED BY IDOCK:   -7.46 KCAL/MOL
REMARK 924 INTRA-LIGAND FREE ENERGY PREDICTED BY IDOCK:   -0.77 KCAL/MOL
REMARK 927      BINDING AFFINITY PREDICTED BY RF-SCORE:    0.00 PKD
ROOT
HETATM    1  C   UNL     1     -10.227   5.375  67.251  1.00  0.00    -0.258 C  
HETATM    2  C   UNL     1      -9.450   6.433  66.481  1.00  0.00    -0.156 C  
ENDROOT
BRANCH   2   3
HETATM    3  N   UNL     1     -10.161   7.713  66.517  1.00  0.00    -0.483 NA 
HETATM    4  H   UNL     1     -11.100   7.592  66.899  1.00  0.00     0.000 HD 
BRANCH   3   5
HETATM    5  C   UNL     1      -9.439   8.772  67.238  1.00  0.00    -0.158 C  
HETATM    6  C   UNL     1      -9.056  10.032  66.353  1.00  0.00    -0.149 C  
HETATM    7  N   UNL     1     -10.153  11.013  66.112  1.00  0.00    -0.229 N  
HETATM    8  C   UNL     1     -10.574   8.319  69.604  1.00  0.00    -0.222 A  
HETATM    9  S   UNL     1     -10.847  11.719  67.470  1.00  0.00    -0.254 S  
HETATM   10  O   UNL     1      -9.850  12.568  68.091  1.00  0.00    -0.211 OA 
HETATM   11  C   UNL     1     -10.955  10.340  68.564  1.00  0.00    -0.247 A  
HETATM   12  C   UNL     1     -11.450   8.928  70.488  1.00  0.00    -0.200 A  
HETATM   13  O   UNL     1     -12.191  12.157  67.181  1.00  0.00    -0.507 OA 
HETATM   14  S   UNL     1     -11.891  10.495  69.963  1.00  0.00    -0.308 SA 
HETATM   15  C   UNL     1     -10.304   9.126  68.446  1.00  0.00    -0.242 A  
BRANCH   7  16
HETATM   16  C   UNL     1     -10.866  11.024  64.830  1.00  0.00    -0.140 C  
BRANCH  16  17
HETATM   17  C   UNL     1     -10.668  12.307  64.045  1.00  0.00    -0.438 C  
BRANCH  17  18
HETATM   18  C   UNL     1     -11.977  12.792  63.440  1.00  0.00    -0.535 C  
BRANCH  18  19
HETATM   19  O   UNL     1     -12.456  13.883  64.225  1.00  0.00    -0.638 OA 
HETATM   20  C   UNL     1     -11.388  14.585  64.846  1.00  0.00    -0.394 C  
ENDBRANCH  18  19
ENDBRANCH  17  18
ENDBRANCH  16  17
ENDBRANCH   7  16
BRANCH  12  21
HETATM   21  S   UNL     1     -12.163   8.409  72.033  1.00  0.00    -0.387 S  
HETATM   22  O   UNL     1     -11.050   8.047  72.876  1.00  0.00    -0.392 OA 
HETATM   23  O   UNL     1     -13.106   9.450  72.362  1.00  0.00    -0.416 OA 
HETATM   24  N   UNL     1     -13.049   7.019  71.721  1.00  0.00    -0.492 N  
HETATM   25  H1  UNL     1     -13.458   6.721  72.608  1.00  0.00     0.000 HD 
HETATM   26  H2  UNL     1     -13.158   6.558  70.818  1.00  0.00     0.000 HD 
ENDBRANCH  12  21
ENDBRANCH   3   5
ENDBRANCH   2   3
TORSDOF 7
ENDMDL
MODEL       17
REMARK 921   NORMALIZED FREE ENERGY PREDICTED BY IDOCK:   -5.31 KCAL/MOL
REMARK 922        TOTAL FREE ENERGY PREDICTED BY IDOCK:   -8.22 KCAL/MOL
REMARK 923 INTER-LIGAND FREE ENERGY PREDICTED BY IDOCK:   -7.48 KCAL/MOL
REMARK 924 INTRA-LIGAND FREE ENERGY PREDICTED BY IDOCK:   -0.73 KCAL/MOL
REMARK 927      BINDING AFFINITY PREDICTED BY RF-SCORE:    0.00 PKD
ROOT
HETATM    1  C   UNL     1     -12.943  11.801  71.638  1.00  0.00    -0.467 C  
HETATM    2  C   UNL     1     -13.146  10.434  70.999  1.00  0.00    -0.362 C  
ENDROOT
BRANCH   2   3
HETATM    3  N   UNL     1     -12.727  10.460  69.597  1.00  0.00    -0.614 NA 
HETATM    4  H   UNL     1     -13.335  11.072  69.051  1.00  0.00     0.000 HD 
BRANCH   3   5
HETATM    5  C   UNL     1     -11.316  10.829  69.407  1.00  0.00    -0.285 C  
HETATM    6  C   UNL     1     -10.278   9.692  69.792  1.00  0.00    -0.237 C  
HETATM    7  N   UNL     1     -10.083   8.619  68.775  1.00  0.00    -0.191 N  
HETATM    8  C   UNL     1     -11.734  12.480  67.360  1.00  0.00    -0.432 A  
HETATM    9  S   UNL     1      -9.545   9.105  67.258  1.00  0.00    -0.163 S  
HETATM   10  O   UNL     1      -8.191   9.597  67.402  1.00  0.00    -0.113 OA 
HETATM   11  C   UNL     1     -10.493  10.571  67.005  1.00  0.00    -0.249 A  
HETATM   12  C   UNL     1     -11.477  12.562  66.001  1.00  0.00    -0.377 A  
HETATM   13  O   UNL     1      -9.938   8.148  66.252  1.00  0.00    -0.207 OA 
HETATM   14  S   UNL     1     -10.526  11.248  65.456  1.00  0.00    -0.252 SA 
HETATM   15  C   UNL     1     -11.191  11.290  67.957  1.00  0.00    -0.351 A  
BRANCH   7  16
HETATM   16  C   UNL     1     -10.732   7.314  68.943  1.00  0.00    -0.150 C  
BRANCH  16  17
HETATM   17  C   UNL     1      -9.768   6.212  69.340  1.00  0.00    -0.172 C  
BRANCH  17  18
HETATM   18  C   UNL     1      -9.567   5.218  68.206  1.00  0.00    -0.130 C  
BRANCH  18  19
HETATM   19  O   UNL     1     -10.697   5.293  67.340  1.00  0.00    -0.163 OA 
HETATM   20  C   UNL     1     -10.437   4.672  66.089  1.00  0.00    -0.241 C  
ENDBRANCH  18  19
ENDBRANCH  17  18
ENDBRANCH  16  17
ENDBRANCH   7  16
BRANCH  12  21
HETATM   21  S   UNL     1     -11.920  13.754  64.757  1.00  0.00    -0.427 S  
HETATM   22  O   UNL     1     -13.255  14.186  65.087  1.00  0.00    -0.743 OA 
HETATM   23  O   UNL     1     -10.786  14.645  64.693  1.00  0.00    -0.385 OA 
HETATM   24  N   UNL     1     -11.988  12.934  63.295  1.00  0.00    -0.774 N  
HETATM   25  H1  UNL     1     -12.242  13.618  62.581  1.00  0.00     0.000 HD 
HETATM   26  H2  UNL     1     -11.809  11.941  63.146  1.00  0.00     0.000 HD 
ENDBRANCH  12  21
ENDBRANCH   3   5
ENDBRANCH   2   3
TORSDOF 7
ENDMDL
MODEL       18
REMARK 921   NORMALIZED FREE ENERGY PREDICTED BY IDOCK:   -5.30 KCAL/MOL
REMARK 922        TOTAL FREE ENERGY PREDICTED BY IDOCK:   -8.20 KCAL/MOL
REMARK 923 INTER-LIGAND FREE ENERGY PREDICTED BY IDOCK:   -7.20 KCAL/MOL
REMARK 924 INTRA-LIGAND FREE ENERGY PREDICTED BY IDOCK:   -1.00 KCAL/MOL
REMARK 927      BINDING AFFINITY PREDICTED BY RF-SCORE:    0.00 PKD
ROOT
HETATM    1  C   UNL     1     -12.626  13.981  70.918  1.00  0.00    -0.431 C  
HETATM    2  C   UNL     1     -11.538  13.240  70.153  1.00  0.00    -0.084 C  
ENDROOT
BRANCH   2   3
HETATM    3  N   UNL     1     -10.563  14.187  69.610  1.00  0.00    -0.445 NA 
HETATM    4  H   UNL     1      -9.881  13.705  69.023  1.00  0.00     0.000 HD 
BRANCH   3   5
HETATM    5  C   UNL     1     -11.171  15.311  68.881  1.00  0.00    -0.285 C  
HETATM    6  C   UNL     1     -10.485  16.718  69.144  1.00  0.00    -0.343 C  
HETATM    7  N   UNL     1      -9.224  16.976  68.392  1.00  0.00    -0.251 N  
HETATM    8  C   UNL     1     -11.954  13.884  66.774  1.00  0.00    -0.472 A  
HETATM    9  S   UNL     1      -9.322  16.927  66.714  1.00  0.00    -0.263 S  
HETATM   10  O   UNL     1     -10.135  18.045  66.282  1.00  0.00    -0.352 OA 
HETATM   11  C   UNL     1     -10.372  15.532  66.467  1.00  0.00    -0.288 A  
HETATM   12  C   UNL     1     -11.664  13.746  65.426  1.00  0.00    -0.335 A  
HETATM   13  O   UNL     1      -8.035  16.615  66.141  1.00  0.00    -0.317 OA 
HETATM   14  S   UNL     1     -10.505  14.892  64.907  1.00  0.00    -0.276 SA 
HETATM   15  C   UNL     1     -11.171  14.909  67.408  1.00  0.00    -0.343 A  
BRANCH   7  16
HETATM   16  C   UNL     1      -7.924  16.840  69.058  1.00  0.00    -0.188 C  
BRANCH  16  17
HETATM   17  C   UNL     1      -7.679  15.451  69.615  1.00  0.00    -0.156 C  
BRANCH  17  18
HETATM   18  C   UNL     1      -7.041  14.542  68.575  1.00  0.00    -0.114 C  
BRANCH  18  19
HETATM   19  O   UNL     1      -7.834  13.363  68.464  1.00  0.00    -0.133 OA 
HETATM   20  C   UNL     1      -7.984  12.960  67.110  1.00  0.00    -0.099 C  
ENDBRANCH  18  19
ENDBRANCH  17  18
ENDBRANCH  16  17
ENDBRANCH   7  16
BRANCH  12  21
HETATM   21  S   UNL     1     -12.270  12.646  64.166  1.00  0.00    -0.466 S  
HETATM   22  O   UNL     1     -11.206  11.703  63.925  1.00  0.00    -0.376 OA 
HETATM   23  O   UNL     1     -13.585  12.265  64.623  1.00  0.00    -0.442 OA 
HETATM   24  N   UNL     1     -12.475  13.561  62.775  1.00  0.00    -0.741 N  
HETATM   25  H1  UNL     1     -12.823  12.930  62.052  1.00  0.00     0.000 HD 
HETATM   26  H2  UNL     1     -12.288  14.558  62.671  1.00  0.00     0.000 HD 
ENDBRANCH  12  21
ENDBRANCH   3   5
ENDBRANCH   2   3
TORSDOF 7
ENDMDL
MODEL       19
REMARK 921   NORMALIZED FREE ENERGY PREDICTED BY IDOCK:   -5.26 KCAL/MOL
REMARK 922        TOTAL FREE ENERGY PREDICTED BY IDOCK:   -8.15 KCAL/MOL
REMARK 923 INTER-LIGAND FREE ENERGY PREDICTED BY IDOCK:   -7.21 KCAL/MOL
REMARK 924 INTRA-LIGAND FREE ENERGY PREDICTED BY IDOCK:   -0.93 KCAL/MOL
REMARK 927      BINDING AFFINITY PREDICTED BY RF-SCORE:    0.00 PKD
ROOT
HETATM    1  C   UNL     1     -14.379   7.421  71.554  1.00  0.00    -0.594 C  
HETATM    2  C   UNL     1     -13.628   8.743  71.644  1.00  0.00    -0.383 C  
ENDROOT
BRANCH   2   3
HETATM    3  N   UNL     1     -12.458   8.725  70.763  1.00  0.00    -0.490 NA 
HETATM    4  H   UNL     1     -12.725   8.963  69.807  1.00  0.00     0.000 HD 
BRANCH   3   5
HETATM    5  C   UNL     1     -11.356   9.583  71.223  1.00  0.00    -0.376 C  
HETATM    6  C   UNL     1     -10.231   8.828  72.049  1.00  0.00    -0.331 C  
HETATM    7  N   UNL     1      -9.235   8.066  71.243  1.00  0.00    -0.145 N  
HETATM    8  C   UNL     1     -11.467  11.294  69.185  1.00  0.00    -0.364 A  
HETATM    9  S   UNL     1      -8.338   8.944  70.124  1.00  0.00    -0.155 S  
HETATM   10  O   UNL     1      -7.470   9.843  70.856  1.00  0.00    -0.314 OA 
HETATM   11  C   UNL     1      -9.570  10.013  69.452  1.00  0.00    -0.222 A  
HETATM   12  C   UNL     1     -10.715  11.675  68.086  1.00  0.00    -0.213 A  
HETATM   13  O   UNL     1      -7.875   8.084  69.062  1.00  0.00    -0.105 OA 
HETATM   14  S   UNL     1      -9.203  10.876  68.045  1.00  0.00    -0.161 SA 
HETATM   15  C   UNL     1     -10.818  10.285  69.978  1.00  0.00    -0.364 A  
BRANCH   7  16
HETATM   16  C   UNL     1      -9.344   6.609  71.119  1.00  0.00    -0.163 C  
BRANCH  16  17
HETATM   17  C   UNL     1     -10.739   6.142  70.749  1.00  0.00    -0.326 C  
BRANCH  17  18
HETATM   18  C   UNL     1     -10.829   5.782  69.273  1.00  0.00    -0.303 C  
BRANCH  18  19
HETATM   19  O   UNL     1     -11.003   6.986  68.529  1.00  0.00    -0.166 OA 
HETATM   20  C   UNL     1     -10.865   6.760  67.134  1.00  0.00    -0.392 C  
ENDBRANCH  18  19
ENDBRANCH  17  18
ENDBRANCH  16  17
ENDBRANCH   7  16
BRANCH  12  21
HETATM   21  S   UNL     1     -11.010  12.824  66.761  1.00  0.00    -0.279 S  
HETATM   22  O   UNL     1     -12.071  12.248  65.972  1.00  0.00    -0.623 OA 
HETATM   23  O   UNL     1     -11.107  14.108  67.411  1.00  0.00    -0.291 OA 
HETATM   24  N   UNL     1      -9.622  12.851  65.818  1.00  0.00    -0.453 N  
HETATM   25  H1  UNL     1      -9.791  13.510  65.057  1.00  0.00     0.000 HD 
HETATM   26  H2  UNL     1      -8.770  12.312  65.975  1.00  0.00     0.000 HD 
ENDBRANCH  12  21
ENDBRANCH   3   5
ENDBRANCH   2   3
TORSDOF 7
ENDMDL
MODEL       20
REMARK 921   NORMALIZED FREE ENERGY PREDICTED BY IDOCK:   -5.26 KCAL/MOL
REMARK 922        TOTAL FREE ENERGY PREDICTED BY IDOCK:   -8.14 KCAL/MOL
REMARK 923 INTER-LIGAND FREE ENERGY PREDICTED BY IDOCK:   -7.48 KCAL/MOL
REMARK 924 INTRA-LIGAND FREE ENERGY PREDICTED BY IDOCK:   -0.66 KCAL/MOL
REMARK 927      BINDING AFFINITY PREDICTED BY RF-SCORE:    0.00 PKD
ROOT
HETATM    1  C   UNL     1      -8.888  11.173  62.545  1.00  0.00    -0.331 C  
HETATM    2  C   UNL     1     -10.231  11.616  63.109  1.00  0.00    -0.354 C  
ENDROOT
BRANCH   2   3
HETATM    3  N   UNL     1     -10.089  12.890  63.818  1.00  0.00    -0.729 NA 
HETATM    4  H   UNL     1     -10.135  13.672  63.165  1.00  0.00     0.000 HD 
BRANCH   3   5
HETATM    5  C   UNL     1     -11.056  13.069  64.912  1.00  0.00    -0.301 C  
HETATM    6  C   UNL     1     -11.284  11.782  65.812  1.00  0.00    -0.281 C  
HETATM    7  N   UNL     1     -10.240  11.518  66.844  1.00  0.00    -0.212 N  
HETATM    8  C   UNL     1     -10.562  15.658  65.296  1.00  0.00    -0.448 A  
HETATM    9  S   UNL     1      -9.989  12.723  67.989  1.00  0.00    -0.229 S  
HETATM   10  O   UNL     1     -11.177  12.809  68.814  1.00  0.00    -0.251 OA 
HETATM   11  C   UNL     1     -10.073  14.175  66.991  1.00  0.00    -0.261 A  
HETATM   12  C   UNL     1     -10.003  16.495  66.247  1.00  0.00    -0.329 A  
HETATM   13  O   UNL     1      -8.654  12.637  68.529  1.00  0.00    -0.146 OA 
HETATM   14  S   UNL     1      -9.558  15.640  67.660  1.00  0.00    -0.220 SA 
HETATM   15  C   UNL     1     -10.574  14.280  65.708  1.00  0.00    -0.315 A  
BRANCH   7  16
HETATM   16  C   UNL     1      -9.214  10.496  66.613  1.00  0.00    -0.156 C  
BRANCH  16  17
HETATM   17  C   UNL     1      -9.781   9.179  66.117  1.00  0.00    -0.357 C  
BRANCH  17  18
HETATM   18  C   UNL     1     -10.461   8.411  67.241  1.00  0.00    -0.303 C  
BRANCH  18  19
HETATM   19  O   UNL     1     -10.791   7.111  66.758  1.00  0.00    -0.320 OA 
HETATM   20  C   UNL     1     -10.941   6.182  67.822  1.00  0.00    -0.303 C  
ENDBRANCH  18  19
ENDBRANCH  17  18
ENDBRANCH  16  17
ENDBRANCH   7  16
BRANCH  12  21
HETATM   21  S   UNL     1      -9.691  18.246  66.282  1.00  0.00    -0.248 S  
HETATM   22  O   UNL     1      -8.288  18.400  65.983  1.00  0.00    -0.480 OA 
HETATM   23  O   UNL     1     -10.744  18.816  65.476  1.00  0.00    -0.569 OA 
HETATM   24  N   UNL     1      -9.943  18.758  67.859  1.00  0.00    -0.337 N  
HETATM   25  H1  UNL     1      -9.764  19.762  67.879  1.00  0.00     0.000 HD 
HETATM   26  H2  UNL     1     -10.222  18.176  68.649  1.00  0.00     0.000 HD 
ENDBRANCH  12  21
ENDBRANCH   3   5
ENDBRANCH   2   3
TORSDOF 7
ENDMDL
MODEL       21
REMARK 921   NORMALIZED FREE ENERGY PREDICTED BY IDOCK:   -5.25 KCAL/MOL
REMARK 922        TOTAL FREE ENERGY PREDICTED BY IDOCK:   -8.13 KCAL/MOL
REMARK 923 INTER-LIGAND FREE ENERGY PREDICTED BY IDOCK:   -7.47 KCAL/MOL
REMARK 924 INTRA-LIGAND FREE ENERGY PREDICTED BY IDOCK:   -0.65 KCAL/MOL
REMARK 927      BINDING AFFINITY PREDICTED BY RF-SCORE:    0.00 PKD
ROOT
HETATM    1  C   UNL     1     -12.234  15.983  71.923  1.00  0.00    -0.560 C  
HETATM    2  C   UNL     1     -13.085  15.300  70.861  1.00  0.00    -0.464 C  
ENDROOT
BRANCH   2   3
HETATM    3  N   UNL     1     -12.505  15.509  69.533  1.00  0.00    -0.594 NA 
HETATM    4  H   UNL     1     -12.753  16.431  69.173  1.00  0.00     0.000 HD 
BRANCH   3   5
HETATM    5  C   UNL     1     -11.049  15.308  69.485  1.00  0.00    -0.281 C  
HETATM    6  C   UNL     1     -10.593  13.789  69.424  1.00  0.00     0.096 C  
HETATM    7  N   UNL     1     -10.678  13.138  68.085  1.00  0.00    -0.235 N  
HETATM    8  C   UNL     1     -10.501  17.565  68.182  1.00  0.00    -0.386 A  
HETATM    9  S   UNL     1      -9.780  13.837  66.847  1.00  0.00    -0.273 S  
HETATM   10  O   UNL     1      -8.377  13.653  67.155  1.00  0.00    -0.186 OA 
HETATM   11  C   UNL     1     -10.047  15.555  67.150  1.00  0.00    -0.254 A  
HETATM   12  C   UNL     1     -10.038  17.983  66.945  1.00  0.00    -0.348 A  
HETATM   13  O   UNL     1     -10.358  13.522  65.563  1.00  0.00    -0.285 OA 
HETATM   14  S   UNL     1      -9.593  16.661  65.955  1.00  0.00    -0.228 SA 
HETATM   15  C   UNL     1     -10.547  16.133  68.302  1.00  0.00    -0.288 A  
BRANCH   7  16
HETATM   16  C   UNL     1     -11.793  12.240  67.769  1.00  0.00    -0.273 C  
BRANCH  16  17
HETATM   17  C   UNL     1     -12.145  11.299  68.905  1.00  0.00    -0.292 C  
BRANCH  17  18
HETATM   18  C   UNL     1     -11.082  10.225  69.083  1.00  0.00    -0.235 C  
BRANCH  18  19
HETATM   19  O   UNL     1     -10.800  10.102  70.476  1.00  0.00    -0.298 OA 
HETATM   20  C   UNL     1     -11.987   9.915  71.233  1.00  0.00    -0.402 C  
ENDBRANCH  18  19
ENDBRANCH  17  18
ENDBRANCH  16  17
ENDBRANCH   7  16
BRANCH  12  21
HETATM   21  S   UNL     1      -9.805  19.592  66.224  1.00  0.00    -0.461 S  
HETATM   22  O   UNL     1      -8.454  19.603  65.718  1.00  0.00    -0.401 OA 
HETATM   23  O   UNL     1     -10.969  19.787  65.393  1.00  0.00    -0.414 OA 
HETATM   24  N   UNL     1      -9.897  20.708  67.474  1.00  0.00    -0.414 N  
HETATM   25  H1  UNL     1      -9.764  21.631  67.060  1.00  0.00     0.000 HD 
HETATM   26  H2  UNL     1     -10.057  20.503  68.460  1.00  0.00     0.000 HD 
ENDBRANCH  12  21
ENDBRANCH   3   5
ENDBRANCH   2   3
TORSDOF 7
ENDMDL
MODEL       22
REMARK 921   NORMALIZED FREE ENERGY PREDICTED BY IDOCK:   -5.17 KCAL/MOL
REMARK 922        TOTAL FREE ENERGY PREDICTED BY IDOCK:   -8.02 KCAL/MOL
REMARK 923 INTER-LIGAND FREE ENERGY PREDICTED BY IDOCK:   -7.39 KCAL/MOL
REMARK 924 INTRA-LIGAND FREE ENERGY PREDICTED BY IDOCK:   -0.64 KCAL/MOL
REMARK 927      BINDING AFFINITY PREDICTED BY RF-SCORE:    0.00 PKD
ROOT
HETATM    1  C   UNL     1      -7.022  18.641  65.474  1.00  0.00    -0.196 C  
HETATM    2  C   UNL     1      -7.009  17.263  66.123  1.00  0.00    -0.216 C  
ENDROOT
BRANCH   2   3
HETATM    3  N   UNL     1      -8.342  16.661  66.065  1.00  0.00    -0.437 NA 
HETATM    4  H   UNL     1      -8.593  16.433  65.102  1.00  0.00     0.000 HD 
BRANCH   3   5
HETATM    5  C   UNL     1      -8.499  15.484  66.934  1.00  0.00    -0.254 C  
HETATM    6  C   UNL     1      -8.460  15.801  68.489  1.00  0.00    -0.181 C  
HETATM    7  N   UNL     1      -9.721  16.340  69.074  1.00  0.00    -0.242 N  
HETATM    8  C   UNL     1     -10.045  14.107  65.260  1.00  0.00    -0.364 A  
HETATM    9  S   UNL     1     -11.091  15.376  68.933  1.00  0.00    -0.296 S  
HETATM   10  O   UNL     1     -10.892  14.196  69.748  1.00  0.00    -0.107 OA 
HETATM   11  C   UNL     1     -10.925  14.773  67.284  1.00  0.00    -0.318 A  
HETATM   12  C   UNL     1     -11.351  13.655  65.160  1.00  0.00    -0.309 A  
HETATM   13  O   UNL     1     -12.286  16.184  68.987  1.00  0.00    -0.125 OA 
HETATM   14  S   UNL     1     -12.251  14.002  66.573  1.00  0.00    -0.398 SA 
HETATM   15  C   UNL     1      -9.792  14.802  66.493  1.00  0.00    -0.287 A  
BRANCH   7  16
HETATM   16  C   UNL     1      -9.855  17.775  69.348  1.00  0.00     0.082 C  
BRANCH  16  17
HETATM   17  C   UNL     1      -9.798  18.631  68.097  1.00  0.00    -0.391 C  
BRANCH  17  18
HETATM   18  C   UNL     1      -8.799  19.768  68.250  1.00  0.00    -0.276 C  
BRANCH  18  19
HETATM   19  O   UNL     1      -8.031  19.532  69.428  1.00  0.00    -0.222 OA 
HETATM   20  C   UNL     1      -6.637  19.540  69.151  1.00  0.00    -0.327 C  
ENDBRANCH  18  19
ENDBRANCH  17  18
ENDBRANCH  16  17
ENDBRANCH   7  16
BRANCH  12  21
HETATM   21  S   UNL     1     -12.235  12.787  63.884  1.00  0.00    -0.470 S  
HETATM   22  O   UNL     1     -13.324  12.115  64.549  1.00  0.00    -0.691 OA 
HETATM   23  O   UNL     1     -12.421  13.769  62.842  1.00  0.00    -0.601 OA 
HETATM   24  N   UNL     1     -11.196  11.616  63.279  1.00  0.00    -0.760 N  
HETATM   25  H1  UNL     1     -11.703  11.117  62.546  1.00  0.00     0.000 HD 
HETATM   26  H2  UNL     1     -10.240  11.435  63.585  1.00  0.00     0.000 HD 
ENDBRANCH  12  21
ENDBRANCH   3   5
ENDBRANCH   2   3
TORSDOF 7
ENDMDL
MODEL       23
REMARK 921   NORMALIZED FREE ENERGY PREDICTED BY IDOCK:   -5.15 KCAL/MOL
REMARK 922        TOTAL FREE ENERGY PREDICTED BY IDOCK:   -7.98 KCAL/MOL
REMARK 923 INTER-LIGAND FREE ENERGY PREDICTED BY IDOCK:   -7.19 KCAL/MOL
REMARK 924 INTRA-LIGAND FREE ENERGY PREDICTED BY IDOCK:   -0.79 KCAL/MOL
REMARK 927      BINDING AFFINITY PREDICTED BY RF-SCORE:    0.00 PKD
ROOT
HETATM    1  C   UNL     1     -12.288  15.513  71.808  1.00  0.00    -0.475 C  
HETATM    2  C   UNL     1     -13.042  14.672  70.787  1.00  0.00    -0.323 C  
ENDROOT
BRANCH   2   3
HETATM    3  N   UNL     1     -12.555  14.956  69.435  1.00  0.00    -0.583 NA 
HETATM    4  H   UNL     1     -12.778  15.914  69.166  1.00  0.00     0.000 HD 
BRANCH   3   5
HETATM    5  C   UNL     1     -11.120  14.687  69.254  1.00  0.00    -0.269 C  
HETATM    6  C   UNL     1     -10.792  13.343  68.475  1.00  0.00    -0.265 C  
HETATM    7  N   UNL     1     -10.918  13.406  66.991  1.00  0.00    -0.283 N  
HETATM    8  C   UNL     1     -10.371  17.240  69.145  1.00  0.00    -0.290 A  
HETATM    9  S   UNL     1      -9.952  14.531  66.198  1.00  0.00    -0.326 S  
HETATM   10  O   UNL     1      -8.572  14.114  66.341  1.00  0.00     0.040 OA 
HETATM   11  C   UNL     1     -10.077  15.921  67.278  1.00  0.00    -0.260 A  
HETATM   12  C   UNL     1      -9.862  18.152  68.235  1.00  0.00    -0.351 A  
HETATM   13  O   UNL     1     -10.541  14.902  64.934  1.00  0.00    -0.414 OA 
HETATM   14  S   UNL     1      -9.519  17.419  66.728  1.00  0.00    -0.284 SA 
HETATM   15  C   UNL     1     -10.539  15.928  68.581  1.00  0.00    -0.250 A  
BRANCH   7  16
HETATM   16  C   UNL     1     -12.101  12.852  66.325  1.00  0.00    -0.365 C  
BRANCH  16  17
HETATM   17  C   UNL     1     -11.774  11.731  65.356  1.00  0.00    -0.117 C  
BRANCH  17  18
HETATM   18  C   UNL     1     -12.240  12.065  63.947  1.00  0.00    -0.453 C  
BRANCH  18  19
HETATM   19  O   UNL     1     -11.089  12.194  63.115  1.00  0.00    -0.359 OA 
HETATM   20  C   UNL     1      -9.993  11.446  63.622  1.00  0.00    -0.364 C  
ENDBRANCH  18  19
ENDBRANCH  17  18
ENDBRANCH  16  17
ENDBRANCH   7  16
BRANCH  12  21
HETATM   21  S   UNL     1      -9.488  19.887  68.344  1.00  0.00    -0.222 S  
HETATM   22  O   UNL     1     -10.419  20.429  69.303  1.00  0.00    -0.112 OA 
HETATM   23  O   UNL     1      -8.055  19.937  68.509  1.00  0.00    -0.277 OA 
HETATM   24  N   UNL     1      -9.836  20.560  66.847  1.00  0.00    -0.592 N  
HETATM   25  H1  UNL     1      -9.622  21.555  66.910  1.00  0.00     0.000 HD 
HETATM   26  H2  UNL     1     -10.196  20.067  66.029  1.00  0.00     0.000 HD 
ENDBRANCH  12  21
ENDBRANCH   3   5
ENDBRANCH   2   3
TORSDOF 7
ENDMDL
MODEL       24
REMARK 921   NORMALIZED FREE ENERGY PREDICTED BY IDOCK:   -5.12 KCAL/MOL
REMARK 922        TOTAL FREE ENERGY PREDICTED BY IDOCK:   -7.94 KCAL/MOL
REMARK 923 INTER-LIGAND FREE ENERGY PREDICTED BY IDOCK:   -7.37 KCAL/MOL
REMARK 924 INTRA-LIGAND FREE ENERGY PREDICTED BY IDOCK:   -0.57 KCAL/MOL
REMARK 927      BINDING AFFINITY PREDICTED BY RF-SCORE:    0.00 PKD
ROOT
HETATM    1  C   UNL     1     -11.039  11.924  63.363  1.00  0.00    -0.463 C  
HETATM    2  C   UNL     1     -11.908  13.165  63.515  1.00  0.00    -0.476 C  
ENDROOT
BRANCH   2   3
HETATM    3  N   UNL     1     -11.181  14.208  64.242  1.00  0.00    -0.604 NA 
HETATM    4  H   UNL     1     -11.028  15.022  63.645  1.00  0.00     0.000 HD 
BRANCH   3   5
HETATM    5  C   UNL     1     -11.821  14.606  65.505  1.00  0.00    -0.292 C  
HETATM    6  C   UNL     1     -12.244  13.396  66.441  1.00  0.00    -0.376 C  
HETATM    7  N   UNL     1     -11.148  12.782  67.245  1.00  0.00    -0.265 N  
HETATM    8  C   UNL     1     -10.513  16.911  65.765  1.00  0.00    -0.279 A  
HETATM    9  S   UNL     1     -10.333  13.798  68.309  1.00  0.00    -0.251 S  
HETATM   10  O   UNL     1     -11.259  14.185  69.354  1.00  0.00    -0.256 OA 
HETATM   11  C   UNL     1     -10.170  15.262  67.339  1.00  0.00    -0.243 A  
HETATM   12  C   UNL     1      -9.557  17.495  66.580  1.00  0.00    -0.285 A  
HETATM   13  O   UNL     1      -9.007  13.295  68.572  1.00  0.00    -0.155 OA 
HETATM   14  S   UNL     1      -9.123  16.473  67.881  1.00  0.00    -0.208 SA 
HETATM   15  C   UNL     1     -10.856  15.578  66.180  1.00  0.00    -0.295 A  
BRANCH   7  16
HETATM   16  C   UNL     1     -10.538  11.518  66.821  1.00  0.00    -0.250 C  
BRANCH  16  17
HETATM   17  C   UNL     1     -11.013  10.324  67.626  1.00  0.00    -0.356 C  
BRANCH  17  18
HETATM   18  C   UNL     1     -10.146   9.101  67.367  1.00  0.00    -0.230 C  
BRANCH  18  19
HETATM   19  O   UNL     1      -9.852   9.049  65.972  1.00  0.00    -0.277 OA 
HETATM   20  C   UNL     1      -8.574   8.477  65.731  1.00  0.00    -0.168 C  
ENDBRANCH  18  19
ENDBRANCH  17  18
ENDBRANCH  16  17
ENDBRANCH   7  16
BRANCH  12  21
HETATM   21  S   UNL     1      -8.736  19.073  66.539  1.00  0.00    -0.322 S  
HETATM   22  O   UNL     1      -8.496  19.425  67.917  1.00  0.00    -0.296 OA 
HETATM   23  O   UNL     1      -7.685  18.907  65.564  1.00  0.00    -0.434 OA 
HETATM   24  N   UNL     1      -9.829  20.177  65.905  1.00  0.00    -0.591 N  
HETATM   25  H1  UNL     1      -9.358  21.082  65.882  1.00  0.00     0.000 HD 
HETATM   26  H2  UNL     1     -10.783  19.982  65.601  1.00  0.00     0.000 HD 
ENDBRANCH  12  21
ENDBRANCH   3   5
ENDBRANCH   2   3
TORSDOF 7
ENDMDL
MODEL       25
REMARK 921   NORMALIZED FREE ENERGY PREDICTED BY IDOCK:   -5.08 KCAL/MOL
REMARK 922        TOTAL FREE ENERGY PREDICTED BY IDOCK:   -7.89 KCAL/MOL
REMARK 923 INTER-LIGAND FREE ENERGY PREDICTED BY IDOCK:   -7.51 KCAL/MOL
REMARK 924 INTRA-LIGAND FREE ENERGY PREDICTED BY IDOCK:   -0.38 KCAL/MOL
REMARK 927      BINDING AFFINITY PREDICTED BY RF-SCORE:    0.00 PKD
ROOT
HETATM    1  C   UNL     1     -11.345  15.476  70.457  1.00  0.00    -0.372 C  
HETATM    2  C   UNL     1     -11.074  14.824  69.107  1.00  0.00    -0.265 C  
ENDROOT
BRANCH   2   3
HETATM    3  N   UNL     1     -12.327  14.628  68.376  1.00  0.00    -0.606 NA 
HETATM    4  H   UNL     1     -12.613  15.492  67.914  1.00  0.00     0.000 HD 
BRANCH   3   5
HETATM    5  C   UNL     1     -12.284  13.515  67.415  1.00  0.00    -0.235 C  
HETATM    6  C   UNL     1     -11.583  13.860  66.034  1.00  0.00    -0.349 C  
HETATM    7  N   UNL     1     -10.092  13.847  66.041  1.00  0.00    -0.304 N  
HETATM    8  C   UNL     1     -12.156  11.580  69.240  1.00  0.00    -0.344 A  
HETATM    9  S   UNL     1      -9.352  12.401  66.473  1.00  0.00    -0.215 S  
HETATM   10  O   UNL     1      -9.631  11.429  65.436  1.00  0.00    -0.220 OA 
HETATM   11  C   UNL     1     -10.368  11.876  67.816  1.00  0.00    -0.198 A  
HETATM   12  C   UNL     1     -11.264  10.627  69.707  1.00  0.00    -0.297 A  
HETATM   13  O   UNL     1      -8.029  12.646  66.993  1.00  0.00    -0.147 OA 
HETATM   14  S   UNL     1      -9.820  10.609  68.791  1.00  0.00    -0.198 SA 
HETATM   15  C   UNL     1     -11.624  12.349  68.149  1.00  0.00    -0.395 A  
BRANCH   7  16
HETATM   16  C   UNL     1      -9.342  15.106  66.102  1.00  0.00    -0.311 C  
BRANCH  16  17
HETATM   17  C   UNL     1     -10.198  16.328  65.825  1.00  0.00    -0.390 C  
BRANCH  17  18
HETATM   18  C   UNL     1      -9.662  17.554  66.549  1.00  0.00    -0.295 C  
BRANCH  18  19
HETATM   19  O   UNL     1     -10.652  17.994  67.476  1.00  0.00    -0.395 OA 
HETATM   20  C   UNL     1     -10.848  19.399  67.400  1.00  0.00    -0.440 C  
ENDBRANCH  18  19
ENDBRANCH  17  18
ENDBRANCH  16  17
ENDBRANCH   7  16
BRANCH  12  21
HETATM   21  S   UNL     1     -11.348   9.439  71.028  1.00  0.00    -0.368 S  
HETATM   22  O   UNL     1     -10.001   9.312  71.526  1.00  0.00    -0.307 OA 
HETATM   23  O   UNL     1     -12.460   9.878  71.837  1.00  0.00    -0.384 OA 
HETATM   24  N   UNL     1     -11.786   7.972  70.341  1.00  0.00    -0.475 N  
HETATM   25  H1  UNL     1     -11.834   7.290  71.098  1.00  0.00     0.000 HD 
HETATM   26  H2  UNL     1     -11.970   7.795  69.353  1.00  0.00     0.000 HD 
ENDBRANCH  12  21
ENDBRANCH   3   5
ENDBRANCH   2   3
TORSDOF 7
ENDMDL
MODEL       26
REMARK 921   NORMALIZED FREE ENERGY PREDICTED BY IDOCK:   -5.06 KCAL/MOL
REMARK 922        TOTAL FREE ENERGY PREDICTED BY IDOCK:   -7.86 KCAL/MOL
REMARK 923 INTER-LIGAND FREE ENERGY PREDICTED BY IDOCK:   -7.21 KCAL/MOL
REMARK 924 INTRA-LIGAND FREE ENERGY PREDICTED BY IDOCK:   -0.65 KCAL/MOL
REMARK 927      BINDING AFFINITY PREDICTED BY RF-SCORE:    0.00 PKD
ROOT
HETATM    1  C   UNL     1     -12.349  13.952  70.186  1.00  0.00    -0.400 C  
HETATM    2  C   UNL     1     -11.322  14.700  69.346  1.00  0.00    -0.284 C  
ENDROOT
BRANCH   2   3
HETATM    3  N   UNL     1     -10.833  13.846  68.262  1.00  0.00    -0.242 NA 
HETATM    4  H   UNL     1     -10.161  13.164  68.616  1.00  0.00     0.000 HD 
BRANCH   3   5
HETATM    5  C   UNL     1     -11.903  13.176  67.507  1.00  0.00    -0.360 C  
HETATM    6  C   UNL     1     -12.558  14.061  66.364  1.00  0.00    -0.245 C  
HETATM    7  N   UNL     1     -11.787  14.155  65.092  1.00  0.00    -0.355 N  
HETATM    8  C   UNL     1     -10.913  10.716  67.746  1.00  0.00    -0.364 A  
HETATM    9  S   UNL     1     -11.466  12.710  64.295  1.00  0.00    -0.395 S  
HETATM   10  O   UNL     1     -12.724  12.176  63.815  1.00  0.00    -0.661 OA 
HETATM   11  C   UNL     1     -11.056  11.650  65.644  1.00  0.00    -0.249 A  
HETATM   12  C   UNL     1     -10.347   9.726  66.960  1.00  0.00    -0.239 A  
HETATM   13  O   UNL     1     -10.292  12.839  63.466  1.00  0.00    -0.347 OA 
HETATM   14  S   UNL     1     -10.345  10.155  65.305  1.00  0.00     0.079 SA 
HETATM   15  C   UNL     1     -11.301  11.873  66.986  1.00  0.00    -0.392 A  
BRANCH   7  16
HETATM   16  C   UNL     1     -10.991  15.351  64.796  1.00  0.00    -0.393 C  
BRANCH  16  17
HETATM   17  C   UNL     1      -9.767  15.490  65.680  1.00  0.00    -0.355 C  
BRANCH  17  18
HETATM   18  C   UNL     1      -9.663  16.891  66.265  1.00  0.00    -0.280 C  
BRANCH  18  19
HETATM   19  O   UNL     1      -8.377  17.416  65.943  1.00  0.00    -0.535 OA 
HETATM   20  C   UNL     1      -7.426  17.125  66.958  1.00  0.00    -0.188 C  
ENDBRANCH  18  19
ENDBRANCH  17  18
ENDBRANCH  16  17
ENDBRANCH   7  16
BRANCH  12  21
HETATM   21  S   UNL     1      -9.661   8.128  67.338  1.00  0.00    -0.186 S  
HETATM   22  O   UNL     1      -8.829   7.783  66.212  1.00  0.00    -0.146 OA 
HETATM   23  O   UNL     1      -9.163   8.259  68.686  1.00  0.00    -0.143 OA 
HETATM   24  N   UNL     1     -10.941   7.045  67.387  1.00  0.00    -0.529 N  
HETATM   25  H1  UNL     1     -10.548   6.128  67.603  1.00  0.00     0.000 HD 
HETATM   26  H2  UNL     1     -11.926   7.260  67.230  1.00  0.00     0.000 HD 
ENDBRANCH  12  21
ENDBRANCH   3   5
ENDBRANCH   2   3
TORSDOF 7
ENDMDL
MODEL       27
REMARK 921   NORMALIZED FREE ENERGY PREDICTED BY IDOCK:   -5.02 KCAL/MOL
REMARK 922        TOTAL FREE ENERGY PREDICTED BY IDOCK:   -7.80 KCAL/MOL
REMARK 923 INTER-LIGAND FREE ENERGY PREDICTED BY IDOCK:   -7.24 KCAL/MOL
REMARK 924 INTRA-LIGAND FREE ENERGY PREDICTED BY IDOCK:   -0.57 KCAL/MOL
REMARK 927      BINDING AFFINITY PREDICTED BY RF-SCORE:    0.00 PKD
ROOT
HETATM    1  C   UNL     1      -9.450   9.869  64.403  1.00  0.00    -0.304 C  
HETATM    2  C   UNL     1      -9.978  10.091  65.813  1.00  0.00    -0.276 C  
ENDROOT
BRANCH   2   3
HETATM    3  N   UNL     1     -10.336  11.498  66.007  1.00  0.00    -0.238 NA 
HETATM    4  H   UNL     1     -11.344  11.599  66.130  1.00  0.00     0.000 HD 
BRANCH   3   5
HETATM    5  C   UNL     1      -9.611  12.147  67.111  1.00  0.00    -0.194 C  
HETATM    6  C   UNL     1      -9.065  13.599  66.779  1.00  0.00    -0.217 C  
HETATM    7  N   UNL     1     -10.065  14.702  66.853  1.00  0.00    -0.252 N  
HETATM    8  C   UNL     1     -10.984  10.977  69.069  1.00  0.00    -0.284 A  
HETATM    9  S   UNL     1     -10.830  14.930  68.333  1.00  0.00    -0.261 S  
HETATM   10  O   UNL     1      -9.838  15.394  69.281  1.00  0.00    -0.230 OA 
HETATM   11  C   UNL     1     -11.130  13.265  68.830  1.00  0.00    -0.261 A  
HETATM   12  C   UNL     1     -11.893  11.305  70.062  1.00  0.00    -0.367 A  
HETATM   13  O   UNL     1     -12.109  15.571  68.147  1.00  0.00    -0.124 OA 
HETATM   14  S   UNL     1     -12.177  12.991  70.129  1.00  0.00    -0.209 SA 
HETATM   15  C   UNL     1     -10.556  12.120  68.310  1.00  0.00    -0.236 A  
BRANCH   7  16
HETATM   16  C   UNL     1     -10.657  15.247  65.627  1.00  0.00    -0.362 C  
BRANCH  16  17
HETATM   17  C   UNL     1     -11.347  14.197  64.776  1.00  0.00    -0.371 C  
BRANCH  17  18
HETATM   18  C   UNL     1     -12.718  13.848  65.334  1.00  0.00    -0.490 C  
BRANCH  18  19
HETATM   19  O   UNL     1     -13.095  12.570  64.826  1.00  0.00    -0.853 OA 
HETATM   20  C   UNL     1     -12.513  12.323  63.554  1.00  0.00    -0.534 C  
ENDBRANCH  18  19
ENDBRANCH  17  18
ENDBRANCH  16  17
ENDBRANCH   7  16
BRANCH  12  21
HETATM   21  S   UNL     1     -12.777  10.332  71.261  1.00  0.00    -0.456 S  
HETATM   22  O   UNL     1     -13.819   9.658  70.526  1.00  0.00     0.084 OA 
HETATM   23  O   UNL     1     -11.745   9.641  71.996  1.00  0.00    -0.282 OA 
HETATM   24  N   UNL     1     -13.505  11.407  72.324  1.00  0.00    -0.518 N  
HETATM   25  H1  UNL     1     -14.012  10.848  73.011  1.00  0.00     0.000 HD 
HETATM   26  H2  UNL     1     -13.452  12.425  72.290  1.00  0.00     0.000 HD 
ENDBRANCH  12  21
ENDBRANCH   3   5
ENDBRANCH   2   3
TORSDOF 7
ENDMDL
MODEL       28
REMARK 921   NORMALIZED FREE ENERGY PREDICTED BY IDOCK:   -4.99 KCAL/MOL
REMARK 922        TOTAL FREE ENERGY PREDICTED BY IDOCK:   -7.77 KCAL/MOL
REMARK 923 INTER-LIGAND FREE ENERGY PREDICTED BY IDOCK:   -6.98 KCAL/MOL
REMARK 924 INTRA-LIGAND FREE ENERGY PREDICTED BY IDOCK:   -0.78 KCAL/MOL
REMARK 927      BINDING AFFINITY PREDICTED BY RF-SCORE:    0.00 PKD
ROOT
HETATM    1  C   UNL     1     -12.314  12.716  63.467  1.00  0.00    -0.591 C  
HETATM    2  C   UNL     1     -11.366  11.853  64.288  1.00  0.00    -0.353 C  
ENDROOT
BRANCH   2   3
HETATM    3  N   UNL     1     -11.730  11.905  65.706  1.00  0.00    -0.405 NA 
HETATM    4  H   UNL     1     -12.171  11.031  65.996  1.00  0.00     0.000 HD 
BRANCH   3   5
HETATM    5  C   UNL     1     -10.607  12.239  66.594  1.00  0.00    -0.229 C  
HETATM    6  C   UNL     1      -9.904  13.627  66.278  1.00  0.00    -0.301 C  
HETATM    7  N   UNL     1     -10.604  14.841  66.787  1.00  0.00    -0.296 N  
HETATM    8  C   UNL     1     -11.562  10.978  68.736  1.00  0.00    -0.386 A  
HETATM    9  S   UNL     1     -10.852  14.928  68.448  1.00  0.00    -0.261 S  
HETATM   10  O   UNL     1      -9.559  15.068  69.085  1.00  0.00    -0.210 OA 
HETATM   11  C   UNL     1     -11.318  13.268  68.819  1.00  0.00    -0.290 A  
HETATM   12  C   UNL     1     -12.065  11.267  69.994  1.00  0.00    -0.348 A  
HETATM   13  O   UNL     1     -11.979  15.778  68.747  1.00  0.00    -0.374 OA 
HETATM   14  S   UNL     1     -11.981  12.941  70.340  1.00  0.00    -0.145 SA 
HETATM   15  C   UNL     1     -11.154  12.154  68.018  1.00  0.00    -0.292 A  
BRANCH   7  16
HETATM   16  C   UNL     1     -11.404  15.669  65.879  1.00  0.00     0.044 C  
BRANCH  16  17
HETATM   17  C   UNL     1     -10.608  16.786  65.230  1.00  0.00    -0.185 C  
BRANCH  17  18
HETATM   18  C   UNL     1     -10.110  17.783  66.265  1.00  0.00    -0.344 C  
BRANCH  18  19
HETATM   19  O   UNL     1      -8.755  18.106  65.959  1.00  0.00    -0.498 OA 
HETATM   20  C   UNL     1      -7.855  17.159  66.517  1.00  0.00    -0.290 C  
ENDBRANCH  18  19
ENDBRANCH  17  18
ENDBRANCH  16  17
ENDBRANCH   7  16
BRANCH  12  21
HETATM   21  S   UNL     1     -12.741  10.251  71.288  1.00  0.00    -0.456 S  
HETATM   22  O   UNL     1     -13.797   9.486  70.673  1.00  0.00     0.004 OA 
HETATM   23  O   UNL     1     -11.588   9.656  71.918  1.00  0.00    -0.339 OA 
HETATM   24  N   UNL     1     -13.438  11.286  72.410  1.00  0.00    -0.442 N  
HETATM   25  H1  UNL     1     -13.826  10.703  73.152  1.00  0.00     0.000 HD 
HETATM   26  H2  UNL     1     -13.469  12.305  72.360  1.00  0.00     0.000 HD 
ENDBRANCH  12  21
ENDBRANCH   3   5
ENDBRANCH   2   3
TORSDOF 7
ENDMDL
MODEL       29
REMARK 921   NORMALIZED FREE ENERGY PREDICTED BY IDOCK:   -4.98 KCAL/MOL
REMARK 922        TOTAL FREE ENERGY PREDICTED BY IDOCK:   -7.75 KCAL/MOL
REMARK 923 INTER-LIGAND FREE ENERGY PREDICTED BY IDOCK:   -6.65 KCAL/MOL
REMARK 924 INTRA-LIGAND FREE ENERGY PREDICTED BY IDOCK:   -1.10 KCAL/MOL
REMARK 927      BINDING AFFINITY PREDICTED BY RF-SCORE:    0.00 PKD
ROOT
HETATM    1  C   UNL     1     -11.235  11.867  64.290  1.00  0.00    -0.424 C  
HETATM    2  C   UNL     1     -10.405  13.142  64.225  1.00  0.00    -0.339 C  
ENDROOT
BRANCH   2   3
HETATM    3  N   UNL     1     -10.176  13.668  65.572  1.00  0.00    -0.311 NA 
HETATM    4  H   UNL     1      -9.327  14.235  65.597  1.00  0.00     0.000 HD 
BRANCH   3   5
HETATM    5  C   UNL     1     -11.317  14.419  66.118  1.00  0.00    -0.350 C  
HETATM    6  C   UNL     1     -12.164  13.635  67.207  1.00  0.00    -0.275 C  
HETATM    7  N   UNL     1     -11.588  13.608  68.582  1.00  0.00    -0.305 N  
HETATM    8  C   UNL     1     -10.209  16.828  65.867  1.00  0.00    -0.345 A  
HETATM    9  S   UNL     1     -11.331  15.096  69.322  1.00  0.00    -0.324 S  
HETATM   10  O   UNL     1     -12.623  15.698  69.576  1.00  0.00    -0.139 OA 
HETATM   11  C   UNL     1     -10.689  16.046  67.981  1.00  0.00    -0.309 A  
HETATM   12  C   UNL     1      -9.724  17.854  66.662  1.00  0.00    -0.319 A  
HETATM   13  O   UNL     1     -10.295  14.991  70.321  1.00  0.00    -0.124 OA 
HETATM   14  S   UNL     1      -9.978  17.541  68.324  1.00  0.00    -0.351 SA 
HETATM   15  C   UNL     1     -10.747  15.738  66.635  1.00  0.00    -0.287 A  
BRANCH   7  16
HETATM   16  C   UNL     1     -10.891  12.414  69.068  1.00  0.00    -0.148 C  
BRANCH  16  17
HETATM   17  C   UNL     1     -11.362  11.133  68.405  1.00  0.00    -0.357 C  
BRANCH  17  18
HETATM   18  C   UNL     1     -10.224  10.441  67.669  1.00  0.00    -0.201 C  
BRANCH  18  19
HETATM   19  O   UNL     1      -9.307  11.438  67.224  1.00  0.00    -0.165 OA 
HETATM   20  C   UNL     1      -8.252  10.871  66.460  1.00  0.00    -0.157 C  
ENDBRANCH  18  19
ENDBRANCH  17  18
ENDBRANCH  16  17
ENDBRANCH   7  16
BRANCH  12  21
HETATM   21  S   UNL     1      -8.930  19.400  66.286  1.00  0.00    -0.299 S  
HETATM   22  O   UNL     1      -7.774  19.065  65.491  1.00  0.00    -0.436 OA 
HETATM   23  O   UNL     1      -9.999  20.250  65.820  1.00  0.00    -0.387 OA 
HETATM   24  N   UNL     1      -8.389  20.039  67.740  1.00  0.00    -0.303 N  
HETATM   25  H1  UNL     1      -7.933  20.927  67.525  1.00  0.00     0.000 HD 
HETATM   26  H2  UNL     1      -8.495  19.621  68.664  1.00  0.00     0.000 HD 
ENDBRANCH  12  21
ENDBRANCH   3   5
ENDBRANCH   2   3
TORSDOF 7
ENDMDL
MODEL       30
REMARK 921   NORMALIZED FREE ENERGY PREDICTED BY IDOCK:   -4.97 KCAL/MOL
REMARK 922        TOTAL FREE ENERGY PREDICTED BY IDOCK:   -7.73 KCAL/MOL
REMARK 923 INTER-LIGAND FREE ENERGY PREDICTED BY IDOCK:   -6.72 KCAL/MOL
REMARK 924 INTRA-LIGAND FREE ENERGY PREDICTED BY IDOCK:   -1.01 KCAL/MOL
REMARK 927      BINDING AFFINITY PREDICTED BY RF-SCORE:    0.00 PKD
ROOT
HETATM    1  C   UNL     1      -6.114  12.930  69.138  1.00  0.00    -0.092 C  
HETATM    2  C   UNL     1      -7.363  12.078  69.318  1.00  0.00     0.127 C  
ENDROOT
BRANCH   2   3
HETATM    3  N   UNL     1      -8.486  12.660  68.581  1.00  0.00    -0.354 NA 
HETATM    4  H   UNL     1      -8.700  13.595  68.931  1.00  0.00     0.000 HD 
BRANCH   3   5
HETATM    5  C   UNL     1      -8.289  12.685  67.124  1.00  0.00    -0.172 C  
HETATM    6  C   UNL     1      -8.658  11.330  66.384  1.00  0.00    -0.174 C  
HETATM    7  N   UNL     1     -10.110  11.100  66.135  1.00  0.00    -0.230 N  
HETATM    8  C   UNL     1      -8.805  15.279  66.818  1.00  0.00    -0.302 A  
HETATM    9  S   UNL     1     -10.908  12.251  65.205  1.00  0.00    -0.304 S  
HETATM   10  O   UNL     1     -10.382  12.179  63.857  1.00  0.00    -0.348 OA 
HETATM   11  C   UNL     1     -10.221  13.748  65.837  1.00  0.00    -0.313 A  
HETATM   12  C   UNL     1      -9.766  16.105  66.257  1.00  0.00    -0.307 A  
HETATM   13  O   UNL     1     -12.319  12.254  65.506  1.00  0.00    -0.602 OA 
HETATM   14  S   UNL     1     -10.960  15.210  65.421  1.00  0.00    -0.388 SA 
HETATM   15  C   UNL     1      -9.083  13.884  66.610  1.00  0.00    -0.209 A  
BRANCH   7  16
HETATM   16  C   UNL     1     -10.873  10.191  66.996  1.00  0.00    -0.151 C  
BRANCH  16  17
HETATM   17  C   UNL     1     -10.814  10.567  68.465  1.00  0.00    -0.275 C  
BRANCH  17  18
HETATM   18  C   UNL     1     -11.924  11.541  68.832  1.00  0.00    -0.299 C  
BRANCH  18  19
HETATM   19  O   UNL     1     -11.330  12.796  69.153  1.00  0.00    -0.267 OA 
HETATM   20  C   UNL     1     -11.968  13.405  70.267  1.00  0.00    -0.308 C  
ENDBRANCH  18  19
ENDBRANCH  17  18
ENDBRANCH  16  17
ENDBRANCH   7  16
BRANCH  12  21
HETATM   21  S   UNL     1      -9.970  17.872  66.224  1.00  0.00    -0.302 S  
HETATM   22  O   UNL     1      -8.638  18.421  66.275  1.00  0.00    -0.390 OA 
HETATM   23  O   UNL     1     -10.889  18.108  65.137  1.00  0.00    -0.658 OA 
HETATM   24  N   UNL     1     -10.761  18.300  67.641  1.00  0.00    -0.403 N  
HETATM   25  H1  UNL     1     -10.879  19.313  67.622  1.00  0.00     0.000 HD 
HETATM   26  H2  UNL     1     -11.066  17.667  68.381  1.00  0.00     0.000 HD 
ENDBRANCH  12  21
ENDBRANCH   3   5
ENDBRANCH   2   3
TORSDOF 7
ENDMDL
MODEL       31
REMARK 921   NORMALIZED FREE ENERGY PREDICTED BY IDOCK:   -4.92 KCAL/MOL
REMARK 922        TOTAL FREE ENERGY PREDICTED BY IDOCK:   -7.67 KCAL/MOL
REMARK 923 INTER-LIGAND FREE ENERGY PREDICTED BY IDOCK:   -6.94 KCAL/MOL
REMARK 924 INTRA-LIGAND FREE ENERGY PREDICTED BY IDOCK:   -0.73 KCAL/MOL
REMARK 927      BINDING AFFINITY PREDICTED BY RF-SCORE:    0.00 PKD
ROOT
HETATM    1  C   UNL     1     -10.148  11.078  65.234  1.00  0.00    -0.332 C  
HETATM    2  C   UNL     1     -11.084  11.631  66.300  1.00  0.00    -0.290 C  
ENDROOT
BRANCH   2   3
HETATM    3  N   UNL     1     -11.510  10.563  67.207  1.00  0.00    -0.396 NA 
HETATM    4  H   UNL     1     -11.886   9.773  66.681  1.00  0.00     0.000 HD 
BRANCH   3   5
HETATM    5  C   UNL     1     -10.456  10.116  68.131  1.00  0.00    -0.206 C  
HETATM    6  C   UNL     1     -10.598  10.670  69.612  1.00  0.00    -0.217 C  
HETATM    7  N   UNL     1     -11.587   9.966  70.477  1.00  0.00    -0.290 N  
HETATM    8  C   UNL     1     -10.038   7.763  66.958  1.00  0.00    -0.343 A  
HETATM    9  S   UNL     1     -11.338   8.321  70.725  1.00  0.00    -0.246 S  
HETATM   10  O   UNL     1     -10.129   8.166  71.507  1.00  0.00    -0.175 OA 
HETATM   11  C   UNL     1     -10.858   7.794  69.112  1.00  0.00    -0.052 A  
HETATM   12  C   UNL     1     -10.215   6.412  67.210  1.00  0.00    -0.187 A  
HETATM   13  O   UNL     1     -12.582   7.665  71.049  1.00  0.00    -0.255 OA 
HETATM   14  S   UNL     1     -10.808   6.135  68.791  1.00  0.00    -0.340 SA 
HETATM   15  C   UNL     1     -10.449   8.591  68.059  1.00  0.00    -0.249 A  
BRANCH   7  16
HETATM   16  C   UNL     1     -12.908  10.555  70.721  1.00  0.00    -0.367 C  
BRANCH  16  17
HETATM   17  C   UNL     1     -13.053  11.145  72.111  1.00  0.00    -0.288 C  
BRANCH  17  18
HETATM   18  C   UNL     1     -13.422  12.620  72.050  1.00  0.00    -0.418 C  
BRANCH  18  19
HETATM   19  O   UNL     1     -12.519  13.270  71.159  1.00  0.00    -0.363 OA 
HETATM   20  C   UNL     1     -12.994  14.555  70.782  1.00  0.00    -0.343 C  
ENDBRANCH  18  19
ENDBRANCH  17  18
ENDBRANCH  16  17
ENDBRANCH   7  16
BRANCH  12  21
HETATM   21  S   UNL     1      -9.929   4.953  66.233  1.00  0.00    -0.258 S  
HETATM   22  O   UNL     1      -8.841   5.283  65.346  1.00  0.00    -0.151 OA 
HETATM   23  O   UNL     1      -9.875   3.880  67.196  1.00  0.00    -0.194 OA 
HETATM   24  N   UNL     1     -11.303   4.710  65.300  1.00  0.00    -0.982 N  
HETATM   25  H1  UNL     1     -11.138   3.874  64.740  1.00  0.00     0.000 HD 
HETATM   26  H2  UNL     1     -12.142   5.289  65.294  1.00  0.00     0.000 HD 
ENDBRANCH  12  21
ENDBRANCH   3   5
ENDBRANCH   2   3
TORSDOF 7
ENDMDL
MODEL       32
REMARK 921   NORMALIZED FREE ENERGY PREDICTED BY IDOCK:   -4.92 KCAL/MOL
REMARK 922        TOTAL FREE ENERGY PREDICTED BY IDOCK:   -7.66 KCAL/MOL
REMARK 923 INTER-LIGAND FREE ENERGY PREDICTED BY IDOCK:   -6.98 KCAL/MOL
REMARK 924 INTRA-LIGAND FREE ENERGY PREDICTED BY IDOCK:   -0.68 KCAL/MOL
REMARK 927      BINDING AFFINITY PREDICTED BY RF-SCORE:    0.00 PKD
ROOT
HETATM    1  C   UNL     1     -11.929  15.415  73.251  1.00  0.00    -0.566 C  
HETATM    2  C   UNL     1     -11.891  15.702  71.756  1.00  0.00    -0.444 C  
ENDROOT
BRANCH   2   3
HETATM    3  N   UNL     1     -11.476  14.506  71.020  1.00  0.00    -0.518 NA 
HETATM    4  H   UNL     1     -11.526  13.680  71.616  1.00  0.00     0.000 HD 
BRANCH   3   5
HETATM    5  C   UNL     1     -12.222  14.291  69.771  1.00  0.00    -0.339 C  
HETATM    6  C   UNL     1     -12.397  15.588  68.873  1.00  0.00     0.086 C  
HETATM    7  N   UNL     1     -11.217  15.968  68.044  1.00  0.00    -0.333 N  
HETATM    8  C   UNL     1     -11.457  11.764  69.424  1.00  0.00    -0.371 A  
HETATM    9  S   UNL     1     -10.674  14.828  66.935  1.00  0.00    -0.314 S  
HETATM   10  O   UNL     1     -11.691  14.679  65.914  1.00  0.00    -0.353 OA 
HETATM   11  C   UNL     1     -10.807  13.339  67.871  1.00  0.00    -0.243 A  
HETATM   12  C   UNL     1     -10.675  11.007  68.566  1.00  0.00    -0.202 A  
HETATM   13  O   UNL     1      -9.278  15.036  66.638  1.00  0.00    -0.241 OA 
HETATM   14  S   UNL     1     -10.066  11.943  67.271  1.00  0.00    -0.197 SA 
HETATM   15  C   UNL     1     -11.512  13.150  69.045  1.00  0.00    -0.345 A  
BRANCH   7  16
HETATM   16  C   UNL     1     -10.334  17.058  68.472  1.00  0.00    -0.359 C  
BRANCH  16  17
HETATM   17  C   UNL     1     -10.582  18.357  67.729  1.00  0.00    -0.419 C  
BRANCH  17  18
HETATM   18  C   UNL     1      -9.274  19.046  67.368  1.00  0.00    -0.289 C  
BRANCH  18  19
HETATM   19  O   UNL     1      -8.230  18.077  67.419  1.00  0.00    -0.220 OA 
HETATM   20  C   UNL     1      -7.514  18.017  66.193  1.00  0.00    -0.270 C  
ENDBRANCH  18  19
ENDBRANCH  17  18
ENDBRANCH  16  17
ENDBRANCH   7  16
BRANCH  12  21
HETATM   21  S   UNL     1     -10.218   9.288  68.549  1.00  0.00    -0.206 S  
HETATM   22  O   UNL     1     -10.694   8.768  67.291  1.00  0.00    -0.276 OA 
HETATM   23  O   UNL     1      -8.829   9.280  68.941  1.00  0.00    -0.132 OA 
HETATM   24  N   UNL     1     -11.082   8.539  69.778  1.00  0.00    -0.431 N  
HETATM   25  H1  UNL     1     -10.820   7.553  69.768  1.00  0.00     0.000 HD 
HETATM   26  H2  UNL     1     -11.743   8.984  70.414  1.00  0.00     0.000 HD 
ENDBRANCH  12  21
ENDBRANCH   3   5
ENDBRANCH   2   3
TORSDOF 7
ENDMDL
MODEL       33
REMARK 921   NORMALIZED FREE ENERGY PREDICTED BY IDOCK:   -4.91 KCAL/MOL
REMARK 922        TOTAL FREE ENERGY PREDICTED BY IDOCK:   -7.64 KCAL/MOL
REMARK 923 INTER-LIGAND FREE ENERGY PREDICTED BY IDOCK:   -7.07 KCAL/MOL
REMARK 924 INTRA-LIGAND FREE ENERGY PREDICTED BY IDOCK:   -0.57 KCAL/MOL
REMARK 927      BINDING AFFINITY PREDICTED BY RF-SCORE:    0.00 PKD
ROOT
HETATM    1  C   UNL     1     -11.471  15.531  70.305  1.00  0.00    -0.352 C  
HETATM    2  C   UNL     1     -12.282  14.310  69.892  1.00  0.00    -0.352 C  
ENDROOT
BRANCH   2   3
HETATM    3  N   UNL     1     -11.520  13.085  70.142  1.00  0.00    -0.519 NA 
HETATM    4  H   UNL     1     -11.583  12.816  71.124  1.00  0.00     0.000 HD 
BRANCH   3   5
HETATM    5  C   UNL     1     -11.901  11.962  69.271  1.00  0.00    -0.318 C  
HETATM    6  C   UNL     1     -11.774  12.259  67.717  1.00  0.00    -0.337 C  
HETATM    7  N   UNL     1     -10.398  12.169  67.149  1.00  0.00    -0.213 N  
HETATM    8  C   UNL     1     -11.163  10.039  70.959  1.00  0.00    -0.387 A  
HETATM    9  S   UNL     1      -9.613  10.690  67.303  1.00  0.00    -0.165 S  
HETATM   10  O   UNL     1     -10.314   9.725  66.482  1.00  0.00    -0.234 OA 
HETATM   11  C   UNL     1     -10.053  10.231  68.948  1.00  0.00    -0.204 A  
HETATM   12  C   UNL     1     -10.203   9.047  71.073  1.00  0.00    -0.277 A  
HETATM   13  O   UNL     1      -8.182  10.871  67.266  1.00  0.00    -0.119 OA 
HETATM   14  S   UNL     1      -9.227   8.946  69.672  1.00  0.00    -0.156 SA 
HETATM   15  C   UNL     1     -11.061  10.771  69.726  1.00  0.00    -0.346 A  
BRANCH   7  16
HETATM   16  C   UNL     1      -9.628  13.387  66.881  1.00  0.00    -0.257 C  
BRANCH  16  17
HETATM   17  C   UNL     1     -10.478  14.532  66.364  1.00  0.00    -0.295 C  
BRANCH  17  18
HETATM   18  C   UNL     1     -10.489  14.570  64.843  1.00  0.00    -0.409 C  
BRANCH  18  19
HETATM   19  O   UNL     1     -10.768  13.256  64.366  1.00  0.00    -0.382 OA 
HETATM   20  C   UNL     1     -11.977  13.218  63.621  1.00  0.00    -0.486 C  
ENDBRANCH  18  19
ENDBRANCH  17  18
ENDBRANCH  16  17
ENDBRANCH   7  16
BRANCH  12  21
HETATM   21  S   UNL     1      -9.823   7.876  72.357  1.00  0.00    -0.251 S  
HETATM   22  O   UNL     1      -9.496   6.645  71.681  1.00  0.00    -0.160 OA 
HETATM   23  O   UNL     1      -8.906   8.577  73.224  1.00  0.00    -0.308 OA 
HETATM   24  N   UNL     1     -11.235   7.628  73.229  1.00  0.00    -0.549 N  
HETATM   25  H1  UNL     1     -11.017   6.957  73.965  1.00  0.00     0.000 HD 
HETATM   26  H2  UNL     1     -12.140   8.065  73.055  1.00  0.00     0.000 HD 
ENDBRANCH  12  21
ENDBRANCH   3   5
ENDBRANCH   2   3
TORSDOF 7
ENDMDL
MODEL       34
REMARK 921   NORMALIZED FREE ENERGY PREDICTED BY IDOCK:   -4.90 KCAL/MOL
REMARK 922        TOTAL FREE ENERGY PREDICTED BY IDOCK:   -7.63 KCAL/MOL
REMARK 923 INTER-LIGAND FREE ENERGY PREDICTED BY IDOCK:   -7.09 KCAL/MOL
REMARK 924 INTRA-LIGAND FREE ENERGY PREDICTED BY IDOCK:   -0.54 KCAL/MOL
REMARK 927      BINDING AFFINITY PREDICTED BY RF-SCORE:    0.00 PKD
ROOT
HETATM    1  C   UNL     1     -12.476  11.115  70.533  1.00  0.00    -0.414 C  
HETATM    2  C   UNL     1     -11.509  10.024  70.092  1.00  0.00    -0.277 C  
ENDROOT
BRANCH   2   3
HETATM    3  N   UNL     1     -11.315  10.072  68.642  1.00  0.00    -0.494 NA 
HETATM    4  H   UNL     1     -12.123  10.495  68.184  1.00  0.00     0.000 HD 
BRANCH   3   5
HETATM    5  C   UNL     1     -10.074  10.747  68.232  1.00  0.00    -0.171 C  
HETATM    6  C   UNL     1      -8.804   9.799  68.146  1.00  0.00    -0.119 C  
HETATM    7  N   UNL     1      -8.698   8.964  66.915  1.00  0.00    -0.118 N  
HETATM    8  C   UNL     1     -11.249  12.581  66.701  1.00  0.00    -0.357 A  
HETATM    9  S   UNL     1      -8.640   9.785  65.449  1.00  0.00    -0.160 S  
HETATM   10  O   UNL     1      -7.390  10.515  65.395  1.00  0.00    -0.142 OA 
HETATM   11  C   UNL     1      -9.845  11.047  65.707  1.00  0.00    -0.235 A  
HETATM   12  C   UNL     1     -11.356  12.929  65.364  1.00  0.00    -0.303 A  
HETATM   13  O   UNL     1      -9.112   8.941  64.378  1.00  0.00    -0.017 OA 
HETATM   14  S   UNL     1     -10.371  11.942  64.373  1.00  0.00    -0.322 SA 
HETATM   15  C   UNL     1     -10.390  11.448  66.913  1.00  0.00    -0.262 A  
BRANCH   7  16
HETATM   16  C   UNL     1      -9.065   7.545  66.950  1.00  0.00    -0.141 C  
BRANCH  16  17
HETATM   17  C   UNL     1     -10.557   7.316  67.098  1.00  0.00    -0.416 C  
BRANCH  17  18
HETATM   18  C   UNL     1     -10.864   5.863  67.432  1.00  0.00    -0.248 C  
BRANCH  18  19
HETATM   19  O   UNL     1     -10.477   5.624  68.783  1.00  0.00    -0.208 OA 
HETATM   20  C   UNL     1     -11.135   6.510  69.678  1.00  0.00    -0.376 C  
ENDBRANCH  18  19
ENDBRANCH  17  18
ENDBRANCH  16  17
ENDBRANCH   7  16
BRANCH  12  21
HETATM   21  S   UNL     1     -12.281  14.187  64.513  1.00  0.00    -0.418 S  
HETATM   22  O   UNL     1     -12.370  13.748  63.142  1.00  0.00    -0.726 OA 
HETATM   23  O   UNL     1     -13.432  14.418  65.352  1.00  0.00    -0.485 OA 
HETATM   24  N   UNL     1     -11.354  15.586  64.549  1.00  0.00    -0.680 N  
HETATM   25  H1  UNL     1     -11.884  16.308  64.061  1.00  0.00     0.000 HD 
HETATM   26  H2  UNL     1     -10.435  15.694  64.978  1.00  0.00     0.000 HD 
ENDBRANCH  12  21
ENDBRANCH   3   5
ENDBRANCH   2   3
TORSDOF 7
ENDMDL
MODEL       35
REMARK 921   NORMALIZED FREE ENERGY PREDICTED BY IDOCK:   -4.89 KCAL/MOL
REMARK 922        TOTAL FREE ENERGY PREDICTED BY IDOCK:   -7.63 KCAL/MOL
REMARK 923 INTER-LIGAND FREE ENERGY PREDICTED BY IDOCK:   -7.02 KCAL/MOL
REMARK 924 INTRA-LIGAND FREE ENERGY PREDICTED BY IDOCK:   -0.60 KCAL/MOL
REMARK 927      BINDING AFFINITY PREDICTED BY RF-SCORE:    0.00 PKD
ROOT
HETATM    1  C   UNL     1     -10.728   9.677  70.754  1.00  0.00    -0.401 C  
HETATM    2  C   UNL     1      -9.587  10.023  69.807  1.00  0.00    -0.216 C  
ENDROOT
BRANCH   2   3
HETATM    3  N   UNL     1      -9.913  11.224  69.035  1.00  0.00    -0.376 NA 
HETATM    4  H   UNL     1      -9.111  11.524  68.480  1.00  0.00     0.000 HD 
BRANCH   3   5
HETATM    5  C   UNL     1     -11.106  11.078  68.186  1.00  0.00    -0.270 C  
HETATM    6  C   UNL     1     -12.233  12.166  68.437  1.00  0.00     0.203 C  
HETATM    7  N   UNL     1     -12.005  13.496  67.802  1.00  0.00    -0.354 N  
HETATM    8  C   UNL     1      -9.831  10.032  66.096  1.00  0.00    -0.309 A  
HETATM    9  S   UNL     1     -11.845  13.516  66.128  1.00  0.00    -0.413 S  
HETATM   10  O   UNL     1     -13.124  13.151  65.554  1.00  0.00    -0.522 OA 
HETATM   11  C   UNL     1     -10.848  12.087  65.856  1.00  0.00    -0.288 A  
HETATM   12  C   UNL     1      -9.491  10.363  64.794  1.00  0.00    -0.273 A  
HETATM   13  O   UNL     1     -11.086  14.668  65.707  1.00  0.00    -0.317 OA 
HETATM   14  S   UNL     1     -10.153  11.871  64.330  1.00  0.00    -0.269 SA 
HETATM   15  C   UNL     1     -10.600  11.058  66.746  1.00  0.00    -0.317 A  
BRANCH   7  16
HETATM   16  C   UNL     1     -11.515  14.623  68.602  1.00  0.00    -0.300 C  
BRANCH  16  17
HETATM   17  C   UNL     1     -11.697  14.422  70.094  1.00  0.00    -0.361 C  
BRANCH  17  18
HETATM   18  C   UNL     1     -11.386  15.696  70.866  1.00  0.00    -0.380 C  
BRANCH  18  19
HETATM   19  O   UNL     1     -12.585  16.141  71.496  1.00  0.00    -0.381 OA 
HETATM   20  C   UNL     1     -13.631  15.190  71.357  1.00  0.00    -0.488 C  
ENDBRANCH  18  19
ENDBRANCH  17  18
ENDBRANCH  16  17
ENDBRANCH   7  16
BRANCH  12  21
HETATM   21  S   UNL     1      -8.541   9.527  63.544  1.00  0.00    -0.215 S  
HETATM   22  O   UNL     1      -9.330   9.599  62.339  1.00  0.00    -0.271 OA 
HETATM   23  O   UNL     1      -7.216  10.087  63.663  1.00  0.00    -0.126 OA 
HETATM   24  N   UNL     1      -8.440   7.916  64.001  1.00  0.00    -0.379 N  
HETATM   25  H1  UNL     1      -7.895   7.436  63.284  1.00  0.00     0.000 HD 
HETATM   26  H2  UNL     1      -8.846   7.495  64.837  1.00  0.00     0.000 HD 
ENDBRANCH  12  21
ENDBRANCH   3   5
ENDBRANCH   2   3
TORSDOF 7
ENDMDL
MODEL       36
REMARK 921   NORMALIZED FREE ENERGY PREDICTED BY IDOCK:   -4.88 KCAL/MOL
REMARK 922        TOTAL FREE ENERGY PREDICTED BY IDOCK:   -7.61 KCAL/MOL
REMARK 923 INTER-LIGAND FREE ENERGY PREDICTED BY IDOCK:   -6.95 KCAL/MOL
REMARK 924 INTRA-LIGAND FREE ENERGY PREDICTED BY IDOCK:   -0.66 KCAL/MOL
REMARK 927      BINDING AFFINITY PREDICTED BY RF-SCORE:    0.00 PKD
ROOT
HETATM    1  C   UNL     1      -7.637  16.083  69.364  1.00  0.00    -0.191 C  
HETATM    2  C   UNL     1      -9.055  15.561  69.555  1.00  0.00    -0.260 C  
ENDROOT
BRANCH   2   3
HETATM    3  N   UNL     1      -9.204  14.250  68.919  1.00  0.00    -0.373 NA 
HETATM    4  H   UNL     1      -8.786  13.520  69.497  1.00  0.00     0.000 HD 
BRANCH   3   5
HETATM    5  C   UNL     1     -10.595  13.911  68.580  1.00  0.00    -0.257 C  
HETATM    6  C   UNL     1     -11.419  15.092  67.915  1.00  0.00    -0.332 C  
HETATM    7  N   UNL     1     -11.173  15.319  66.462  1.00  0.00    -0.281 N  
HETATM    8  C   UNL     1     -10.141  11.332  68.098  1.00  0.00    -0.195 A  
HETATM    9  S   UNL     1     -11.489  14.028  65.432  1.00  0.00    -0.327 S  
HETATM   10  O   UNL     1     -12.918  13.795  65.435  1.00  0.00    -0.706 OA 
HETATM   11  C   UNL     1     -10.847  12.674  66.362  1.00  0.00    -0.269 A  
HETATM   12  C   UNL     1     -10.133  10.443  67.036  1.00  0.00    -0.215 A  
HETATM   13  O   UNL     1     -10.707  14.141  64.224  1.00  0.00    -0.259 OA 
HETATM   14  S   UNL     1     -10.652  11.185  65.585  1.00  0.00    -0.186 SA 
HETATM   15  C   UNL     1     -10.524  12.661  67.706  1.00  0.00    -0.228 A  
BRANCH   7  16
HETATM   16  C   UNL     1     -10.306  16.417  66.022  1.00  0.00    -0.352 C  
BRANCH  16  17
HETATM   17  C   UNL     1     -10.463  17.675  66.854  1.00  0.00    -0.290 C  
BRANCH  17  18
HETATM   18  C   UNL     1     -10.555  18.913  65.974  1.00  0.00    -0.403 C  
BRANCH  18  19
HETATM   19  O   UNL     1     -10.181  20.045  66.755  1.00  0.00    -0.427 OA 
HETATM   20  C   UNL     1     -10.064  19.713  68.132  1.00  0.00    -0.441 C  
ENDBRANCH  18  19
ENDBRANCH  17  18
ENDBRANCH  16  17
ENDBRANCH   7  16
BRANCH  12  21
HETATM   21  S   UNL     1      -9.718   8.718  66.907  1.00  0.00    -0.233 S  
HETATM   22  O   UNL     1      -8.617   8.511  67.816  1.00  0.00    -0.132 OA 
HETATM   23  O   UNL     1     -10.983   8.033  67.018  1.00  0.00    -0.191 OA 
HETATM   24  N   UNL     1      -9.155   8.465  65.347  1.00  0.00    -0.405 N  
HETATM   25  H1  UNL     1      -8.916   7.475  65.273  1.00  0.00     0.000 HD 
HETATM   26  H2  UNL     1      -9.067   9.166  64.611  1.00  0.00     0.000 HD 
ENDBRANCH  12  21
ENDBRANCH   3   5
ENDBRANCH   2   3
TORSDOF 7
ENDMDL
MODEL       37
REMARK 921   NORMALIZED FREE ENERGY PREDICTED BY IDOCK:   -4.87 KCAL/MOL
REMARK 922        TOTAL FREE ENERGY PREDICTED BY IDOCK:   -7.59 KCAL/MOL
REMARK 923 INTER-LIGAND FREE ENERGY PREDICTED BY IDOCK:   -6.99 KCAL/MOL
REMARK 924 INTRA-LIGAND FREE ENERGY PREDICTED BY IDOCK:   -0.60 KCAL/MOL
REMARK 927      BINDING AFFINITY PREDICTED BY RF-SCORE:    0.00 PKD
ROOT
HETATM    1  C   UNL     1      -5.656  12.498  68.895  1.00  0.00    -0.063 C  
HETATM    2  C   UNL     1      -6.748  13.483  69.287  1.00  0.00    -0.080 C  
ENDROOT
BRANCH   2   3
HETATM    3  N   UNL     1      -8.036  13.064  68.730  1.00  0.00    -0.341 NA 
HETATM    4  H   UNL     1      -8.783  13.686  69.041  1.00  0.00     0.000 HD 
BRANCH   3   5
HETATM    5  C   UNL     1      -8.037  12.946  67.263  1.00  0.00    -0.163 C  
HETATM    6  C   UNL     1      -8.477  11.524  66.714  1.00  0.00    -0.168 C  
HETATM    7  N   UNL     1      -9.944  11.263  66.687  1.00  0.00    -0.204 N  
HETATM    8  C   UNL     1      -8.636  15.496  66.782  1.00  0.00    -0.307 A  
HETATM    9  S   UNL     1     -10.881  12.314  65.767  1.00  0.00    -0.289 S  
HETATM   10  O   UNL     1     -10.539  12.112  64.374  1.00  0.00    -0.285 OA 
HETATM   11  C   UNL     1     -10.142  13.868  66.153  1.00  0.00    -0.308 A  
HETATM   12  C   UNL     1      -9.678  16.258  66.278  1.00  0.00    -0.304 A  
HETATM   13  O   UNL     1     -12.239  12.340  66.254  1.00  0.00    -0.628 OA 
HETATM   14  S   UNL     1     -10.957  15.279  65.702  1.00  0.00    -0.330 SA 
HETATM   15  C   UNL     1      -8.914  14.086  66.749  1.00  0.00    -0.217 A  
BRANCH   7  16
HETATM   16  C   UNL     1     -10.569  10.440  67.727  1.00  0.00    -0.250 C  
BRANCH  16  17
HETATM   17  C   UNL     1     -10.723  11.163  69.052  1.00  0.00    -0.265 C  
BRANCH  17  18
HETATM   18  C   UNL     1     -12.085  10.893  69.674  1.00  0.00    -0.329 C  
BRANCH  18  19
HETATM   19  O   UNL     1     -11.899  10.638  71.064  1.00  0.00    -0.336 OA 
HETATM   20  C   UNL     1     -12.090   9.264  71.372  1.00  0.00    -0.348 C  
ENDBRANCH  18  19
ENDBRANCH  17  18
ENDBRANCH  16  17
ENDBRANCH   7  16
BRANCH  12  21
HETATM   21  S   UNL     1      -9.917  18.012  66.104  1.00  0.00    -0.236 S  
HETATM   22  O   UNL     1      -8.605  18.565  65.878  1.00  0.00    -0.497 OA 
HETATM   23  O   UNL     1     -11.007  18.135  65.166  1.00  0.00    -0.637 OA 
HETATM   24  N   UNL     1     -10.471  18.580  67.582  1.00  0.00    -0.405 N  
HETATM   25  H1  UNL     1     -10.608  19.587  67.482  1.00  0.00     0.000 HD 
HETATM   26  H2  UNL     1     -10.639  18.026  68.422  1.00  0.00     0.000 HD 
ENDBRANCH  12  21
ENDBRANCH   3   5
ENDBRANCH   2   3
TORSDOF 7
ENDMDL
MODEL       38
REMARK 921   NORMALIZED FREE ENERGY PREDICTED BY IDOCK:   -4.82 KCAL/MOL
REMARK 922        TOTAL FREE ENERGY PREDICTED BY IDOCK:   -7.53 KCAL/MOL
REMARK 923 INTER-LIGAND FREE ENERGY PREDICTED BY IDOCK:   -6.53 KCAL/MOL
REMARK 924 INTRA-LIGAND FREE ENERGY PREDICTED BY IDOCK:   -0.99 KCAL/MOL
REMARK 927      BINDING AFFINITY PREDICTED BY RF-SCORE:    0.00 PKD
ROOT
HETATM    1  C   UNL     1     -12.284   9.664  71.424  1.00  0.00    -0.471 C  
HETATM    2  C   UNL     1     -12.680  11.101  71.112  1.00  0.00    -0.408 C  
ENDROOT
BRANCH   2   3
HETATM    3  N   UNL     1     -11.594  11.787  70.409  1.00  0.00    -0.506 NA 
HETATM    4  H   UNL     1     -10.715  11.281  70.525  1.00  0.00     0.000 HD 
BRANCH   3   5
HETATM    5  C   UNL     1     -11.870  12.028  68.984  1.00  0.00    -0.315 C  
HETATM    6  C   UNL     1     -12.024  13.558  68.591  1.00  0.00    -0.343 C  
HETATM    7  N   UNL     1     -10.751  14.316  68.422  1.00  0.00    -0.244 N  
HETATM    8  C   UNL     1     -10.543   9.903  68.082  1.00  0.00    -0.270 A  
HETATM    9  S   UNL     1      -9.681  13.746  67.257  1.00  0.00    -0.249 S  
HETATM   10  O   UNL     1     -10.292  13.939  65.958  1.00  0.00    -0.290 OA 
HETATM   11  C   UNL     1      -9.787  12.004  67.509  1.00  0.00    -0.186 A  
HETATM   12  C   UNL     1      -9.403   9.602  67.354  1.00  0.00    -0.134 A  
HETATM   13  O   UNL     1      -8.332  14.154  67.568  1.00  0.00    -0.160 OA 
HETATM   14  S   UNL     1      -8.634  11.013  66.769  1.00  0.00    -0.157 SA 
HETATM   15  C   UNL     1     -10.760  11.318  68.213  1.00  0.00    -0.231 A  
BRANCH   7  16
HETATM   16  C   UNL     1     -10.277  15.209  69.484  1.00  0.00    -0.233 C  
BRANCH  16  17
HETATM   17  C   UNL     1     -11.394  15.980  70.162  1.00  0.00    -0.369 C  
BRANCH  17  18
HETATM   18  C   UNL     1     -11.461  15.663  71.649  1.00  0.00    -0.429 C  
BRANCH  18  19
HETATM   19  O   UNL     1     -12.348  14.562  71.831  1.00  0.00    -0.336 OA 
HETATM   20  C   UNL     1     -12.841  14.505  73.163  1.00  0.00    -0.444 C  
ENDBRANCH  18  19
ENDBRANCH  17  18
ENDBRANCH  16  17
ENDBRANCH   7  16
BRANCH  12  21
HETATM   21  S   UNL     1      -8.626   8.066  66.908  1.00  0.00    -0.132 S  
HETATM   22  O   UNL     1      -7.700   8.388  65.850  1.00  0.00    -0.083 OA 
HETATM   23  O   UNL     1      -8.226   7.485  68.167  1.00  0.00    -0.122 OA 
HETATM   24  N   UNL     1      -9.822   7.079  66.266  1.00  0.00    -0.419 N  
HETATM   25  H1  UNL     1      -9.376   6.198  66.010  1.00  0.00     0.000 HD 
HETATM   26  H2  UNL     1     -10.807   7.315  66.153  1.00  0.00     0.000 HD 
ENDBRANCH  12  21
ENDBRANCH   3   5
ENDBRANCH   2   3
TORSDOF 7
ENDMDL
MODEL       39
REMARK 921   NORMALIZED FREE ENERGY PREDICTED BY IDOCK:   -4.81 KCAL/MOL
REMARK 922        TOTAL FREE ENERGY PREDICTED BY IDOCK:   -7.51 KCAL/MOL
REMARK 923 INTER-LIGAND FREE ENERGY PREDICTED BY IDOCK:   -6.84 KCAL/MOL
REMARK 924 INTRA-LIGAND FREE ENERGY PREDICTED BY IDOCK:   -0.68 KCAL/MOL
REMARK 927      BINDING AFFINITY PREDICTED BY RF-SCORE:    0.00 PKD
ROOT
HETATM    1  C   UNL     1     -13.994   8.963  72.396  1.00  0.00    -0.516 C  
HETATM    2  C   UNL     1     -13.090   7.920  71.753  1.00  0.00    -0.325 C  
ENDROOT
BRANCH   2   3
HETATM    3  N   UNL     1     -12.304   8.523  70.674  1.00  0.00    -0.480 NA 
HETATM    4  H   UNL     1     -12.914   8.992  70.004  1.00  0.00     0.000 HD 
BRANCH   3   5
HETATM    5  C   UNL     1     -11.253   9.437  71.147  1.00  0.00    -0.357 C  
HETATM    6  C   UNL     1     -10.029   8.723  71.861  1.00  0.00    -0.331 C  
HETATM    7  N   UNL     1      -9.017   8.107  70.955  1.00  0.00    -0.142 N  
HETATM    8  C   UNL     1     -11.608  11.272  69.251  1.00  0.00    -0.390 A  
HETATM    9  S   UNL     1      -8.255   9.135  69.865  1.00  0.00    -0.153 S  
HETATM   10  O   UNL     1      -7.425  10.051  70.621  1.00  0.00    -0.302 OA 
HETATM   11  C   UNL     1      -9.602  10.141  69.332  1.00  0.00    -0.232 A  
HETATM   12  C   UNL     1     -10.948  11.793  68.150  1.00  0.00    -0.228 A  
HETATM   13  O   UNL     1      -7.779   8.396  68.721  1.00  0.00    -0.098 OA 
HETATM   14  S   UNL     1      -9.380  11.130  67.979  1.00  0.00    -0.172 SA 
HETATM   15  C   UNL     1     -10.840  10.268  69.935  1.00  0.00    -0.355 A  
BRANCH   7  16
HETATM   16  C   UNL     1      -9.014   6.658  70.726  1.00  0.00    -0.151 C  
BRANCH  16  17
HETATM   17  C   UNL     1      -9.354   5.855  71.968  1.00  0.00    -0.160 C  
BRANCH  17  18
HETATM   18  C   UNL     1      -9.710   4.418  71.617  1.00  0.00    -0.171 C  
BRANCH  18  19
HETATM   19  O   UNL     1     -10.658   3.947  72.572  1.00  0.00    -0.147 OA 
HETATM   20  C   UNL     1     -11.142   5.002  73.390  1.00  0.00    -0.335 C  
ENDBRANCH  18  19
ENDBRANCH  17  18
ENDBRANCH  16  17
ENDBRANCH   7  16
BRANCH  12  21
HETATM   21  S   UNL     1     -11.404  13.004  66.929  1.00  0.00    -0.327 S  
HETATM   22  O   UNL     1     -10.162  13.541  66.428  1.00  0.00    -0.278 OA 
HETATM   23  O   UNL     1     -12.374  12.332  66.099  1.00  0.00    -0.588 OA 
HETATM   24  N   UNL     1     -12.211  14.234  67.736  1.00  0.00    -0.598 N  
HETATM   25  H1  UNL     1     -12.472  14.929  67.036  1.00  0.00     0.000 HD 
HETATM   26  H2  UNL     1     -12.403  14.279  68.737  1.00  0.00     0.000 HD 
ENDBRANCH  12  21
ENDBRANCH   3   5
ENDBRANCH   2   3
TORSDOF 7
ENDMDL
MODEL       40
REMARK 921   NORMALIZED FREE ENERGY PREDICTED BY IDOCK:   -4.77 KCAL/MOL
REMARK 922        TOTAL FREE ENERGY PREDICTED BY IDOCK:   -7.45 KCAL/MOL
REMARK 923 INTER-LIGAND FREE ENERGY PREDICTED BY IDOCK:   -6.94 KCAL/MOL
REMARK 924 INTRA-LIGAND FREE ENERGY PREDICTED BY IDOCK:   -0.51 KCAL/MOL
REMARK 927      BINDING AFFINITY PREDICTED BY RF-SCORE:    0.00 PKD
ROOT
HETATM    1  C   UNL     1     -13.410   9.607  71.902  1.00  0.00    -0.526 C  
HETATM    2  C   UNL     1     -12.812  10.689  71.013  1.00  0.00    -0.402 C  
ENDROOT
BRANCH   2   3
HETATM    3  N   UNL     1     -12.271  10.098  69.787  1.00  0.00    -0.499 NA 
HETATM    4  H   UNL     1     -12.848  10.346  68.983  1.00  0.00     0.000 HD 
BRANCH   3   5
HETATM    5  C   UNL     1     -10.861  10.438  69.538  1.00  0.00    -0.255 C  
HETATM    6  C   UNL     1      -9.822   9.345  70.031  1.00  0.00    -0.221 C  
HETATM    7  N   UNL     1      -9.645   8.166  69.136  1.00  0.00    -0.156 N  
HETATM    8  C   UNL     1     -11.305  11.855  67.328  1.00  0.00    -0.393 A  
HETATM    9  S   UNL     1      -9.127   8.479  67.567  1.00  0.00    -0.134 S  
HETATM   10  O   UNL     1      -7.769   8.979  67.637  1.00  0.00    -0.095 OA 
HETATM   11  C   UNL     1     -10.075   9.912  67.167  1.00  0.00    -0.215 A  
HETATM   12  C   UNL     1     -11.068  11.785  65.965  1.00  0.00    -0.312 A  
HETATM   13  O   UNL     1      -9.538   7.419  66.678  1.00  0.00    -0.183 OA 
HETATM   14  S   UNL     1     -10.128  10.416  65.554  1.00  0.00    -0.261 SA 
HETATM   15  C   UNL     1     -10.756  10.736  68.044  1.00  0.00    -0.270 A  
BRANCH   7  16
HETATM   16  C   UNL     1     -10.294   6.891  69.456  1.00  0.00    -0.207 C  
BRANCH  16  17
HETATM   17  C   UNL     1      -9.327   5.832  69.951  1.00  0.00    -0.177 C  
BRANCH  17  18
HETATM   18  C   UNL     1      -9.560   4.500  69.254  1.00  0.00    -0.188 C  
BRANCH  18  19
HETATM   19  O   UNL     1      -9.332   3.456  70.198  1.00  0.00    -0.144 OA 
HETATM   20  C   UNL     1      -9.407   2.176  69.586  1.00  0.00    -0.088 C  
ENDBRANCH  18  19
ENDBRANCH  17  18
ENDBRANCH  16  17
ENDBRANCH   7  16
BRANCH  12  21
HETATM   21  S   UNL     1     -11.525  12.835  64.604  1.00  0.00    -0.344 S  
HETATM   22  O   UNL     1     -12.821  13.372  64.941  1.00  0.00    -0.688 OA 
HETATM   23  O   UNL     1     -10.360  13.654  64.372  1.00  0.00    -0.428 OA 
HETATM   24  N   UNL     1     -11.709  11.846  63.261  1.00  0.00    -0.758 N  
HETATM   25  H1  UNL     1     -11.972  12.448  62.481  1.00  0.00     0.000 HD 
HETATM   26  H2  UNL     1     -11.583  10.834  63.231  1.00  0.00     0.000 HD 
ENDBRANCH  12  21
ENDBRANCH   3   5
ENDBRANCH   2   3
TORSDOF 7
ENDMDL
MODEL       41
REMARK 921   NORMALIZED FREE ENERGY PREDICTED BY IDOCK:   -4.76 KCAL/MOL
REMARK 922        TOTAL FREE ENERGY PREDICTED BY IDOCK:   -7.44 KCAL/MOL
REMARK 923 INTER-LIGAND FREE ENERGY PREDICTED BY IDOCK:   -6.80 KCAL/MOL
REMARK 924 INTRA-LIGAND FREE ENERGY PREDICTED BY IDOCK:   -0.64 KCAL/MOL
REMARK 927      BINDING AFFINITY PREDICTED BY RF-SCORE:    0.00 PKD
ROOT
HETATM    1  C   UNL     1      -5.858  15.100  69.438  1.00  0.00    -0.104 C  
HETATM    2  C   UNL     1      -7.265  15.649  69.626  1.00  0.00    -0.153 C  
ENDROOT
BRANCH   2   3
HETATM    3  N   UNL     1      -8.259  14.607  69.359  1.00  0.00    -0.379 NA 
HETATM    4  H   UNL     1      -8.545  14.152  70.226  1.00  0.00     0.000 HD 
BRANCH   3   5
HETATM    5  C   UNL     1      -9.433  15.086  68.612  1.00  0.00    -0.212 C  
HETATM    6  C   UNL     1      -9.590  14.466  67.160  1.00  0.00    -0.250 C  
HETATM    7  N   UNL     1     -10.171  13.094  67.098  1.00  0.00    -0.243 N  
HETATM    8  C   UNL     1     -10.976  15.478  70.746  1.00  0.00    -0.360 A  
HETATM    9  S   UNL     1     -11.709  12.896  67.748  1.00  0.00    -0.351 S  
HETATM   10  O   UNL     1     -12.642  13.628  66.916  1.00  0.00    -0.233 OA 
HETATM   11  C   UNL     1     -11.600  13.878  69.209  1.00  0.00    -0.309 A  
HETATM   12  C   UNL     1     -12.117  14.955  71.334  1.00  0.00    -0.337 A  
HETATM   13  O   UNL     1     -11.915  11.526  68.153  1.00  0.00    -0.571 OA 
HETATM   14  S   UNL     1     -12.822  13.730  70.369  1.00  0.00     0.011 SA 
HETATM   15  C   UNL     1     -10.640  14.825  69.511  1.00  0.00    -0.200 A  
BRANCH   7  16
HETATM   16  C   UNL     1      -9.301  11.931  66.898  1.00  0.00    -0.196 C  
BRANCH  16  17
HETATM   17  C   UNL     1      -8.969  11.675  65.441  1.00  0.00     0.085 C  
BRANCH  17  18
HETATM   18  C   UNL     1     -10.215  11.319  64.643  1.00  0.00    -0.301 C  
BRANCH  18  19
HETATM   19  O   UNL     1     -10.630  12.478  63.923  1.00  0.00    -0.389 OA 
HETATM   20  C   UNL     1     -12.046  12.576  63.866  1.00  0.00    -0.498 C  
ENDBRANCH  18  19
ENDBRANCH  17  18
ENDBRANCH  16  17
ENDBRANCH   7  16
BRANCH  12  21
HETATM   21  S   UNL     1     -12.973  15.323  72.849  1.00  0.00    -0.516 S  
HETATM   22  O   UNL     1     -14.217  15.939  72.456  1.00  0.00    -0.495 OA 
HETATM   23  O   UNL     1     -12.895  14.102  73.613  1.00  0.00    -0.370 OA 
HETATM   24  N   UNL     1     -12.060  16.473  73.661  1.00  0.00    -0.432 N  
HETATM   25  H1  UNL     1     -12.551  16.685  74.530  1.00  0.00     0.000 HD 
HETATM   26  H2  UNL     1     -11.181  16.883  73.345  1.00  0.00     0.000 HD 
ENDBRANCH  12  21
ENDBRANCH   3   5
ENDBRANCH   2   3
TORSDOF 7
ENDMDL
MODEL       42
REMARK 921   NORMALIZED FREE ENERGY PREDICTED BY IDOCK:   -4.76 KCAL/MOL
REMARK 922        TOTAL FREE ENERGY PREDICTED BY IDOCK:   -7.44 KCAL/MOL
REMARK 923 INTER-LIGAND FREE ENERGY PREDICTED BY IDOCK:   -6.81 KCAL/MOL
REMARK 924 INTRA-LIGAND FREE ENERGY PREDICTED BY IDOCK:   -0.63 KCAL/MOL
REMARK 927      BINDING AFFINITY PREDICTED BY RF-SCORE:    0.00 PKD
ROOT
HETATM    1  C   UNL     1     -13.379  13.094  72.028  1.00  0.00    -0.587 C  
HETATM    2  C   UNL     1     -12.541  12.286  71.047  1.00  0.00    -0.257 C  
ENDROOT
BRANCH   2   3
HETATM    3  N   UNL     1     -11.634  13.166  70.307  1.00  0.00    -0.531 NA 
HETATM    4  H   UNL     1     -10.680  12.804  70.333  1.00  0.00     0.000 HD 
BRANCH   3   5
HETATM    5  C   UNL     1     -12.055  13.420  68.921  1.00  0.00    -0.252 C  
HETATM    6  C   UNL     1     -12.025  14.948  68.490  1.00  0.00    -0.241 C  
HETATM    7  N   UNL     1     -10.685  15.496  68.132  1.00  0.00    -0.273 N  
HETATM    8  C   UNL     1     -11.196  11.098  67.941  1.00  0.00    -0.365 A  
HETATM    9  S   UNL     1      -9.876  14.744  66.864  1.00  0.00    -0.250 S  
HETATM   10  O   UNL     1     -10.616  15.005  65.646  1.00  0.00    -0.303 OA 
HETATM   11  C   UNL     1     -10.212  13.044  67.195  1.00  0.00    -0.243 A  
HETATM   12  C   UNL     1     -10.221  10.609  67.087  1.00  0.00    -0.216 A  
HETATM   13  O   UNL     1      -8.452  14.942  66.985  1.00  0.00    -0.211 OA 
HETATM   14  S   UNL     1      -9.330  11.873  66.354  1.00  0.00    -0.226 SA 
HETATM   15  C   UNL     1     -11.176  12.532  68.043  1.00  0.00    -0.316 A  
BRANCH   7  16
HETATM   16  C   UNL     1      -9.946  16.324  69.089  1.00  0.00    -0.260 C  
BRANCH  16  17
HETATM   17  C   UNL     1     -10.081  17.812  68.825  1.00  0.00    -0.381 C  
BRANCH  17  18
HETATM   18  C   UNL     1      -9.015  18.300  67.855  1.00  0.00    -0.276 C  
BRANCH  18  19
HETATM   19  O   UNL     1      -9.653  18.647  66.628  1.00  0.00    -0.307 OA 
HETATM   20  C   UNL     1     -10.604  19.687  66.811  1.00  0.00    -0.486 C  
ENDBRANCH  18  19
ENDBRANCH  17  18
ENDBRANCH  16  17
ENDBRANCH   7  16
BRANCH  12  21
HETATM   21  S   UNL     1      -9.751   8.963  66.606  1.00  0.00    -0.259 S  
HETATM   22  O   UNL     1     -10.748   8.089  67.174  1.00  0.00    -0.322 OA 
HETATM   23  O   UNL     1      -9.491   9.061  65.190  1.00  0.00    -0.142 OA 
HETATM   24  N   UNL     1      -8.286   8.633  67.355  1.00  0.00    -0.105 N  
HETATM   25  H1  UNL     1      -8.016   7.688  67.079  1.00  0.00     0.000 HD 
HETATM   26  H2  UNL     1      -7.764   9.257  67.970  1.00  0.00     0.000 HD 
ENDBRANCH  12  21
ENDBRANCH   3   5
ENDBRANCH   2   3
TORSDOF 7
ENDMDL
MODEL       43
REMARK 921   NORMALIZED FREE ENERGY PREDICTED BY IDOCK:   -4.75 KCAL/MOL
REMARK 922        TOTAL FREE ENERGY PREDICTED BY IDOCK:   -7.43 KCAL/MOL
REMARK 923 INTER-LIGAND FREE ENERGY PREDICTED BY IDOCK:   -6.85 KCAL/MOL
REMARK 924 INTRA-LIGAND FREE ENERGY PREDICTED BY IDOCK:   -0.58 KCAL/MOL
REMARK 927      BINDING AFFINITY PREDICTED BY RF-SCORE:    0.00 PKD
ROOT
HETATM    1  C   UNL     1     -10.349   8.429  69.029  1.00  0.00    -0.231 C  
HETATM    2  C   UNL     1     -11.408   9.502  69.243  1.00  0.00     0.095 C  
ENDROOT
BRANCH   2   3
HETATM    3  N   UNL     1     -11.450  10.411  68.095  1.00  0.00    -0.625 NA 
HETATM    4  H   UNL     1     -12.387  10.798  67.977  1.00  0.00     0.000 HD 
BRANCH   3   5
HETATM    5  C   UNL     1     -10.447  11.486  68.154  1.00  0.00    -0.193 C  
HETATM    6  C   UNL     1      -9.708  11.775  66.780  1.00  0.00    -0.197 C  
HETATM    7  N   UNL     1     -10.465  12.602  65.796  1.00  0.00    -0.271 N  
HETATM    8  C   UNL     1     -11.669  12.901  70.050  1.00  0.00    -0.284 A  
HETATM    9  S   UNL     1     -10.921  14.141  66.296  1.00  0.00    -0.308 S  
HETATM   10  O   UNL     1      -9.719  14.933  66.454  1.00  0.00    -0.254 OA 
HETATM   11  C   UNL     1     -11.434  13.832  67.955  1.00  0.00    -0.314 A  
HETATM   12  C   UNL     1     -12.327  14.110  70.205  1.00  0.00    -0.356 A  
HETATM   13  O   UNL     1     -12.075  14.591  65.556  1.00  0.00    -0.357 OA 
HETATM   14  S   UNL     1     -12.284  15.043  68.772  1.00  0.00     0.010 SA 
HETATM   15  C   UNL     1     -11.171  12.708  68.716  1.00  0.00    -0.325 A  
BRANCH   7  16
HETATM   16  C   UNL     1     -11.141  11.965  64.661  1.00  0.00    -0.317 C  
BRANCH  16  17
HETATM   17  C   UNL     1     -10.348  12.044  63.370  1.00  0.00    -0.468 C  
BRANCH  17  18
HETATM   18  C   UNL     1      -9.756  10.692  63.001  1.00  0.00    -0.323 C  
BRANCH  18  19
HETATM   19  O   UNL     1      -8.555  10.511  63.749  1.00  0.00    -0.173 OA 
HETATM   20  C   UNL     1      -8.083   9.175  63.660  1.00  0.00    -0.160 C  
ENDBRANCH  18  19
ENDBRANCH  17  18
ENDBRANCH  16  17
ENDBRANCH   7  16
BRANCH  12  21
HETATM   21  S   UNL     1     -13.163  14.862  71.583  1.00  0.00    -0.395 S  
HETATM   22  O   UNL     1     -12.132  15.491  72.372  1.00  0.00    -0.353 OA 
HETATM   23  O   UNL     1     -14.262  15.584  70.988  1.00  0.00    -0.490 OA 
HETATM   24  N   UNL     1     -13.824  13.618  72.494  1.00  0.00    -0.558 N  
HETATM   25  H1  UNL     1     -14.304  14.049  73.285  1.00  0.00     0.000 HD 
HETATM   26  H2  UNL     1     -13.759  12.619  72.296  1.00  0.00     0.000 HD 
ENDBRANCH  12  21
ENDBRANCH   3   5
ENDBRANCH   2   3
TORSDOF 7
ENDMDL
MODEL       44
REMARK 921   NORMALIZED FREE ENERGY PREDICTED BY IDOCK:   -4.72 KCAL/MOL
REMARK 922        TOTAL FREE ENERGY PREDICTED BY IDOCK:   -7.38 KCAL/MOL
REMARK 923 INTER-LIGAND FREE ENERGY PREDICTED BY IDOCK:   -6.68 KCAL/MOL
REMARK 924 INTRA-LIGAND FREE ENERGY PREDICTED BY IDOCK:   -0.70 KCAL/MOL
REMARK 927      BINDING AFFINITY PREDICTED BY RF-SCORE:    0.00 PKD
ROOT
HETATM    1  C   UNL     1      -5.911  13.507  68.206  1.00  0.00    -0.100 C  
HETATM    2  C   UNL     1      -6.939  13.725  69.308  1.00  0.00    -0.042 C  
ENDROOT
BRANCH   2   3
HETATM    3  N   UNL     1      -8.294  13.672  68.757  1.00  0.00    -0.342 NA 
HETATM    4  H   UNL     1      -8.855  14.451  69.105  1.00  0.00     0.000 HD 
BRANCH   3   5
HETATM    5  C   UNL     1      -8.335  13.621  67.287  1.00  0.00    -0.171 C  
HETATM    6  C   UNL     1      -9.190  12.424  66.692  1.00  0.00    -0.218 C  
HETATM    7  N   UNL     1     -10.667  12.626  66.676  1.00  0.00    -0.251 N  
HETATM    8  C   UNL     1      -8.126  16.248  66.912  1.00  0.00    -0.270 A  
HETATM    9  S   UNL     1     -11.239  13.949  65.811  1.00  0.00    -0.308 S  
HETATM   10  O   UNL     1     -10.979  13.709  64.406  1.00  0.00    -0.386 OA 
HETATM   11  C   UNL     1     -10.060  15.186  66.244  1.00  0.00    -0.283 A  
HETATM   12  C   UNL     1      -8.886  17.312  66.453  1.00  0.00    -0.246 A  
HETATM   13  O   UNL     1     -12.523  14.369  66.319  1.00  0.00    -0.393 OA 
HETATM   14  S   UNL     1     -10.405  16.796  65.859  1.00  0.00    -0.271 SA 
HETATM   15  C   UNL     1      -8.822  14.993  66.829  1.00  0.00    -0.299 A  
BRANCH   7  16
HETATM   16  C   UNL     1     -11.511  11.991  67.694  1.00  0.00    -0.322 C  
BRANCH  16  17
HETATM   17  C   UNL     1     -10.921  10.707  68.246  1.00  0.00    -0.314 C  
BRANCH  17  18
HETATM   18  C   UNL     1     -10.930  10.703  69.767  1.00  0.00    -0.280 C  
BRANCH  18  19
HETATM   19  O   UNL     1     -11.954  11.591  70.210  1.00  0.00    -0.333 OA 
HETATM   20  C   UNL     1     -12.783  10.983  71.190  1.00  0.00    -0.419 C  
ENDBRANCH  18  19
ENDBRANCH  17  18
ENDBRANCH  16  17
ENDBRANCH   7  16
BRANCH  12  21
HETATM   21  S   UNL     1      -8.578  19.061  66.348  1.00  0.00    -0.292 S  
HETATM   22  O   UNL     1      -7.458  19.208  65.452  1.00  0.00    -0.436 OA 
HETATM   23  O   UNL     1      -9.876  19.642  66.104  1.00  0.00    -0.404 OA 
HETATM   24  N   UNL     1      -8.090  19.565  67.873  1.00  0.00    -0.298 N  
HETATM   25  H1  UNL     1      -7.913  20.568  67.813  1.00  0.00     0.000 HD 
HETATM   26  H2  UNL     1      -7.989  18.979  68.702  1.00  0.00     0.000 HD 
ENDBRANCH  12  21
ENDBRANCH   3   5
ENDBRANCH   2   3
TORSDOF 7
ENDMDL
MODEL       45
REMARK 921   NORMALIZED FREE ENERGY PREDICTED BY IDOCK:   -4.68 KCAL/MOL
REMARK 922        TOTAL FREE ENERGY PREDICTED BY IDOCK:   -7.32 KCAL/MOL
REMARK 923 INTER-LIGAND FREE ENERGY PREDICTED BY IDOCK:   -6.73 KCAL/MOL
REMARK 924 INTRA-LIGAND FREE ENERGY PREDICTED BY IDOCK:   -0.59 KCAL/MOL
REMARK 927      BINDING AFFINITY PREDICTED BY RF-SCORE:    0.00 PKD
ROOT
HETATM    1  C   UNL     1      -5.877  13.351  68.142  1.00  0.00    -0.108 C  
HETATM    2  C   UNL     1      -6.918  13.005  69.198  1.00  0.00    -0.020 C  
ENDROOT
BRANCH   2   3
HETATM    3  N   UNL     1      -8.241  12.874  68.585  1.00  0.00    -0.332 NA 
HETATM    4  H   UNL     1      -8.853  13.634  68.884  1.00  0.00     0.000 HD 
BRANCH   3   5
HETATM    5  C   UNL     1      -8.206  12.781  67.117  1.00  0.00    -0.146 C  
HETATM    6  C   UNL     1      -8.642  11.371  66.534  1.00  0.00    -0.175 C  
HETATM    7  N   UNL     1     -10.110  11.122  66.466  1.00  0.00    -0.216 N  
HETATM    8  C   UNL     1      -8.777  15.343  66.665  1.00  0.00    -0.332 A  
HETATM    9  S   UNL     1     -11.017  12.194  65.542  1.00  0.00    -0.310 S  
HETATM   10  O   UNL     1     -10.643  12.014  64.154  1.00  0.00    -0.297 OA 
HETATM   11  C   UNL     1     -10.278  13.737  65.972  1.00  0.00    -0.308 A  
HETATM   12  C   UNL     1      -9.801  16.120  66.150  1.00  0.00    -0.333 A  
HETATM   13  O   UNL     1     -12.386  12.221  65.996  1.00  0.00    -0.609 OA 
HETATM   14  S   UNL     1     -11.072  15.161  65.525  1.00  0.00    -0.330 SA 
HETATM   15  C   UNL     1      -9.063  13.935  66.601  1.00  0.00    -0.209 A  
BRANCH   7  16
HETATM   16  C   UNL     1     -10.765  10.285  67.476  1.00  0.00    -0.294 C  
BRANCH  16  17
HETATM   17  C   UNL     1     -10.340   8.830  67.418  1.00  0.00    -0.349 C  
BRANCH  17  18
HETATM   18  C   UNL     1      -9.672   8.396  68.714  1.00  0.00    -0.164 C  
BRANCH  18  19
HETATM   19  O   UNL     1     -10.464   7.368  69.303  1.00  0.00    -0.213 OA 
HETATM   20  C   UNL     1      -9.677   6.498  70.104  1.00  0.00    -0.167 C  
ENDBRANCH  18  19
ENDBRANCH  17  18
ENDBRANCH  16  17
ENDBRANCH   7  16
BRANCH  12  21
HETATM   21  S   UNL     1     -10.024  17.879  65.999  1.00  0.00    -0.139 S  
HETATM   22  O   UNL     1      -8.696  18.440  65.954  1.00  0.00    -0.497 OA 
HETATM   23  O   UNL     1     -10.990  18.030  64.938  1.00  0.00    -0.776 OA 
HETATM   24  N   UNL     1     -10.759  18.402  67.414  1.00  0.00    -0.407 N  
HETATM   25  H1  UNL     1     -10.887  19.411  67.328  1.00  0.00     0.000 HD 
HETATM   26  H2  UNL     1     -11.027  17.823  68.210  1.00  0.00     0.000 HD 
ENDBRANCH  12  21
ENDBRANCH   3   5
ENDBRANCH   2   3
TORSDOF 7
ENDMDL
MODEL       46
REMARK 921   NORMALIZED FREE ENERGY PREDICTED BY IDOCK:   -4.63 KCAL/MOL
REMARK 922        TOTAL FREE ENERGY PREDICTED BY IDOCK:   -7.26 KCAL/MOL
REMARK 923 INTER-LIGAND FREE ENERGY PREDICTED BY IDOCK:   -6.28 KCAL/MOL
REMARK 924 INTRA-LIGAND FREE ENERGY PREDICTED BY IDOCK:   -0.98 KCAL/MOL
REMARK 927      BINDING AFFINITY PREDICTED BY RF-SCORE:    0.00 PKD
ROOT
HETATM    1  C   UNL     1     -13.088  11.407  72.015  1.00  0.00    -0.423 C  
HETATM    2  C   UNL     1     -13.020  12.724  71.254  1.00  0.00    -0.220 C  
ENDROOT
BRANCH   2   3
HETATM    3  N   UNL     1     -11.831  12.757  70.399  1.00  0.00    -0.550 NA 
HETATM    4  H   UNL     1     -11.093  12.168  70.786  1.00  0.00     0.000 HD 
BRANCH   3   5
HETATM    5  C   UNL     1     -12.099  12.400  68.998  1.00  0.00    -0.136 C  
HETATM    6  C   UNL     1     -11.939  13.597  67.968  1.00  0.00    -0.350 C  
HETATM    7  N   UNL     1     -10.542  13.925  67.566  1.00  0.00    -0.255 N  
HETATM    8  C   UNL     1     -11.285   9.872  69.196  1.00  0.00    -0.151 A  
HETATM    9  S   UNL     1      -9.658  12.696  66.835  1.00  0.00    -0.237 S  
HETATM   10  O   UNL     1     -10.258  12.420  65.546  1.00  0.00    -0.265 OA 
HETATM   11  C   UNL     1     -10.122  11.304  67.813  1.00  0.00    -0.179 A  
HETATM   12  C   UNL     1     -10.260   9.056  68.745  1.00  0.00    -0.208 A  
HETATM   13  O   UNL     1      -8.243  12.911  67.021  1.00  0.00    -0.163 OA 
HETATM   14  S   UNL     1      -9.231   9.876  67.653  1.00  0.00    -0.133 SA 
HETATM   15  C   UNL     1     -11.192  11.212  68.684  1.00  0.00    -0.314 A  
BRANCH   7  16
HETATM   16  C   UNL     1      -9.852  15.075  68.160  1.00  0.00    -0.216 C  
BRANCH  16  17
HETATM   17  C   UNL     1     -10.791  16.202  68.546  1.00  0.00    -0.313 C  
BRANCH  17  18
HETATM   18  C   UNL     1     -10.761  16.456  70.046  1.00  0.00    -0.258 C  
BRANCH  18  19
HETATM   19  O   UNL     1     -11.987  15.987  70.603  1.00  0.00    -0.366 OA 
HETATM   20  C   UNL     1     -11.969  16.041  72.023  1.00  0.00    -0.537 C  
ENDBRANCH  18  19
ENDBRANCH  17  18
ENDBRANCH  16  17
ENDBRANCH   7  16
BRANCH  12  21
HETATM   21  S   UNL     1      -9.842   7.356  69.062  1.00  0.00    -0.171 S  
HETATM   22  O   UNL     1      -8.820   7.018  68.101  1.00  0.00    -0.129 OA 
HETATM   23  O   UNL     1      -9.644   7.294  70.490  1.00  0.00    -0.169 OA 
HETATM   24  N   UNL     1     -11.204   6.442  68.712  1.00  0.00    -0.534 N  
HETATM   25  H1  UNL     1     -10.964   5.467  68.893  1.00  0.00     0.000 HD 
HETATM   26  H2  UNL     1     -12.102   6.793  68.379  1.00  0.00     0.000 HD 
ENDBRANCH  12  21
ENDBRANCH   3   5
ENDBRANCH   2   3
TORSDOF 7
ENDMDL
MODEL       47
REMARK 921   NORMALIZED FREE ENERGY PREDICTED BY IDOCK:   -4.60 KCAL/MOL
REMARK 922        TOTAL FREE ENERGY PREDICTED BY IDOCK:   -7.21 KCAL/MOL
REMARK 923 INTER-LIGAND FREE ENERGY PREDICTED BY IDOCK:   -6.65 KCAL/MOL
REMARK 924 INTRA-LIGAND FREE ENERGY PREDICTED BY IDOCK:   -0.57 KCAL/MOL
REMARK 927      BINDING AFFINITY PREDICTED BY RF-SCORE:    0.00 PKD
ROOT
HETATM    1  C   UNL     1      -7.971  15.329  68.722  1.00  0.00    -0.158 C  
HETATM    2  C   UNL     1      -7.388  14.007  69.203  1.00  0.00    -0.037 C  
ENDROOT
BRANCH   2   3
HETATM    3  N   UNL     1      -8.285  12.901  68.859  1.00  0.00    -0.337 NA 
HETATM    4  H   UNL     1      -9.258  13.207  68.884  1.00  0.00     0.000 HD 
BRANCH   3   5
HETATM    5  C   UNL     1      -7.973  12.265  67.570  1.00  0.00    -0.166 C  
HETATM    6  C   UNL     1      -7.437  10.775  67.682  1.00  0.00    -0.095 C  
HETATM    7  N   UNL     1      -8.474   9.725  67.893  1.00  0.00    -0.124 N  
HETATM    8  C   UNL     1      -9.810  13.579  66.161  1.00  0.00    -0.292 A  
HETATM    9  S   UNL     1      -9.668   9.596  66.717  1.00  0.00    -0.211 S  
HETATM   10  O   UNL     1      -9.044   9.125  65.497  1.00  0.00    -0.198 OA 
HETATM   11  C   UNL     1     -10.009  11.293  66.377  1.00  0.00    -0.215 A  
HETATM   12  C   UNL     1     -10.997  13.336  65.489  1.00  0.00    -0.282 A  
HETATM   13  O   UNL     1     -10.864   9.010  67.272  1.00  0.00    -0.223 OA 
HETATM   14  S   UNL     1     -11.386  11.671  65.472  1.00  0.00    -0.082 SA 
HETATM   15  C   UNL     1      -9.237  12.386  66.722  1.00  0.00    -0.212 A  
BRANCH   7  16
HETATM   16  C   UNL     1      -8.691   9.159  69.228  1.00  0.00    -0.139 C  
BRANCH  16  17
HETATM   17  C   UNL     1      -9.690   9.945  70.057  1.00  0.00    -0.274 C  
BRANCH  17  18
HETATM   18  C   UNL     1     -10.238   9.108  71.203  1.00  0.00    -0.314 C  
BRANCH  18  19
HETATM   19  O   UNL     1     -11.594   8.782  70.910  1.00  0.00    -0.280 OA 
HETATM   20  C   UNL     1     -12.306   8.410  72.082  1.00  0.00    -0.370 C  
ENDBRANCH  18  19
ENDBRANCH  17  18
ENDBRANCH  16  17
ENDBRANCH   7  16
BRANCH  12  21
HETATM   21  S   UNL     1     -12.148  14.399  64.646  1.00  0.00    -0.469 S  
HETATM   22  O   UNL     1     -13.406  14.236  65.332  1.00  0.00    -0.649 OA 
HETATM   23  O   UNL     1     -11.458  15.662  64.537  1.00  0.00    -0.415 OA 
HETATM   24  N   UNL     1     -12.324  13.796  63.091  1.00  0.00    -1.106 N  
HETATM   25  H1  UNL     1     -12.984  14.405  62.607  1.00  0.00     0.000 HD 
HETATM   26  H2  UNL     1     -11.860  12.975  62.702  1.00  0.00     0.000 HD 
ENDBRANCH  12  21
ENDBRANCH   3   5
ENDBRANCH   2   3
TORSDOF 7
ENDMDL
MODEL       48
REMARK 921   NORMALIZED FREE ENERGY PREDICTED BY IDOCK:   -4.55 KCAL/MOL
REMARK 922        TOTAL FREE ENERGY PREDICTED BY IDOCK:   -7.15 KCAL/MOL
REMARK 923 INTER-LIGAND FREE ENERGY PREDICTED BY IDOCK:   -6.59 KCAL/MOL
REMARK 924 INTRA-LIGAND FREE ENERGY PREDICTED BY IDOCK:   -0.56 KCAL/MOL
REMARK 927      BINDING AFFINITY PREDICTED BY RF-SCORE:    0.00 PKD
ROOT
HETATM    1  C   UNL     1     -11.049  10.156  70.573  1.00  0.00    -0.400 C  
HETATM    2  C   UNL     1      -9.786  10.431  69.768  1.00  0.00    -0.091 C  
ENDROOT
BRANCH   2   3
HETATM    3  N   UNL     1     -10.007  11.542  68.840  1.00  0.00    -0.375 NA 
HETATM    4  H   UNL     1      -9.168  11.721  68.286  1.00  0.00     0.000 HD 
BRANCH   3   5
HETATM    5  C   UNL     1     -11.176  11.361  67.966  1.00  0.00    -0.281 C  
HETATM    6  C   UNL     1     -12.264  12.512  68.070  1.00  0.00     0.170 C  
HETATM    7  N   UNL     1     -11.959  13.764  67.321  1.00  0.00    -0.401 N  
HETATM    8  C   UNL     1      -9.879  10.070  66.032  1.00  0.00    -0.321 A  
HETATM    9  S   UNL     1     -11.744  13.616  65.660  1.00  0.00    -0.360 S  
HETATM   10  O   UNL     1     -13.017  13.249  65.076  1.00  0.00    -0.726 OA 
HETATM   11  C   UNL     1     -10.799  12.130  65.561  1.00  0.00    -0.283 A  
HETATM   12  C   UNL     1      -9.482  10.261  64.718  1.00  0.00    -0.283 A  
HETATM   13  O   UNL     1     -10.923  14.692  65.158  1.00  0.00    -0.339 OA 
HETATM   14  S   UNL     1     -10.064  11.741  64.089  1.00  0.00    -0.319 SA 
HETATM   15  C   UNL     1     -10.624  11.183  66.553  1.00  0.00    -0.314 A  
BRANCH   7  16
HETATM   16  C   UNL     1     -11.449  14.943  68.027  1.00  0.00    -0.337 C  
BRANCH  16  17
HETATM   17  C   UNL     1      -9.943  14.927  68.210  1.00  0.00    -0.222 C  
BRANCH  17  18
HETATM   18  C   UNL     1      -9.435  16.260  68.738  1.00  0.00    -0.237 C  
BRANCH  18  19
HETATM   19  O   UNL     1      -9.493  17.213  67.679  1.00  0.00    -0.237 OA 
HETATM   20  C   UNL     1     -10.132  18.413  68.092  1.00  0.00    -0.382 C  
ENDBRANCH  18  19
ENDBRANCH  17  18
ENDBRANCH  16  17
ENDBRANCH   7  16
BRANCH  12  21
HETATM   21  S   UNL     1      -8.528   9.272  63.588  1.00  0.00    -0.183 S  
HETATM   22  O   UNL     1      -9.240   9.312  62.335  1.00  0.00    -0.217 OA 
HETATM   23  O   UNL     1      -7.174   9.743  63.752  1.00  0.00    -0.111 OA 
HETATM   24  N   UNL     1      -8.574   7.694  64.159  1.00  0.00    -0.337 N  
HETATM   25  H1  UNL     1      -8.027   7.127  63.511  1.00  0.00     0.000 HD 
HETATM   26  H2  UNL     1      -9.058   7.365  64.994  1.00  0.00     0.000 HD 
ENDBRANCH  12  21
ENDBRANCH   3   5
ENDBRANCH   2   3
TORSDOF 7
ENDMDL
MODEL       49
REMARK 921   NORMALIZED FREE ENERGY PREDICTED BY IDOCK:   -4.53 KCAL/MOL
REMARK 922        TOTAL FREE ENERGY PREDICTED BY IDOCK:   -7.11 KCAL/MOL
REMARK 923 INTER-LIGAND FREE ENERGY PREDICTED BY IDOCK:   -6.31 KCAL/MOL
REMARK 924 INTRA-LIGAND FREE ENERGY PREDICTED BY IDOCK:   -0.80 KCAL/MOL
REMARK 927      BINDING AFFINITY PREDICTED BY RF-SCORE:    0.00 PKD
ROOT
HETATM    1  C   UNL     1      -8.995   7.242  65.957  1.00  0.00    -0.149 C  
HETATM    2  C   UNL     1      -8.123   8.448  66.278  1.00  0.00    -0.105 C  
ENDROOT
BRANCH   2   3
HETATM    3  N   UNL     1      -8.751   9.269  67.315  1.00  0.00    -0.127 NA 
HETATM    4  H   UNL     1      -8.502  10.251  67.196  1.00  0.00     0.000 HD 
BRANCH   3   5
HETATM    5  C   UNL     1     -10.211   9.109  67.394  1.00  0.00    -0.247 C  
HETATM    6  C   UNL     1     -10.740   8.536  68.776  1.00  0.00    -0.054 C  
HETATM    7  N   UNL     1     -10.836   9.518  69.893  1.00  0.00    -0.236 N  
HETATM    8  C   UNL     1     -10.798  11.134  65.767  1.00  0.00    -0.218 A  
HETATM    9  S   UNL     1     -11.835  10.848  69.645  1.00  0.00    -0.359 S  
HETATM   10  O   UNL     1     -13.202  10.373  69.576  1.00  0.00     0.224 OA 
HETATM   11  C   UNL     1     -11.457  11.261  67.972  1.00  0.00    -0.298 A  
HETATM   12  C   UNL     1     -11.378  12.391  65.814  1.00  0.00    -0.352 A  
HETATM   13  O   UNL     1     -11.420  11.953  70.474  1.00  0.00    -0.006 OA 
HETATM   14  S   UNL     1     -11.992  12.748  67.371  1.00  0.00    -0.172 SA 
HETATM   15  C   UNL     1     -10.804  10.472  67.043  1.00  0.00    -0.288 A  
BRANCH   7  16
HETATM   16  C   UNL     1      -9.806   9.555  70.936  1.00  0.00    -0.209 C  
BRANCH  16  17
HETATM   17  C   UNL     1     -10.062   8.577  72.066  1.00  0.00    -0.386 C  
BRANCH  17  18
HETATM   18  C   UNL     1     -11.533   8.551  72.454  1.00  0.00    -0.349 C  
BRANCH  18  19
HETATM   19  O   UNL     1     -12.074   7.289  72.070  1.00  0.00    -0.296 OA 
HETATM   20  C   UNL     1     -13.376   7.427  71.518  1.00  0.00    -0.372 C  
ENDBRANCH  18  19
ENDBRANCH  17  18
ENDBRANCH  16  17
ENDBRANCH   7  16
BRANCH  12  21
HETATM   21  S   UNL     1     -11.617  13.658  64.589  1.00  0.00    -0.389 S  
HETATM   22  O   UNL     1     -12.913  14.229  64.863  1.00  0.00    -0.682 OA 
HETATM   23  O   UNL     1     -10.391  14.418  64.612  1.00  0.00    -0.397 OA 
HETATM   24  N   UNL     1     -11.695  12.891  63.099  1.00  0.00    -0.844 N  
HETATM   25  H1  UNL     1     -11.832  13.618  62.396  1.00  0.00     0.000 HD 
HETATM   26  H2  UNL     1     -11.620  11.888  62.927  1.00  0.00     0.000 HD 
ENDBRANCH  12  21
ENDBRANCH   3   5
ENDBRANCH   2   3
TORSDOF 7
ENDMDL
MODEL       50
REMARK 921   NORMALIZED FREE ENERGY PREDICTED BY IDOCK:   -4.51 KCAL/MOL
REMARK 922        TOTAL FREE ENERGY PREDICTED BY IDOCK:   -7.09 KCAL/MOL
REMARK 923 INTER-LIGAND FREE ENERGY PREDICTED BY IDOCK:   -6.84 KCAL/MOL
REMARK 924 INTRA-LIGAND FREE ENERGY PREDICTED BY IDOCK:   -0.25 KCAL/MOL
REMARK 927      BINDING AFFINITY PREDICTED BY RF-SCORE:    0.00 PKD
ROOT
HETATM    1  C   UNL     1      -8.314  12.810  66.991  1.00  0.00    -0.123 C  
HETATM    2  C   UNL     1      -8.810  14.234  66.781  1.00  0.00    -0.182 C  
ENDROOT
BRANCH   2   3
HETATM    3  N   UNL     1      -9.858  14.262  65.759  1.00  0.00    -0.437 NA 
HETATM    4  H   UNL     1     -10.071  13.317  65.436  1.00  0.00     0.000 HD 
BRANCH   3   5
HETATM    5  C   UNL     1     -11.085  14.953  66.186  1.00  0.00    -0.335 C  
HETATM    6  C   UNL     1     -12.093  14.055  67.020  1.00  0.00    -0.420 C  
HETATM    7  N   UNL     1     -11.756  13.866  68.460  1.00  0.00    -0.334 N  
HETATM    8  C   UNL     1      -9.981  17.366  66.403  1.00  0.00    -0.322 A  
HETATM    9  S   UNL     1     -11.645  15.257  69.398  1.00  0.00    -0.354 S  
HETATM   10  O   UNL     1     -12.970  15.834  69.499  1.00  0.00     0.177 OA 
HETATM   11  C   UNL     1     -10.800  16.351  68.303  1.00  0.00    -0.347 A  
HETATM   12  C   UNL     1      -9.649  18.291  67.380  1.00  0.00    -0.283 A  
HETATM   13  O   UNL     1     -10.791  15.031  70.539  1.00  0.00    -0.219 OA 
HETATM   14  S   UNL     1     -10.175  17.791  68.929  1.00  0.00    -0.264 SA 
HETATM   15  C   UNL     1     -10.626  16.199  66.940  1.00  0.00    -0.283 A  
BRANCH   7  16
HETATM   16  C   UNL     1     -11.135  12.619  68.917  1.00  0.00    -0.259 C  
BRANCH  16  17
HETATM   17  C   UNL     1     -12.136  11.607  69.442  1.00  0.00    -0.328 C  
BRANCH  17  18
HETATM   18  C   UNL     1     -12.389  11.800  70.930  1.00  0.00    -0.320 C  
BRANCH  18  19
HETATM   19  O   UNL     1     -13.330  12.859  71.090  1.00  0.00    -0.079 OA 
HETATM   20  C   UNL     1     -13.431  13.265  72.448  1.00  0.00    -0.569 C  
ENDBRANCH  18  19
ENDBRANCH  17  18
ENDBRANCH  16  17
ENDBRANCH   7  16
BRANCH  12  21
HETATM   21  S   UNL     1      -8.823  19.865  67.323  1.00  0.00    -0.346 S  
HETATM   22  O   UNL     1      -9.869  20.858  67.366  1.00  0.00    -0.444 OA 
HETATM   23  O   UNL     1      -7.781  19.761  68.316  1.00  0.00    -0.307 OA 
HETATM   24  N   UNL     1      -8.072  19.970  65.826  1.00  0.00    -0.464 N  
HETATM   25  H1  UNL     1      -7.598  20.874  65.794  1.00  0.00     0.000 HD 
HETATM   26  H2  UNL     1      -8.086  19.266  65.089  1.00  0.00     0.000 HD 
ENDBRANCH  12  21
ENDBRANCH   3   5
ENDBRANCH   2   3
TORSDOF 7
ENDMDL
MODEL       51
REMARK 921   NORMALIZED FREE ENERGY PREDICTED BY IDOCK:   -4.47 KCAL/MOL
REMARK 922        TOTAL FREE ENERGY PREDICTED BY IDOCK:   -7.03 KCAL/MOL
REMARK 923 INTER-LIGAND FREE ENERGY PREDICTED BY IDOCK:   -6.93 KCAL/MOL
REMARK 924 INTRA-LIGAND FREE ENERGY PREDICTED BY IDOCK:   -0.11 KCAL/MOL
REMARK 927      BINDING AFFINITY PREDICTED BY RF-SCORE:    0.00 PKD
ROOT
HETATM    1  C   UNL     1     -12.172  15.303  70.466  1.00  0.00    -0.415 C  
HETATM    2  C   UNL     1     -11.557  14.638  69.242  1.00  0.00    -0.302 C  
ENDROOT
BRANCH   2   3
HETATM    3  N   UNL     1     -10.112  14.479  69.422  1.00  0.00    -0.419 NA 
HETATM    4  H   UNL     1      -9.910  13.669  70.009  1.00  0.00     0.000 HD 
BRANCH   3   5
HETATM    5  C   UNL     1      -9.363  14.403  68.158  1.00  0.00    -0.203 C  
HETATM    6  C   UNL     1      -9.516  13.028  67.381  1.00  0.00    -0.210 C  
HETATM    7  N   UNL     1     -10.770  12.865  66.590  1.00  0.00    -0.263 N  
HETATM    8  C   UNL     1      -9.523  16.999  67.586  1.00  0.00    -0.236 A  
HETATM    9  S   UNL     1     -11.054  14.000  65.383  1.00  0.00    -0.333 S  
HETATM   10  O   UNL     1     -10.053  13.816  64.353  1.00  0.00    -0.319 OA 
HETATM   11  C   UNL     1     -10.556  15.491  66.182  1.00  0.00    -0.315 A  
HETATM   12  C   UNL     1     -10.124  17.841  66.665  1.00  0.00    -0.350 A  
HETATM   13  O   UNL     1     -12.467  14.100  65.106  1.00  0.00    -0.436 OA 
HETATM   14  S   UNL     1     -10.963  16.965  65.459  1.00  0.00     0.141 SA 
HETATM   15  C   UNL     1      -9.802  15.611  67.334  1.00  0.00    -0.225 A  
BRANCH   7  16
HETATM   16  C   UNL     1     -11.874  12.055  67.114  1.00  0.00    -0.178 C  
BRANCH  16  17
HETATM   17  C   UNL     1     -11.472  11.179  68.286  1.00  0.00    -0.373 C  
BRANCH  17  18
HETATM   18  C   UNL     1     -10.907   9.848  67.813  1.00  0.00    -0.264 C  
BRANCH  18  19
HETATM   19  O   UNL     1     -10.473   9.115  68.957  1.00  0.00    -0.218 OA 
HETATM   20  C   UNL     1     -10.119   7.782  68.618  1.00  0.00    -0.199 C  
ENDBRANCH  18  19
ENDBRANCH  17  18
ENDBRANCH  16  17
ENDBRANCH   7  16
BRANCH  12  21
HETATM   21  S   UNL     1     -10.166  19.611  66.494  1.00  0.00    -0.521 S  
HETATM   22  O   UNL     1     -11.077  19.878  65.408  1.00  0.00    -0.338 OA 
HETATM   23  O   UNL     1     -10.363  20.098  67.838  1.00  0.00    -0.388 OA 
HETATM   24  N   UNL     1      -8.633  20.093  66.013  1.00  0.00    -0.561 N  
HETATM   25  H1  UNL     1      -8.657  21.109  65.915  1.00  0.00     0.000 HD 
HETATM   26  H2  UNL     1      -7.829  19.487  65.850  1.00  0.00     0.000 HD 
ENDBRANCH  12  21
ENDBRANCH   3   5
ENDBRANCH   2   3
TORSDOF 7
ENDMDL
MODEL       52
REMARK 921   NORMALIZED FREE ENERGY PREDICTED BY IDOCK:   -4.47 KCAL/MOL
REMARK 922        TOTAL FREE ENERGY PREDICTED BY IDOCK:   -7.03 KCAL/MOL
REMARK 923 INTER-LIGAND FREE ENERGY PREDICTED BY IDOCK:   -6.48 KCAL/MOL
REMARK 924 INTRA-LIGAND FREE ENERGY PREDICTED BY IDOCK:   -0.55 KCAL/MOL
REMARK 927      BINDING AFFINITY PREDICTED BY RF-SCORE:    0.00 PKD
ROOT
HETATM    1  C   UNL     1     -12.071  13.187  63.576  1.00  0.00    -0.585 C  
HETATM    2  C   UNL     1     -12.836  13.189  64.893  1.00  0.00    -0.280 C  
ENDROOT
BRANCH   2   3
HETATM    3  N   UNL     1     -12.024  13.790  65.953  1.00  0.00    -0.383 NA 
HETATM    4  H   UNL     1     -12.026  13.200  66.786  1.00  0.00     0.000 HD 
BRANCH   3   5
HETATM    5  C   UNL     1     -10.646  14.098  65.540  1.00  0.00    -0.326 C  
HETATM    6  C   UNL     1     -10.179  15.582  65.854  1.00  0.00    -0.345 C  
HETATM    7  N   UNL     1      -9.764  15.849  67.261  1.00  0.00    -0.222 N  
HETATM    8  C   UNL     1      -9.694  11.636  65.890  1.00  0.00    -0.260 A  
HETATM    9  S   UNL     1      -8.489  14.931  67.860  1.00  0.00    -0.161 S  
HETATM   10  O   UNL     1      -7.290  15.312  67.143  1.00  0.00    -0.203 OA 
HETATM   11  C   UNL     1      -8.871  13.337  67.209  1.00  0.00    -0.216 A  
HETATM   12  C   UNL     1      -8.821  10.950  66.719  1.00  0.00    -0.145 A  
HETATM   13  O   UNL     1      -8.560  14.847  69.299  1.00  0.00    -0.175 OA 
HETATM   14  S   UNL     1      -8.030  12.000  67.813  1.00  0.00    -0.160 SA 
HETATM   15  C   UNL     1      -9.761  13.039  66.195  1.00  0.00    -0.255 A  
BRANCH   7  16
HETATM   16  C   UNL     1     -10.678  16.531  68.183  1.00  0.00    -0.343 C  
BRANCH  16  17
HETATM   17  C   UNL     1     -11.766  15.626  68.729  1.00  0.00    -0.382 C  
BRANCH  17  18
HETATM   18  C   UNL     1     -11.838  15.701  70.247  1.00  0.00    -0.365 C  
BRANCH  18  19
HETATM   19  O   UNL     1     -13.212  15.735  70.627  1.00  0.00    -0.501 OA 
HETATM   20  C   UNL     1     -13.559  14.612  71.426  1.00  0.00    -0.404 C  
ENDBRANCH  18  19
ENDBRANCH  17  18
ENDBRANCH  16  17
ENDBRANCH   7  16
BRANCH  12  21
HETATM   21  S   UNL     1      -8.364   9.235  66.838  1.00  0.00    -0.124 S  
HETATM   22  O   UNL     1      -7.125   9.108  66.112  1.00  0.00    -0.084 OA 
HETATM   23  O   UNL     1      -8.503   8.922  68.240  1.00  0.00    -0.127 OA 
HETATM   24  N   UNL     1      -9.536   8.358  66.018  1.00  0.00    -0.429 N  
HETATM   25  H1  UNL     1      -9.274   7.374  66.087  1.00  0.00     0.000 HD 
HETATM   26  H2  UNL     1     -10.355   8.735  65.541  1.00  0.00     0.000 HD 
ENDBRANCH  12  21
ENDBRANCH   3   5
ENDBRANCH   2   3
TORSDOF 7
ENDMDL
MODEL       53
REMARK 921   NORMALIZED FREE ENERGY PREDICTED BY IDOCK:   -4.45 KCAL/MOL
REMARK 922        TOTAL FREE ENERGY PREDICTED BY IDOCK:   -7.01 KCAL/MOL
REMARK 923 INTER-LIGAND FREE ENERGY PREDICTED BY IDOCK:   -6.19 KCAL/MOL
REMARK 924 INTRA-LIGAND FREE ENERGY PREDICTED BY IDOCK:   -0.82 KCAL/MOL
REMARK 927      BINDING AFFINITY PREDICTED BY RF-SCORE:    0.00 PKD
ROOT
HETATM    1  C   UNL     1     -12.156  13.279  63.797  1.00  0.00    -0.546 C  
HETATM    2  C   UNL     1     -12.842  13.452  65.146  1.00  0.00    -0.316 C  
ENDROOT
BRANCH   2   3
HETATM    3  N   UNL     1     -11.973  14.186  66.068  1.00  0.00    -0.396 NA 
HETATM    4  H   UNL     1     -11.869  13.677  66.946  1.00  0.00     0.000 HD 
BRANCH   3   5
HETATM    5  C   UNL     1     -10.656  14.518  65.503  1.00  0.00    -0.351 C  
HETATM    6  C   UNL     1     -10.286  16.061  65.551  1.00  0.00    -0.390 C  
HETATM    7  N   UNL     1      -9.797  16.571  66.863  1.00  0.00    -0.248 N  
HETATM    8  C   UNL     1      -9.491  12.210  66.139  1.00  0.00    -0.231 A  
HETATM    9  S   UNL     1      -8.414  15.846  67.488  1.00  0.00    -0.172 S  
HETATM   10  O   UNL     1      -7.302  16.190  66.626  1.00  0.00    -0.213 OA 
HETATM   11  C   UNL     1      -8.714  14.147  67.117  1.00  0.00    -0.224 A  
HETATM   12  C   UNL     1      -8.510  11.722  66.988  1.00  0.00    -0.175 A  
HETATM   13  O   UNL     1      -8.376  15.982  68.924  1.00  0.00    -0.202 OA 
HETATM   14  S   UNL     1      -7.730  12.981  67.844  1.00  0.00    -0.162 SA 
HETATM   15  C   UNL     1      -9.647  13.636  66.235  1.00  0.00    -0.254 A  
BRANCH   7  16
HETATM   16  C   UNL     1     -10.694  17.326  67.744  1.00  0.00    -0.333 C  
BRANCH  16  17
HETATM   17  C   UNL     1     -10.533  18.829  67.617  1.00  0.00    -0.495 C  
BRANCH  17  18
HETATM   18  C   UNL     1      -9.552  19.370  68.647  1.00  0.00    -0.426 C  
BRANCH  18  19
HETATM   19  O   UNL     1      -8.284  19.528  68.014  1.00  0.00    -0.301 OA 
HETATM   20  C   UNL     1      -7.218  19.398  68.945  1.00  0.00    -0.362 C  
ENDBRANCH  18  19
ENDBRANCH  17  18
ENDBRANCH  16  17
ENDBRANCH   7  16
BRANCH  12  21
HETATM   21  S   UNL     1      -7.912  10.081  67.326  1.00  0.00    -0.106 S  
HETATM   22  O   UNL     1      -6.701  10.255  68.090  1.00  0.00    -0.058 OA 
HETATM   23  O   UNL     1      -9.069   9.371  67.816  1.00  0.00    -0.126 OA 
HETATM   24  N   UNL     1      -7.500   9.396  65.851  1.00  0.00    -0.098 N  
HETATM   25  H1  UNL     1      -7.156   8.455  66.045  1.00  0.00     0.000 HD 
HETATM   26  H2  UNL     1      -7.576   9.837  64.934  1.00  0.00     0.000 HD 
ENDBRANCH  12  21
ENDBRANCH   3   5
ENDBRANCH   2   3
TORSDOF 7
ENDMDL
MODEL       54
REMARK 921   NORMALIZED FREE ENERGY PREDICTED BY IDOCK:   -4.45 KCAL/MOL
REMARK 922        TOTAL FREE ENERGY PREDICTED BY IDOCK:   -7.00 KCAL/MOL
REMARK 923 INTER-LIGAND FREE ENERGY PREDICTED BY IDOCK:   -6.32 KCAL/MOL
REMARK 924 INTRA-LIGAND FREE ENERGY PREDICTED BY IDOCK:   -0.68 KCAL/MOL
REMARK 927      BINDING AFFINITY PREDICTED BY RF-SCORE:    0.00 PKD
ROOT
HETATM    1  C   UNL     1     -11.032   8.971  71.697  1.00  0.00    -0.435 C  
HETATM    2  C   UNL     1     -11.730  10.251  71.260  1.00  0.00    -0.291 C  
ENDROOT
BRANCH   2   3
HETATM    3  N   UNL     1     -10.994  10.882  70.162  1.00  0.00    -0.468 NA 
HETATM    4  H   UNL     1     -10.087  10.434  70.033  1.00  0.00     0.000 HD 
BRANCH   3   5
HETATM    5  C   UNL     1     -11.739  10.921  68.895  1.00  0.00    -0.306 C  
HETATM    6  C   UNL     1     -11.965  12.376  68.305  1.00  0.00    -0.214 C  
HETATM    7  N   UNL     1     -10.804  12.973  67.583  1.00  0.00    -0.236 N  
HETATM    8  C   UNL     1     -10.886   8.562  68.001  1.00  0.00    -0.022 A  
HETATM    9  S   UNL     1     -10.227  12.125  66.251  1.00  0.00    -0.229 S  
HETATM   10  O   UNL     1     -11.243  12.168  65.220  1.00  0.00    -0.315 OA 
HETATM   11  C   UNL     1     -10.302  10.463  66.836  1.00  0.00    -0.240 A  
HETATM   12  C   UNL     1     -10.082   8.041  67.000  1.00  0.00    -0.279 A  
HETATM   13  O   UNL     1      -8.840  12.444  66.011  1.00  0.00     0.012 OA 
HETATM   14  S   UNL     1      -9.514   9.261  65.945  1.00  0.00    -0.267 SA 
HETATM   15  C   UNL     1     -10.993   9.994  67.938  1.00  0.00    -0.311 A  
BRANCH   7  16
HETATM   16  C   UNL     1      -9.959  13.972  68.243  1.00  0.00    -0.236 C  
BRANCH  16  17
HETATM   17  C   UNL     1     -10.727  15.196  68.706  1.00  0.00    -0.239 C  
BRANCH  17  18
HETATM   18  C   UNL     1     -10.341  15.587  70.125  1.00  0.00    -0.262 C  
BRANCH  18  19
HETATM   19  O   UNL     1     -11.460  16.231  70.731  1.00  0.00    -0.401 OA 
HETATM   20  C   UNL     1     -12.636  15.440  70.626  1.00  0.00    -0.439 C  
ENDBRANCH  18  19
ENDBRANCH  17  18
ENDBRANCH  16  17
ENDBRANCH   7  16
BRANCH  12  21
HETATM   21  S   UNL     1      -9.564   6.386  66.606  1.00  0.00    -0.143 S  
HETATM   22  O   UNL     1      -8.669   6.513  65.482  1.00  0.00    -0.136 OA 
HETATM   23  O   UNL     1      -9.174   5.818  67.874  1.00  0.00    -0.110 OA 
HETATM   24  N   UNL     1     -10.927   5.554  66.091  1.00  0.00    -0.755 N  
HETATM   25  H1  UNL     1     -10.630   4.605  65.864  1.00  0.00     0.000 HD 
HETATM   26  H2  UNL     1     -11.874   5.927  66.017  1.00  0.00     0.000 HD 
ENDBRANCH  12  21
ENDBRANCH   3   5
ENDBRANCH   2   3
TORSDOF 7
ENDMDL
MODEL       55
REMARK 921   NORMALIZED FREE ENERGY PREDICTED BY IDOCK:   -4.45 KCAL/MOL
REMARK 922        TOTAL FREE ENERGY PREDICTED BY IDOCK:   -7.00 KCAL/MOL
REMARK 923 INTER-LIGAND FREE ENERGY PREDICTED BY IDOCK:   -6.38 KCAL/MOL
REMARK 924 INTRA-LIGAND FREE ENERGY PREDICTED BY IDOCK:   -0.62 KCAL/MOL
REMARK 927      BINDING AFFINITY PREDICTED BY RF-SCORE:    0.00 PKD
ROOT
HETATM    1  C   UNL     1     -10.680  17.953  67.919  1.00  0.00    -0.328 C  
HETATM    2  C   UNL     1     -10.461  16.750  67.010  1.00  0.00    -0.285 C  
ENDROOT
BRANCH   2   3
HETATM    3  N   UNL     1     -11.122  15.567  67.565  1.00  0.00    -0.322 NA 
HETATM    4  H   UNL     1     -11.736  15.139  66.872  1.00  0.00     0.000 HD 
BRANCH   3   5
HETATM    5  C   UNL     1     -10.189  14.572  68.117  1.00  0.00    -0.230 C  
HETATM    6  C   UNL     1     -10.395  14.256  69.658  1.00  0.00     0.212 C  
HETATM    7  N   UNL     1     -11.509  13.320  69.986  1.00  0.00    -0.113 N  
HETATM    8  C   UNL     1      -9.895  13.188  65.861  1.00  0.00    -0.241 A  
HETATM    9  S   UNL     1     -11.430  11.784  69.306  1.00  0.00    -0.325 S  
HETATM   10  O   UNL     1     -10.304  11.091  69.899  1.00  0.00     0.012 OA 
HETATM   11  C   UNL     1     -10.874  12.154  67.673  1.00  0.00    -0.233 A  
HETATM   12  C   UNL     1     -10.213  11.946  65.337  1.00  0.00    -0.263 A  
HETATM   13  O   UNL     1     -12.749  11.209  69.202  1.00  0.00    -0.255 OA 
HETATM   14  S   UNL     1     -10.950  10.935  66.504  1.00  0.00    -0.043 SA 
HETATM   15  C   UNL     1     -10.314  13.337  67.228  1.00  0.00    -0.247 A  
BRANCH   7  16
HETATM   16  C   UNL     1     -12.785  13.838  70.489  1.00  0.00    -0.222 C  
BRANCH  16  17
HETATM   17  C   UNL     1     -12.683  15.245  71.046  1.00  0.00    -0.487 C  
BRANCH  17  18
HETATM   18  C   UNL     1     -13.669  15.463  72.184  1.00  0.00    -0.515 C  
BRANCH  18  19
HETATM   19  O   UNL     1     -13.194  14.756  73.328  1.00  0.00    -0.531 OA 
HETATM   20  C   UNL     1     -12.548  15.626  74.246  1.00  0.00    -0.577 C  
ENDBRANCH  18  19
ENDBRANCH  17  18
ENDBRANCH  16  17
ENDBRANCH   7  16
BRANCH  12  21
HETATM   21  S   UNL     1      -9.985  11.218  63.729  1.00  0.00    -0.381 S  
HETATM   22  O   UNL     1      -9.118  12.120  63.011  1.00  0.00     0.007 OA 
HETATM   23  O   UNL     1      -9.653   9.841  64.001  1.00  0.00    -0.190 OA 
HETATM   24  N   UNL     1     -11.482  11.225  62.971  1.00  0.00    -0.818 N  
HETATM   25  H1  UNL     1     -11.351  10.808  62.049  1.00  0.00     0.000 HD 
HETATM   26  H2  UNL     1     -12.357  11.580  63.358  1.00  0.00     0.000 HD 
ENDBRANCH  12  21
ENDBRANCH   3   5
ENDBRANCH   2   3
TORSDOF 7
ENDMDL
MODEL       56
REMARK 921   NORMALIZED FREE ENERGY PREDICTED BY IDOCK:   -4.43 KCAL/MOL
REMARK 922        TOTAL FREE ENERGY PREDICTED BY IDOCK:   -6.97 KCAL/MOL
REMARK 923 INTER-LIGAND FREE ENERGY PREDICTED BY IDOCK:   -6.09 KCAL/MOL
REMARK 924 INTRA-LIGAND FREE ENERGY PREDICTED BY IDOCK:   -0.88 KCAL/MOL
REMARK 927      BINDING AFFINITY PREDICTED BY RF-SCORE:    0.00 PKD
ROOT
HETATM    1  C   UNL     1     -11.880  14.193  67.090  1.00  0.00    -0.454 C  
HETATM    2  C   UNL     1     -12.041  13.709  68.524  1.00  0.00    -0.286 C  
ENDROOT
BRANCH   2   3
HETATM    3  N   UNL     1     -10.795  13.104  69.000  1.00  0.00    -0.394 NA 
HETATM    4  H   UNL     1     -10.824  12.968  70.011  1.00  0.00     0.000 HD 
BRANCH   3   5
HETATM    5  C   UNL     1     -10.449  11.847  68.317  1.00  0.00    -0.205 C  
HETATM    6  C   UNL     1      -9.043  11.861  67.581  1.00  0.00    -0.179 C  
HETATM    7  N   UNL     1      -7.851  11.657  68.454  1.00  0.00    -0.131 N  
HETATM    8  C   UNL     1     -11.760  10.250  69.997  1.00  0.00    -0.330 A  
HETATM    9  S   UNL     1      -7.792  10.222  69.328  1.00  0.00    -0.154 S  
HETATM   10  O   UNL     1      -7.633   9.133  68.387  1.00  0.00    -0.081 OA 
HETATM   11  C   UNL     1      -9.466  10.068  69.861  1.00  0.00    -0.181 A  
HETATM   12  C   UNL     1     -11.498   9.284  70.955  1.00  0.00    -0.319 A  
HETATM   13  O   UNL     1      -6.970  10.380  70.503  1.00  0.00    -0.305 OA 
HETATM   14  S   UNL     1      -9.828   8.925  71.053  1.00  0.00    -0.278 SA 
HETATM   15  C   UNL     1     -10.566  10.748  69.371  1.00  0.00    -0.254 A  
BRANCH   7  16
HETATM   16  C   UNL     1      -7.028  12.801  68.859  1.00  0.00    -0.084 C  
BRANCH  16  17
HETATM   17  C   UNL     1      -6.467  13.581  67.685  1.00  0.00    -0.169 C  
BRANCH  17  18
HETATM   18  C   UNL     1      -6.943  15.026  67.702  1.00  0.00    -0.182 C  
BRANCH  18  19
HETATM   19  O   UNL     1      -8.330  15.036  68.032  1.00  0.00    -0.141 OA 
HETATM   20  C   UNL     1      -8.651  16.115  68.898  1.00  0.00    -0.245 C  
ENDBRANCH  18  19
ENDBRANCH  17  18
ENDBRANCH  16  17
ENDBRANCH   7  16
BRANCH  12  21
HETATM   21  S   UNL     1     -12.545   8.358  72.055  1.00  0.00    -0.368 S  
HETATM   22  O   UNL     1     -13.365   7.527  71.207  1.00  0.00    -0.323 OA 
HETATM   23  O   UNL     1     -11.645   7.834  73.054  1.00  0.00    -0.330 OA 
HETATM   24  N   UNL     1     -13.548   9.462  72.823  1.00  0.00    -0.697 N  
HETATM   25  H1  UNL     1     -14.149   8.931  73.454  1.00  0.00     0.000 HD 
HETATM   26  H2  UNL     1     -13.556  10.473  72.686  1.00  0.00     0.000 HD 
ENDBRANCH  12  21
ENDBRANCH   3   5
ENDBRANCH   2   3
TORSDOF 7
ENDMDL
MODEL       57
REMARK 921   NORMALIZED FREE ENERGY PREDICTED BY IDOCK:   -4.42 KCAL/MOL
REMARK 922        TOTAL FREE ENERGY PREDICTED BY IDOCK:   -6.97 KCAL/MOL
REMARK 923 INTER-LIGAND FREE ENERGY PREDICTED BY IDOCK:   -6.45 KCAL/MOL
REMARK 924 INTRA-LIGAND FREE ENERGY PREDICTED BY IDOCK:   -0.52 KCAL/MOL
REMARK 927      BINDING AFFINITY PREDICTED BY RF-SCORE:    0.00 PKD
ROOT
HETATM    1  C   UNL     1     -11.879  12.477  63.229  1.00  0.00    -0.498 C  
HETATM    2  C   UNL     1     -10.445  12.613  63.723  1.00  0.00    -0.379 C  
ENDROOT
BRANCH   2   3
HETATM    3  N   UNL     1     -10.255  13.906  64.384  1.00  0.00    -0.732 NA 
HETATM    4  H   UNL     1     -10.406  14.672  63.727  1.00  0.00     0.000 HD 
BRANCH   3   5
HETATM    5  C   UNL     1     -11.084  14.083  65.587  1.00  0.00    -0.302 C  
HETATM    6  C   UNL     1     -11.007  12.886  66.625  1.00  0.00    -0.276 C  
HETATM    7  N   UNL     1      -9.809  12.871  67.513  1.00  0.00    -0.205 N  
HETATM    8  C   UNL     1     -10.910  16.740  65.652  1.00  0.00    -0.111 A  
HETATM    9  S   UNL     1      -9.579  14.219  68.492  1.00  0.00    -0.203 S  
HETATM   10  O   UNL     1     -10.646  14.246  69.471  1.00  0.00    -0.149 OA 
HETATM   11  C   UNL     1      -9.996  15.529  67.388  1.00  0.00    -0.234 A  
HETATM   12  C   UNL     1     -10.351  17.741  66.430  1.00  0.00    -0.351 A  
HETATM   13  O   UNL     1      -8.185  14.361  68.836  1.00  0.00    -0.141 OA 
HETATM   14  S   UNL     1      -9.607  17.112  67.835  1.00  0.00    -0.273 SA 
HETATM   15  C   UNL     1     -10.674  15.426  66.187  1.00  0.00    -0.316 A  
BRANCH   7  16
HETATM   16  C   UNL     1      -8.690  11.967  67.230  1.00  0.00    -0.175 C  
BRANCH  16  17
HETATM   17  C   UNL     1      -8.567  10.834  68.231  1.00  0.00    -0.135 C  
BRANCH  17  18
HETATM   18  C   UNL     1      -8.131   9.543  67.554  1.00  0.00    -0.110 C  
BRANCH  18  19
HETATM   19  O   UNL     1      -7.434   8.749  68.513  1.00  0.00    -0.086 OA 
HETATM   20  C   UNL     1      -8.232   8.499  69.661  1.00  0.00    -0.115 C  
ENDBRANCH  18  19
ENDBRANCH  17  18
ENDBRANCH  16  17
ENDBRANCH   7  16
BRANCH  12  21
HETATM   21  S   UNL     1     -10.285  19.510  66.256  1.00  0.00    -0.522 S  
HETATM   22  O   UNL     1     -11.108  19.823  65.113  1.00  0.00    -0.349 OA 
HETATM   23  O   UNL     1     -10.542  20.013  67.584  1.00  0.00    -0.364 OA 
HETATM   24  N   UNL     1      -8.700  19.907  65.875  1.00  0.00    -0.423 N  
HETATM   25  H1  UNL     1      -8.662  20.922  65.775  1.00  0.00     0.000 HD 
HETATM   26  H2  UNL     1      -7.921  19.257  65.764  1.00  0.00     0.000 HD 
ENDBRANCH  12  21
ENDBRANCH   3   5
ENDBRANCH   2   3
TORSDOF 7
ENDMDL
MODEL       58
REMARK 921   NORMALIZED FREE ENERGY PREDICTED BY IDOCK:   -4.38 KCAL/MOL
REMARK 922        TOTAL FREE ENERGY PREDICTED BY IDOCK:   -6.90 KCAL/MOL
REMARK 923 INTER-LIGAND FREE ENERGY PREDICTED BY IDOCK:   -6.23 KCAL/MOL
REMARK 924 INTRA-LIGAND FREE ENERGY PREDICTED BY IDOCK:   -0.67 KCAL/MOL
REMARK 927      BINDING AFFINITY PREDICTED BY RF-SCORE:    0.00 PKD
ROOT
HETATM    1  C   UNL     1     -12.039  13.308  63.796  1.00  0.00    -0.546 C  
HETATM    2  C   UNL     1     -12.767  13.728  65.065  1.00  0.00    -0.336 C  
ENDROOT
BRANCH   2   3
HETATM    3  N   UNL     1     -11.811  13.937  66.155  1.00  0.00    -0.380 NA 
HETATM    4  H   UNL     1     -12.019  13.317  66.939  1.00  0.00     0.000 HD 
BRANCH   3   5
HETATM    5  C   UNL     1     -10.406  13.799  65.744  1.00  0.00    -0.307 C  
HETATM    6  C   UNL     1      -9.568  15.146  65.793  1.00  0.00    -0.309 C  
HETATM    7  N   UNL     1      -9.082  15.560  67.140  1.00  0.00    -0.208 N  
HETATM    8  C   UNL     1     -10.117  11.288  66.582  1.00  0.00    -0.251 A  
HETATM    9  S   UNL     1      -8.080  14.478  67.947  1.00  0.00    -0.163 S  
HETATM   10  O   UNL     1      -6.831  14.397  67.217  1.00  0.00    -0.241 OA 
HETATM   11  C   UNL     1      -8.867  12.941  67.591  1.00  0.00    -0.187 A  
HETATM   12  C   UNL     1      -9.440  10.572  67.556  1.00  0.00    -0.149 A  
HETATM   13  O   UNL     1      -8.152  14.689  69.372  1.00  0.00    -0.089 OA 
HETATM   14  S   UNL     1      -8.392  11.573  68.464  1.00  0.00    -0.121 SA 
HETATM   15  C   UNL     1      -9.816  12.693  66.617  1.00  0.00    -0.245 A  
BRANCH   7  16
HETATM   16  C   UNL     1      -9.777  16.615  67.884  1.00  0.00    -0.244 C  
BRANCH  16  17
HETATM   17  C   UNL     1      -8.949  17.875  68.052  1.00  0.00    -0.267 C  
BRANCH  17  18
HETATM   18  C   UNL     1      -8.565  18.469  66.705  1.00  0.00    -0.286 C  
BRANCH  18  19
HETATM   19  O   UNL     1      -9.751  18.614  65.926  1.00  0.00    -0.498 OA 
HETATM   20  C   UNL     1     -10.455  19.800  66.267  1.00  0.00    -0.506 C  
ENDBRANCH  18  19
ENDBRANCH  17  18
ENDBRANCH  16  17
ENDBRANCH   7  16
BRANCH  12  21
HETATM   21  S   UNL     1      -9.440   8.852  68.010  1.00  0.00    -0.144 S  
HETATM   22  O   UNL     1      -8.514   8.210  67.110  1.00  0.00    -0.121 OA 
HETATM   23  O   UNL     1      -9.283   8.858  69.445  1.00  0.00    -0.143 OA 
HETATM   24  N   UNL     1     -10.975   8.259  67.683  1.00  0.00    -0.489 N  
HETATM   25  H1  UNL     1     -10.975   7.272  67.943  1.00  0.00     0.000 HD 
HETATM   26  H2  UNL     1     -11.759   8.784  67.297  1.00  0.00     0.000 HD 
ENDBRANCH  12  21
ENDBRANCH   3   5
ENDBRANCH   2   3
TORSDOF 7
ENDMDL
MODEL       59
REMARK 921   NORMALIZED FREE ENERGY PREDICTED BY IDOCK:   -4.37 KCAL/MOL
REMARK 922        TOTAL FREE ENERGY PREDICTED BY IDOCK:   -6.89 KCAL/MOL
REMARK 923 INTER-LIGAND FREE ENERGY PREDICTED BY IDOCK:   -5.96 KCAL/MOL
REMARK 924 INTRA-LIGAND FREE ENERGY PREDICTED BY IDOCK:   -0.93 KCAL/MOL
REMARK 927      BINDING AFFINITY PREDICTED BY RF-SCORE:    0.00 PKD
ROOT
HETATM    1  C   UNL     1     -12.650  12.618  64.644  1.00  0.00    -0.517 C  
HETATM    2  C   UNL     1     -12.169  13.407  65.855  1.00  0.00    -0.450 C  
ENDROOT
BRANCH   2   3
HETATM    3  N   UNL     1     -10.717  13.288  65.995  1.00  0.00    -0.275 NA 
HETATM    4  H   UNL     1     -10.240  13.928  65.358  1.00  0.00     0.000 HD 
BRANCH   3   5
HETATM    5  C   UNL     1     -10.238  13.477  67.374  1.00  0.00    -0.237 C  
HETATM    6  C   UNL     1      -9.559  12.195  68.018  1.00  0.00    -0.204 C  
HETATM    7  N   UNL     1      -8.147  11.936  67.615  1.00  0.00    -0.138 N  
HETATM    8  C   UNL     1      -9.674  16.067  67.119  1.00  0.00    -0.231 A  
HETATM    9  S   UNL     1      -7.031  13.148  67.952  1.00  0.00    -0.151 S  
HETATM   10  O   UNL     1      -6.895  13.241  69.391  1.00  0.00    -0.075 OA 
HETATM   11  C   UNL     1      -7.949  14.594  67.530  1.00  0.00    -0.190 A  
HETATM   12  C   UNL     1      -8.574  16.909  67.094  1.00  0.00    -0.197 A  
HETATM   13  O   UNL     1      -5.906  13.064  67.053  1.00  0.00    -0.281 OA 
HETATM   14  S   UNL     1      -7.120  16.063  67.402  1.00  0.00    -0.207 SA 
HETATM   15  C   UNL     1      -9.314  14.692  67.338  1.00  0.00    -0.196 A  
BRANCH   7  16
HETATM   16  C   UNL     1      -7.840  10.911  66.612  1.00  0.00    -0.145 C  
BRANCH  16  17
HETATM   17  C   UNL     1      -8.835   9.766  66.603  1.00  0.00    -0.153 C  
BRANCH  17  18
HETATM   18  C   UNL     1      -9.270   9.423  65.186  1.00  0.00    -0.225 C  
BRANCH  18  19
HETATM   19  O   UNL     1     -10.086  10.487  64.700  1.00  0.00    -0.328 OA 
HETATM   20  C   UNL     1      -9.789  10.794  63.345  1.00  0.00    -0.349 C  
ENDBRANCH  18  19
ENDBRANCH  17  18
ENDBRANCH  16  17
ENDBRANCH   7  16
BRANCH  12  21
HETATM   21  S   UNL     1      -8.400  18.660  66.831  1.00  0.00    -0.272 S  
HETATM   22  O   UNL     1      -7.957  19.203  68.091  1.00  0.00    -0.282 OA 
HETATM   23  O   UNL     1      -7.643  18.767  65.607  1.00  0.00    -0.494 OA 
HETATM   24  N   UNL     1      -9.934  19.264  66.517  1.00  0.00    -0.361 N  
HETATM   25  H1  UNL     1      -9.834  20.268  66.366  1.00  0.00     0.000 HD 
HETATM   26  H2  UNL     1     -10.802  18.729  66.484  1.00  0.00     0.000 HD 
ENDBRANCH  12  21
ENDBRANCH   3   5
ENDBRANCH   2   3
TORSDOF 7
ENDMDL
MODEL       60
REMARK 921   NORMALIZED FREE ENERGY PREDICTED BY IDOCK:   -4.37 KCAL/MOL
REMARK 922        TOTAL FREE ENERGY PREDICTED BY IDOCK:   -6.89 KCAL/MOL
REMARK 923 INTER-LIGAND FREE ENERGY PREDICTED BY IDOCK:   -6.28 KCAL/MOL
REMARK 924 INTRA-LIGAND FREE ENERGY PREDICTED BY IDOCK:   -0.61 KCAL/MOL
REMARK 927      BINDING AFFINITY PREDICTED BY RF-SCORE:    0.00 PKD
ROOT
HETATM    1  C   UNL     1      -5.495  13.246  67.777  1.00  0.00    -0.098 C  
HETATM    2  C   UNL     1      -6.454  12.415  68.618  1.00  0.00    -0.077 C  
ENDROOT
BRANCH   2   3
HETATM    3  N   UNL     1      -7.657  13.189  68.931  1.00  0.00    -0.305 NA 
HETATM    4  H   UNL     1      -7.409  14.083  69.357  1.00  0.00     0.000 HD 
BRANCH   3   5
HETATM    5  C   UNL     1      -8.548  13.392  67.779  1.00  0.00    -0.194 C  
HETATM    6  C   UNL     1      -9.645  12.262  67.584  1.00  0.00    -0.191 C  
HETATM    7  N   UNL     1     -10.844  12.361  68.465  1.00  0.00    -0.234 N  
HETATM    8  C   UNL     1      -8.474  16.053  67.839  1.00  0.00    -0.165 A  
HETATM    9  S   UNL     1     -11.750  13.773  68.351  1.00  0.00    -0.374 S  
HETATM   10  O   UNL     1     -12.368  13.801  67.041  1.00  0.00    -0.378 OA 
HETATM   11  C   UNL     1     -10.482  14.994  68.236  1.00  0.00    -0.237 A  
HETATM   12  C   UNL     1      -9.309  17.126  68.109  1.00  0.00    -0.264 A  
HETATM   13  O   UNL     1     -12.477  14.008  69.575  1.00  0.00    -0.299 OA 
HETATM   14  S   UNL     1     -10.911  16.618  68.424  1.00  0.00    -0.298 SA 
HETATM   15  C   UNL     1      -9.146  14.787  67.948  1.00  0.00    -0.183 A  
BRANCH   7  16
HETATM   16  C   UNL     1     -10.966  11.502  69.646  1.00  0.00    -0.064 C  
BRANCH  16  17
HETATM   17  C   UNL     1     -12.238  10.675  69.657  1.00  0.00    -0.277 C  
BRANCH  17  18
HETATM   18  C   UNL     1     -12.864  10.642  71.044  1.00  0.00    -0.402 C  
BRANCH  18  19
HETATM   19  O   UNL     1     -12.203   9.637  71.809  1.00  0.00    -0.374 OA 
HETATM   20  C   UNL     1     -12.702   8.341  71.507  1.00  0.00    -0.305 C  
ENDBRANCH  18  19
ENDBRANCH  17  18
ENDBRANCH  16  17
ENDBRANCH   7  16
BRANCH  12  21
HETATM   21  S   UNL     1      -9.037  18.883  68.166  1.00  0.00    -0.325 S  
HETATM   22  O   UNL     1      -7.695  19.056  68.663  1.00  0.00    -0.320 OA 
HETATM   23  O   UNL     1      -9.477  19.358  66.876  1.00  0.00    -0.307 OA 
HETATM   24  N   UNL     1     -10.096  19.506  69.309  1.00  0.00    -0.606 N  
HETATM   25  H1  UNL     1      -9.941  20.514  69.341  1.00  0.00     0.000 HD 
HETATM   26  H2  UNL     1     -10.768  18.978  69.866  1.00  0.00     0.000 HD 
ENDBRANCH  12  21
ENDBRANCH   3   5
ENDBRANCH   2   3
TORSDOF 7
ENDMDL
MODEL       61
REMARK 921   NORMALIZED FREE ENERGY PREDICTED BY IDOCK:   -4.33 KCAL/MOL
REMARK 922        TOTAL FREE ENERGY PREDICTED BY IDOCK:   -6.84 KCAL/MOL
REMARK 923 INTER-LIGAND FREE ENERGY PREDICTED BY IDOCK:   -6.15 KCAL/MOL
REMARK 924 INTRA-LIGAND FREE ENERGY PREDICTED BY IDOCK:   -0.70 KCAL/MOL
REMARK 927      BINDING AFFINITY PREDICTED BY RF-SCORE:    0.00 PKD
ROOT
HETATM    1  C   UNL     1     -10.528   5.191  66.497  1.00  0.00    -0.346 C  
HETATM    2  C   UNL     1     -11.119   6.504  66.992  1.00  0.00    -0.339 C  
ENDROOT
BRANCH   2   3
HETATM    3  N   UNL     1     -11.336   6.451  68.439  1.00  0.00    -0.525 NA 
HETATM    4  H   UNL     1     -11.649   5.521  68.722  1.00  0.00     0.000 HD 
BRANCH   3   5
HETATM    5  C   UNL     1     -10.167   6.867  69.230  1.00  0.00    -0.186 C  
HETATM    6  C   UNL     1     -10.061   8.431  69.479  1.00  0.00    -0.200 C  
HETATM    7  N   UNL     1     -10.927   8.976  70.563  1.00  0.00    -0.242 N  
HETATM    8  C   UNL     1     -10.010   4.643  70.685  1.00  0.00    -0.293 A  
HETATM    9  S   UNL     1     -10.695   8.345  72.104  1.00  0.00    -0.355 S  
HETATM   10  O   UNL     1      -9.385   8.759  72.563  1.00  0.00    -0.326 OA 
HETATM   11  C   UNL     1     -10.486   6.630  71.751  1.00  0.00    -0.209 A  
HETATM   12  C   UNL     1     -10.189   4.223  71.993  1.00  0.00    -0.150 A  
HETATM   13  O   UNL     1     -11.894   8.488  72.895  1.00  0.00    -0.238 OA 
HETATM   14  S   UNL     1     -10.539   5.532  73.036  1.00  0.00    -0.260 SA 
HETATM   15  C   UNL     1     -10.220   6.055  70.522  1.00  0.00    -0.262 A  
BRANCH   7  16
HETATM   16  C   UNL     1     -12.175   9.673  70.233  1.00  0.00     0.089 C  
BRANCH  16  17
HETATM   17  C   UNL     1     -12.167  11.137  70.631  1.00  0.00    -0.492 C  
BRANCH  17  18
HETATM   18  C   UNL     1     -11.781  12.027  69.459  1.00  0.00    -0.342 C  
BRANCH  18  19
HETATM   19  O   UNL     1     -12.190  11.382  68.255  1.00  0.00    -0.588 OA 
HETATM   20  C   UNL     1     -11.163  11.410  67.274  1.00  0.00    -0.304 C  
ENDBRANCH  18  19
ENDBRANCH  17  18
ENDBRANCH  16  17
ENDBRANCH   7  16
BRANCH  12  21
HETATM   21  S   UNL     1     -10.103   2.626  72.772  1.00  0.00    -0.157 S  
HETATM   22  O   UNL     1     -10.303   1.664  71.716  1.00  0.00    -0.141 OA 
HETATM   23  O   UNL     1      -8.910   2.683  73.582  1.00  0.00    -0.074 OA 
HETATM   24  N   UNL     1     -11.408   2.521  73.821  1.00  0.00    -0.206 N  
HETATM   25  H1  UNL     1     -11.359   1.605  74.268  1.00  0.00     0.000 HD 
HETATM   26  H2  UNL     1     -12.117   3.237  73.982  1.00  0.00     0.000 HD 
ENDBRANCH  12  21
ENDBRANCH   3   5
ENDBRANCH   2   3
TORSDOF 7
ENDMDL
MODEL       62
REMARK 921   NORMALIZED FREE ENERGY PREDICTED BY IDOCK:   -4.32 KCAL/MOL
REMARK 922        TOTAL FREE ENERGY PREDICTED BY IDOCK:   -6.83 KCAL/MOL
REMARK 923 INTER-LIGAND FREE ENERGY PREDICTED BY IDOCK:   -6.28 KCAL/MOL
REMARK 924 INTRA-LIGAND FREE ENERGY PREDICTED BY IDOCK:   -0.55 KCAL/MOL
REMARK 927      BINDING AFFINITY PREDICTED BY RF-SCORE:    0.00 PKD
ROOT
HETATM    1  C   UNL     1     -12.718  11.983  63.384  1.00  0.00    -0.527 C  
HETATM    2  C   UNL     1     -12.881  12.884  64.600  1.00  0.00    -0.246 C  
ENDROOT
BRANCH   2   3
HETATM    3  N   UNL     1     -12.292  12.254  65.783  1.00  0.00    -0.543 NA 
HETATM    4  H   UNL     1     -12.836  11.437  66.065  1.00  0.00     0.000 HD 
BRANCH   3   5
HETATM    5  C   UNL     1     -10.873  11.901  65.622  1.00  0.00    -0.286 C  
HETATM    6  C   UNL     1      -9.926  13.121  65.257  1.00  0.00    -0.168 C  
HETATM    7  N   UNL     1      -9.527  13.998  66.395  1.00  0.00    -0.279 N  
HETATM    8  C   UNL     1     -10.885   9.894  67.372  1.00  0.00    -0.293 A  
HETATM    9  S   UNL     1      -8.702  13.262  67.661  1.00  0.00    -0.209 S  
HETATM   10  O   UNL     1      -7.405  12.846  67.167  1.00  0.00    -0.108 OA 
HETATM   11  C   UNL     1      -9.588  11.746  67.822  1.00  0.00    -0.184 A  
HETATM   12  C   UNL     1     -10.365   9.576  68.616  1.00  0.00    -0.205 A  
HETATM   13  O   UNL     1      -8.882  14.008  68.883  1.00  0.00    -0.082 OA 
HETATM   14  S   UNL     1      -9.317  10.798  69.196  1.00  0.00    -0.065 SA 
HETATM   15  C   UNL     1     -10.465  11.189  66.910  1.00  0.00    -0.289 A  
BRANCH   7  16
HETATM   16  C   UNL     1     -10.189  15.290  66.600  1.00  0.00    -0.271 C  
BRANCH  16  17
HETATM   17  C   UNL     1      -9.381  16.466  66.084  1.00  0.00    -0.360 C  
BRANCH  17  18
HETATM   18  C   UNL     1     -10.157  17.768  66.210  1.00  0.00    -0.344 C  
BRANCH  18  19
HETATM   19  O   UNL     1     -10.760  17.807  67.501  1.00  0.00    -0.375 OA 
HETATM   20  C   UNL     1     -10.219  18.850  68.298  1.00  0.00    -0.380 C  
ENDBRANCH  18  19
ENDBRANCH  17  18
ENDBRANCH  16  17
ENDBRANCH   7  16
BRANCH  12  21
HETATM   21  S   UNL     1     -10.558   8.166  69.682  1.00  0.00    -0.198 S  
HETATM   22  O   UNL     1     -10.700   7.029  68.806  1.00  0.00    -0.215 OA 
HETATM   23  O   UNL     1      -9.497   8.298  70.651  1.00  0.00    -0.159 OA 
HETATM   24  N   UNL     1     -12.007   8.368  70.505  1.00  0.00    -0.487 N  
HETATM   25  H1  UNL     1     -12.118   7.559  71.116  1.00  0.00     0.000 HD 
HETATM   26  H2  UNL     1     -12.654   9.151  70.411  1.00  0.00     0.000 HD 
ENDBRANCH  12  21
ENDBRANCH   3   5
ENDBRANCH   2   3
TORSDOF 7
ENDMDL
MODEL       63
REMARK 921   NORMALIZED FREE ENERGY PREDICTED BY IDOCK:   -4.32 KCAL/MOL
REMARK 922        TOTAL FREE ENERGY PREDICTED BY IDOCK:   -6.82 KCAL/MOL
REMARK 923 INTER-LIGAND FREE ENERGY PREDICTED BY IDOCK:   -6.16 KCAL/MOL
REMARK 924 INTRA-LIGAND FREE ENERGY PREDICTED BY IDOCK:   -0.66 KCAL/MOL
REMARK 927      BINDING AFFINITY PREDICTED BY RF-SCORE:    0.00 PKD
ROOT
HETATM    1  C   UNL     1      -7.212  10.198  67.910  1.00  0.00    -0.086 C  
HETATM    2  C   UNL     1      -8.145  10.997  68.811  1.00  0.00    -0.145 C  
ENDROOT
BRANCH   2   3
HETATM    3  N   UNL     1      -8.080  12.421  68.475  1.00  0.00    -0.266 NA 
HETATM    4  H   UNL     1      -7.113  12.714  68.335  1.00  0.00     0.000 HD 
BRANCH   3   5
HETATM    5  C   UNL     1      -8.909  12.795  67.319  1.00  0.00    -0.198 C  
HETATM    6  C   UNL     1     -10.367  12.169  67.320  1.00  0.00    -0.212 C  
HETATM    7  N   UNL     1     -11.366  12.849  68.194  1.00  0.00    -0.268 N  
HETATM    8  C   UNL     1      -7.816  15.197  66.960  1.00  0.00    -0.197 A  
HETATM    9  S   UNL     1     -11.667  14.472  67.874  1.00  0.00    -0.337 S  
HETATM   10  O   UNL     1     -12.323  14.558  66.586  1.00  0.00    -0.342 OA 
HETATM   11  C   UNL     1     -10.040  15.072  67.551  1.00  0.00    -0.228 A  
HETATM   12  C   UNL     1      -8.151  16.536  67.073  1.00  0.00    -0.201 A  
HETATM   13  O   UNL     1     -12.153  15.138  69.058  1.00  0.00    -0.285 OA 
HETATM   14  S   UNL     1      -9.798  16.744  67.488  1.00  0.00    -0.261 SA 
HETATM   15  C   UNL     1      -8.911  14.322  67.277  1.00  0.00    -0.221 A  
BRANCH   7  16
HETATM   16  C   UNL     1     -11.719  12.277  69.497  1.00  0.00    -0.332 C  
BRANCH  16  17
HETATM   17  C   UNL     1     -11.864  10.767  69.470  1.00  0.00    -0.380 C  
BRANCH  17  18
HETATM   18  C   UNL     1     -11.452  10.148  70.797  1.00  0.00    -0.357 C  
BRANCH  18  19
HETATM   19  O   UNL     1     -12.262   8.997  71.024  1.00  0.00    -0.289 OA 
HETATM   20  C   UNL     1     -13.050   9.138  72.198  1.00  0.00    -0.446 C  
ENDBRANCH  18  19
ENDBRANCH  17  18
ENDBRANCH  16  17
ENDBRANCH   7  16
BRANCH  12  21
HETATM   21  S   UNL     1      -7.223  18.037  66.849  1.00  0.00    -0.208 S  
HETATM   22  O   UNL     1      -7.936  18.793  65.850  1.00  0.00    -0.471 OA 
HETATM   23  O   UNL     1      -6.983  18.515  68.190  1.00  0.00    -0.225 OA 
HETATM   24  N   UNL     1      -5.736  17.602  66.206  1.00  0.00    -0.200 N  
HETATM   25  H1  UNL     1      -5.203  18.463  66.078  1.00  0.00     0.000 HD 
HETATM   26  H2  UNL     1      -5.423  16.657  65.984  1.00  0.00     0.000 HD 
ENDBRANCH  12  21
ENDBRANCH   3   5
ENDBRANCH   2   3
TORSDOF 7
ENDMDL
MODEL       64
REMARK 921   NORMALIZED FREE ENERGY PREDICTED BY IDOCK:   -4.31 KCAL/MOL
REMARK 922        TOTAL FREE ENERGY PREDICTED BY IDOCK:   -6.81 KCAL/MOL
REMARK 923 INTER-LIGAND FREE ENERGY PREDICTED BY IDOCK:   -6.50 KCAL/MOL
REMARK 924 INTRA-LIGAND FREE ENERGY PREDICTED BY IDOCK:   -0.31 KCAL/MOL
REMARK 927      BINDING AFFINITY PREDICTED BY RF-SCORE:    0.00 PKD
ROOT
HETATM    1  C   UNL     1      -7.121  12.119  68.042  1.00  0.00    -0.096 C  
HETATM    2  C   UNL     1      -8.569  11.777  67.716  1.00  0.00    -0.151 C  
ENDROOT
BRANCH   2   3
HETATM    3  N   UNL     1      -9.373  11.751  68.940  1.00  0.00    -0.406 NA 
HETATM    4  H   UNL     1      -9.294  12.637  69.441  1.00  0.00     0.000 HD 
BRANCH   3   5
HETATM    5  C   UNL     1     -10.785  11.406  68.714  1.00  0.00    -0.203 C  
HETATM    6  C   UNL     1     -11.084   9.849  68.660  1.00  0.00    -0.134 C  
HETATM    7  N   UNL     1     -11.178   9.159  69.979  1.00  0.00    -0.199 N  
HETATM    8  C   UNL     1     -11.791  13.547  69.936  1.00  0.00    -0.386 A  
HETATM    9  S   UNL     1     -12.353   9.719  71.042  1.00  0.00    -0.328 S  
HETATM   10  O   UNL     1     -13.651   9.410  70.477  1.00  0.00     0.166 OA 
HETATM   11  C   UNL     1     -12.215  11.464  70.828  1.00  0.00    -0.376 A  
HETATM   12  C   UNL     1     -12.513  13.871  71.074  1.00  0.00    -0.377 A  
HETATM   13  O   UNL     1     -11.990   9.414  72.405  1.00  0.00    -0.171 OA 
HETATM   14  S   UNL     1     -12.991  12.475  71.939  1.00  0.00    -0.225 SA 
HETATM   15  C   UNL     1     -11.576  12.133  69.800  1.00  0.00    -0.334 A  
BRANCH   7  16
HETATM   16  C   UNL     1     -10.052   8.363  70.478  1.00  0.00    -0.190 C  
BRANCH  16  17
HETATM   17  C   UNL     1      -9.970   6.983  69.855  1.00  0.00    -0.183 C  
BRANCH  17  18
HETATM   18  C   UNL     1     -11.298   6.247  69.963  1.00  0.00    -0.416 C  
BRANCH  18  19
HETATM   19  O   UNL     1     -11.795   6.416  71.289  1.00  0.00    -0.327 OA 
HETATM   20  C   UNL     1     -11.095   5.598  72.216  1.00  0.00    -0.261 C  
ENDBRANCH  18  19
ENDBRANCH  17  18
ENDBRANCH  16  17
ENDBRANCH   7  16
BRANCH  12  21
HETATM   21  S   UNL     1     -13.038  15.421  71.771  1.00  0.00    -0.478 S  
HETATM   22  O   UNL     1     -11.984  16.360  71.477  1.00  0.00    -0.391 OA 
HETATM   23  O   UNL     1     -14.397  15.579  71.313  1.00  0.00    -0.536 OA 
HETATM   24  N   UNL     1     -13.099  15.214  73.435  1.00  0.00    -0.500 N  
HETATM   25  H1  UNL     1     -13.400  16.103  73.835  1.00  0.00     0.000 HD 
HETATM   26  H2  UNL     1     -12.876  14.362  73.950  1.00  0.00     0.000 HD 
ENDBRANCH  12  21
ENDBRANCH   3   5
ENDBRANCH   2   3
TORSDOF 7
ENDMDL
MODEL       65
REMARK 921   NORMALIZED FREE ENERGY PREDICTED BY IDOCK:   -4.29 KCAL/MOL
REMARK 922        TOTAL FREE ENERGY PREDICTED BY IDOCK:   -6.78 KCAL/MOL
REMARK 923 INTER-LIGAND FREE ENERGY PREDICTED BY IDOCK:   -5.98 KCAL/MOL
REMARK 924 INTRA-LIGAND FREE ENERGY PREDICTED BY IDOCK:   -0.80 KCAL/MOL
REMARK 927      BINDING AFFINITY PREDICTED BY RF-SCORE:    0.00 PKD
ROOT
HETATM    1  C   UNL     1      -9.432  10.638  62.795  1.00  0.00    -0.355 C  
HETATM    2  C   UNL     1     -10.068  11.596  63.794  1.00  0.00    -0.381 C  
ENDROOT
BRANCH   2   3
HETATM    3  N   UNL     1     -10.529  10.865  64.976  1.00  0.00    -0.286 NA 
HETATM    4  H   UNL     1     -10.966   9.983  64.706  1.00  0.00     0.000 HD 
BRANCH   3   5
HETATM    5  C   UNL     1      -9.478  10.638  65.980  1.00  0.00    -0.193 C  
HETATM    6  C   UNL     1      -9.379  11.760  67.098  1.00  0.00    -0.177 C  
HETATM    7  N   UNL     1     -10.381  11.670  68.199  1.00  0.00    -0.187 N  
HETATM    8  C   UNL     1      -9.574   7.979  65.884  1.00  0.00     0.038 A  
HETATM    9  S   UNL     1     -10.384  10.253  69.103  1.00  0.00    -0.238 S  
HETATM   10  O   UNL     1      -9.146  10.200  69.853  1.00  0.00    -0.189 OA 
HETATM   11  C   UNL     1     -10.160   9.036  67.847  1.00  0.00    -0.197 A  
HETATM   12  C   UNL     1      -9.947   6.907  66.679  1.00  0.00    -0.143 A  
HETATM   13  O   UNL     1     -11.681  10.036  69.698  1.00  0.00    -0.158 OA 
HETATM   14  S   UNL     1     -10.417   7.413  68.244  1.00  0.00    -0.163 SA 
HETATM   15  C   UNL     1      -9.731   9.244  66.549  1.00  0.00    -0.305 A  
BRANCH   7  16
HETATM   16  C   UNL     1     -11.555  12.550  68.203  1.00  0.00    -0.340 C  
BRANCH  16  17
HETATM   17  C   UNL     1     -11.525  13.595  67.104  1.00  0.00    -0.367 C  
BRANCH  17  18
HETATM   18  C   UNL     1     -11.073  14.946  67.638  1.00  0.00    -0.311 C  
BRANCH  18  19
HETATM   19  O   UNL     1     -10.182  15.527  66.688  1.00  0.00    -0.261 OA 
HETATM   20  C   UNL     1     -10.305  14.910  65.414  1.00  0.00    -0.388 C  
ENDBRANCH  18  19
ENDBRANCH  17  18
ENDBRANCH  16  17
ENDBRANCH   7  16
BRANCH  12  21
HETATM   21  S   UNL     1     -10.004   5.153  66.393  1.00  0.00    -0.235 S  
HETATM   22  O   UNL     1      -8.861   4.854  65.566  1.00  0.00    -0.133 OA 
HETATM   23  O   UNL     1     -10.213   4.581  67.701  1.00  0.00    -0.071 OA 
HETATM   24  N   UNL     1     -11.387   4.848  65.494  1.00  0.00    -0.942 N  
HETATM   25  H1  UNL     1     -11.420   3.841  65.329  1.00  0.00     0.000 HD 
HETATM   26  H2  UNL     1     -12.067   5.537  65.172  1.00  0.00     0.000 HD 
ENDBRANCH  12  21
ENDBRANCH   3   5
ENDBRANCH   2   3
TORSDOF 7
ENDMDL
MODEL       66
REMARK 921   NORMALIZED FREE ENERGY PREDICTED BY IDOCK:   -4.28 KCAL/MOL
REMARK 922        TOTAL FREE ENERGY PREDICTED BY IDOCK:   -6.76 KCAL/MOL
REMARK 923 INTER-LIGAND FREE ENERGY PREDICTED BY IDOCK:   -5.92 KCAL/MOL
REMARK 924 INTRA-LIGAND FREE ENERGY PREDICTED BY IDOCK:   -0.84 KCAL/MOL
REMARK 927      BINDING AFFINITY PREDICTED BY RF-SCORE:    0.00 PKD
ROOT
HETATM    1  C   UNL     1      -8.876   6.894  67.449  1.00  0.00    -0.118 C  
HETATM    2  C   UNL     1      -8.148   7.411  68.682  1.00  0.00    -0.125 C  
ENDROOT
BRANCH   2   3
HETATM    3  N   UNL     1      -9.090   7.603  69.786  1.00  0.00    -0.147 NA 
HETATM    4  H   UNL     1      -8.900   8.479  70.273  1.00  0.00     0.000 HD 
BRANCH   3   5
HETATM    5  C   UNL     1     -10.502   7.531  69.379  1.00  0.00    -0.222 C  
HETATM    6  C   UNL     1     -11.333   6.373  70.076  1.00  0.00    -0.430 C  
HETATM    7  N   UNL     1     -11.798   6.652  71.465  1.00  0.00    -0.322 N  
HETATM    8  C   UNL     1     -10.791  10.139  68.922  1.00  0.00    -0.256 A  
HETATM    9  S   UNL     1     -12.795   7.990  71.672  1.00  0.00    -0.320 S  
HETATM   10  O   UNL     1     -14.053   7.716  71.009  1.00  0.00    -0.229 OA 
HETATM   11  C   UNL     1     -12.019   9.170  70.615  1.00  0.00    -0.124 A  
HETATM   12  C   UNL     1     -11.458  11.234  69.447  1.00  0.00    -0.301 A  
HETATM   13  O   UNL     1     -12.702   8.484  73.025  1.00  0.00    -0.218 OA 
HETATM   14  S   UNL     1     -12.489  10.789  70.737  1.00  0.00    -0.409 SA 
HETATM   15  C   UNL     1     -11.084   8.921  69.628  1.00  0.00    -0.056 A  
BRANCH   7  16
HETATM   16  C   UNL     1     -11.088   6.077  72.612  1.00  0.00    -0.275 C  
BRANCH  16  17
HETATM   17  C   UNL     1      -9.632   6.496  72.686  1.00  0.00    -0.156 C  
BRANCH  17  18
HETATM   18  C   UNL     1      -9.464   7.774  73.494  1.00  0.00    -0.284 C  
BRANCH  18  19
HETATM   19  O   UNL     1      -8.594   8.646  72.776  1.00  0.00    -0.394 OA 
HETATM   20  C   UNL     1      -7.269   8.135  72.727  1.00  0.00    -0.107 C  
ENDBRANCH  18  19
ENDBRANCH  17  18
ENDBRANCH  16  17
ENDBRANCH   7  16
BRANCH  12  21
HETATM   21  S   UNL     1     -11.460  12.962  69.026  1.00  0.00    -0.322 S  
HETATM   22  O   UNL     1     -12.023  13.042  67.700  1.00  0.00    -0.353 OA 
HETATM   23  O   UNL     1     -12.038  13.613  70.177  1.00  0.00    -0.327 OA 
HETATM   24  N   UNL     1      -9.857  13.447  68.937  1.00  0.00    -0.426 N  
HETATM   25  H1  UNL     1      -9.858  14.439  68.696  1.00  0.00     0.000 HD 
HETATM   26  H2  UNL     1      -9.036  12.862  69.094  1.00  0.00     0.000 HD 
ENDBRANCH  12  21
ENDBRANCH   3   5
ENDBRANCH   2   3
TORSDOF 7
ENDMDL
MODEL       67
REMARK 921   NORMALIZED FREE ENERGY PREDICTED BY IDOCK:   -4.27 KCAL/MOL
REMARK 922        TOTAL FREE ENERGY PREDICTED BY IDOCK:   -6.75 KCAL/MOL
REMARK 923 INTER-LIGAND FREE ENERGY PREDICTED BY IDOCK:   -5.97 KCAL/MOL
REMARK 924 INTRA-LIGAND FREE ENERGY PREDICTED BY IDOCK:   -0.78 KCAL/MOL
REMARK 927      BINDING AFFINITY PREDICTED BY RF-SCORE:    0.00 PKD
ROOT
HETATM    1  C   UNL     1     -11.162  12.645  69.046  1.00  0.00    -0.322 C  
HETATM    2  C   UNL     1     -12.002  11.745  68.150  1.00  0.00    -0.143 C  
ENDROOT
BRANCH   2   3
HETATM    3  N   UNL     1     -11.822  10.341  68.528  1.00  0.00    -0.710 NA 
HETATM    4  H   UNL     1     -12.127   9.724  67.774  1.00  0.00     0.000 HD 
BRANCH   3   5
HETATM    5  C   UNL     1     -10.451  10.011  68.946  1.00  0.00    -0.210 C  
HETATM    6  C   UNL     1     -10.355   9.156  70.279  1.00  0.00    -0.214 C  
HETATM    7  N   UNL     1     -10.609   7.694  70.133  1.00  0.00    -0.231 N  
HETATM    8  C   UNL     1      -9.426   9.923  66.490  1.00  0.00    -0.230 A  
HETATM    9  S   UNL     1      -9.598   6.852  69.086  1.00  0.00    -0.144 S  
HETATM   10  O   UNL     1      -8.268   6.844  69.661  1.00  0.00    -0.127 OA 
HETATM   11  C   UNL     1      -9.461   7.989  67.744  1.00  0.00    -0.145 A  
HETATM   12  C   UNL     1      -8.901   9.001  65.599  1.00  0.00    -0.185 A  
HETATM   13  O   UNL     1     -10.255   5.666  68.592  1.00  0.00    -0.168 OA 
HETATM   14  S   UNL     1      -8.787   7.442  66.293  1.00  0.00    -0.157 SA 
HETATM   15  C   UNL     1      -9.796   9.330  67.747  1.00  0.00    -0.210 A  
BRANCH   7  16
HETATM   16  C   UNL     1     -11.906   7.127  70.519  1.00  0.00    -0.243 C  
BRANCH  16  17
HETATM   17  C   UNL     1     -12.407   7.635  71.857  1.00  0.00    -0.337 C  
BRANCH  17  18
HETATM   18  C   UNL     1     -13.746   8.344  71.713  1.00  0.00    -0.393 C  
BRANCH  18  19
HETATM   19  O   UNL     1     -13.729   9.504  72.542  1.00  0.00    -0.424 OA 
HETATM   20  C   UNL     1     -13.271  10.645  71.831  1.00  0.00    -0.423 C  
ENDBRANCH  18  19
ENDBRANCH  17  18
ENDBRANCH  16  17
ENDBRANCH   7  16
BRANCH  12  21
HETATM   21  S   UNL     1      -8.320   9.137  63.923  1.00  0.00    -0.175 S  
HETATM   22  O   UNL     1      -7.371  10.223  63.924  1.00  0.00    -0.130 OA 
HETATM   23  O   UNL     1      -7.984   7.785  63.547  1.00  0.00    -0.139 OA 
HETATM   24  N   UNL     1      -9.633   9.598  62.985  1.00  0.00    -0.509 N  
HETATM   25  H1  UNL     1      -9.300   9.676  62.024  1.00  0.00     0.000 HD 
HETATM   26  H2  UNL     1     -10.584   9.769  63.313  1.00  0.00     0.000 HD 
ENDBRANCH  12  21
ENDBRANCH   3   5
ENDBRANCH   2   3
TORSDOF 7
ENDMDL
MODEL       68
REMARK 921   NORMALIZED FREE ENERGY PREDICTED BY IDOCK:   -4.27 KCAL/MOL
REMARK 922        TOTAL FREE ENERGY PREDICTED BY IDOCK:   -6.75 KCAL/MOL
REMARK 923 INTER-LIGAND FREE ENERGY PREDICTED BY IDOCK:   -6.19 KCAL/MOL
REMARK 924 INTRA-LIGAND FREE ENERGY PREDICTED BY IDOCK:   -0.56 KCAL/MOL
REMARK 927      BINDING AFFINITY PREDICTED BY RF-SCORE:    0.00 PKD
ROOT
HETATM    1  C   UNL     1     -12.633  12.445  63.423  1.00  0.00    -0.481 C  
HETATM    2  C   UNL     1     -11.139  12.162  63.340  1.00  0.00    -0.420 C  
ENDROOT
BRANCH   2   3
HETATM    3  N   UNL     1     -10.385  13.198  64.049  1.00  0.00    -0.644 NA 
HETATM    4  H   UNL     1     -10.557  14.115  63.635  1.00  0.00     0.000 HD 
BRANCH   3   5
HETATM    5  C   UNL     1     -10.636  13.226  65.498  1.00  0.00    -0.287 C  
HETATM    6  C   UNL     1     -10.533  11.814  66.214  1.00  0.00    -0.244 C  
HETATM    7  N   UNL     1      -9.153  11.336  66.513  1.00  0.00    -0.178 N  
HETATM    8  C   UNL     1      -9.704  15.689  65.892  1.00  0.00    -0.388 A  
HETATM    9  S   UNL     1      -8.212  12.317  67.504  1.00  0.00    -0.181 S  
HETATM   10  O   UNL     1      -8.800  12.308  68.828  1.00  0.00    -0.026 OA 
HETATM   11  C   UNL     1      -8.610  13.920  66.886  1.00  0.00    -0.117 A  
HETATM   12  C   UNL     1      -8.643  16.329  66.512  1.00  0.00    -0.297 A  
HETATM   13  O   UNL     1      -6.809  12.087  67.258  1.00  0.00    -0.127 OA 
HETATM   14  S   UNL     1      -7.653  15.228  67.369  1.00  0.00    -0.208 SA 
HETATM   15  C   UNL     1      -9.675  14.263  66.073  1.00  0.00    -0.312 A  
BRANCH   7  16
HETATM   16  C   UNL     1      -8.518  10.329  65.658  1.00  0.00    -0.160 C  
BRANCH  16  17
HETATM   17  C   UNL     1      -8.063   9.097  66.418  1.00  0.00    -0.107 C  
BRANCH  17  18
HETATM   18  C   UNL     1      -8.853   7.866  66.001  1.00  0.00    -0.158 C  
BRANCH  18  19
HETATM   19  O   UNL     1     -10.226   8.088  66.316  1.00  0.00    -0.141 OA 
HETATM   20  C   UNL     1     -10.695   7.161  67.285  1.00  0.00    -0.329 C  
ENDBRANCH  18  19
ENDBRANCH  17  18
ENDBRANCH  16  17
ENDBRANCH   7  16
BRANCH  12  21
HETATM   21  S   UNL     1      -8.145  18.034  66.600  1.00  0.00    -0.271 S  
HETATM   22  O   UNL     1      -7.709  18.245  67.959  1.00  0.00    -0.246 OA 
HETATM   23  O   UNL     1      -7.291  18.220  65.451  1.00  0.00    -0.531 OA 
HETATM   24  N   UNL     1      -9.521  18.960  66.348  1.00  0.00    -0.338 N  
HETATM   25  H1  UNL     1      -9.235  19.939  66.398  1.00  0.00     0.000 HD 
HETATM   26  H2  UNL     1     -10.465  18.612  66.177  1.00  0.00     0.000 HD 
ENDBRANCH  12  21
ENDBRANCH   3   5
ENDBRANCH   2   3
TORSDOF 7
ENDMDL
MODEL       69
REMARK 921   NORMALIZED FREE ENERGY PREDICTED BY IDOCK:   -4.23 KCAL/MOL
REMARK 922        TOTAL FREE ENERGY PREDICTED BY IDOCK:   -6.69 KCAL/MOL
REMARK 923 INTER-LIGAND FREE ENERGY PREDICTED BY IDOCK:   -5.64 KCAL/MOL
REMARK 924 INTRA-LIGAND FREE ENERGY PREDICTED BY IDOCK:   -1.05 KCAL/MOL
REMARK 927      BINDING AFFINITY PREDICTED BY RF-SCORE:    0.00 PKD
ROOT
HETATM    1  C   UNL     1     -13.196   9.611  72.083  1.00  0.00    -0.535 C  
HETATM    2  C   UNL     1     -13.169  11.016  71.496  1.00  0.00    -0.299 C  
ENDROOT
BRANCH   2   3
HETATM    3  N   UNL     1     -11.855  11.299  70.915  1.00  0.00    -0.349 NA 
HETATM    4  H   UNL     1     -11.137  11.313  71.640  1.00  0.00     0.000 HD 
BRANCH   3   5
HETATM    5  C   UNL     1     -11.478  10.382  69.828  1.00  0.00    -0.280 C  
HETATM    6  C   UNL     1     -11.533  11.020  68.376  1.00  0.00    -0.308 C  
HETATM    7  N   UNL     1     -10.369  11.871  67.996  1.00  0.00    -0.190 N  
HETATM    8  C   UNL     1      -9.759   8.942  71.265  1.00  0.00    -0.359 A  
HETATM    9  S   UNL     1      -8.858  11.135  68.013  1.00  0.00    -0.147 S  
HETATM   10  O   UNL     1      -8.832  10.145  66.956  1.00  0.00    -0.135 OA 
HETATM   11  C   UNL     1      -8.958  10.167  69.484  1.00  0.00    -0.188 A  
HETATM   12  C   UNL     1      -8.398   8.697  71.346  1.00  0.00    -0.168 A  
HETATM   13  O   UNL     1      -7.819  12.118  68.204  1.00  0.00    -0.129 OA 
HETATM   14  S   UNL     1      -7.537   9.485  70.095  1.00  0.00    -0.157 SA 
HETATM   15  C   UNL     1     -10.098   9.839  70.193  1.00  0.00    -0.317 A  
BRANCH   7  16
HETATM   16  C   UNL     1     -10.477  13.333  68.040  1.00  0.00    -0.242 C  
BRANCH  16  17
HETATM   17  C   UNL     1     -11.890  13.823  68.293  1.00  0.00    -0.413 C  
BRANCH  17  18
HETATM   18  C   UNL     1     -11.930  14.835  69.428  1.00  0.00    -0.303 C  
BRANCH  18  19
HETATM   19  O   UNL     1     -11.693  14.143  70.652  1.00  0.00    -0.277 OA 
HETATM   20  C   UNL     1     -11.664  15.035  71.758  1.00  0.00    -0.385 C  
ENDBRANCH  18  19
ENDBRANCH  17  18
ENDBRANCH  16  17
ENDBRANCH   7  16
BRANCH  12  21
HETATM   21  S   UNL     1      -7.410   7.726  72.461  1.00  0.00    -0.092 S  
HETATM   22  O   UNL     1      -6.553   8.664  73.143  1.00  0.00    -0.213 OA 
HETATM   23  O   UNL     1      -8.360   6.877  73.139  1.00  0.00    -0.113 OA 
HETATM   24  N   UNL     1      -6.442   6.731  71.519  1.00  0.00    -0.042 N  
HETATM   25  H1  UNL     1      -5.875   6.174  72.159  1.00  0.00     0.000 HD 
HETATM   26  H2  UNL     1      -6.423   6.690  70.500  1.00  0.00     0.000 HD 
ENDBRANCH  12  21
ENDBRANCH   3   5
ENDBRANCH   2   3
TORSDOF 7
ENDMDL
MODEL       70
REMARK 921   NORMALIZED FREE ENERGY PREDICTED BY IDOCK:   -4.19 KCAL/MOL
REMARK 922        TOTAL FREE ENERGY PREDICTED BY IDOCK:   -6.64 KCAL/MOL
REMARK 923 INTER-LIGAND FREE ENERGY PREDICTED BY IDOCK:   -6.01 KCAL/MOL
REMARK 924 INTRA-LIGAND FREE ENERGY PREDICTED BY IDOCK:   -0.64 KCAL/MOL
REMARK 927      BINDING AFFINITY PREDICTED BY RF-SCORE:    0.00 PKD
ROOT
HETATM    1  C   UNL     1      -5.976  13.646  69.102  1.00  0.00    -0.088 C  
HETATM    2  C   UNL     1      -6.021  13.663  67.580  1.00  0.00    -0.075 C  
ENDROOT
BRANCH   2   3
HETATM    3  N   UNL     1      -7.408  13.629  67.112  1.00  0.00    -0.338 NA 
HETATM    4  H   UNL     1      -7.565  12.818  66.511  1.00  0.00     0.000 HD 
BRANCH   3   5
HETATM    5  C   UNL     1      -8.401  13.671  68.197  1.00  0.00    -0.166 C  
HETATM    6  C   UNL     1      -9.295  14.981  68.224  1.00  0.00    -0.192 C  
HETATM    7  N   UNL     1     -10.426  15.016  67.253  1.00  0.00    -0.261 N  
HETATM    8  C   UNL     1      -8.788  11.039  68.319  1.00  0.00    -0.144 A  
HETATM    9  S   UNL     1     -11.571  13.791  67.384  1.00  0.00    -0.384 S  
HETATM   10  O   UNL     1     -12.276  13.972  68.636  1.00  0.00    -0.332 OA 
HETATM   11  C   UNL     1     -10.547  12.387  67.685  1.00  0.00    -0.216 A  
HETATM   12  C   UNL     1      -9.775  10.104  68.051  1.00  0.00    -0.142 A  
HETATM   13  O   UNL     1     -12.238  13.586  66.121  1.00  0.00    -0.419 OA 
HETATM   14  S   UNL     1     -11.238  10.849  67.570  1.00  0.00    -0.233 SA 
HETATM   15  C   UNL     1      -9.219  12.388  68.070  1.00  0.00    -0.203 A  
BRANCH   7  16
HETATM   16  C   UNL     1     -10.312  15.787  66.011  1.00  0.00    -0.340 C  
BRANCH  16  17
HETATM   17  C   UNL     1      -9.531  17.077  66.177  1.00  0.00    -0.253 C  
BRANCH  17  18
HETATM   18  C   UNL     1     -10.449  18.290  66.134  1.00  0.00    -0.383 C  
BRANCH  18  19
HETATM   19  O   UNL     1     -10.204  19.077  67.297  1.00  0.00    -0.351 OA 
HETATM   20  C   UNL     1      -9.902  20.424  66.960  1.00  0.00    -0.453 C  
ENDBRANCH  18  19
ENDBRANCH  17  18
ENDBRANCH  16  17
ENDBRANCH   7  16
BRANCH  12  21
HETATM   21  S   UNL     1      -9.811   8.328  68.134  1.00  0.00    -0.179 S  
HETATM   22  O   UNL     1     -10.421   7.891  66.902  1.00  0.00    -0.325 OA 
HETATM   23  O   UNL     1      -8.476   7.959  68.537  1.00  0.00    -0.127 OA 
HETATM   24  N   UNL     1     -10.839   7.916  69.394  1.00  0.00    -0.399 N  
HETATM   25  H1  UNL     1     -10.860   6.897  69.442  1.00  0.00     0.000 HD 
HETATM   26  H2  UNL     1     -11.348   8.562  69.999  1.00  0.00     0.000 HD 
ENDBRANCH  12  21
ENDBRANCH   3   5
ENDBRANCH   2   3
TORSDOF 7
ENDMDL
MODEL       71
REMARK 921   NORMALIZED FREE ENERGY PREDICTED BY IDOCK:   -4.17 KCAL/MOL
REMARK 922        TOTAL FREE ENERGY PREDICTED BY IDOCK:   -6.61 KCAL/MOL
REMARK 923 INTER-LIGAND FREE ENERGY PREDICTED BY IDOCK:   -5.99 KCAL/MOL
REMARK 924 INTRA-LIGAND FREE ENERGY PREDICTED BY IDOCK:   -0.63 KCAL/MOL
REMARK 927      BINDING AFFINITY PREDICTED BY RF-SCORE:    0.00 PKD
ROOT
HETATM    1  C   UNL     1     -10.154   9.638  66.283  1.00  0.00    -0.322 C  
HETATM    2  C   UNL     1     -10.254   8.248  66.896  1.00  0.00    -0.318 C  
ENDROOT
BRANCH   2   3
HETATM    3  N   UNL     1     -10.740   8.335  68.274  1.00  0.00    -0.428 NA 
HETATM    4  H   UNL     1     -11.353   7.547  68.490  1.00  0.00     0.000 HD 
BRANCH   3   5
HETATM    5  C   UNL     1      -9.668   8.446  69.275  1.00  0.00    -0.177 C  
HETATM    6  C   UNL     1      -9.867   9.614  70.331  1.00  0.00    -0.256 C  
HETATM    7  N   UNL     1     -10.812   9.326  71.447  1.00  0.00    -0.341 N  
HETATM    8  C   UNL     1      -9.064   5.853  69.323  1.00  0.00    -0.128 A  
HETATM    9  S   UNL     1     -10.446   8.009  72.426  1.00  0.00    -0.328 S  
HETATM   10  O   UNL     1      -9.238   8.323  73.162  1.00  0.00    -0.260 OA 
HETATM   11  C   UNL     1      -9.909   6.826  71.233  1.00  0.00    -0.176 A  
HETATM   12  C   UNL     1      -9.144   4.766  70.179  1.00  0.00    -0.104 A  
HETATM   13  O   UNL     1     -11.641   7.494  73.049  1.00  0.00    -0.259 OA 
HETATM   14  S   UNL     1      -9.733   5.217  71.721  1.00  0.00    -0.166 SA 
HETATM   15  C   UNL     1      -9.548   7.067  69.921  1.00  0.00    -0.159 A  
BRANCH   7  16
HETATM   16  C   UNL     1     -12.175   9.867  71.421  1.00  0.00    -0.408 C  
BRANCH  16  17
HETATM   17  C   UNL     1     -12.397  10.877  70.310  1.00  0.00    -0.412 C  
BRANCH  17  18
HETATM   18  C   UNL     1     -12.467  12.295  70.858  1.00  0.00    -0.276 C  
BRANCH  18  19
HETATM   19  O   UNL     1     -13.289  12.284  72.023  1.00  0.00    -0.506 OA 
HETATM   20  C   UNL     1     -13.756  13.587  72.343  1.00  0.00    -0.602 C  
ENDBRANCH  18  19
ENDBRANCH  17  18
ENDBRANCH  16  17
ENDBRANCH   7  16
BRANCH  12  21
HETATM   21  S   UNL     1      -8.740   3.045  69.987  1.00  0.00    -0.081 S  
HETATM   22  O   UNL     1      -9.042   2.428  71.256  1.00  0.00    -0.081 OA 
HETATM   23  O   UNL     1      -9.369   2.663  68.746  1.00  0.00    -0.161 OA 
HETATM   24  N   UNL     1      -7.082   2.954  69.749  1.00  0.00    -0.040 N  
HETATM   25  H1  UNL     1      -6.850   1.967  69.639  1.00  0.00     0.000 HD 
HETATM   26  H2  UNL     1      -6.429   3.737  69.720  1.00  0.00     0.000 HD 
ENDBRANCH  12  21
ENDBRANCH   3   5
ENDBRANCH   2   3
TORSDOF 7
ENDMDL
MODEL       72
REMARK 921   NORMALIZED FREE ENERGY PREDICTED BY IDOCK:   -4.15 KCAL/MOL
REMARK 922        TOTAL FREE ENERGY PREDICTED BY IDOCK:   -6.58 KCAL/MOL
REMARK 923 INTER-LIGAND FREE ENERGY PREDICTED BY IDOCK:   -6.23 KCAL/MOL
REMARK 924 INTRA-LIGAND FREE ENERGY PREDICTED BY IDOCK:   -0.35 KCAL/MOL
REMARK 927      BINDING AFFINITY PREDICTED BY RF-SCORE:    0.00 PKD
ROOT
HETATM    1  C   UNL     1     -12.084  13.236  63.331  1.00  0.00    -0.508 C  
HETATM    2  C   UNL     1     -11.459  12.759  64.635  1.00  0.00    -0.324 C  
ENDROOT
BRANCH   2   3
HETATM    3  N   UNL     1     -12.471  12.698  65.692  1.00  0.00    -0.620 NA 
HETATM    4  H   UNL     1     -13.100  11.909  65.542  1.00  0.00     0.000 HD 
BRANCH   3   5
HETATM    5  C   UNL     1     -11.908  12.663  67.050  1.00  0.00    -0.345 C  
HETATM    6  C   UNL     1     -11.404  11.233  67.520  1.00  0.00    -0.288 C  
HETATM    7  N   UNL     1     -10.068  10.815  67.008  1.00  0.00    -0.200 N  
HETATM    8  C   UNL     1     -10.967  15.154  67.024  1.00  0.00    -0.322 A  
HETATM    9  S   UNL     1      -8.766  11.805  67.397  1.00  0.00    -0.169 S  
HETATM   10  O   UNL     1      -8.553  11.720  68.827  1.00  0.00    -0.101 OA 
HETATM   11  C   UNL     1      -9.470  13.408  67.179  1.00  0.00    -0.244 A  
HETATM   12  C   UNL     1      -9.754  15.823  67.017  1.00  0.00    -0.228 A  
HETATM   13  O   UNL     1      -7.709  11.654  66.427  1.00  0.00    -0.076 OA 
HETATM   14  S   UNL     1      -8.434  14.743  67.149  1.00  0.00    -0.221 SA 
HETATM   15  C   UNL     1     -10.812  13.726  67.081  1.00  0.00    -0.288 A  
BRANCH   7  16
HETATM   16  C   UNL     1      -9.967   9.871  65.890  1.00  0.00    -0.277 C  
BRANCH  16  17
HETATM   17  C   UNL     1      -9.793   8.431  66.335  1.00  0.00    -0.310 C  
BRANCH  17  18
HETATM   18  C   UNL     1      -8.330   8.014  66.301  1.00  0.00    -0.121 C  
BRANCH  18  19
HETATM   19  O   UNL     1      -8.054   7.254  67.475  1.00  0.00    -0.111 OA 
HETATM   20  C   UNL     1      -7.611   8.083  68.540  1.00  0.00    -0.104 C  
ENDBRANCH  18  19
ENDBRANCH  17  18
ENDBRANCH  16  17
ENDBRANCH   7  16
BRANCH  12  21
HETATM   21  S   UNL     1      -9.326  17.547  66.921  1.00  0.00    -0.278 S  
HETATM   22  O   UNL     1      -7.885  17.591  66.874  1.00  0.00    -0.205 OA 
HETATM   23  O   UNL     1     -10.174  18.071  65.878  1.00  0.00    -0.540 OA 
HETATM   24  N   UNL     1      -9.818  18.255  68.361  1.00  0.00    -0.349 N  
HETATM   25  H1  UNL     1      -9.572  19.244  68.306  1.00  0.00     0.000 HD 
HETATM   26  H2  UNL     1     -10.275  17.786  69.143  1.00  0.00     0.000 HD 
ENDBRANCH  12  21
ENDBRANCH   3   5
ENDBRANCH   2   3
TORSDOF 7
ENDMDL
MODEL       73
REMARK 921   NORMALIZED FREE ENERGY PREDICTED BY IDOCK:   -4.15 KCAL/MOL
REMARK 922        TOTAL FREE ENERGY PREDICTED BY IDOCK:   -6.57 KCAL/MOL
REMARK 923 INTER-LIGAND FREE ENERGY PREDICTED BY IDOCK:   -5.55 KCAL/MOL
REMARK 924 INTRA-LIGAND FREE ENERGY PREDICTED BY IDOCK:   -1.03 KCAL/MOL
REMARK 927      BINDING AFFINITY PREDICTED BY RF-SCORE:    0.00 PKD
ROOT
HETATM    1  C   UNL     1     -10.641  10.462  67.019  1.00  0.00    -0.305 C  
HETATM    2  C   UNL     1     -11.186  10.579  68.436  1.00  0.00    -0.279 C  
ENDROOT
BRANCH   2   3
HETATM    3  N   UNL     1     -11.144   9.277  69.106  1.00  0.00    -0.440 NA 
HETATM    4  H   UNL     1     -11.522   8.548  68.500  1.00  0.00     0.000 HD 
BRANCH   3   5
HETATM    5  C   UNL     1      -9.807   8.905  69.594  1.00  0.00    -0.180 C  
HETATM    6  C   UNL     1      -9.620   9.025  71.165  1.00  0.00    -0.286 C  
HETATM    7  N   UNL     1     -10.174   7.902  71.974  1.00  0.00    -0.199 N  
HETATM    8  C   UNL     1      -9.315   7.098  67.701  1.00  0.00    -0.135 A  
HETATM    9  S   UNL     1      -9.566   6.368  71.651  1.00  0.00    -0.159 S  
HETATM   10  O   UNL     1      -8.177   6.343  72.060  1.00  0.00    -0.109 OA 
HETATM   11  C   UNL     1      -9.477   6.391  69.889  1.00  0.00    -0.154 A  
HETATM   12  C   UNL     1      -9.161   5.728  67.565  1.00  0.00    -0.106 A  
HETATM   13  O   UNL     1     -10.522   5.355  72.028  1.00  0.00    -0.209 OA 
HETATM   14  S   UNL     1      -9.216   4.931  69.078  1.00  0.00    -0.128 SA 
HETATM   15  C   UNL     1      -9.541   7.498  69.063  1.00  0.00    -0.153 A  
BRANCH   7  16
HETATM   16  C   UNL     1     -11.455   8.054  72.671  1.00  0.00    -0.402 C  
BRANCH  16  17
HETATM   17  C   UNL     1     -12.657   7.864  71.766  1.00  0.00    -0.353 C  
BRANCH  17  18
HETATM   18  C   UNL     1     -13.676   8.978  71.958  1.00  0.00    -0.461 C  
BRANCH  18  19
HETATM   19  O   UNL     1     -13.373  10.024  71.037  1.00  0.00    -0.385 OA 
HETATM   20  C   UNL     1     -13.057  11.235  71.709  1.00  0.00    -0.422 C  
ENDBRANCH  18  19
ENDBRANCH  17  18
ENDBRANCH  16  17
ENDBRANCH   7  16
BRANCH  12  21
HETATM   21  S   UNL     1      -8.901   4.676  66.155  1.00  0.00    -0.122 S  
HETATM   22  O   UNL     1      -7.522   4.260  66.225  1.00  0.00    -0.082 OA 
HETATM   23  O   UNL     1     -10.013   3.756  66.182  1.00  0.00    -0.124 OA 
HETATM   24  N   UNL     1      -9.085   5.632  64.789  1.00  0.00    -0.356 N  
HETATM   25  H1  UNL     1      -8.936   5.029  63.980  1.00  0.00     0.000 HD 
HETATM   26  H2  UNL     1      -9.304   6.629  64.770  1.00  0.00     0.000 HD 
ENDBRANCH  12  21
ENDBRANCH   3   5
ENDBRANCH   2   3
TORSDOF 7
ENDMDL
MODEL       74
REMARK 921   NORMALIZED FREE ENERGY PREDICTED BY IDOCK:   -4.11 KCAL/MOL
REMARK 922        TOTAL FREE ENERGY PREDICTED BY IDOCK:   -6.52 KCAL/MOL
REMARK 923 INTER-LIGAND FREE ENERGY PREDICTED BY IDOCK:   -5.65 KCAL/MOL
REMARK 924 INTRA-LIGAND FREE ENERGY PREDICTED BY IDOCK:   -0.87 KCAL/MOL
REMARK 927      BINDING AFFINITY PREDICTED BY RF-SCORE:    0.00 PKD
ROOT
HETATM    1  C   UNL     1     -12.367  13.235  65.716  1.00  0.00    -0.505 C  
HETATM    2  C   UNL     1     -12.180  14.014  67.011  1.00  0.00    -0.352 C  
ENDROOT
BRANCH   2   3
HETATM    3  N   UNL     1     -11.080  13.445  67.792  1.00  0.00    -0.260 NA 
HETATM    4  H   UNL     1     -11.394  13.203  68.732  1.00  0.00     0.000 HD 
BRANCH   3   5
HETATM    5  C   UNL     1     -10.431  12.292  67.149  1.00  0.00    -0.219 C  
HETATM    6  C   UNL     1      -9.056  12.624  66.429  1.00  0.00    -0.110 C  
HETATM    7  N   UNL     1      -7.866  12.734  67.320  1.00  0.00    -0.169 N  
HETATM    8  C   UNL     1     -11.350  10.468  68.858  1.00  0.00    -0.313 A  
HETATM    9  S   UNL     1      -7.480  11.377  68.235  1.00  0.00    -0.108 S  
HETATM   10  O   UNL     1      -7.048  10.335  67.327  1.00  0.00    -0.086 OA 
HETATM   11  C   UNL     1      -9.078  10.839  68.753  1.00  0.00    -0.178 A  
HETATM   12  C   UNL     1     -10.881   9.617  69.846  1.00  0.00    -0.256 A  
HETATM   13  O   UNL     1      -6.740  11.757  69.414  1.00  0.00    -0.112 OA 
HETATM   14  S   UNL     1      -9.176   9.672  69.972  1.00  0.00    -0.236 SA 
HETATM   15  C   UNL     1     -10.299  11.223  68.232  1.00  0.00    -0.200 A  
BRANCH   7  16
HETATM   16  C   UNL     1      -7.348  14.051  67.702  1.00  0.00    -0.175 C  
BRANCH  16  17
HETATM   17  C   UNL     1      -8.049  14.645  68.909  1.00  0.00    -0.147 C  
BRANCH  17  18
HETATM   18  C   UNL     1      -8.451  16.091  68.660  1.00  0.00    -0.208 C  
BRANCH  18  19
HETATM   19  O   UNL     1      -9.550  16.099  67.751  1.00  0.00    -0.221 OA 
HETATM   20  C   UNL     1     -10.417  17.198  67.993  1.00  0.00    -0.369 C  
ENDBRANCH  18  19
ENDBRANCH  17  18
ENDBRANCH  16  17
ENDBRANCH   7  16
BRANCH  12  21
HETATM   21  S   UNL     1     -11.695   8.494  70.959  1.00  0.00    -0.249 S  
HETATM   22  O   UNL     1     -11.631   7.200  70.327  1.00  0.00    -0.277 OA 
HETATM   23  O   UNL     1     -11.115   8.781  72.249  1.00  0.00    -0.359 OA 
HETATM   24  N   UNL     1     -13.307   8.956  71.030  1.00  0.00    -0.540 N  
HETATM   25  H1  UNL     1     -13.774   8.312  71.668  1.00  0.00     0.000 HD 
HETATM   26  H2  UNL     1     -13.738   9.733  70.529  1.00  0.00     0.000 HD 
ENDBRANCH  12  21
ENDBRANCH   3   5
ENDBRANCH   2   3
TORSDOF 7
ENDMDL
MODEL       75
REMARK 921   NORMALIZED FREE ENERGY PREDICTED BY IDOCK:   -4.10 KCAL/MOL
REMARK 922        TOTAL FREE ENERGY PREDICTED BY IDOCK:   -6.50 KCAL/MOL
REMARK 923 INTER-LIGAND FREE ENERGY PREDICTED BY IDOCK:   -5.92 KCAL/MOL
REMARK 924 INTRA-LIGAND FREE ENERGY PREDICTED BY IDOCK:   -0.58 KCAL/MOL
REMARK 927      BINDING AFFINITY PREDICTED BY RF-SCORE:    0.00 PKD
ROOT
HETATM    1  C   UNL     1     -11.593  14.491  69.721  1.00  0.00    -0.345 C  
HETATM    2  C   UNL     1     -10.186  14.684  69.171  1.00  0.00    -0.193 C  
ENDROOT
BRANCH   2   3
HETATM    3  N   UNL     1      -9.524  13.389  69.000  1.00  0.00    -0.362 NA 
HETATM    4  H   UNL     1     -10.211  12.636  68.962  1.00  0.00     0.000 HD 
BRANCH   3   5
HETATM    5  C   UNL     1      -8.625  13.332  67.837  1.00  0.00    -0.188 C  
HETATM    6  C   UNL     1      -7.250  12.585  68.100  1.00  0.00    -0.106 C  
HETATM    7  N   UNL     1      -7.304  11.095  68.070  1.00  0.00    -0.086 N  
HETATM    8  C   UNL     1     -10.553  13.286  66.001  1.00  0.00    -0.292 A  
HETATM    9  S   UNL     1      -7.836  10.388  66.640  1.00  0.00    -0.125 S  
HETATM   10  O   UNL     1      -6.843  10.648  65.618  1.00  0.00    -0.131 OA 
HETATM   11  C   UNL     1      -9.172  11.452  66.200  1.00  0.00    -0.210 A  
HETATM   12  C   UNL     1     -11.097  12.422  65.064  1.00  0.00    -0.304 A  
HETATM   13  O   UNL     1      -8.384   9.078  66.897  1.00  0.00    -0.117 OA 
HETATM   14  S   UNL     1     -10.230  10.950  64.980  1.00  0.00    -0.300 SA 
HETATM   15  C   UNL     1      -9.440  12.710  66.705  1.00  0.00    -0.244 A  
BRANCH   7  16
HETATM   16  C   UNL     1      -7.323  10.330  69.321  1.00  0.00    -0.099 C  
BRANCH  16  17
HETATM   17  C   UNL     1      -8.708  10.205  69.926  1.00  0.00    -0.091 C  
BRANCH  17  18
HETATM   18  C   UNL     1      -8.795   9.012  70.866  1.00  0.00    -0.240 C  
BRANCH  18  19
HETATM   19  O   UNL     1      -9.782   8.115  70.360  1.00  0.00    -0.177 OA 
HETATM   20  C   UNL     1      -9.198   6.907  69.893  1.00  0.00    -0.147 C  
ENDBRANCH  18  19
ENDBRANCH  17  18
ENDBRANCH  16  17
ENDBRANCH   7  16
BRANCH  12  21
HETATM   21  S   UNL     1     -12.476  12.563  63.949  1.00  0.00    -0.427 S  
HETATM   22  O   UNL     1     -13.634  12.149  64.704  1.00  0.00    -0.354 OA 
HETATM   23  O   UNL     1     -12.334  13.874  63.363  1.00  0.00    -0.760 OA 
HETATM   24  N   UNL     1     -12.231  11.444  62.723  1.00  0.00    -0.624 N  
HETATM   25  H1  UNL     1     -13.022  11.524  62.083  1.00  0.00     0.000 HD 
HETATM   26  H2  UNL     1     -11.441  10.804  62.633  1.00  0.00     0.000 HD 
ENDBRANCH  12  21
ENDBRANCH   3   5
ENDBRANCH   2   3
TORSDOF 7
ENDMDL
MODEL       76
REMARK 921   NORMALIZED FREE ENERGY PREDICTED BY IDOCK:   -4.09 KCAL/MOL
REMARK 922        TOTAL FREE ENERGY PREDICTED BY IDOCK:   -6.49 KCAL/MOL
REMARK 923 INTER-LIGAND FREE ENERGY PREDICTED BY IDOCK:   -6.35 KCAL/MOL
REMARK 924 INTRA-LIGAND FREE ENERGY PREDICTED BY IDOCK:   -0.15 KCAL/MOL
REMARK 927      BINDING AFFINITY PREDICTED BY RF-SCORE:    0.00 PKD
ROOT
HETATM    1  C   UNL     1     -12.329  14.693  64.280  1.00  0.00    -0.375 C  
HETATM    2  C   UNL     1     -11.553  13.988  65.384  1.00  0.00    -0.328 C  
ENDROOT
BRANCH   2   3
HETATM    3  N   UNL     1     -10.124  13.964  65.066  1.00  0.00    -0.579 NA 
HETATM    4  H   UNL     1      -9.918  14.596  64.291  1.00  0.00     0.000 HD 
BRANCH   3   5
HETATM    5  C   UNL     1      -9.256  14.254  66.217  1.00  0.00    -0.151 C  
HETATM    6  C   UNL     1      -8.724  15.748  66.284  1.00  0.00    -0.323 C  
HETATM    7  N   UNL     1      -9.684  16.756  66.818  1.00  0.00    -0.252 N  
HETATM    8  C   UNL     1     -10.403  12.513  67.874  1.00  0.00    -0.219 A  
HETATM    9  S   UNL     1     -10.256  16.503  68.378  1.00  0.00    -0.283 S  
HETATM   10  O   UNL     1      -9.146  16.669  69.293  1.00  0.00    -0.198 OA 
HETATM   11  C   UNL     1     -10.529  14.760  68.371  1.00  0.00    -0.243 A  
HETATM   12  C   UNL     1     -11.175  12.503  69.024  1.00  0.00    -0.268 A  
HETATM   13  O   UNL     1     -11.535  17.146  68.558  1.00  0.00     0.042 OA 
HETATM   14  S   UNL     1     -11.413  14.080  69.641  1.00  0.00    -0.236 SA 
HETATM   15  C   UNL     1     -10.046  13.842  67.457  1.00  0.00    -0.241 A  
BRANCH   7  16
HETATM   16  C   UNL     1     -10.410  17.642  65.902  1.00  0.00    -0.257 C  
BRANCH  16  17
HETATM   17  C   UNL     1     -10.247  19.113  66.236  1.00  0.00    -0.527 C  
BRANCH  17  18
HETATM   18  C   UNL     1      -8.794  19.456  66.528  1.00  0.00    -0.352 C  
BRANCH  18  19
HETATM   19  O   UNL     1      -8.725  20.039  67.827  1.00  0.00    -0.320 OA 
HETATM   20  C   UNL     1      -7.705  19.439  68.613  1.00  0.00    -0.359 C  
ENDBRANCH  18  19
ENDBRANCH  17  18
ENDBRANCH  16  17
ENDBRANCH   7  16
BRANCH  12  21
HETATM   21  S   UNL     1     -11.926  11.192  69.963  1.00  0.00    -0.391 S  
HETATM   22  O   UNL     1     -13.015  10.704  69.153  1.00  0.00     0.099 OA 
HETATM   23  O   UNL     1     -10.817  10.371  70.386  1.00  0.00    -0.289 OA 
HETATM   24  N   UNL     1     -12.579  11.889  71.343  1.00  0.00    -0.295 N  
HETATM   25  H1  UNL     1     -13.009  11.137  71.882  1.00  0.00     0.000 HD 
HETATM   26  H2  UNL     1     -12.551  12.877  71.595  1.00  0.00     0.000 HD 
ENDBRANCH  12  21
ENDBRANCH   3   5
ENDBRANCH   2   3
TORSDOF 7
ENDMDL
MODEL       77
REMARK 921   NORMALIZED FREE ENERGY PREDICTED BY IDOCK:   -4.07 KCAL/MOL
REMARK 922        TOTAL FREE ENERGY PREDICTED BY IDOCK:   -6.47 KCAL/MOL
REMARK 923 INTER-LIGAND FREE ENERGY PREDICTED BY IDOCK:   -5.82 KCAL/MOL
REMARK 924 INTRA-LIGAND FREE ENERGY PREDICTED BY IDOCK:   -0.65 KCAL/MOL
REMARK 927      BINDING AFFINITY PREDICTED BY RF-SCORE:    0.00 PKD
ROOT
HETATM    1  C   UNL     1     -11.317   6.998  69.389  1.00  0.00    -0.090 C  
HETATM    2  C   UNL     1     -10.548   7.193  68.090  1.00  0.00    -0.192 C  
ENDROOT
BRANCH   2   3
HETATM    3  N   UNL     1     -10.870   8.494  67.499  1.00  0.00    -0.494 NA 
HETATM    4  H   UNL     1     -11.579   8.975  68.053  1.00  0.00     0.000 HD 
BRANCH   3   5
HETATM    5  C   UNL     1      -9.697   9.358  67.295  1.00  0.00    -0.165 C  
HETATM    6  C   UNL     1      -8.346   8.579  66.999  1.00  0.00    -0.110 C  
HETATM    7  N   UNL     1      -8.170   8.093  65.600  1.00  0.00    -0.125 N  
HETATM    8  C   UNL     1     -11.040  11.406  66.250  1.00  0.00    -0.281 A  
HETATM    9  S   UNL     1      -8.193   9.258  64.387  1.00  0.00    -0.161 S  
HETATM   10  O   UNL     1      -7.014  10.086  64.542  1.00  0.00    -0.130 OA 
HETATM   11  C   UNL     1      -9.506  10.302  64.931  1.00  0.00    -0.279 A  
HETATM   12  C   UNL     1     -11.183  12.067  65.041  1.00  0.00    -0.320 A  
HETATM   13  O   UNL     1      -8.590   8.671  63.130  1.00  0.00    -0.146 OA 
HETATM   14  S   UNL     1     -10.117  11.452  63.853  1.00  0.00    -0.384 SA 
HETATM   15  C   UNL     1     -10.081  10.337  66.188  1.00  0.00    -0.307 A  
BRANCH   7  16
HETATM   16  C   UNL     1      -8.406   6.684  65.272  1.00  0.00    -0.111 C  
BRANCH  16  17
HETATM   17  C   UNL     1      -7.192   5.804  65.497  1.00  0.00    -0.074 C  
BRANCH  17  18
HETATM   18  C   UNL     1      -7.394   4.876  66.686  1.00  0.00    -0.082 C  
BRANCH  18  19
HETATM   19  O   UNL     1      -6.791   5.477  67.830  1.00  0.00    -0.060 OA 
HETATM   20  C   UNL     1      -7.596   5.313  68.989  1.00  0.00    -0.078 C  
ENDBRANCH  18  19
ENDBRANCH  17  18
ENDBRANCH  16  17
ENDBRANCH   7  16
BRANCH  12  21
HETATM   21  S   UNL     1     -12.221  13.412  64.515  1.00  0.00    -0.388 S  
HETATM   22  O   UNL     1     -12.651  13.076  63.180  1.00  0.00    -0.649 OA 
HETATM   23  O   UNL     1     -13.130  13.618  65.617  1.00  0.00    -0.549 OA 
HETATM   24  N   UNL     1     -11.247  14.775  64.417  1.00  0.00    -0.640 N  
HETATM   25  H1  UNL     1     -11.843  15.546  64.115  1.00  0.00     0.000 HD 
HETATM   26  H2  UNL     1     -10.249  14.823  64.620  1.00  0.00     0.000 HD 
ENDBRANCH  12  21
ENDBRANCH   3   5
ENDBRANCH   2   3
TORSDOF 7
ENDMDL
MODEL       78
REMARK 921   NORMALIZED FREE ENERGY PREDICTED BY IDOCK:   -4.06 KCAL/MOL
REMARK 922        TOTAL FREE ENERGY PREDICTED BY IDOCK:   -6.46 KCAL/MOL
REMARK 923 INTER-LIGAND FREE ENERGY PREDICTED BY IDOCK:   -5.96 KCAL/MOL
REMARK 924 INTRA-LIGAND FREE ENERGY PREDICTED BY IDOCK:   -0.50 KCAL/MOL
REMARK 927      BINDING AFFINITY PREDICTED BY RF-SCORE:    0.00 PKD
ROOT
HETATM    1  C   UNL     1     -11.882  13.783  69.244  1.00  0.00    -0.392 C  
HETATM    2  C   UNL     1     -12.026  12.398  69.860  1.00  0.00    -0.299 C  
ENDROOT
BRANCH   2   3
HETATM    3  N   UNL     1     -10.806  11.617  69.649  1.00  0.00    -0.458 NA 
HETATM    4  H   UNL     1     -10.221  11.632  70.486  1.00  0.00     0.000 HD 
BRANCH   3   5
HETATM    5  C   UNL     1     -11.055  10.235  69.214  1.00  0.00    -0.245 C  
HETATM    6  C   UNL     1     -10.935  10.004  67.648  1.00  0.00    -0.234 C  
HETATM    7  N   UNL     1      -9.549   9.870  67.115  1.00  0.00    -0.158 N  
HETATM    8  C   UNL     1     -10.148   9.077  71.434  1.00  0.00    -0.399 A  
HETATM    9  S   UNL     1      -8.617   8.618  67.741  1.00  0.00    -0.137 S  
HETATM   10  O   UNL     1      -9.201   7.366  67.306  1.00  0.00    -0.127 OA 
HETATM   11  C   UNL     1      -9.033   8.695  69.453  1.00  0.00    -0.145 A  
HETATM   12  C   UNL     1      -9.093   8.285  71.855  1.00  0.00    -0.195 A  
HETATM   13  O   UNL     1      -7.212   8.922  67.616  1.00  0.00    -0.079 OA 
HETATM   14  S   UNL     1      -8.090   7.820  70.550  1.00  0.00    -0.105 SA 
HETATM   15  C   UNL     1     -10.103   9.358  70.025  1.00  0.00    -0.259 A  
BRANCH   7  16
HETATM   16  C   UNL     1      -8.904  11.000  66.439  1.00  0.00    -0.177 C  
BRANCH  16  17
HETATM   17  C   UNL     1      -9.703  11.529  65.263  1.00  0.00    -0.268 C  
BRANCH  17  18
HETATM   18  C   UNL     1     -10.362  12.860  65.596  1.00  0.00    -0.282 C  
BRANCH  18  19
HETATM   19  O   UNL     1     -10.934  13.386  64.401  1.00  0.00    -0.370 OA 
HETATM   20  C   UNL     1     -11.814  12.453  63.789  1.00  0.00    -0.502 C  
ENDBRANCH  18  19
ENDBRANCH  17  18
ENDBRANCH  16  17
ENDBRANCH   7  16
BRANCH  12  21
HETATM   21  S   UNL     1      -8.613   7.659  73.450  1.00  0.00    -0.214 S  
HETATM   22  O   UNL     1      -7.794   6.502  73.186  1.00  0.00    -0.100 OA 
HETATM   23  O   UNL     1      -8.145   8.821  74.166  1.00  0.00    -0.355 OA 
HETATM   24  N   UNL     1     -10.014   7.139  74.214  1.00  0.00    -0.457 N  
HETATM   25  H1  UNL     1      -9.739   6.780  75.128  1.00  0.00     0.000 HD 
HETATM   26  H2  UNL     1     -10.960   7.174  73.836  1.00  0.00     0.000 HD 
ENDBRANCH  12  21
ENDBRANCH   3   5
ENDBRANCH   2   3
TORSDOF 7
ENDMDL
MODEL       79
REMARK 921   NORMALIZED FREE ENERGY PREDICTED BY IDOCK:   -4.06 KCAL/MOL
REMARK 922        TOTAL FREE ENERGY PREDICTED BY IDOCK:   -6.45 KCAL/MOL
REMARK 923 INTER-LIGAND FREE ENERGY PREDICTED BY IDOCK:   -5.86 KCAL/MOL
REMARK 924 INTRA-LIGAND FREE ENERGY PREDICTED BY IDOCK:   -0.60 KCAL/MOL
REMARK 927      BINDING AFFINITY PREDICTED BY RF-SCORE:    0.00 PKD
ROOT
HETATM    1  C   UNL     1      -7.246  16.279  68.533  1.00  0.00    -0.159 C  
HETATM    2  C   UNL     1      -6.959  14.797  68.732  1.00  0.00    -0.103 C  
ENDROOT
BRANCH   2   3
HETATM    3  N   UNL     1      -8.194  14.077  69.048  1.00  0.00    -0.338 NA 
HETATM    4  H   UNL     1      -8.435  14.191  70.033  1.00  0.00     0.000 HD 
BRANCH   3   5
HETATM    5  C   UNL     1      -9.331  14.446  68.190  1.00  0.00    -0.203 C  
HETATM    6  C   UNL     1      -9.372  13.699  66.791  1.00  0.00    -0.261 C  
HETATM    7  N   UNL     1      -9.904  12.306  66.813  1.00  0.00    -0.205 N  
HETATM    8  C   UNL     1     -11.024  14.960  70.181  1.00  0.00    -0.211 A  
HETATM    9  S   UNL     1     -11.475  12.106  67.379  1.00  0.00    -0.343 S  
HETATM   10  O   UNL     1     -12.374  12.730  66.429  1.00  0.00    -0.500 OA 
HETATM   11  C   UNL     1     -11.494  13.212  68.753  1.00  0.00    -0.307 A  
HETATM   12  C   UNL     1     -12.183  14.446  70.739  1.00  0.00    -0.343 A  
HETATM   13  O   UNL     1     -11.663  10.770  67.889  1.00  0.00    -0.543 OA 
HETATM   14  S   UNL     1     -12.784  13.119  69.842  1.00  0.00     0.465 SA 
HETATM   15  C   UNL     1     -10.586  14.217  69.031  1.00  0.00    -0.243 A  
BRANCH   7  16
HETATM   16  C   UNL     1      -8.986  11.163  66.771  1.00  0.00    -0.165 C  
BRANCH  16  17
HETATM   17  C   UNL     1      -9.107  10.345  65.499  1.00  0.00    -0.208 C  
BRANCH  17  18
HETATM   18  C   UNL     1      -7.750  10.145  64.839  1.00  0.00    -0.143 C  
BRANCH  18  19
HETATM   19  O   UNL     1      -7.877   9.117  63.859  1.00  0.00    -0.117 OA 
HETATM   20  C   UNL     1      -6.764   8.235  63.882  1.00  0.00    -0.075 C  
ENDBRANCH  18  19
ENDBRANCH  17  18
ENDBRANCH  16  17
ENDBRANCH   7  16
BRANCH  12  21
HETATM   21  S   UNL     1     -13.149  14.910  72.159  1.00  0.00    -0.378 S  
HETATM   22  O   UNL     1     -14.321  15.570  71.637  1.00  0.00    -0.479 OA 
HETATM   23  O   UNL     1     -13.200  13.715  72.966  1.00  0.00    -0.507 OA 
HETATM   24  N   UNL     1     -12.253  16.044  73.011  1.00  0.00    -0.489 N  
HETATM   25  H1  UNL     1     -12.807  16.310  73.826  1.00  0.00     0.000 HD 
HETATM   26  H2  UNL     1     -11.330  16.400  72.763  1.00  0.00     0.000 HD 
ENDBRANCH  12  21
ENDBRANCH   3   5
ENDBRANCH   2   3
TORSDOF 7
ENDMDL
MODEL       80
REMARK 921   NORMALIZED FREE ENERGY PREDICTED BY IDOCK:   -4.02 KCAL/MOL
REMARK 922        TOTAL FREE ENERGY PREDICTED BY IDOCK:   -6.39 KCAL/MOL
REMARK 923 INTER-LIGAND FREE ENERGY PREDICTED BY IDOCK:   -5.61 KCAL/MOL
REMARK 924 INTRA-LIGAND FREE ENERGY PREDICTED BY IDOCK:   -0.79 KCAL/MOL
REMARK 927      BINDING AFFINITY PREDICTED BY RF-SCORE:    0.00 PKD
ROOT
HETATM    1  C   UNL     1     -11.659  13.527  67.839  1.00  0.00    -0.377 C  
HETATM    2  C   UNL     1     -10.375  13.479  68.656  1.00  0.00    -0.214 C  
ENDROOT
BRANCH   2   3
HETATM    3  N   UNL     1      -9.776  12.144  68.583  1.00  0.00    -0.380 NA 
HETATM    4  H   UNL     1      -9.532  11.809  69.516  1.00  0.00     0.000 HD 
BRANCH   3   5
HETATM    5  C   UNL     1     -10.610  11.158  67.879  1.00  0.00    -0.198 C  
HETATM    6  C   UNL     1     -10.019  10.665  66.491  1.00  0.00    -0.215 C  
HETATM    7  N   UNL     1      -8.949   9.630  66.571  1.00  0.00    -0.144 N  
HETATM    8  C   UNL     1     -11.635  10.046  70.071  1.00  0.00    -0.279 A  
HETATM    9  S   UNL     1      -9.351   8.185  67.330  1.00  0.00    -0.147 S  
HETATM   10  O   UNL     1     -10.330   7.506  66.505  1.00  0.00    -0.204 OA 
HETATM   11  C   UNL     1     -10.296   8.762  68.702  1.00  0.00    -0.205 A  
HETATM   12  C   UNL     1     -11.588   8.850  70.767  1.00  0.00    -0.259 A  
HETATM   13  O   UNL     1      -8.169   7.541  67.850  1.00  0.00    -0.121 OA 
HETATM   14  S   UNL     1     -10.655   7.674  69.945  1.00  0.00    -0.235 SA 
HETATM   15  C   UNL     1     -10.846  10.020  68.869  1.00  0.00    -0.250 A  
BRANCH   7  16
HETATM   16  C   UNL     1      -7.542  10.008  66.405  1.00  0.00    -0.104 C  
BRANCH  16  17
HETATM   17  C   UNL     1      -7.117  10.115  64.952  1.00  0.00    -0.131 C  
BRANCH  17  18
HETATM   18  C   UNL     1      -7.284   8.788  64.228  1.00  0.00    -0.091 C  
BRANCH  18  19
HETATM   19  O   UNL     1      -8.367   8.913  63.308  1.00  0.00    -0.184 OA 
HETATM   20  C   UNL     1      -8.542  10.259  62.891  1.00  0.00    -0.190 C  
ENDBRANCH  18  19
ENDBRANCH  17  18
ENDBRANCH  16  17
ENDBRANCH   7  16
BRANCH  12  21
HETATM   21  S   UNL     1     -12.313   8.316  72.301  1.00  0.00    -0.335 S  
HETATM   22  O   UNL     1     -11.205   8.048  73.186  1.00  0.00    -0.336 OA 
HETATM   23  O   UNL     1     -13.334   9.297  72.578  1.00  0.00    -0.457 OA 
HETATM   24  N   UNL     1     -13.093   6.862  71.995  1.00  0.00    -0.550 N  
HETATM   25  H1  UNL     1     -13.509   6.556  72.875  1.00  0.00     0.000 HD 
HETATM   26  H2  UNL     1     -13.142   6.376  71.099  1.00  0.00     0.000 HD 
ENDBRANCH  12  21
ENDBRANCH   3   5
ENDBRANCH   2   3
TORSDOF 7
ENDMDL
MODEL       81
REMARK 921   NORMALIZED FREE ENERGY PREDICTED BY IDOCK:   -4.01 KCAL/MOL
REMARK 922        TOTAL FREE ENERGY PREDICTED BY IDOCK:   -6.39 KCAL/MOL
REMARK 923 INTER-LIGAND FREE ENERGY PREDICTED BY IDOCK:   -5.78 KCAL/MOL
REMARK 924 INTRA-LIGAND FREE ENERGY PREDICTED BY IDOCK:   -0.60 KCAL/MOL
REMARK 927      BINDING AFFINITY PREDICTED BY RF-SCORE:    0.00 PKD
ROOT
HETATM    1  C   UNL     1      -7.650  11.833  67.471  1.00  0.00    -0.135 C  
HETATM    2  C   UNL     1      -9.136  12.061  67.224  1.00  0.00    -0.178 C  
ENDROOT
BRANCH   2   3
HETATM    3  N   UNL     1      -9.824  12.343  68.486  1.00  0.00    -0.341 NA 
HETATM    4  H   UNL     1      -9.729  13.328  68.735  1.00  0.00     0.000 HD 
BRANCH   3   5
HETATM    5  C   UNL     1     -11.238  11.939  68.492  1.00  0.00    -0.256 C  
HETATM    6  C   UNL     1     -11.483  10.385  68.282  1.00  0.00    -0.144 C  
HETATM    7  N   UNL     1     -11.285   9.528  69.485  1.00  0.00    -0.139 N  
HETATM    8  C   UNL     1     -12.060  13.837  70.170  1.00  0.00    -0.429 A  
HETATM    9  S   UNL     1     -12.243   9.870  70.823  1.00  0.00    -0.272 S  
HETATM   10  O   UNL     1     -13.615   9.553  70.482  1.00  0.00     0.088 OA 
HETATM   11  C   UNL     1     -12.217  11.634  70.830  1.00  0.00    -0.344 A  
HETATM   12  C   UNL     1     -12.550  13.964  71.460  1.00  0.00    -0.334 A  
HETATM   13  O   UNL     1     -11.602   9.416  72.034  1.00  0.00    -0.342 OA 
HETATM   14  S   UNL     1     -12.792  12.441  72.199  1.00  0.00     0.108 SA 
HETATM   15  C   UNL     1     -11.823  12.468  69.800  1.00  0.00    -0.380 A  
BRANCH   7  16
HETATM   16  C   UNL     1     -10.052   8.749  69.642  1.00  0.00    -0.204 C  
BRANCH  16  17
HETATM   17  C   UNL     1      -9.492   8.241  68.327  1.00  0.00    -0.146 C  
BRANCH  17  18
HETATM   18  C   UNL     1      -8.655   6.987  68.529  1.00  0.00    -0.123 C  
BRANCH  18  19
HETATM   19  O   UNL     1      -8.377   6.423  67.249  1.00  0.00    -0.112 OA 
HETATM   20  C   UNL     1      -8.039   5.047  67.349  1.00  0.00    -0.103 C  
ENDBRANCH  18  19
ENDBRANCH  17  18
ENDBRANCH  16  17
ENDBRANCH   7  16
BRANCH  12  21
HETATM   21  S   UNL     1     -12.984  15.375  72.453  1.00  0.00    -0.446 S  
HETATM   22  O   UNL     1     -14.386  15.610  72.208  1.00  0.00    -0.539 OA 
HETATM   23  O   UNL     1     -12.441  15.078  73.756  1.00  0.00    -0.531 OA 
HETATM   24  N   UNL     1     -12.126  16.683  71.847  1.00  0.00    -0.482 N  
HETATM   25  H1  UNL     1     -12.375  17.493  72.416  1.00  0.00     0.000 HD 
HETATM   26  H2  UNL     1     -11.479  16.673  71.058  1.00  0.00     0.000 HD 
ENDBRANCH  12  21
ENDBRANCH   3   5
ENDBRANCH   2   3
TORSDOF 7
ENDMDL
MODEL       82
REMARK 921   NORMALIZED FREE ENERGY PREDICTED BY IDOCK:   -3.97 KCAL/MOL
REMARK 922        TOTAL FREE ENERGY PREDICTED BY IDOCK:   -6.33 KCAL/MOL
REMARK 923 INTER-LIGAND FREE ENERGY PREDICTED BY IDOCK:   -5.67 KCAL/MOL
REMARK 924 INTRA-LIGAND FREE ENERGY PREDICTED BY IDOCK:   -0.65 KCAL/MOL
REMARK 927      BINDING AFFINITY PREDICTED BY RF-SCORE:    0.00 PKD
ROOT
HETATM    1  C   UNL     1      -8.813   5.789  66.661  1.00  0.00    -0.121 C  
HETATM    2  C   UNL     1      -7.924   6.528  67.652  1.00  0.00    -0.114 C  
ENDROOT
BRANCH   2   3
HETATM    3  N   UNL     1      -8.598   6.654  68.945  1.00  0.00    -0.126 NA 
HETATM    4  H   UNL     1      -8.277   7.487  69.439  1.00  0.00     0.000 HD 
BRANCH   3   5
HETATM    5  C   UNL     1     -10.066   6.638  68.852  1.00  0.00    -0.165 C  
HETATM    6  C   UNL     1     -10.777   5.582  69.799  1.00  0.00    -0.285 C  
HETATM    7  N   UNL     1     -10.922   5.984  71.228  1.00  0.00    -0.274 N  
HETATM    8  C   UNL     1     -10.333   9.220  68.259  1.00  0.00    -0.257 A  
HETATM    9  S   UNL     1     -11.791   7.390  71.532  1.00  0.00    -0.313 S  
HETATM   10  O   UNL     1     -13.173   7.147  71.174  1.00  0.00    -0.347 OA 
HETATM   11  C   UNL     1     -11.210   8.446  70.244  1.00  0.00    -0.173 A  
HETATM   12  C   UNL     1     -10.823  10.387  68.822  1.00  0.00    -0.232 A  
HETATM   13  O   UNL     1     -11.389   7.971  72.791  1.00  0.00    -0.394 OA 
HETATM   14  S   UNL     1     -11.571  10.095  70.332  1.00  0.00    -0.333 SA 
HETATM   15  C   UNL     1     -10.521   8.074  69.105  1.00  0.00    -0.217 A  
BRANCH   7  16
HETATM   16  C   UNL     1     -10.008   5.449  72.242  1.00  0.00    -0.177 C  
BRANCH  16  17
HETATM   17  C   UNL     1     -10.720   4.733  73.373  1.00  0.00    -0.322 C  
BRANCH  17  18
HETATM   18  C   UNL     1     -10.134   3.349  73.609  1.00  0.00    -0.124 C  
BRANCH  18  19
HETATM   19  O   UNL     1     -10.248   2.604  72.399  1.00  0.00    -0.163 OA 
HETATM   20  C   UNL     1      -9.197   1.656  72.271  1.00  0.00    -0.075 C  
ENDBRANCH  18  19
ENDBRANCH  17  18
ENDBRANCH  16  17
ENDBRANCH   7  16
BRANCH  12  21
HETATM   21  S   UNL     1     -10.841  12.079  68.274  1.00  0.00    -0.244 S  
HETATM   22  O   UNL     1      -9.504  12.353  67.808  1.00  0.00    -0.186 OA 
HETATM   23  O   UNL     1     -12.012  12.175  67.436  1.00  0.00    -0.563 OA 
HETATM   24  N   UNL     1     -11.122  13.030  69.627  1.00  0.00    -0.468 N  
HETATM   25  H1  UNL     1     -11.132  14.001  69.313  1.00  0.00     0.000 HD 
HETATM   26  H2  UNL     1     -11.257  12.701  70.583  1.00  0.00     0.000 HD 
ENDBRANCH  12  21
ENDBRANCH   3   5
ENDBRANCH   2   3
TORSDOF 7
ENDMDL
MODEL       83
REMARK 921   NORMALIZED FREE ENERGY PREDICTED BY IDOCK:   -3.92 KCAL/MOL
REMARK 922        TOTAL FREE ENERGY PREDICTED BY IDOCK:   -6.26 KCAL/MOL
REMARK 923 INTER-LIGAND FREE ENERGY PREDICTED BY IDOCK:   -5.59 KCAL/MOL
REMARK 924 INTRA-LIGAND FREE ENERGY PREDICTED BY IDOCK:   -0.66 KCAL/MOL
REMARK 927      BINDING AFFINITY PREDICTED BY RF-SCORE:    0.00 PKD
ROOT
HETATM    1  C   UNL     1      -9.169   4.839  66.143  1.00  0.00    -0.144 C  
HETATM    2  C   UNL     1      -8.967   6.325  65.882  1.00  0.00    -0.109 C  
ENDROOT
BRANCH   2   3
HETATM    3  N   UNL     1      -9.819   7.118  66.770  1.00  0.00    -0.230 NA 
HETATM    4  H   UNL     1     -10.318   6.514  67.424  1.00  0.00     0.000 HD 
BRANCH   3   5
HETATM    5  C   UNL     1      -9.099   8.180  67.490  1.00  0.00    -0.137 C  
HETATM    6  C   UNL     1      -8.745   9.452  66.610  1.00  0.00    -0.131 C  
HETATM    7  N   UNL     1      -9.857  10.422  66.393  1.00  0.00    -0.204 N  
HETATM    8  C   UNL     1     -10.193   7.693  69.868  1.00  0.00    -0.215 A  
HETATM    9  S   UNL     1     -10.539  11.108  67.767  1.00  0.00    -0.225 S  
HETATM   10  O   UNL     1      -9.544  11.963  68.380  1.00  0.00    -0.203 OA 
HETATM   11  C   UNL     1     -10.614   9.718  68.851  1.00  0.00    -0.218 A  
HETATM   12  C   UNL     1     -11.063   8.284  70.770  1.00  0.00    -0.258 A  
HETATM   13  O   UNL     1     -11.893  11.531  67.502  1.00  0.00    -0.605 OA 
HETATM   14  S   UNL     1     -11.531   9.850  70.265  1.00  0.00    -0.275 SA 
HETATM   15  C   UNL     1      -9.950   8.513  68.713  1.00  0.00    -0.197 A  
BRANCH   7  16
HETATM   16  C   UNL     1     -10.589  10.434  65.122  1.00  0.00     0.036 C  
BRANCH  16  17
HETATM   17  C   UNL     1      -9.948  11.318  64.070  1.00  0.00    -0.362 C  
BRANCH  17  18
HETATM   18  C   UNL     1      -9.407  10.495  62.910  1.00  0.00    -0.326 C  
BRANCH  18  19
HETATM   19  O   UNL     1      -8.004  10.327  63.097  1.00  0.00    -0.151 OA 
HETATM   20  C   UNL     1      -7.622   8.964  62.979  1.00  0.00    -0.108 C  
ENDBRANCH  18  19
ENDBRANCH  17  18
ENDBRANCH  16  17
ENDBRANCH   7  16
BRANCH  12  21
HETATM   21  S   UNL     1     -11.746   7.744  72.321  1.00  0.00    -0.343 S  
HETATM   22  O   UNL     1     -12.303   6.437  72.070  1.00  0.00    -0.337 OA 
HETATM   23  O   UNL     1     -10.700   7.993  73.282  1.00  0.00    -0.272 OA 
HETATM   24  N   UNL     1     -13.012   8.783  72.687  1.00  0.00    -0.579 N  
HETATM   25  H1  UNL     1     -13.404   8.473  73.577  1.00  0.00     0.000 HD 
HETATM   26  H2  UNL     1     -13.330   9.574  72.128  1.00  0.00     0.000 HD 
ENDBRANCH  12  21
ENDBRANCH   3   5
ENDBRANCH   2   3
TORSDOF 7
ENDMDL
MODEL       84
REMARK 921   NORMALIZED FREE ENERGY PREDICTED BY IDOCK:   -3.91 KCAL/MOL
REMARK 922        TOTAL FREE ENERGY PREDICTED BY IDOCK:   -6.24 KCAL/MOL
REMARK 923 INTER-LIGAND FREE ENERGY PREDICTED BY IDOCK:   -5.62 KCAL/MOL
REMARK 924 INTRA-LIGAND FREE ENERGY PREDICTED BY IDOCK:   -0.62 KCAL/MOL
REMARK 927      BINDING AFFINITY PREDICTED BY RF-SCORE:    0.00 PKD
ROOT
HETATM    1  C   UNL     1     -13.556   6.981  71.619  1.00  0.00    -0.346 C  
HETATM    2  C   UNL     1     -12.146   7.103  71.057  1.00  0.00    -0.350 C  
ENDROOT
BRANCH   2   3
HETATM    3  N   UNL     1     -12.038   8.289  70.205  1.00  0.00    -0.308 NA 
HETATM    4  H   UNL     1     -12.673   9.021  70.526  1.00  0.00     0.000 HD 
BRANCH   3   5
HETATM    5  C   UNL     1     -10.667   8.808  70.083  1.00  0.00    -0.224 C  
HETATM    6  C   UNL     1      -9.686   7.891  69.237  1.00  0.00    -0.159 C  
HETATM    7  N   UNL     1      -9.808   8.003  67.755  1.00  0.00    -0.157 N  
HETATM    8  C   UNL     1     -11.336  11.383  70.180  1.00  0.00    -0.207 A  
HETATM    9  S   UNL     1      -9.548   9.525  67.090  1.00  0.00    -0.169 S  
HETATM   10  O   UNL     1      -8.152   9.862  67.278  1.00  0.00    -0.112 OA 
HETATM   11  C   UNL     1     -10.383  10.560  68.249  1.00  0.00    -0.168 A  
HETATM   12  C   UNL     1     -11.357  12.499  69.359  1.00  0.00    -0.210 A  
HETATM   13  O   UNL     1     -10.229   9.646  65.824  1.00  0.00    -0.261 OA 
HETATM   14  S   UNL     1     -10.668  12.172  67.828  1.00  0.00    -0.218 SA 
HETATM   15  C   UNL     1     -10.798  10.223  69.524  1.00  0.00    -0.292 A  
BRANCH   7  16
HETATM   16  C   UNL     1     -10.530   6.980  66.993  1.00  0.00    -0.316 C  
BRANCH  16  17
HETATM   17  C   UNL     1     -10.505   5.613  67.651  1.00  0.00    -0.284 C  
BRANCH  17  18
HETATM   18  C   UNL     1     -10.034   4.541  66.680  1.00  0.00    -0.230 C  
BRANCH  18  19
HETATM   19  O   UNL     1      -8.982   5.086  65.887  1.00  0.00    -0.131 OA 
HETATM   20  C   UNL     1      -8.860   4.406  64.646  1.00  0.00    -0.147 C  
ENDBRANCH  18  19
ENDBRANCH  17  18
ENDBRANCH  16  17
ENDBRANCH   7  16
BRANCH  12  21
HETATM   21  S   UNL     1     -11.929  14.166  69.601  1.00  0.00    -0.350 S  
HETATM   22  O   UNL     1     -13.115  14.059  70.415  1.00  0.00    -0.189 OA 
HETATM   23  O   UNL     1     -10.751  14.897  70.001  1.00  0.00    -0.220 OA 
HETATM   24  N   UNL     1     -12.386  14.751  68.096  1.00  0.00    -0.572 N  
HETATM   25  H1  UNL     1     -12.714  15.707  68.234  1.00  0.00     0.000 HD 
HETATM   26  H2  UNL     1     -12.344  14.246  67.210  1.00  0.00     0.000 HD 
ENDBRANCH  12  21
ENDBRANCH   3   5
ENDBRANCH   2   3
TORSDOF 7
ENDMDL
MODEL       85
REMARK 921   NORMALIZED FREE ENERGY PREDICTED BY IDOCK:   -3.90 KCAL/MOL
REMARK 922        TOTAL FREE ENERGY PREDICTED BY IDOCK:   -6.22 KCAL/MOL
REMARK 923 INTER-LIGAND FREE ENERGY PREDICTED BY IDOCK:   -5.65 KCAL/MOL
REMARK 924 INTRA-LIGAND FREE ENERGY PREDICTED BY IDOCK:   -0.57 KCAL/MOL
REMARK 927      BINDING AFFINITY PREDICTED BY RF-SCORE:    0.00 PKD
ROOT
HETATM    1  C   UNL     1     -10.082  15.578  65.443  1.00  0.00    -0.387 C  
HETATM    2  C   UNL     1     -10.701  14.345  64.798  1.00  0.00    -0.403 C  
ENDROOT
BRANCH   2   3
HETATM    3  N   UNL     1     -10.871  13.283  65.792  1.00  0.00    -0.273 NA 
HETATM    4  H   UNL     1     -11.257  12.444  65.359  1.00  0.00     0.000 HD 
BRANCH   3   5
HETATM    5  C   UNL     1      -9.642  12.964  66.535  1.00  0.00    -0.259 C  
HETATM    6  C   UNL     1      -9.750  13.158  68.107  1.00  0.00    -0.228 C  
HETATM    7  N   UNL     1     -10.427  12.058  68.852  1.00  0.00    -0.172 N  
HETATM    8  C   UNL     1      -8.781  11.088  64.854  1.00  0.00    -0.002 A  
HETATM    9  S   UNL     1      -9.747  10.527  68.720  1.00  0.00    -0.192 S  
HETATM   10  O   UNL     1      -8.457  10.553  69.379  1.00  0.00    -0.154 OA 
HETATM   11  C   UNL     1      -9.334  10.475  67.006  1.00  0.00    -0.155 A  
HETATM   12  C   UNL     1      -8.583   9.717  64.814  1.00  0.00    -0.179 A  
HETATM   13  O   UNL     1     -10.740   9.509  68.963  1.00  0.00    -0.222 OA 
HETATM   14  S   UNL     1      -8.905   8.987  66.327  1.00  0.00    -0.161 SA 
HETATM   15  C   UNL     1      -9.260  11.542  66.131  1.00  0.00    -0.230 A  
BRANCH   7  16
HETATM   16  C   UNL     1     -11.817  12.211  69.294  1.00  0.00    -0.313 C  
BRANCH  16  17
HETATM   17  C   UNL     1     -12.186  13.644  69.628  1.00  0.00    -0.326 C  
BRANCH  17  18
HETATM   18  C   UNL     1     -12.787  13.750  71.021  1.00  0.00    -0.305 C  
BRANCH  18  19
HETATM   19  O   UNL     1     -12.740  15.117  71.425  1.00  0.00    -0.316 OA 
HETATM   20  C   UNL     1     -13.749  15.413  72.380  1.00  0.00    -0.542 C  
ENDBRANCH  18  19
ENDBRANCH  17  18
ENDBRANCH  16  17
ENDBRANCH   7  16
BRANCH  12  21
HETATM   21  S   UNL     1      -8.051   8.610  63.528  1.00  0.00    -0.152 S  
HETATM   22  O   UNL     1      -6.849   9.191  62.983  1.00  0.00    -0.094 OA 
HETATM   23  O   UNL     1      -8.100   7.302  64.135  1.00  0.00    -0.120 OA 
HETATM   24  N   UNL     1      -9.229   8.644  62.334  1.00  0.00    -0.464 N  
HETATM   25  H1  UNL     1      -8.924   8.009  61.595  1.00  0.00     0.000 HD 
HETATM   26  H2  UNL     1     -10.088   9.195  62.343  1.00  0.00     0.000 HD 
ENDBRANCH  12  21
ENDBRANCH   3   5
ENDBRANCH   2   3
TORSDOF 7
ENDMDL
MODEL       86
REMARK 921   NORMALIZED FREE ENERGY PREDICTED BY IDOCK:   -3.87 KCAL/MOL
REMARK 922        TOTAL FREE ENERGY PREDICTED BY IDOCK:   -6.18 KCAL/MOL
REMARK 923 INTER-LIGAND FREE ENERGY PREDICTED BY IDOCK:   -5.93 KCAL/MOL
REMARK 924 INTRA-LIGAND FREE ENERGY PREDICTED BY IDOCK:   -0.25 KCAL/MOL
REMARK 927      BINDING AFFINITY PREDICTED BY RF-SCORE:    0.00 PKD
ROOT
HETATM    1  C   UNL     1     -11.559  11.412  69.375  1.00  0.00    -0.391 C  
HETATM    2  C   UNL     1     -10.306  10.954  68.641  1.00  0.00    -0.191 C  
ENDROOT
BRANCH   2   3
HETATM    3  N   UNL     1      -9.218  11.912  68.845  1.00  0.00    -0.399 NA 
HETATM    4  H   UNL     1      -8.657  11.652  69.657  1.00  0.00     0.000 HD 
BRANCH   3   5
HETATM    5  C   UNL     1      -8.363  12.100  67.662  1.00  0.00    -0.163 C  
HETATM    6  C   UNL     1      -7.300  10.946  67.426  1.00  0.00    -0.099 C  
HETATM    7  N   UNL     1      -7.822   9.701  66.791  1.00  0.00    -0.101 N  
HETATM    8  C   UNL     1     -10.175  13.412  66.218  1.00  0.00    -0.298 A  
HETATM    9  S   UNL     1      -8.525   9.866  65.273  1.00  0.00    -0.160 S  
HETATM   10  O   UNL     1      -7.483  10.237  64.337  1.00  0.00    -0.143 OA 
HETATM   11  C   UNL     1      -9.448  11.355  65.475  1.00  0.00    -0.227 A  
HETATM   12  C   UNL     1     -10.948  13.235  65.082  1.00  0.00    -0.299 A  
HETATM   13  O   UNL     1      -9.463   8.797  65.031  1.00  0.00     0.081 OA 
HETATM   14  S   UNL     1     -10.589  11.760  64.295  1.00  0.00    -0.369 SA 
HETATM   15  C   UNL     1      -9.313  12.293  66.482  1.00  0.00    -0.230 A  
BRANCH   7  16
HETATM   16  C   UNL     1      -8.103   8.516  67.608  1.00  0.00    -0.107 C  
BRANCH  16  17
HETATM   17  C   UNL     1      -7.199   7.340  67.289  1.00  0.00    -0.093 C  
BRANCH  17  18
HETATM   18  C   UNL     1      -6.575   6.764  68.551  1.00  0.00    -0.058 C  
BRANCH  18  19
HETATM   19  O   UNL     1      -7.015   7.541  69.663  1.00  0.00    -0.050 OA 
HETATM   20  C   UNL     1      -6.318   7.193  70.851  1.00  0.00    -0.036 C  
ENDBRANCH  18  19
ENDBRANCH  17  18
ENDBRANCH  16  17
ENDBRANCH   7  16
BRANCH  12  21
HETATM   21  S   UNL     1     -12.192  14.237  64.299  1.00  0.00    -0.339 S  
HETATM   22  O   UNL     1     -12.364  13.686  62.978  1.00  0.00    -0.672 OA 
HETATM   23  O   UNL     1     -13.253  14.320  65.273  1.00  0.00    -0.704 OA 
HETATM   24  N   UNL     1     -11.549  15.779  64.137  1.00  0.00    -0.878 N  
HETATM   25  H1  UNL     1     -12.263  16.354  63.688  1.00  0.00     0.000 HD 
HETATM   26  H2  UNL     1     -10.621  16.084  64.431  1.00  0.00     0.000 HD 
ENDBRANCH  12  21
ENDBRANCH   3   5
ENDBRANCH   2   3
TORSDOF 7
ENDMDL
MODEL       87
REMARK 921   NORMALIZED FREE ENERGY PREDICTED BY IDOCK:   -3.86 KCAL/MOL
REMARK 922        TOTAL FREE ENERGY PREDICTED BY IDOCK:   -6.17 KCAL/MOL
REMARK 923 INTER-LIGAND FREE ENERGY PREDICTED BY IDOCK:   -5.80 KCAL/MOL
REMARK 924 INTRA-LIGAND FREE ENERGY PREDICTED BY IDOCK:   -0.37 KCAL/MOL
REMARK 927      BINDING AFFINITY PREDICTED BY RF-SCORE:    0.00 PKD
ROOT
HETATM    1  C   UNL     1      -8.068  11.981  67.255  1.00  0.00    -0.174 C  
HETATM    2  C   UNL     1      -8.659  13.380  67.144  1.00  0.00    -0.195 C  
ENDROOT
BRANCH   2   3
HETATM    3  N   UNL     1      -9.613  13.443  66.034  1.00  0.00    -0.457 NA 
HETATM    4  H   UNL     1      -9.983  12.515  65.825  1.00  0.00     0.000 HD 
BRANCH   3   5
HETATM    5  C   UNL     1     -10.707  14.403  66.247  1.00  0.00    -0.307 C  
HETATM    6  C   UNL     1     -11.913  13.847  67.116  1.00  0.00    -0.420 C  
HETATM    7  N   UNL     1     -11.701  13.837  68.592  1.00  0.00    -0.334 N  
HETATM    8  C   UNL     1      -9.177  16.582  66.197  1.00  0.00    -0.338 A  
HETATM    9  S   UNL     1     -11.381  15.319  69.318  1.00  0.00    -0.322 S  
HETATM   10  O   UNL     1     -12.575  16.133  69.218  1.00  0.00     0.110 OA 
HETATM   11  C   UNL     1     -10.281  16.051  68.149  1.00  0.00    -0.243 A  
HETATM   12  C   UNL     1      -8.732  17.578  67.051  1.00  0.00    -0.240 A  
HETATM   13  O   UNL     1     -10.651  15.131  70.549  1.00  0.00    -0.220 OA 
HETATM   14  S   UNL     1      -9.430  17.438  68.606  1.00  0.00    -0.264 SA 
HETATM   15  C   UNL     1     -10.063  15.652  66.844  1.00  0.00    -0.265 A  
BRANCH   7  16
HETATM   16  C   UNL     1     -11.356  12.589  69.280  1.00  0.00    -0.245 C  
BRANCH  16  17
HETATM   17  C   UNL     1     -12.078  11.378  68.722  1.00  0.00    -0.256 C  
BRANCH  17  18
HETATM   18  C   UNL     1     -11.097  10.292  68.306  1.00  0.00    -0.254 C  
BRANCH  18  19
HETATM   19  O   UNL     1     -10.792   9.501  69.453  1.00  0.00    -0.228 OA 
HETATM   20  C   UNL     1      -9.425   9.116  69.472  1.00  0.00    -0.168 C  
ENDBRANCH  18  19
ENDBRANCH  17  18
ENDBRANCH  16  17
ENDBRANCH   7  16
BRANCH  12  21
HETATM   21  S   UNL     1      -7.619  18.948  66.831  1.00  0.00    -0.235 S  
HETATM   22  O   UNL     1      -8.453  20.123  66.762  1.00  0.00    -0.315 OA 
HETATM   23  O   UNL     1      -6.602  18.751  67.836  1.00  0.00    -0.210 OA 
HETATM   24  N   UNL     1      -6.882  18.747  65.337  1.00  0.00    -0.221 N  
HETATM   25  H1  UNL     1      -6.244  19.533  65.211  1.00  0.00     0.000 HD 
HETATM   26  H2  UNL     1      -7.042  17.985  64.679  1.00  0.00     0.000 HD 
ENDBRANCH  12  21
ENDBRANCH   3   5
ENDBRANCH   2   3
TORSDOF 7
ENDMDL
MODEL       88
REMARK 921   NORMALIZED FREE ENERGY PREDICTED BY IDOCK:   -3.86 KCAL/MOL
REMARK 922        TOTAL FREE ENERGY PREDICTED BY IDOCK:   -6.17 KCAL/MOL
REMARK 923 INTER-LIGAND FREE ENERGY PREDICTED BY IDOCK:   -5.58 KCAL/MOL
REMARK 924 INTRA-LIGAND FREE ENERGY PREDICTED BY IDOCK:   -0.59 KCAL/MOL
REMARK 927      BINDING AFFINITY PREDICTED BY RF-SCORE:    0.00 PKD
ROOT
HETATM    1  C   UNL     1     -13.371  10.733  71.935  1.00  0.00    -0.445 C  
HETATM    2  C   UNL     1     -12.362   9.833  71.237  1.00  0.00    -0.371 C  
ENDROOT
BRANCH   2   3
HETATM    3  N   UNL     1     -11.345  10.639  70.557  1.00  0.00    -0.401 NA 
HETATM    4  H   UNL     1     -10.683  11.025  71.231  1.00  0.00     0.000 HD 
BRANCH   3   5
HETATM    5  C   UNL     1     -10.637   9.920  69.487  1.00  0.00    -0.242 C  
HETATM    6  C   UNL     1     -10.684  10.631  68.070  1.00  0.00    -0.233 C  
HETATM    7  N   UNL     1      -9.728  11.760  67.877  1.00  0.00    -0.180 N  
HETATM    8  C   UNL     1      -8.790   8.827  71.064  1.00  0.00    -0.260 A  
HETATM    9  S   UNL     1      -8.095  11.404  68.052  1.00  0.00    -0.142 S  
HETATM   10  O   UNL     1      -7.710  10.528  66.964  1.00  0.00    -0.105 OA 
HETATM   11  C   UNL     1      -8.118  10.334  69.454  1.00  0.00    -0.163 A  
HETATM   12  C   UNL     1      -7.428   8.907  71.305  1.00  0.00    -0.103 A  
HETATM   13  O   UNL     1      -7.355  12.588  68.415  1.00  0.00    -0.101 OA 
HETATM   14  S   UNL     1      -6.651   9.966  70.209  1.00  0.00    -0.131 SA 
HETATM   15  C   UNL     1      -9.216   9.694  69.999  1.00  0.00    -0.275 A  
BRANCH   7  16
HETATM   16  C   UNL     1     -10.194  13.147  67.971  1.00  0.00    -0.233 C  
BRANCH  16  17
HETATM   17  C   UNL     1     -11.700  13.283  67.856  1.00  0.00    -0.395 C  
BRANCH  17  18
HETATM   18  C   UNL     1     -12.084  14.382  66.877  1.00  0.00    -0.356 C  
BRANCH  18  19
HETATM   19  O   UNL     1     -12.751  13.782  65.770  1.00  0.00    -0.490 OA 
HETATM   20  C   UNL     1     -12.247  14.265  64.533  1.00  0.00    -0.455 C  
ENDBRANCH  18  19
ENDBRANCH  17  18
ENDBRANCH  16  17
ENDBRANCH   7  16
BRANCH  12  21
HETATM   21  S   UNL     1      -6.363   8.118  72.492  1.00  0.00    -0.079 S  
HETATM   22  O   UNL     1      -5.183   7.728  71.761  1.00  0.00    -0.034 OA 
HETATM   23  O   UNL     1      -6.342   9.025  73.615  1.00  0.00    -0.311 OA 
HETATM   24  N   UNL     1      -7.143   6.722  72.999  1.00  0.00    -0.075 N  
HETATM   25  H1  UNL     1      -6.532   6.270  73.680  1.00  0.00     0.000 HD 
HETATM   26  H2  UNL     1      -8.055   6.388  72.685  1.00  0.00     0.000 HD 
ENDBRANCH  12  21
ENDBRANCH   3   5
ENDBRANCH   2   3
TORSDOF 7
ENDMDL
MODEL       89
REMARK 921   NORMALIZED FREE ENERGY PREDICTED BY IDOCK:   -3.85 KCAL/MOL
REMARK 922        TOTAL FREE ENERGY PREDICTED BY IDOCK:   -6.16 KCAL/MOL
REMARK 923 INTER-LIGAND FREE ENERGY PREDICTED BY IDOCK:   -5.72 KCAL/MOL
REMARK 924 INTRA-LIGAND FREE ENERGY PREDICTED BY IDOCK:   -0.44 KCAL/MOL
REMARK 927      BINDING AFFINITY PREDICTED BY RF-SCORE:    0.00 PKD
ROOT
HETATM    1  C   UNL     1      -7.820  10.178  63.224  1.00  0.00    -0.155 C  
HETATM    2  C   UNL     1      -8.155   9.998  64.698  1.00  0.00    -0.155 C  
ENDROOT
BRANCH   2   3
HETATM    3  N   UNL     1      -9.100   8.893  64.873  1.00  0.00    -0.432 NA 
HETATM    4  H   UNL     1      -8.605   8.002  64.932  1.00  0.00     0.000 HD 
BRANCH   3   5
HETATM    5  C   UNL     1     -10.002   9.061  66.023  1.00  0.00    -0.176 C  
HETATM    6  C   UNL     1      -9.432   8.507  67.397  1.00  0.00    -0.150 C  
HETATM    7  N   UNL     1      -8.455   9.388  68.098  1.00  0.00    -0.120 N  
HETATM    8  C   UNL     1     -11.154  11.296  65.146  1.00  0.00    -0.149 A  
HETATM    9  S   UNL     1      -8.991  10.925  68.519  1.00  0.00    -0.161 S  
HETATM   10  O   UNL     1     -10.010  10.779  69.538  1.00  0.00    -0.174 OA 
HETATM   11  C   UNL     1      -9.906  11.382  67.082  1.00  0.00    -0.190 A  
HETATM   12  C   UNL     1     -11.220  12.643  65.462  1.00  0.00    -0.302 A  
HETATM   13  O   UNL     1      -7.877  11.835  68.637  1.00  0.00    -0.135 OA 
HETATM   14  S   UNL     1     -10.377  12.996  66.908  1.00  0.00    -0.247 SA 
HETATM   15  C   UNL     1     -10.350  10.547  66.073  1.00  0.00    -0.279 A  
BRANCH   7  16
HETATM   16  C   UNL     1      -7.018   9.104  68.024  1.00  0.00    -0.077 C  
BRANCH  16  17
HETATM   17  C   UNL     1      -6.705   7.760  67.394  1.00  0.00    -0.068 C  
BRANCH  17  18
HETATM   18  C   UNL     1      -6.294   6.739  68.445  1.00  0.00    -0.031 C  
BRANCH  18  19
HETATM   19  O   UNL     1      -7.402   5.874  68.685  1.00  0.00    -0.080 OA 
HETATM   20  C   UNL     1      -7.809   5.914  70.045  1.00  0.00    -0.100 C  
ENDBRANCH  18  19
ENDBRANCH  17  18
ENDBRANCH  16  17
ENDBRANCH   7  16
BRANCH  12  21
HETATM   21  S   UNL     1     -12.014  14.030  64.680  1.00  0.00    -0.452 S  
HETATM   22  O   UNL     1     -13.255  14.221  65.389  1.00  0.00    -0.688 OA 
HETATM   23  O   UNL     1     -10.981  15.034  64.595  1.00  0.00    -0.372 OA 
HETATM   24  N   UNL     1     -12.381  13.564  63.111  1.00  0.00    -1.024 N  
HETATM   25  H1  UNL     1     -12.836  14.359  62.662  1.00  0.00     0.000 HD 
HETATM   26  H2  UNL     1     -12.186  12.657  62.685  1.00  0.00     0.000 HD 
ENDBRANCH  12  21
ENDBRANCH   3   5
ENDBRANCH   2   3
TORSDOF 7
ENDMDL
MODEL       90
REMARK 921   NORMALIZED FREE ENERGY PREDICTED BY IDOCK:   -3.85 KCAL/MOL
REMARK 922        TOTAL FREE ENERGY PREDICTED BY IDOCK:   -6.15 KCAL/MOL
REMARK 923 INTER-LIGAND FREE ENERGY PREDICTED BY IDOCK:   -6.03 KCAL/MOL
REMARK 924 INTRA-LIGAND FREE ENERGY PREDICTED BY IDOCK:   -0.12 KCAL/MOL
REMARK 927      BINDING AFFINITY PREDICTED BY RF-SCORE:    0.00 PKD
ROOT
HETATM    1  C   UNL     1     -12.337  12.843  63.098  1.00  0.00    -0.256 C  
HETATM    2  C   UNL     1     -10.933  12.302  63.330  1.00  0.00    -0.405 C  
ENDROOT
BRANCH   2   3
HETATM    3  N   UNL     1     -10.151  13.243  64.134  1.00  0.00    -0.767 NA 
HETATM    4  H   UNL     1      -9.810  14.013  63.557  1.00  0.00     0.000 HD 
BRANCH   3   5
HETATM    5  C   UNL     1     -10.868  13.755  65.312  1.00  0.00    -0.324 C  
HETATM    6  C   UNL     1     -11.702  12.662  66.104  1.00  0.00    -0.406 C  
HETATM    7  N   UNL     1     -10.918  11.788  67.023  1.00  0.00    -0.269 N  
HETATM    8  C   UNL     1      -9.115  15.674  65.891  1.00  0.00    -0.277 A  
HETATM    9  S   UNL     1     -10.064  12.556  68.251  1.00  0.00    -0.223 S  
HETATM   10  O   UNL     1     -11.025  13.131  69.170  1.00  0.00    -0.225 OA 
HETATM   11  C   UNL     1      -9.415  13.958  67.400  1.00  0.00    -0.226 A  
HETATM   12  C   UNL     1      -8.187  15.995  66.869  1.00  0.00    -0.242 A  
HETATM   13  O   UNL     1      -8.949  11.744  68.675  1.00  0.00    -0.155 OA 
HETATM   14  S   UNL     1      -8.212  14.872  68.159  1.00  0.00    -0.147 SA 
HETATM   15  C   UNL     1      -9.819  14.453  66.175  1.00  0.00    -0.340 A  
BRANCH   7  16
HETATM   16  C   UNL     1     -10.562  10.423  66.621  1.00  0.00    -0.178 C  
BRANCH  16  17
HETATM   17  C   UNL     1      -9.231  10.340  65.898  1.00  0.00    -0.205 C  
BRANCH  17  18
HETATM   18  C   UNL     1      -8.471   9.079  66.282  1.00  0.00    -0.125 C  
BRANCH  18  19
HETATM   19  O   UNL     1      -8.906   8.019  65.432  1.00  0.00    -0.126 OA 
HETATM   20  C   UNL     1      -7.894   7.645  64.507  1.00  0.00    -0.134 C  
ENDBRANCH  18  19
ENDBRANCH  17  18
ENDBRANCH  16  17
ENDBRANCH   7  16
BRANCH  12  21
HETATM   21  S   UNL     1      -7.025  17.331  67.039  1.00  0.00    -0.208 S  
HETATM   22  O   UNL     1      -7.066  17.711  68.430  1.00  0.00    -0.217 OA 
HETATM   23  O   UNL     1      -5.833  16.858  66.377  1.00  0.00    -0.320 OA 
HETATM   24  N   UNL     1      -7.617  18.614  66.134  1.00  0.00    -0.261 N  
HETATM   25  H1  UNL     1      -6.950  19.380  66.232  1.00  0.00     0.000 HD 
HETATM   26  H2  UNL     1      -8.479  18.626  65.590  1.00  0.00     0.000 HD 
ENDBRANCH  12  21
ENDBRANCH   3   5
ENDBRANCH   2   3
TORSDOF 7
ENDMDL
MODEL       91
REMARK 921   NORMALIZED FREE ENERGY PREDICTED BY IDOCK:   -3.82 KCAL/MOL
REMARK 922        TOTAL FREE ENERGY PREDICTED BY IDOCK:   -6.12 KCAL/MOL
REMARK 923 INTER-LIGAND FREE ENERGY PREDICTED BY IDOCK:   -5.51 KCAL/MOL
REMARK 924 INTRA-LIGAND FREE ENERGY PREDICTED BY IDOCK:   -0.61 KCAL/MOL
REMARK 927      BINDING AFFINITY PREDICTED BY RF-SCORE:    0.00 PKD
ROOT
HETATM    1  C   UNL     1      -8.282   9.129  62.375  1.00  0.00    -0.163 C  
HETATM    2  C   UNL     1      -8.924  10.412  62.885  1.00  0.00    -0.255 C  
ENDROOT
BRANCH   2   3
HETATM    3  N   UNL     1      -9.676  10.152  64.115  1.00  0.00    -0.348 NA 
HETATM    4  H   UNL     1      -9.894   9.158  64.199  1.00  0.00     0.000 HD 
BRANCH   3   5
HETATM    5  C   UNL     1      -9.009  10.642  65.331  1.00  0.00    -0.189 C  
HETATM    6  C   UNL     1      -9.447  12.099  65.783  1.00  0.00    -0.147 C  
HETATM    7  N   UNL     1     -10.742  12.190  66.516  1.00  0.00    -0.247 N  
HETATM    8  C   UNL     1      -8.712   8.251  66.466  1.00  0.00    -0.157 A  
HETATM    9  S   UNL     1     -10.865  11.312  67.945  1.00  0.00    -0.248 S  
HETATM   10  O   UNL     1      -9.961  11.903  68.910  1.00  0.00    -0.136 OA 
HETATM   11  C   UNL     1     -10.066   9.805  67.498  1.00  0.00    -0.197 A  
HETATM   12  C   UNL     1      -9.187   7.532  67.550  1.00  0.00    -0.128 A  
HETATM   13  O   UNL     1     -12.246  11.009  68.235  1.00  0.00    -0.582 OA 
HETATM   14  S   UNL     1     -10.225   8.475  68.530  1.00  0.00    -0.194 SA 
HETATM   15  C   UNL     1      -9.253   9.581  66.403  1.00  0.00    -0.210 A  
BRANCH   7  16
HETATM   16  C   UNL     1     -11.953  12.642  65.823  1.00  0.00    -0.446 C  
BRANCH  16  17
HETATM   17  C   UNL     1     -12.095  14.152  65.788  1.00  0.00    -0.433 C  
BRANCH  17  18
HETATM   18  C   UNL     1     -11.658  14.779  67.103  1.00  0.00    -0.359 C  
BRANCH  18  19
HETATM   19  O   UNL     1     -11.032  16.028  66.816  1.00  0.00    -0.248 OA 
HETATM   20  C   UNL     1     -10.648  16.703  68.006  1.00  0.00    -0.338 C  
ENDBRANCH  18  19
ENDBRANCH  17  18
ENDBRANCH  16  17
ENDBRANCH   7  16
BRANCH  12  21
HETATM   21  S   UNL     1      -8.910   5.867  68.111  1.00  0.00    -0.108 S  
HETATM   22  O   UNL     1     -10.202   5.369  68.513  1.00  0.00    -0.175 OA 
HETATM   23  O   UNL     1      -8.113   5.264  67.069  1.00  0.00    -0.104 OA 
HETATM   24  N   UNL     1      -7.944   5.964  69.479  1.00  0.00    -0.103 N  
HETATM   25  H1  UNL     1      -7.785   5.009  69.800  1.00  0.00     0.000 HD 
HETATM   26  H2  UNL     1      -7.584   6.816  69.908  1.00  0.00     0.000 HD 
ENDBRANCH  12  21
ENDBRANCH   3   5
ENDBRANCH   2   3
TORSDOF 7
ENDMDL
MODEL       92
REMARK 921   NORMALIZED FREE ENERGY PREDICTED BY IDOCK:   -3.81 KCAL/MOL
REMARK 922        TOTAL FREE ENERGY PREDICTED BY IDOCK:   -6.11 KCAL/MOL
REMARK 923 INTER-LIGAND FREE ENERGY PREDICTED BY IDOCK:   -5.10 KCAL/MOL
REMARK 924 INTRA-LIGAND FREE ENERGY PREDICTED BY IDOCK:   -1.01 KCAL/MOL
REMARK 927      BINDING AFFINITY PREDICTED BY RF-SCORE:    0.00 PKD
ROOT
HETATM    1  C   UNL     1      -8.890   5.252  66.109  1.00  0.00    -0.135 C  
HETATM    2  C   UNL     1      -8.444   6.642  66.542  1.00  0.00    -0.121 C  
ENDROOT
BRANCH   2   3
HETATM    3  N   UNL     1      -8.777   6.868  67.950  1.00  0.00    -0.122 NA 
HETATM    4  H   UNL     1      -8.293   7.693  68.305  1.00  0.00     0.000 HD 
BRANCH   3   5
HETATM    5  C   UNL     1     -10.222   6.962  68.209  1.00  0.00    -0.180 C  
HETATM    6  C   UNL     1     -10.724   6.125  69.460  1.00  0.00    -0.320 C  
HETATM    7  N   UNL     1     -10.494   6.748  70.794  1.00  0.00    -0.211 N  
HETATM    8  C   UNL     1     -10.511   9.438  67.273  1.00  0.00    -0.332 A  
HETATM    9  S   UNL     1     -11.198   8.252  71.057  1.00  0.00    -0.262 S  
HETATM   10  O   UNL     1     -12.635   8.074  71.080  1.00  0.00    -0.268 OA 
HETATM   11  C   UNL     1     -10.906   9.049  69.511  1.00  0.00    -0.166 A  
HETATM   12  C   UNL     1     -10.795  10.714  67.734  1.00  0.00    -0.286 A  
HETATM   13  O   UNL     1     -10.473   8.980  72.070  1.00  0.00    -0.346 OA 
HETATM   14  S   UNL     1     -11.160  10.717  69.405  1.00  0.00    -0.280 SA 
HETATM   15  C   UNL     1     -10.535   8.453  68.319  1.00  0.00    -0.214 A  
BRANCH   7  16
HETATM   16  C   UNL     1      -9.383   6.298  71.639  1.00  0.00    -0.147 C  
BRANCH  16  17
HETATM   17  C   UNL     1      -8.630   5.116  71.058  1.00  0.00    -0.130 C  
BRANCH  17  18
HETATM   18  C   UNL     1      -7.139   5.404  70.959  1.00  0.00    -0.068 C  
BRANCH  18  19
HETATM   19  O   UNL     1      -6.973   6.739  70.488  1.00  0.00    -0.060 OA 
HETATM   20  C   UNL     1      -5.678   6.940  69.939  1.00  0.00    -0.023 C  
ENDBRANCH  18  19
ENDBRANCH  17  18
ENDBRANCH  16  17
ENDBRANCH   7  16
BRANCH  12  21
HETATM   21  S   UNL     1     -10.871  12.299  66.931  1.00  0.00    -0.263 S  
HETATM   22  O   UNL     1     -12.016  12.240  66.055  1.00  0.00    -0.570 OA 
HETATM   23  O   UNL     1     -10.738  13.254  68.005  1.00  0.00    -0.230 OA 
HETATM   24  N   UNL     1      -9.497  12.433  65.978  1.00  0.00    -0.363 N  
HETATM   25  H1  UNL     1      -9.540  13.342  65.517  1.00  0.00     0.000 HD 
HETATM   26  H2  UNL     1      -8.758  11.737  65.878  1.00  0.00     0.000 HD 
ENDBRANCH  12  21
ENDBRANCH   3   5
ENDBRANCH   2   3
TORSDOF 7
ENDMDL
MODEL       93
REMARK 921   NORMALIZED FREE ENERGY PREDICTED BY IDOCK:   -3.80 KCAL/MOL
REMARK 922        TOTAL FREE ENERGY PREDICTED BY IDOCK:   -6.09 KCAL/MOL
REMARK 923 INTER-LIGAND FREE ENERGY PREDICTED BY IDOCK:   -5.45 KCAL/MOL
REMARK 924 INTRA-LIGAND FREE ENERGY PREDICTED BY IDOCK:   -0.64 KCAL/MOL
REMARK 927      BINDING AFFINITY PREDICTED BY RF-SCORE:    0.00 PKD
ROOT
HETATM    1  C   UNL     1     -12.415  10.898  71.444  1.00  0.00    -0.460 C  
HETATM    2  C   UNL     1     -12.134  12.179  70.671  1.00  0.00    -0.250 C  
ENDROOT
BRANCH   2   3
HETATM    3  N   UNL     1     -11.169  11.926  69.599  1.00  0.00    -0.455 NA 
HETATM    4  H   UNL     1     -10.454  11.266  69.908  1.00  0.00     0.000 HD 
BRANCH   3   5
HETATM    5  C   UNL     1     -11.785  11.473  68.343  1.00  0.00    -0.303 C  
HETATM    6  C   UNL     1     -11.786  12.554  67.180  1.00  0.00    -0.355 C  
HETATM    7  N   UNL     1     -10.502  12.710  66.438  1.00  0.00    -0.246 N  
HETATM    8  C   UNL     1     -11.133   8.907  68.623  1.00  0.00     0.195 A  
HETATM    9  S   UNL     1      -9.907  11.341  65.663  1.00  0.00    -0.246 S  
HETATM   10  O   UNL     1     -10.813  11.012  64.581  1.00  0.00    -0.296 OA 
HETATM   11  C   UNL     1     -10.227  10.092  66.866  1.00  0.00    -0.238 A  
HETATM   12  C   UNL     1     -10.306   7.959  68.042  1.00  0.00    -0.209 A  
HETATM   13  O   UNL     1      -8.477  11.436  65.498  1.00  0.00    -0.015 OA 
HETATM   14  S   UNL     1      -9.506   8.577  66.662  1.00  0.00    -0.226 SA 
HETATM   15  C   UNL     1     -11.066  10.181  67.961  1.00  0.00    -0.302 A  
BRANCH   7  16
HETATM   16  C   UNL     1      -9.610  13.836  66.731  1.00  0.00    -0.279 C  
BRANCH  16  17
HETATM   17  C   UNL     1     -10.264  14.913  67.576  1.00  0.00    -0.233 C  
BRANCH  17  18
HETATM   18  C   UNL     1      -9.319  16.084  67.808  1.00  0.00    -0.211 C  
BRANCH  18  19
HETATM   19  O   UNL     1      -9.832  16.865  68.885  1.00  0.00    -0.253 OA 
HETATM   20  C   UNL     1     -10.159  18.182  68.463  1.00  0.00    -0.400 C  
ENDBRANCH  18  19
ENDBRANCH  17  18
ENDBRANCH  16  17
ENDBRANCH   7  16
BRANCH  12  21
HETATM   21  S   UNL     1      -9.949   6.262  68.438  1.00  0.00    -0.150 S  
HETATM   22  O   UNL     1     -10.198   6.129  69.852  1.00  0.00    -0.172 OA 
HETATM   23  O   UNL     1     -10.649   5.502  67.430  1.00  0.00    -0.232 OA 
HETATM   24  N   UNL     1      -8.308   6.033  68.178  1.00  0.00    -0.112 N  
HETATM   25  H1  UNL     1      -8.103   5.059  68.405  1.00  0.00     0.000 HD 
HETATM   26  H2  UNL     1      -7.640   6.733  67.855  1.00  0.00     0.000 HD 
ENDBRANCH  12  21
ENDBRANCH   3   5
ENDBRANCH   2   3
TORSDOF 7
ENDMDL
MODEL       94
REMARK 921   NORMALIZED FREE ENERGY PREDICTED BY IDOCK:   -3.79 KCAL/MOL
REMARK 922        TOTAL FREE ENERGY PREDICTED BY IDOCK:   -6.07 KCAL/MOL
REMARK 923 INTER-LIGAND FREE ENERGY PREDICTED BY IDOCK:   -5.06 KCAL/MOL
REMARK 924 INTRA-LIGAND FREE ENERGY PREDICTED BY IDOCK:   -1.01 KCAL/MOL
REMARK 927      BINDING AFFINITY PREDICTED BY RF-SCORE:    0.00 PKD
ROOT
HETATM    1  C   UNL     1     -10.734  10.720  69.014  1.00  0.00    -0.265 C  
HETATM    2  C   UNL     1     -10.899   9.663  67.930  1.00  0.00    -0.215 C  
ENDROOT
BRANCH   2   3
HETATM    3  N   UNL     1     -10.841   8.322  68.515  1.00  0.00    -0.427 NA 
HETATM    4  H   UNL     1     -11.446   7.679  68.003  1.00  0.00     0.000 HD 
BRANCH   3   5
HETATM    5  C   UNL     1      -9.477   7.779  68.618  1.00  0.00    -0.152 C  
HETATM    6  C   UNL     1      -8.918   7.672  70.099  1.00  0.00    -0.146 C  
HETATM    7  N   UNL     1      -9.392   6.500  70.890  1.00  0.00    -0.161 N  
HETATM    8  C   UNL     1      -9.643   6.207  66.475  1.00  0.00    -0.183 A  
HETATM    9  S   UNL     1      -9.051   4.978  70.261  1.00  0.00    -0.126 S  
HETATM   10  O   UNL     1      -7.616   4.785  70.314  1.00  0.00    -0.056 OA 
HETATM   11  C   UNL     1      -9.371   5.230  68.545  1.00  0.00    -0.121 A  
HETATM   12  C   UNL     1      -9.679   4.859  66.156  1.00  0.00    -0.190 A  
HETATM   13  O   UNL     1     -10.000   4.006  70.747  1.00  0.00    -0.188 OA 
HETATM   14  S   UNL     1      -9.470   3.875  67.539  1.00  0.00    -0.170 SA 
HETATM   15  C   UNL     1      -9.500   6.439  67.887  1.00  0.00    -0.115 A  
BRANCH   7  16
HETATM   16  C   UNL     1     -10.451   6.662  71.891  1.00  0.00    -0.201 C  
BRANCH  16  17
HETATM   17  C   UNL     1     -10.645   8.101  72.329  1.00  0.00    -0.378 C  
BRANCH  17  18
HETATM   18  C   UNL     1     -12.048   8.594  72.005  1.00  0.00    -0.375 C  
BRANCH  18  19
HETATM   19  O   UNL     1     -12.669   7.640  71.145  1.00  0.00    -0.290 OA 
HETATM   20  C   UNL     1     -14.057   7.516  71.421  1.00  0.00    -0.371 C  
ENDBRANCH  18  19
ENDBRANCH  17  18
ENDBRANCH  16  17
ENDBRANCH   7  16
BRANCH  12  21
HETATM   21  S   UNL     1      -9.873   3.987  64.617  1.00  0.00    -0.191 S  
HETATM   22  O   UNL     1      -9.014   2.832  64.711  1.00  0.00    -0.115 OA 
HETATM   23  O   UNL     1     -11.301   3.905  64.427  1.00  0.00    -0.271 OA 
HETATM   24  N   UNL     1      -9.270   4.984  63.410  1.00  0.00    -0.351 N  
HETATM   25  H1  UNL     1      -9.381   4.483  62.527  1.00  0.00     0.000 HD 
HETATM   26  H2  UNL     1      -8.868   5.913  63.533  1.00  0.00     0.000 HD 
ENDBRANCH  12  21
ENDBRANCH   3   5
ENDBRANCH   2   3
TORSDOF 7
ENDMDL
MODEL       95
REMARK 921   NORMALIZED FREE ENERGY PREDICTED BY IDOCK:   -3.79 KCAL/MOL
REMARK 922        TOTAL FREE ENERGY PREDICTED BY IDOCK:   -6.07 KCAL/MOL
REMARK 923 INTER-LIGAND FREE ENERGY PREDICTED BY IDOCK:   -5.34 KCAL/MOL
REMARK 924 INTRA-LIGAND FREE ENERGY PREDICTED BY IDOCK:   -0.73 KCAL/MOL
REMARK 927      BINDING AFFINITY PREDICTED BY RF-SCORE:    0.00 PKD
ROOT
HETATM    1  C   UNL     1      -8.840   4.880  66.385  1.00  0.00    -0.113 C  
HETATM    2  C   UNL     1      -9.978   4.787  67.392  1.00  0.00    -0.159 C  
ENDROOT
BRANCH   2   3
HETATM    3  N   UNL     1      -9.762   5.730  68.491  1.00  0.00    -0.125 NA 
HETATM    4  H   UNL     1      -8.934   6.300  68.319  1.00  0.00     0.000 HD 
BRANCH   3   5
HETATM    5  C   UNL     1     -10.927   6.581  68.780  1.00  0.00    -0.305 C  
HETATM    6  C   UNL     1     -11.483   6.461  70.261  1.00  0.00    -0.402 C  
HETATM    7  N   UNL     1     -10.732   7.222  71.301  1.00  0.00    -0.225 N  
HETATM    8  C   UNL     1     -10.267   8.533  67.093  1.00  0.00    -0.355 A  
HETATM    9  S   UNL     1     -10.622   8.886  71.086  1.00  0.00    -0.293 S  
HETATM   10  O   UNL     1     -11.950   9.444  71.242  1.00  0.00    -0.306 OA 
HETATM   11  C   UNL     1     -10.328   8.995  69.351  1.00  0.00    -0.213 A  
HETATM   12  C   UNL     1      -9.853   9.855  67.120  1.00  0.00    -0.186 A  
HETATM   13  O   UNL     1      -9.459   9.407  71.763  1.00  0.00    -0.242 OA 
HETATM   14  S   UNL     1      -9.828  10.479  68.713  1.00  0.00    -0.194 SA 
HETATM   15  C   UNL     1     -10.514   8.003  68.407  1.00  0.00    -0.205 A  
BRANCH   7  16
HETATM   16  C   UNL     1      -9.792   6.530  72.188  1.00  0.00    -0.157 C  
BRANCH  16  17
HETATM   17  C   UNL     1     -10.389   6.180  73.538  1.00  0.00    -0.263 C  
BRANCH  17  18
HETATM   18  C   UNL     1     -10.794   4.715  73.600  1.00  0.00    -0.302 C  
BRANCH  18  19
HETATM   19  O   UNL     1     -10.080   4.009  72.588  1.00  0.00    -0.152 OA 
HETATM   20  C   UNL     1      -9.384   2.892  73.123  1.00  0.00    -0.089 C  
ENDBRANCH  18  19
ENDBRANCH  17  18
ENDBRANCH  16  17
ENDBRANCH   7  16
BRANCH  12  21
HETATM   21  S   UNL     1      -9.377  10.998  65.843  1.00  0.00    -0.212 S  
HETATM   22  O   UNL     1     -10.168  10.647  64.689  1.00  0.00    -0.333 OA 
HETATM   23  O   UNL     1      -9.427  12.292  66.480  1.00  0.00    -0.226 OA 
HETATM   24  N   UNL     1      -7.768  10.687  65.482  1.00  0.00    -0.278 N  
HETATM   25  H1  UNL     1      -7.495  11.343  64.749  1.00  0.00     0.000 HD 
HETATM   26  H2  UNL     1      -7.175   9.977  65.912  1.00  0.00     0.000 HD 
ENDBRANCH  12  21
ENDBRANCH   3   5
ENDBRANCH   2   3
TORSDOF 7
ENDMDL
MODEL       96
REMARK 921   NORMALIZED FREE ENERGY PREDICTED BY IDOCK:   -3.77 KCAL/MOL
REMARK 922        TOTAL FREE ENERGY PREDICTED BY IDOCK:   -6.04 KCAL/MOL
REMARK 923 INTER-LIGAND FREE ENERGY PREDICTED BY IDOCK:   -5.85 KCAL/MOL
REMARK 924 INTRA-LIGAND FREE ENERGY PREDICTED BY IDOCK:   -0.19 KCAL/MOL
REMARK 927      BINDING AFFINITY PREDICTED BY RF-SCORE:    0.00 PKD
ROOT
HETATM    1  C   UNL     1      -9.474   8.937  71.176  1.00  0.00    -0.335 C  
HETATM    2  C   UNL     1      -9.562   9.731  69.880  1.00  0.00    -0.235 C  
ENDROOT
BRANCH   2   3
HETATM    3  N   UNL     1     -10.898  10.309  69.727  1.00  0.00    -0.267 NA 
HETATM    4  H   UNL     1     -10.956  11.211  70.200  1.00  0.00     0.000 HD 
BRANCH   3   5
HETATM    5  C   UNL     1     -11.336  10.428  68.327  1.00  0.00    -0.224 C  
HETATM    6  C   UNL     1     -11.086  11.853  67.676  1.00  0.00    -0.257 C  
HETATM    7  N   UNL     1      -9.695  12.121  67.212  1.00  0.00    -0.189 N  
HETATM    8  C   UNL     1     -10.896   7.882  67.682  1.00  0.00    -0.125 A  
HETATM    9  S   UNL     1      -9.071  11.076  66.052  1.00  0.00    -0.199 S  
HETATM   10  O   UNL     1      -9.814  11.278  64.825  1.00  0.00    -0.240 OA 
HETATM   11  C   UNL     1      -9.654   9.518  66.637  1.00  0.00    -0.188 A  
HETATM   12  C   UNL     1     -10.049   7.126  66.889  1.00  0.00    -0.238 A  
HETATM   13  O   UNL     1      -7.630  11.057  66.112  1.00  0.00    -0.145 OA 
HETATM   14  S   UNL     1      -9.005   8.112  65.959  1.00  0.00    -0.149 SA 
HETATM   15  C   UNL     1     -10.647   9.294  67.572  1.00  0.00    -0.329 A  
BRANCH   7  16
HETATM   16  C   UNL     1      -8.792  12.947  68.021  1.00  0.00    -0.195 C  
BRANCH  16  17
HETATM   17  C   UNL     1      -8.275  14.168  67.284  1.00  0.00    -0.200 C  
BRANCH  17  18
HETATM   18  C   UNL     1      -9.406  15.124  66.935  1.00  0.00    -0.234 C  
BRANCH  18  19
HETATM   19  O   UNL     1      -9.752  14.926  65.566  1.00  0.00    -0.331 OA 
HETATM   20  C   UNL     1     -10.830  15.765  65.175  1.00  0.00    -0.428 C  
ENDBRANCH  18  19
ENDBRANCH  17  18
ENDBRANCH  16  17
ENDBRANCH   7  16
BRANCH  12  21
HETATM   21  S   UNL     1      -9.865   5.374  66.646  1.00  0.00    -0.193 S  
HETATM   22  O   UNL     1      -8.620   5.205  65.937  1.00  0.00    -0.120 OA 
HETATM   23  O   UNL     1     -10.127   4.800  67.944  1.00  0.00    -0.131 OA 
HETATM   24  N   UNL     1     -11.108   4.886  65.630  1.00  0.00    -0.903 N  
HETATM   25  H1  UNL     1     -11.003   3.881  65.491  1.00  0.00     0.000 HD 
HETATM   26  H2  UNL     1     -11.832   5.481  65.228  1.00  0.00     0.000 HD 
ENDBRANCH  12  21
ENDBRANCH   3   5
ENDBRANCH   2   3
TORSDOF 7
ENDMDL
MODEL       97
REMARK 921   NORMALIZED FREE ENERGY PREDICTED BY IDOCK:   -3.73 KCAL/MOL
REMARK 922        TOTAL FREE ENERGY PREDICTED BY IDOCK:   -5.99 KCAL/MOL
REMARK 923 INTER-LIGAND FREE ENERGY PREDICTED BY IDOCK:   -5.59 KCAL/MOL
REMARK 924 INTRA-LIGAND FREE ENERGY PREDICTED BY IDOCK:   -0.39 KCAL/MOL
REMARK 927      BINDING AFFINITY PREDICTED BY RF-SCORE:    0.00 PKD
ROOT
HETATM    1  C   UNL     1     -12.661  11.062  71.094  1.00  0.00    -0.522 C  
HETATM    2  C   UNL     1     -11.528  10.888  70.092  1.00  0.00    -0.319 C  
ENDROOT
BRANCH   2   3
HETATM    3  N   UNL     1     -11.148  12.183  69.523  1.00  0.00    -0.458 NA 
HETATM    4  H   UNL     1     -11.214  12.918  70.228  1.00  0.00     0.000 HD 
BRANCH   3   5
HETATM    5  C   UNL     1      -9.819  12.186  68.893  1.00  0.00     0.086 C  
HETATM    6  C   UNL     1      -9.330  10.768  68.376  1.00  0.00    -0.167 C  
HETATM    7  N   UNL     1      -9.894  10.322  67.069  1.00  0.00    -0.185 N  
HETATM    8  C   UNL     1      -9.973  14.667  67.938  1.00  0.00    -0.221 A  
HETATM    9  S   UNL     1      -9.603  11.314  65.743  1.00  0.00    -0.235 S  
HETATM   10  O   UNL     1      -8.183  11.273  65.458  1.00  0.00     0.016 OA 
HETATM   11  C   UNL     1      -9.837  12.915  66.446  1.00  0.00    -0.268 A  
HETATM   12  C   UNL     1     -10.062  15.326  66.722  1.00  0.00    -0.258 A  
HETATM   13  O   UNL     1     -10.619  11.124  64.737  1.00  0.00    -0.317 OA 
HETATM   14  S   UNL     1      -9.961  14.240  65.404  1.00  0.00    -0.239 SA 
HETATM   15  C   UNL     1      -9.878  13.240  67.789  1.00  0.00    -0.224 A  
BRANCH   7  16
HETATM   16  C   UNL     1     -10.984   9.343  67.031  1.00  0.00     0.126 C  
BRANCH  16  17
HETATM   17  C   UNL     1     -10.654   8.050  67.753  1.00  0.00    -0.239 C  
BRANCH  17  18
HETATM   18  C   UNL     1     -10.832   6.846  66.840  1.00  0.00    -0.310 C  
BRANCH  18  19
HETATM   19  O   UNL     1      -9.546   6.287  66.582  1.00  0.00    -0.151 OA 
HETATM   20  C   UNL     1      -9.511   4.899  66.884  1.00  0.00    -0.148 C  
ENDBRANCH  18  19
ENDBRANCH  17  18
ENDBRANCH  16  17
ENDBRANCH   7  16
BRANCH  12  21
HETATM   21  S   UNL     1     -10.235  17.042  66.288  1.00  0.00    -0.313 S  
HETATM   22  O   UNL     1     -10.772  17.056  64.950  1.00  0.00    -0.728 OA 
HETATM   23  O   UNL     1     -10.903  17.635  67.421  1.00  0.00    -0.301 OA 
HETATM   24  N   UNL     1      -8.689  17.691  66.231  1.00  0.00    -0.217 N  
HETATM   25  H1  UNL     1      -8.787  18.676  65.982  1.00  0.00     0.000 HD 
HETATM   26  H2  UNL     1      -7.815  17.196  66.411  1.00  0.00     0.000 HD 
ENDBRANCH  12  21
ENDBRANCH   3   5
ENDBRANCH   2   3
TORSDOF 7
ENDMDL
MODEL       98
REMARK 921   NORMALIZED FREE ENERGY PREDICTED BY IDOCK:   -3.73 KCAL/MOL
REMARK 922        TOTAL FREE ENERGY PREDICTED BY IDOCK:   -5.98 KCAL/MOL
REMARK 923 INTER-LIGAND FREE ENERGY PREDICTED BY IDOCK:   -5.45 KCAL/MOL
REMARK 924 INTRA-LIGAND FREE ENERGY PREDICTED BY IDOCK:   -0.53 KCAL/MOL
REMARK 927      BINDING AFFINITY PREDICTED BY RF-SCORE:    0.00 PKD
ROOT
HETATM    1  C   UNL     1     -12.069  10.400  70.915  1.00  0.00    -0.477 C  
HETATM    2  C   UNL     1     -12.016  11.099  69.563  1.00  0.00    -0.355 C  
ENDROOT
BRANCH   2   3
HETATM    3  N   UNL     1     -10.850  10.645  68.802  1.00  0.00    -0.212 NA 
HETATM    4  H   UNL     1     -10.493   9.767  69.179  1.00  0.00     0.000 HD 
BRANCH   3   5
HETATM    5  C   UNL     1     -11.096  10.527  67.356  1.00  0.00    -0.252 C  
HETATM    6  C   UNL     1     -10.670  11.799  66.508  1.00  0.00    -0.265 C  
HETATM    7  N   UNL     1      -9.215  11.918  66.201  1.00  0.00    -0.221 N  
HETATM    8  C   UNL     1     -10.749   7.890  67.231  1.00  0.00    -0.299 A  
HETATM    9  S   UNL     1      -8.520  10.654  65.338  1.00  0.00    -0.132 S  
HETATM   10  O   UNL     1      -9.084  10.661  64.004  1.00  0.00    -0.201 OA 
HETATM   11  C   UNL     1      -9.276   9.254  66.099  1.00  0.00    -0.196 A  
HETATM   12  C   UNL     1      -9.860   6.967  66.706  1.00  0.00    -0.181 A  
HETATM   13  O   UNL     1      -7.102  10.583  65.598  1.00  0.00    -0.142 OA 
HETATM   14  S   UNL     1      -8.642   7.721  65.772  1.00  0.00    -0.121 SA 
HETATM   15  C   UNL     1     -10.394   9.246  66.912  1.00  0.00    -0.316 A  
BRANCH   7  16
HETATM   16  C   UNL     1      -8.370  12.836  66.970  1.00  0.00    -0.120 C  
BRANCH  16  17
HETATM   17  C   UNL     1      -8.840  14.278  66.908  1.00  0.00    -0.234 C  
BRANCH  17  18
HETATM   18  C   UNL     1      -7.699  15.244  67.192  1.00  0.00    -0.203 C  
BRANCH  18  19
HETATM   19  O   UNL     1      -8.172  16.239  68.096  1.00  0.00    -0.157 OA 
HETATM   20  C   UNL     1      -8.356  15.711  69.402  1.00  0.00    -0.238 C  
ENDBRANCH  18  19
ENDBRANCH  17  18
ENDBRANCH  16  17
ENDBRANCH   7  16
BRANCH  12  21
HETATM   21  S   UNL     1      -9.765   5.193  66.800  1.00  0.00    -0.184 S  
HETATM   22  O   UNL     1      -8.420   4.852  66.404  1.00  0.00    -0.111 OA 
HETATM   23  O   UNL     1     -10.322   4.870  68.091  1.00  0.00    -0.080 OA 
HETATM   24  N   UNL     1     -10.815   4.584  65.641  1.00  0.00    -0.754 N  
HETATM   25  H1  UNL     1     -10.760   3.566  65.695  1.00  0.00     0.000 HD 
HETATM   26  H2  UNL     1     -11.397   5.127  65.004  1.00  0.00     0.000 HD 
ENDBRANCH  12  21
ENDBRANCH   3   5
ENDBRANCH   2   3
TORSDOF 7
ENDMDL
MODEL       99
REMARK 921   NORMALIZED FREE ENERGY PREDICTED BY IDOCK:   -3.72 KCAL/MOL
REMARK 922        TOTAL FREE ENERGY PREDICTED BY IDOCK:   -5.98 KCAL/MOL
REMARK 923 INTER-LIGAND FREE ENERGY PREDICTED BY IDOCK:   -5.39 KCAL/MOL
REMARK 924 INTRA-LIGAND FREE ENERGY PREDICTED BY IDOCK:   -0.59 KCAL/MOL
REMARK 927      BINDING AFFINITY PREDICTED BY RF-SCORE:    0.00 PKD
ROOT
HETATM    1  C   UNL     1     -12.683  11.007  70.565  1.00  0.00    -0.331 C  
HETATM    2  C   UNL     1     -11.994  11.329  69.246  1.00  0.00    -0.342 C  
ENDROOT
BRANCH   2   3
HETATM    3  N   UNL     1     -11.608  10.095  68.559  1.00  0.00    -0.589 NA 
HETATM    4  H   UNL     1     -11.884  10.128  67.577  1.00  0.00     0.000 HD 
BRANCH   3   5
HETATM    5  C   UNL     1     -10.178   9.770  68.685  1.00  0.00    -0.190 C  
HETATM    6  C   UNL     1      -9.843   8.686  69.794  1.00  0.00    -0.183 C  
HETATM    7  N   UNL     1     -10.081   7.266  69.408  1.00  0.00    -0.178 N  
HETATM    8  C   UNL     1      -9.569  10.203  66.130  1.00  0.00    -0.256 A  
HETATM    9  S   UNL     1      -9.235   6.695  68.072  1.00  0.00    -0.110 S  
HETATM   10  O   UNL     1      -7.829   6.653  68.419  1.00  0.00    -0.103 OA 
HETATM   11  C   UNL     1      -9.350   8.069  66.972  1.00  0.00    -0.156 A  
HETATM   12  C   UNL     1      -9.176   9.497  65.005  1.00  0.00    -0.236 A  
HETATM   13  O   UNL     1      -9.935   5.588  67.466  1.00  0.00    -0.138 OA 
HETATM   14  S   UNL     1      -8.910   7.844  65.356  1.00  0.00     0.108 SA 
HETATM   15  C   UNL     1      -9.712   9.365  67.289  1.00  0.00    -0.215 A  
BRANCH   7  16
HETATM   16  C   UNL     1     -11.282   6.564  69.874  1.00  0.00    -0.395 C  
BRANCH  16  17
HETATM   17  C   UNL     1     -11.034   5.699  71.096  1.00  0.00    -0.248 C  
BRANCH  17  18
HETATM   18  C   UNL     1     -11.398   6.435  72.377  1.00  0.00    -0.287 C  
BRANCH  18  19
HETATM   19  O   UNL     1     -10.220   7.058  72.885  1.00  0.00    -0.186 OA 
HETATM   20  C   UNL     1     -10.085   6.854  74.284  1.00  0.00    -0.252 C  
ENDBRANCH  18  19
ENDBRANCH  17  18
ENDBRANCH  16  17
ENDBRANCH   7  16
BRANCH  12  21
HETATM   21  S   UNL     1      -8.882   9.978  63.318  1.00  0.00    -0.259 S  
HETATM   22  O   UNL     1     -10.028  10.763  62.929  1.00  0.00    -0.307 OA 
HETATM   23  O   UNL     1      -7.531  10.485  63.318  1.00  0.00    -0.101 OA 
HETATM   24  N   UNL     1      -8.882   8.573  62.400  1.00  0.00    -0.438 N  
HETATM   25  H1  UNL     1      -8.714   8.849  61.432  1.00  0.00     0.000 HD 
HETATM   26  H2  UNL     1      -9.024   7.623  62.744  1.00  0.00     0.000 HD 
ENDBRANCH  12  21
ENDBRANCH   3   5
ENDBRANCH   2   3
TORSDOF 7
ENDMDL
MODEL      100
REMARK 921   NORMALIZED FREE ENERGY PREDICTED BY IDOCK:   -3.71 KCAL/MOL
REMARK 922        TOTAL FREE ENERGY PREDICTED BY IDOCK:   -5.96 KCAL/MOL
REMARK 923 INTER-LIGAND FREE ENERGY PREDICTED BY IDOCK:   -5.48 KCAL/MOL
REMARK 924 INTRA-LIGAND FREE ENERGY PREDICTED BY IDOCK:   -0.48 KCAL/MOL
REMARK 927      BINDING AFFINITY PREDICTED BY RF-SCORE:    0.00 PKD
ROOT
HETATM    1  C   UNL     1     -12.440   8.542  72.175  1.00  0.00    -0.437 C  
HETATM    2  C   UNL     1     -12.326   9.944  71.591  1.00  0.00    -0.406 C  
ENDROOT
BRANCH   2   3
HETATM    3  N   UNL     1     -12.028   9.875  70.159  1.00  0.00    -0.454 NA 
HETATM    4  H   UNL     1     -12.585  10.557  69.642  1.00  0.00     0.000 HD 
BRANCH   3   5
HETATM    5  C   UNL     1     -10.599  10.026  69.843  1.00  0.00    -0.282 C  
HETATM    6  C   UNL     1      -9.788   8.664  69.781  1.00  0.00    -0.183 C  
HETATM    7  N   UNL     1      -9.933   7.878  68.521  1.00  0.00    -0.181 N  
HETATM    8  C   UNL     1     -10.878  12.203  68.335  1.00  0.00    -0.255 A  
HETATM    9  S   UNL     1      -9.471   8.643  67.097  1.00  0.00    -0.172 S  
HETATM   10  O   UNL     1      -8.035   8.834  67.139  1.00  0.00    -0.096 OA 
HETATM   11  C   UNL     1     -10.111  10.267  67.349  1.00  0.00    -0.202 A  
HETATM   12  C   UNL     1     -10.758  12.592  67.011  1.00  0.00    -0.245 A  
HETATM   13  O   UNL     1     -10.161   8.068  65.968  1.00  0.00     0.042 OA 
HETATM   14  S   UNL     1     -10.167  11.322  66.029  1.00  0.00    -0.255 SA 
HETATM   15  C   UNL     1     -10.536  10.823  68.541  1.00  0.00    -0.223 A  
BRANCH   7  16
HETATM   16  C   UNL     1     -10.819   6.711  68.476  1.00  0.00    -0.258 C  
BRANCH  16  17
HETATM   17  C   UNL     1     -10.120   5.445  68.018  1.00  0.00    -0.224 C  
BRANCH  17  18
HETATM   18  C   UNL     1      -9.084   4.986  69.034  1.00  0.00    -0.105 C  
BRANCH  18  19
HETATM   19  O   UNL     1      -7.811   5.485  68.630  1.00  0.00    -0.089 OA 
HETATM   20  C   UNL     1      -6.774   4.553  68.906  1.00  0.00    -0.046 C  
ENDBRANCH  18  19
ENDBRANCH  17  18
ENDBRANCH  16  17
ENDBRANCH   7  16
BRANCH  12  21
HETATM   21  S   UNL     1     -11.071  14.128  66.169  1.00  0.00    -0.318 S  
HETATM   22  O   UNL     1     -11.613  13.765  64.883  1.00  0.00    -0.327 OA 
HETATM   23  O   UNL     1     -11.781  14.930  67.136  1.00  0.00    -0.356 OA 
HETATM   24  N   UNL     1      -9.583  14.861  65.916  1.00  0.00    -0.404 N  
HETATM   25  H1  UNL     1      -9.763  15.741  65.433  1.00  0.00     0.000 HD 
HETATM   26  H2  UNL     1      -8.671  14.495  66.192  1.00  0.00     0.000 HD 
ENDBRANCH  12  21
ENDBRANCH   3   5
ENDBRANCH   2   3
TORSDOF 7
ENDMDL
MODEL      101
REMARK 921   NORMALIZED FREE ENERGY PREDICTED BY IDOCK:   -3.68 KCAL/MOL
REMARK 922        TOTAL FREE ENERGY PREDICTED BY IDOCK:   -5.92 KCAL/MOL
REMARK 923 INTER-LIGAND FREE ENERGY PREDICTED BY IDOCK:   -5.44 KCAL/MOL
REMARK 924 INTRA-LIGAND FREE ENERGY PREDICTED BY IDOCK:   -0.47 KCAL/MOL
REMARK 927      BINDING AFFINITY PREDICTED BY RF-SCORE:    0.00 PKD
ROOT
HETATM    1  C   UNL     1      -6.289  11.557  69.704  1.00  0.00    -0.133 C  
HETATM    2  C   UNL     1      -7.578  11.545  68.894  1.00  0.00    -0.102 C  
ENDROOT
BRANCH   2   3
HETATM    3  N   UNL     1      -8.054  12.913  68.677  1.00  0.00    -0.321 NA 
HETATM    4  H   UNL     1      -7.372  13.590  69.019  1.00  0.00     0.000 HD 
BRANCH   3   5
HETATM    5  C   UNL     1      -8.413  13.200  67.279  1.00  0.00    -0.198 C  
HETATM    6  C   UNL     1      -9.801  12.587  66.814  1.00  0.00    -0.229 C  
HETATM    7  N   UNL     1     -11.017  13.343  67.230  1.00  0.00    -0.269 N  
HETATM    8  C   UNL     1      -7.179  15.556  67.154  1.00  0.00    -0.208 A  
HETATM    9  S   UNL     1     -11.130  14.938  66.709  1.00  0.00    -0.330 S  
HETATM   10  O   UNL     1     -11.292  14.926  65.270  1.00  0.00    -0.344 OA 
HETATM   11  C   UNL     1      -9.472  15.496  66.934  1.00  0.00    -0.228 A  
HETATM   12  C   UNL     1      -7.484  16.902  67.044  1.00  0.00    -0.196 A  
HETATM   13  O   UNL     1     -11.975  15.701  67.595  1.00  0.00     0.008 OA 
HETATM   14  S   UNL     1      -9.164  17.156  66.840  1.00  0.00    -0.250 SA 
HETATM   15  C   UNL     1      -8.346  14.718  67.129  1.00  0.00    -0.240 A  
BRANCH   7  16
HETATM   16  C   UNL     1     -11.823  12.881  68.365  1.00  0.00    -0.318 C  
BRANCH  16  17
HETATM   17  C   UNL     1     -11.399  13.488  69.688  1.00  0.00    -0.219 C  
BRANCH  17  18
HETATM   18  C   UNL     1     -12.601  13.782  70.573  1.00  0.00    -0.291 C  
BRANCH  18  19
HETATM   19  O   UNL     1     -12.134  14.393  71.774  1.00  0.00    -0.321 OA 
HETATM   20  C   UNL     1     -13.129  14.375  72.788  1.00  0.00    -0.505 C  
ENDBRANCH  18  19
ENDBRANCH  17  18
ENDBRANCH  16  17
ENDBRANCH   7  16
BRANCH  12  21
HETATM   21  S   UNL     1      -6.484  18.373  67.053  1.00  0.00    -0.184 S  
HETATM   22  O   UNL     1      -7.394  19.465  67.297  1.00  0.00    -0.219 OA 
HETATM   23  O   UNL     1      -5.376  18.050  67.920  1.00  0.00    -0.148 OA 
HETATM   24  N   UNL     1      -5.863  18.553  65.504  1.00  0.00    -0.199 N  
HETATM   25  H1  UNL     1      -5.289  19.397  65.509  1.00  0.00     0.000 HD 
HETATM   26  H2  UNL     1      -6.029  17.937  64.709  1.00  0.00     0.000 HD 
ENDBRANCH  12  21
ENDBRANCH   3   5
ENDBRANCH   2   3
TORSDOF 7
ENDMDL
MODEL      102
REMARK 921   NORMALIZED FREE ENERGY PREDICTED BY IDOCK:   -3.67 KCAL/MOL
REMARK 922        TOTAL FREE ENERGY PREDICTED BY IDOCK:   -5.90 KCAL/MOL
REMARK 923 INTER-LIGAND FREE ENERGY PREDICTED BY IDOCK:   -4.94 KCAL/MOL
REMARK 924 INTRA-LIGAND FREE ENERGY PREDICTED BY IDOCK:   -0.96 KCAL/MOL
REMARK 927      BINDING AFFINITY PREDICTED BY RF-SCORE:    0.00 PKD
ROOT
HETATM    1  C   UNL     1     -10.791   3.561  73.723  1.00  0.00    -0.317 C  
HETATM    2  C   UNL     1      -9.499   4.360  73.635  1.00  0.00    -0.116 C  
ENDROOT
BRANCH   2   3
HETATM    3  N   UNL     1      -9.559   5.304  72.517  1.00  0.00    -0.148 NA 
HETATM    4  H   UNL     1     -10.512   5.378  72.160  1.00  0.00     0.000 HD 
BRANCH   3   5
HETATM    5  C   UNL     1      -9.019   6.635  72.836  1.00  0.00    -0.128 C  
HETATM    6  C   UNL     1      -7.516   6.864  72.384  1.00  0.00    -0.087 C  
HETATM    7  N   UNL     1      -7.312   7.181  70.941  1.00  0.00    -0.074 N  
HETATM    8  C   UNL     1     -11.338   7.929  72.635  1.00  0.00    -0.468 A  
HETATM    9  S   UNL     1      -8.082   8.555  70.354  1.00  0.00    -0.117 S  
HETATM   10  O   UNL     1      -7.471   9.711  70.979  1.00  0.00    -0.327 OA 
HETATM   11  C   UNL     1      -9.654   8.440  71.146  1.00  0.00    -0.177 A  
HETATM   12  C   UNL     1     -11.958   8.863  71.820  1.00  0.00    -0.359 A  
HETATM   13  O   UNL     1      -8.298   8.445  68.931  1.00  0.00    -0.117 OA 
HETATM   14  S   UNL     1     -10.901   9.447  70.609  1.00  0.00    -0.310 SA 
HETATM   15  C   UNL     1      -9.991   7.642  72.224  1.00  0.00    -0.242 A  
BRANCH   7  16
HETATM   16  C   UNL     1      -6.851   6.143  70.014  1.00  0.00    -0.057 C  
BRANCH  16  17
HETATM   17  C   UNL     1      -7.800   4.964  69.914  1.00  0.00    -0.066 C  
BRANCH  17  18
HETATM   18  C   UNL     1      -8.911   5.232  68.910  1.00  0.00    -0.103 C  
BRANCH  18  19
HETATM   19  O   UNL     1     -10.145   5.312  69.619  1.00  0.00    -0.211 OA 
HETATM   20  C   UNL     1     -11.068   6.171  68.964  1.00  0.00    -0.367 C  
ENDBRANCH  18  19
ENDBRANCH  17  18
ENDBRANCH  16  17
ENDBRANCH   7  16
BRANCH  12  21
HETATM   21  S   UNL     1     -13.592   9.565  71.814  1.00  0.00    -0.339 S  
HETATM   22  O   UNL     1     -14.064   9.447  70.456  1.00  0.00     0.228 OA 
HETATM   23  O   UNL     1     -14.251   8.954  72.943  1.00  0.00    -0.514 OA 
HETATM   24  N   UNL     1     -13.425  11.198  72.163  1.00  0.00    -0.526 N  
HETATM   25  H1  UNL     1     -14.363  11.601  72.159  1.00  0.00     0.000 HD 
HETATM   26  H2  UNL     1     -12.553  11.695  72.344  1.00  0.00     0.000 HD 
ENDBRANCH  12  21
ENDBRANCH   3   5
ENDBRANCH   2   3
TORSDOF 7
ENDMDL
MODEL      103
REMARK 921   NORMALIZED FREE ENERGY PREDICTED BY IDOCK:   -3.61 KCAL/MOL
REMARK 922        TOTAL FREE ENERGY PREDICTED BY IDOCK:   -5.82 KCAL/MOL
REMARK 923 INTER-LIGAND FREE ENERGY PREDICTED BY IDOCK:   -5.36 KCAL/MOL
REMARK 924 INTRA-LIGAND FREE ENERGY PREDICTED BY IDOCK:   -0.46 KCAL/MOL
REMARK 927      BINDING AFFINITY PREDICTED BY RF-SCORE:    0.00 PKD
ROOT
HETATM    1  C   UNL     1     -13.280  11.137  71.855  1.00  0.00    -0.488 C  
HETATM    2  C   UNL     1     -12.094  10.681  71.016  1.00  0.00    -0.368 C  
ENDROOT
BRANCH   2   3
HETATM    3  N   UNL     1     -11.855  11.621  69.919  1.00  0.00    -0.337 NA 
HETATM    4  H   UNL     1     -11.216  12.361  70.212  1.00  0.00     0.000 HD 
BRANCH   3   5
HETATM    5  C   UNL     1     -11.377  10.981  68.684  1.00  0.00    -0.281 C  
HETATM    6  C   UNL     1     -11.951  11.613  67.346  1.00  0.00     0.085 C  
HETATM    7  N   UNL     1     -11.296  12.872  66.889  1.00  0.00    -0.296 N  
HETATM    8  C   UNL     1      -8.996  10.273  69.644  1.00  0.00    -0.140 A  
HETATM    9  S   UNL     1      -9.646  12.795  66.576  1.00  0.00    -0.252 S  
HETATM   10  O   UNL     1      -9.451  11.947  65.418  1.00  0.00    -0.207 OA 
HETATM   11  C   UNL     1      -9.083  11.798  67.918  1.00  0.00    -0.181 A  
HETATM   12  C   UNL     1      -7.656  10.583  69.476  1.00  0.00    -0.145 A  
HETATM   13  O   UNL     1      -9.043  14.098  66.714  1.00  0.00    -0.254 OA 
HETATM   14  S   UNL     1      -7.420  11.706  68.208  1.00  0.00    -0.105 SA 
HETATM   15  C   UNL     1      -9.851  11.012  68.756  1.00  0.00    -0.206 A  
BRANCH   7  16
HETATM   16  C   UNL     1     -11.941  14.168  67.124  1.00  0.00    -0.426 C  
BRANCH  16  17
HETATM   17  C   UNL     1     -11.997  14.552  68.591  1.00  0.00    -0.320 C  
BRANCH  17  18
HETATM   18  C   UNL     1     -11.110  15.754  68.882  1.00  0.00    -0.298 C  
BRANCH  18  19
HETATM   19  O   UNL     1     -11.234  16.674  67.800  1.00  0.00    -0.222 OA 
HETATM   20  C   UNL     1     -10.223  17.671  67.845  1.00  0.00    -0.357 C  
ENDBRANCH  18  19
ENDBRANCH  17  18
ENDBRANCH  16  17
ENDBRANCH   7  16
BRANCH  12  21
HETATM   21  S   UNL     1      -6.177  10.031  70.295  1.00  0.00    -0.108 S  
HETATM   22  O   UNL     1      -5.330   9.498  69.257  1.00  0.00    -0.036 OA 
HETATM   23  O   UNL     1      -5.800  11.136  71.143  1.00  0.00    -0.355 OA 
HETATM   24  N   UNL     1      -6.618   8.764  71.303  1.00  0.00    -0.068 N  
HETATM   25  H1  UNL     1      -5.770   8.447  71.773  1.00  0.00     0.000 HD 
HETATM   26  H2  UNL     1      -7.556   8.382  71.423  1.00  0.00     0.000 HD 
ENDBRANCH  12  21
ENDBRANCH   3   5
ENDBRANCH   2   3
TORSDOF 7
ENDMDL
MODEL      104
REMARK 921   NORMALIZED FREE ENERGY PREDICTED BY IDOCK:   -3.60 KCAL/MOL
REMARK 922        TOTAL FREE ENERGY PREDICTED BY IDOCK:   -5.81 KCAL/MOL
REMARK 923 INTER-LIGAND FREE ENERGY PREDICTED BY IDOCK:   -5.12 KCAL/MOL
REMARK 924 INTRA-LIGAND FREE ENERGY PREDICTED BY IDOCK:   -0.69 KCAL/MOL
REMARK 927      BINDING AFFINITY PREDICTED BY RF-SCORE:    0.00 PKD
ROOT
HETATM    1  C   UNL     1      -9.255   6.432  66.018  1.00  0.00    -0.087 C  
HETATM    2  C   UNL     1     -10.129   7.203  66.998  1.00  0.00    -0.238 C  
ENDROOT
BRANCH   2   3
HETATM    3  N   UNL     1     -10.389   8.553  66.494  1.00  0.00    -0.362 NA 
HETATM    4  H   UNL     1     -11.292   8.592  66.020  1.00  0.00     0.000 HD 
BRANCH   3   5
HETATM    5  C   UNL     1     -10.299   9.598  67.525  1.00  0.00    -0.241 C  
HETATM    6  C   UNL     1      -9.041   9.473  68.484  1.00  0.00    -0.131 C  
HETATM    7  N   UNL     1      -7.750   9.975  67.932  1.00  0.00    -0.090 N  
HETATM    8  C   UNL     1     -11.479  11.506  66.091  1.00  0.00    -0.105 A  
HETATM    9  S   UNL     1      -7.702  11.593  67.478  1.00  0.00    -0.145 S  
HETATM   10  O   UNL     1      -7.820  12.397  68.677  1.00  0.00    -0.117 OA 
HETATM   11  C   UNL     1      -9.272  11.783  66.697  1.00  0.00    -0.198 A  
HETATM   12  C   UNL     1     -11.168  12.708  65.476  1.00  0.00    -0.302 A  
HETATM   13  O   UNL     1      -6.685  11.808  66.477  1.00  0.00    -0.044 OA 
HETATM   14  S   UNL     1      -9.554  13.180  65.788  1.00  0.00     0.029 SA 
HETATM   15  C   UNL     1     -10.358  10.931  66.783  1.00  0.00    -0.289 A  
BRANCH   7  16
HETATM   16  C   UNL     1      -6.752   9.035  67.412  1.00  0.00    -0.069 C  
BRANCH  16  17
HETATM   17  C   UNL     1      -6.102   8.193  68.494  1.00  0.00    -0.041 C  
BRANCH  17  18
HETATM   18  C   UNL     1      -6.255   6.707  68.205  1.00  0.00    -0.033 C  
BRANCH  18  19
HETATM   19  O   UNL     1      -6.673   6.059  69.404  1.00  0.00    -0.055 OA 
HETATM   20  C   UNL     1      -8.049   6.294  69.670  1.00  0.00    -0.120 C  
ENDBRANCH  18  19
ENDBRANCH  17  18
ENDBRANCH  16  17
ENDBRANCH   7  16
BRANCH  12  21
HETATM   21  S   UNL     1     -12.114  13.830  64.471  1.00  0.00    -0.426 S  
HETATM   22  O   UNL     1     -12.244  13.190  63.185  1.00  0.00    -0.631 OA 
HETATM   23  O   UNL     1     -13.239  14.194  65.298  1.00  0.00    -0.760 OA 
HETATM   24  N   UNL     1     -11.182  15.211  64.268  1.00  0.00    -0.664 N  
HETATM   25  H1  UNL     1     -11.724  15.855  63.692  1.00  0.00     0.000 HD 
HETATM   26  H2  UNL     1     -10.250  15.376  64.649  1.00  0.00     0.000 HD 
ENDBRANCH  12  21
ENDBRANCH   3   5
ENDBRANCH   2   3
TORSDOF 7
ENDMDL
MODEL      105
REMARK 921   NORMALIZED FREE ENERGY PREDICTED BY IDOCK:   -3.58 KCAL/MOL
REMARK 922        TOTAL FREE ENERGY PREDICTED BY IDOCK:   -5.78 KCAL/MOL
REMARK 923 INTER-LIGAND FREE ENERGY PREDICTED BY IDOCK:   -4.92 KCAL/MOL
REMARK 924 INTRA-LIGAND FREE ENERGY PREDICTED BY IDOCK:   -0.86 KCAL/MOL
REMARK 927      BINDING AFFINITY PREDICTED BY RF-SCORE:    0.00 PKD
ROOT
HETATM    1  C   UNL     1     -10.242  13.100  66.882  1.00  0.00    -0.245 C  
HETATM    2  C   UNL     1      -9.839  12.478  68.212  1.00  0.00    -0.227 C  
ENDROOT
BRANCH   2   3
HETATM    3  N   UNL     1      -9.353  11.112  68.009  1.00  0.00    -0.161 NA 
HETATM    4  H   UNL     1      -8.940  10.745  68.867  1.00  0.00     0.000 HD 
BRANCH   3   5
HETATM    5  C   UNL     1     -10.377  10.190  67.492  1.00  0.00    -0.230 C  
HETATM    6  C   UNL     1     -10.011   9.506  66.108  1.00  0.00    -0.272 C  
HETATM    7  N   UNL     1      -9.076   8.346  66.184  1.00  0.00    -0.179 N  
HETATM    8  C   UNL     1     -11.284   9.419  69.874  1.00  0.00    -0.180 A  
HETATM    9  S   UNL     1      -9.570   7.039  67.119  1.00  0.00    -0.157 S  
HETATM   10  O   UNL     1     -10.711   6.430  66.467  1.00  0.00    -0.197 OA 
HETATM   11  C   UNL     1     -10.277   7.854  68.514  1.00  0.00    -0.205 A  
HETATM   12  C   UNL     1     -11.310   8.291  70.678  1.00  0.00    -0.244 A  
HETATM   13  O   UNL     1      -8.428   6.288  67.581  1.00  0.00    -0.116 OA 
HETATM   14  S   UNL     1     -10.630   6.934  69.888  1.00  0.00    -0.239 SA 
HETATM   15  C   UNL     1     -10.642   9.183  68.609  1.00  0.00    -0.207 A  
BRANCH   7  16
HETATM   16  C   UNL     1      -7.660   8.515  65.843  1.00  0.00    -0.085 C  
BRANCH  16  17
HETATM   17  C   UNL     1      -6.879   9.286  66.890  1.00  0.00    -0.080 C  
BRANCH  17  18
HETATM   18  C   UNL     1      -6.312  10.577  66.318  1.00  0.00    -0.106 C  
BRANCH  18  19
HETATM   19  O   UNL     1      -6.260  11.544  67.364  1.00  0.00    -0.069 OA 
HETATM   20  C   UNL     1      -5.778  10.977  68.574  1.00  0.00    -0.043 C  
ENDBRANCH  18  19
ENDBRANCH  17  18
ENDBRANCH  16  17
ENDBRANCH   7  16
BRANCH  12  21
HETATM   21  S   UNL     1     -11.922   7.992  72.321  1.00  0.00    -0.352 S  
HETATM   22  O   UNL     1     -10.757   7.728  73.130  1.00  0.00    -0.378 OA 
HETATM   23  O   UNL     1     -12.834   9.082  72.569  1.00  0.00    -0.404 OA 
HETATM   24  N   UNL     1     -12.836   6.587  72.256  1.00  0.00    -0.544 N  
HETATM   25  H1  UNL     1     -13.187   6.416  73.199  1.00  0.00     0.000 HD 
HETATM   26  H2  UNL     1     -13.009   6.013  71.431  1.00  0.00     0.000 HD 
ENDBRANCH  12  21
ENDBRANCH   3   5
ENDBRANCH   2   3
TORSDOF 7
ENDMDL
MODEL      106
REMARK 921   NORMALIZED FREE ENERGY PREDICTED BY IDOCK:   -3.57 KCAL/MOL
REMARK 922        TOTAL FREE ENERGY PREDICTED BY IDOCK:   -5.76 KCAL/MOL
REMARK 923 INTER-LIGAND FREE ENERGY PREDICTED BY IDOCK:   -5.47 KCAL/MOL
REMARK 924 INTRA-LIGAND FREE ENERGY PREDICTED BY IDOCK:   -0.29 KCAL/MOL
REMARK 927      BINDING AFFINITY PREDICTED BY RF-SCORE:    0.00 PKD
ROOT
HETATM    1  C   UNL     1     -12.403   8.756  71.506  1.00  0.00    -0.380 C  
HETATM    2  C   UNL     1     -11.498   9.287  70.403  1.00  0.00    -0.213 C  
ENDROOT
BRANCH   2   3
HETATM    3  N   UNL     1     -10.236   9.769  70.969  1.00  0.00    -0.315 NA 
HETATM    4  H   UNL     1     -10.022   9.280  71.838  1.00  0.00     0.000 HD 
BRANCH   3   5
HETATM    5  C   UNL     1      -9.101   9.692  70.036  1.00  0.00    -0.237 C  
HETATM    6  C   UNL     1      -8.432   8.257  69.927  1.00  0.00    -0.127 C  
HETATM    7  N   UNL     1      -9.145   7.272  69.064  1.00  0.00    -0.134 N  
HETATM    8  C   UNL     1      -9.988  11.566  68.365  1.00  0.00    -0.206 A  
HETATM    9  S   UNL     1      -9.360   7.697  67.452  1.00  0.00    -0.145 S  
HETATM   10  O   UNL     1      -8.057   7.725  66.820  1.00  0.00    -0.111 OA 
HETATM   11  C   UNL     1      -9.787   9.403  67.595  1.00  0.00    -0.174 A  
HETATM   12  C   UNL     1     -10.470  11.683  67.071  1.00  0.00    -0.224 A  
HETATM   13  O   UNL     1     -10.497   7.006  66.894  1.00  0.00    -0.269 OA 
HETATM   14  S   UNL     1     -10.411  10.192  66.236  1.00  0.00    -0.132 SA 
HETATM   15  C   UNL     1      -9.617  10.218  68.698  1.00  0.00    -0.169 A  
BRANCH   7  16
HETATM   16  C   UNL     1      -9.979   6.227  69.667  1.00  0.00    -0.165 C  
BRANCH  16  17
HETATM   17  C   UNL     1      -9.465   5.754  71.014  1.00  0.00    -0.195 C  
BRANCH  17  18
HETATM   18  C   UNL     1      -9.988   4.365  71.348  1.00  0.00    -0.178 C  
BRANCH  18  19
HETATM   19  O   UNL     1     -10.779   4.457  72.531  1.00  0.00    -0.173 OA 
HETATM   20  C   UNL     1     -10.512   5.656  73.244  1.00  0.00    -0.231 C  
ENDBRANCH  18  19
ENDBRANCH  17  18
ENDBRANCH  16  17
ENDBRANCH   7  16
BRANCH  12  21
HETATM   21  S   UNL     1     -11.099  13.059  66.137  1.00  0.00    -0.294 S  
HETATM   22  O   UNL     1     -12.443  12.695  65.760  1.00  0.00    -0.607 OA 
HETATM   23  O   UNL     1     -10.782  14.215  66.940  1.00  0.00    -0.282 OA 
HETATM   24  N   UNL     1     -10.180  13.163  64.737  1.00  0.00    -0.511 N  
HETATM   25  H1  UNL     1     -10.541  13.953  64.201  1.00  0.00     0.000 HD 
HETATM   26  H2  UNL     1      -9.407  12.553  64.472  1.00  0.00     0.000 HD 
ENDBRANCH  12  21
ENDBRANCH   3   5
ENDBRANCH   2   3
TORSDOF 7
ENDMDL
MODEL      107
REMARK 921   NORMALIZED FREE ENERGY PREDICTED BY IDOCK:   -3.55 KCAL/MOL
REMARK 922        TOTAL FREE ENERGY PREDICTED BY IDOCK:   -5.73 KCAL/MOL
REMARK 923 INTER-LIGAND FREE ENERGY PREDICTED BY IDOCK:   -5.42 KCAL/MOL
REMARK 924 INTRA-LIGAND FREE ENERGY PREDICTED BY IDOCK:   -0.30 KCAL/MOL
REMARK 927      BINDING AFFINITY PREDICTED BY RF-SCORE:    0.00 PKD
ROOT
HETATM    1  C   UNL     1     -10.568   5.726  68.879  1.00  0.00    -0.337 C  
HETATM    2  C   UNL     1     -10.882   7.195  68.630  1.00  0.00    -0.108 C  
ENDROOT
BRANCH   2   3
HETATM    3  N   UNL     1     -11.532   7.782  69.803  1.00  0.00    -0.444 NA 
HETATM    4  H   UNL     1     -11.585   7.103  70.563  1.00  0.00     0.000 HD 
BRANCH   3   5
HETATM    5  C   UNL     1     -10.906   9.030  70.266  1.00  0.00    -0.238 C  
HETATM    6  C   UNL     1      -9.770   8.835  71.356  1.00  0.00    -0.280 C  
HETATM    7  N   UNL     1      -8.436   8.415  70.838  1.00  0.00    -0.129 N  
HETATM    8  C   UNL     1     -11.207  10.356  67.976  1.00  0.00    -0.340 A  
HETATM    9  S   UNL     1      -7.702   9.440  69.727  1.00  0.00    -0.127 S  
HETATM   10  O   UNL     1      -7.356  10.668  70.413  1.00  0.00    -0.140 OA 
HETATM   11  C   UNL     1      -9.073   9.902  68.718  1.00  0.00    -0.147 A  
HETATM   12  C   UNL     1     -10.437  10.871  66.946  1.00  0.00    -0.249 A  
HETATM   13  O   UNL     1      -6.774   8.707  68.899  1.00  0.00    -0.052 OA 
HETATM   14  S   UNL     1      -8.764  10.688  67.253  1.00  0.00    -0.129 SA 
HETATM   15  C   UNL     1     -10.415   9.747  69.010  1.00  0.00    -0.229 A  
BRANCH   7  16
HETATM   16  C   UNL     1      -8.009   7.017  70.945  1.00  0.00    -0.097 C  
BRANCH  16  17
HETATM   17  C   UNL     1      -8.032   6.489  72.367  1.00  0.00    -0.101 C  
BRANCH  17  18
HETATM   18  C   UNL     1      -8.788   5.172  72.457  1.00  0.00    -0.127 C  
BRANCH  18  19
HETATM   19  O   UNL     1     -10.119   5.389  71.993  1.00  0.00    -0.178 OA 
HETATM   20  C   UNL     1     -11.008   5.658  73.068  1.00  0.00    -0.284 C  
ENDBRANCH  18  19
ENDBRANCH  17  18
ENDBRANCH  16  17
ENDBRANCH   7  16
BRANCH  12  21
HETATM   21  S   UNL     1     -10.850  11.685  65.419  1.00  0.00    -0.257 S  
HETATM   22  O   UNL     1     -10.526  10.745  64.374  1.00  0.00    -0.365 OA 
HETATM   23  O   UNL     1     -12.177  12.208  65.637  1.00  0.00    -0.571 OA 
HETATM   24  N   UNL     1      -9.819  13.000  65.270  1.00  0.00    -0.493 N  
HETATM   25  H1  UNL     1     -10.056  13.467  64.394  1.00  0.00     0.000 HD 
HETATM   26  H2  UNL     1      -9.093  13.281  65.929  1.00  0.00     0.000 HD 
ENDBRANCH  12  21
ENDBRANCH   3   5
ENDBRANCH   2   3
TORSDOF 7
ENDMDL
MODEL      108
REMARK 921   NORMALIZED FREE ENERGY PREDICTED BY IDOCK:   -3.54 KCAL/MOL
REMARK 922        TOTAL FREE ENERGY PREDICTED BY IDOCK:   -5.73 KCAL/MOL
REMARK 923 INTER-LIGAND FREE ENERGY PREDICTED BY IDOCK:   -4.76 KCAL/MOL
REMARK 924 INTRA-LIGAND FREE ENERGY PREDICTED BY IDOCK:   -0.96 KCAL/MOL
REMARK 927      BINDING AFFINITY PREDICTED BY RF-SCORE:    0.00 PKD
ROOT
HETATM    1  C   UNL     1     -11.217   3.619  73.389  1.00  0.00    -0.264 C  
HETATM    2  C   UNL     1      -9.790   4.143  73.481  1.00  0.00    -0.118 C  
ENDROOT
BRANCH   2   3
HETATM    3  N   UNL     1      -9.527   5.096  72.400  1.00  0.00    -0.143 NA 
HETATM    4  H   UNL     1     -10.375   5.268  71.858  1.00  0.00     0.000 HD 
BRANCH   3   5
HETATM    5  C   UNL     1      -8.938   6.363  72.857  1.00  0.00    -0.130 C  
HETATM    6  C   UNL     1      -7.422   6.576  72.440  1.00  0.00    -0.094 C  
HETATM    7  N   UNL     1      -7.191   7.031  71.040  1.00  0.00    -0.074 N  
HETATM    8  C   UNL     1     -11.201   7.765  72.777  1.00  0.00    -0.456 A  
HETATM    9  S   UNL     1      -7.899   8.489  70.593  1.00  0.00    -0.102 S  
HETATM   10  O   UNL     1      -7.249   9.548  71.337  1.00  0.00    -0.330 OA 
HETATM   11  C   UNL     1      -9.482   8.357  71.359  1.00  0.00    -0.192 A  
HETATM   12  C   UNL     1     -11.774   8.803  72.060  1.00  0.00    -0.372 A  
HETATM   13  O   UNL     1      -8.105   8.535  69.165  1.00  0.00    -0.113 OA 
HETATM   14  S   UNL     1     -10.682   9.465  70.921  1.00  0.00    -0.348 SA 
HETATM   15  C   UNL     1      -9.862   7.467  72.347  1.00  0.00    -0.219 A  
BRANCH   7  16
HETATM   16  C   UNL     1      -6.762   6.076  70.013  1.00  0.00    -0.052 C  
BRANCH  16  17
HETATM   17  C   UNL     1      -7.867   5.136  69.570  1.00  0.00    -0.076 C  
BRANCH  17  18
HETATM   18  C   UNL     1      -7.416   3.684  69.630  1.00  0.00    -0.051 C  
BRANCH  18  19
HETATM   19  O   UNL     1      -7.760   3.161  70.911  1.00  0.00    -0.043 OA 
HETATM   20  C   UNL     1      -6.615   3.019  71.740  1.00  0.00    -0.018 C  
ENDBRANCH  18  19
ENDBRANCH  17  18
ENDBRANCH  16  17
ENDBRANCH   7  16
BRANCH  12  21
HETATM   21  S   UNL     1     -13.378   9.569  72.116  1.00  0.00    -0.443 S  
HETATM   22  O   UNL     1     -14.048   8.992  73.256  1.00  0.00    -0.261 OA 
HETATM   23  O   UNL     1     -13.109  10.980  71.979  1.00  0.00    -0.496 OA 
HETATM   24  N   UNL     1     -14.200   9.086  70.735  1.00  0.00    -0.368 N  
HETATM   25  H1  UNL     1     -15.121   9.525  70.767  1.00  0.00     0.000 HD 
HETATM   26  H2  UNL     1     -13.847   8.471  70.002  1.00  0.00     0.000 HD 
ENDBRANCH  12  21
ENDBRANCH   3   5
ENDBRANCH   2   3
TORSDOF 7
ENDMDL
MODEL      109
REMARK 921   NORMALIZED FREE ENERGY PREDICTED BY IDOCK:   -3.53 KCAL/MOL
REMARK 922        TOTAL FREE ENERGY PREDICTED BY IDOCK:   -5.71 KCAL/MOL
REMARK 923 INTER-LIGAND FREE ENERGY PREDICTED BY IDOCK:   -5.09 KCAL/MOL
REMARK 924 INTRA-LIGAND FREE ENERGY PREDICTED BY IDOCK:   -0.62 KCAL/MOL
REMARK 927      BINDING AFFINITY PREDICTED BY RF-SCORE:    0.00 PKD
ROOT
HETATM    1  C   UNL     1      -5.897   9.306  68.816  1.00  0.00    -0.040 C  
HETATM    2  C   UNL     1      -7.403   9.316  69.037  1.00  0.00    -0.072 C  
ENDROOT
BRANCH   2   3
HETATM    3  N   UNL     1      -7.986  10.552  68.510  1.00  0.00    -0.111 NA 
HETATM    4  H   UNL     1      -7.358  10.985  67.832  1.00  0.00     0.000 HD 
BRANCH   3   5
HETATM    5  C   UNL     1      -9.328  10.375  67.934  1.00  0.00    -0.138 C  
HETATM    6  C   UNL     1     -10.275   9.398  68.752  1.00  0.00    -0.203 C  
HETATM    7  N   UNL     1     -10.924   9.983  69.960  1.00  0.00    -0.278 N  
HETATM    8  C   UNL     1      -9.491  12.806  66.859  1.00  0.00    -0.235 A  
HETATM    9  S   UNL     1     -11.908  11.324  69.714  1.00  0.00    -0.392 S  
HETATM   10  O   UNL     1     -13.068  10.893  68.960  1.00  0.00     0.431 OA 
HETATM   11  C   UNL     1     -10.966  12.238  68.537  1.00  0.00    -0.240 A  
HETATM   12  C   UNL     1     -10.200  13.985  67.020  1.00  0.00    -0.261 A  
HETATM   13  O   UNL     1     -11.995  12.115  70.918  1.00  0.00    -0.213 OA 
HETATM   14  S   UNL     1     -11.411  13.838  68.219  1.00  0.00    -0.306 SA 
HETATM   15  C   UNL     1      -9.908  11.779  67.775  1.00  0.00    -0.186 A  
BRANCH   7  16
HETATM   16  C   UNL     1     -10.394   9.694  71.297  1.00  0.00    -0.084 C  
BRANCH  16  17
HETATM   17  C   UNL     1     -10.491   8.228  71.675  1.00  0.00    -0.303 C  
BRANCH  17  18
HETATM   18  C   UNL     1     -11.734   7.952  72.509  1.00  0.00    -0.367 C  
BRANCH  18  19
HETATM   19  O   UNL     1     -12.878   8.305  71.734  1.00  0.00    -0.319 OA 
HETATM   20  C   UNL     1     -13.759   9.150  72.462  1.00  0.00    -0.435 C  
ENDBRANCH  18  19
ENDBRANCH  17  18
ENDBRANCH  16  17
ENDBRANCH   7  16
BRANCH  12  21
HETATM   21  S   UNL     1     -10.103  15.571  66.221  1.00  0.00    -0.318 S  
HETATM   22  O   UNL     1     -10.543  15.353  64.864  1.00  0.00    -0.416 OA 
HETATM   23  O   UNL     1     -10.757  16.476  67.135  1.00  0.00    -0.303 OA 
HETATM   24  N   UNL     1      -8.482  16.000  66.176  1.00  0.00    -0.298 N  
HETATM   25  H1  UNL     1      -8.426  16.910  65.718  1.00  0.00     0.000 HD 
HETATM   26  H2  UNL     1      -7.699  15.455  66.539  1.00  0.00     0.000 HD 
ENDBRANCH  12  21
ENDBRANCH   3   5
ENDBRANCH   2   3
TORSDOF 7
ENDMDL
MODEL      110
REMARK 921   NORMALIZED FREE ENERGY PREDICTED BY IDOCK:   -3.51 KCAL/MOL
REMARK 922        TOTAL FREE ENERGY PREDICTED BY IDOCK:   -5.68 KCAL/MOL
REMARK 923 INTER-LIGAND FREE ENERGY PREDICTED BY IDOCK:   -5.36 KCAL/MOL
REMARK 924 INTRA-LIGAND FREE ENERGY PREDICTED BY IDOCK:   -0.32 KCAL/MOL
REMARK 927      BINDING AFFINITY PREDICTED BY RF-SCORE:    0.00 PKD
ROOT
HETATM    1  C   UNL     1     -11.866  12.027  67.656  1.00  0.00    -0.294 C  
HETATM    2  C   UNL     1     -11.053  12.362  66.413  1.00  0.00    -0.301 C  
ENDROOT
BRANCH   2   3
HETATM    3  N   UNL     1     -10.611  13.757  66.454  1.00  0.00    -0.281 NA 
HETATM    4  H   UNL     1     -11.336  14.375  66.090  1.00  0.00     0.000 HD 
BRANCH   3   5
HETATM    5  C   UNL     1     -10.172  14.200  67.787  1.00  0.00    -0.242 C  
HETATM    6  C   UNL     1      -9.112  13.246  68.484  1.00  0.00    -0.064 C  
HETATM    7  N   UNL     1      -7.702  13.396  68.025  1.00  0.00    -0.131 N  
HETATM    8  C   UNL     1     -10.441  16.806  67.315  1.00  0.00    -0.310 A  
HETATM    9  S   UNL     1      -7.004  14.914  68.211  1.00  0.00    -0.130 S  
HETATM   10  O   UNL     1      -6.860  15.168  69.630  1.00  0.00    -0.163 OA 
HETATM   11  C   UNL     1      -8.334  15.970  67.735  1.00  0.00    -0.150 A  
HETATM   12  C   UNL     1      -9.655  17.938  67.168  1.00  0.00    -0.280 A  
HETATM   13  O   UNL     1      -5.935  15.099  67.260  1.00  0.00    -0.325 OA 
HETATM   14  S   UNL     1      -8.003  17.605  67.456  1.00  0.00    -0.205 SA 
HETATM   15  C   UNL     1      -9.669  15.631  67.612  1.00  0.00    -0.225 A  
BRANCH   7  16
HETATM   16  C   UNL     1      -7.125  12.431  67.083  1.00  0.00    -0.077 C  
BRANCH  16  17
HETATM   17  C   UNL     1      -7.525  10.997  67.375  1.00  0.00    -0.106 C  
BRANCH  17  18
HETATM   18  C   UNL     1      -6.755  10.438  68.562  1.00  0.00    -0.056 C  
BRANCH  18  19
HETATM   19  O   UNL     1      -7.356   9.202  68.943  1.00  0.00    -0.072 OA 
HETATM   20  C   UNL     1      -8.763   9.225  68.745  1.00  0.00    -0.132 C  
ENDBRANCH  18  19
ENDBRANCH  17  18
ENDBRANCH  16  17
ENDBRANCH   7  16
BRANCH  12  21
HETATM   21  S   UNL     1     -10.036  19.629  66.769  1.00  0.00    -0.465 S  
HETATM   22  O   UNL     1     -10.841  19.578  65.574  1.00  0.00    -0.439 OA 
HETATM   23  O   UNL     1     -10.493  20.199  68.014  1.00  0.00    -0.360 OA 
HETATM   24  N   UNL     1      -8.586  20.381  66.385  1.00  0.00    -0.551 N  
HETATM   25  H1  UNL     1      -8.805  21.351  66.156  1.00  0.00     0.000 HD 
HETATM   26  H2  UNL     1      -7.662  19.951  66.380  1.00  0.00     0.000 HD 
ENDBRANCH  12  21
ENDBRANCH   3   5
ENDBRANCH   2   3
TORSDOF 7
ENDMDL
MODEL      111
REMARK 921   NORMALIZED FREE ENERGY PREDICTED BY IDOCK:   -3.50 KCAL/MOL
REMARK 922        TOTAL FREE ENERGY PREDICTED BY IDOCK:   -5.67 KCAL/MOL
REMARK 923 INTER-LIGAND FREE ENERGY PREDICTED BY IDOCK:   -5.70 KCAL/MOL
REMARK 924 INTRA-LIGAND FREE ENERGY PREDICTED BY IDOCK:    0.03 KCAL/MOL
REMARK 927      BINDING AFFINITY PREDICTED BY RF-SCORE:    0.00 PKD
ROOT
HETATM    1  C   UNL     1     -10.542   5.255  70.317  1.00  0.00    -0.288 C  
HETATM    2  C   UNL     1     -11.483   6.437  70.508  1.00  0.00    -0.379 C  
ENDROOT
BRANCH   2   3
HETATM    3  N   UNL     1     -11.927   6.514  71.901  1.00  0.00    -0.335 NA 
HETATM    4  H   UNL     1     -11.803   5.615  72.369  1.00  0.00     0.000 HD 
BRANCH   3   5
HETATM    5  C   UNL     1     -11.283   7.591  72.670  1.00  0.00    -0.348 C  
HETATM    6  C   UNL     1     -10.291   7.092  73.803  1.00  0.00    -0.369 C  
HETATM    7  N   UNL     1      -8.935   6.676  73.343  1.00  0.00    -0.123 N  
HETATM    8  C   UNL     1     -11.246   9.363  70.683  1.00  0.00    -0.345 A  
HETATM    9  S   UNL     1      -8.020   7.838  72.544  1.00  0.00    -0.123 S  
HETATM   10  O   UNL     1      -7.682   8.874  73.498  1.00  0.00    -0.382 OA 
HETATM   11  C   UNL     1      -9.239   8.600  71.522  1.00  0.00    -0.246 A  
HETATM   12  C   UNL     1     -10.335  10.008  69.862  1.00  0.00    -0.272 A  
HETATM   13  O   UNL     1      -7.051   7.211  71.678  1.00  0.00    -0.067 OA 
HETATM   14  S   UNL     1      -8.721   9.633  70.287  1.00  0.00    -0.149 SA 
HETATM   15  C   UNL     1     -10.612   8.500  71.642  1.00  0.00    -0.353 A  
BRANCH   7  16
HETATM   16  C   UNL     1      -8.606   5.254  73.201  1.00  0.00    -0.117 C  
BRANCH  16  17
HETATM   17  C   UNL     1      -9.513   4.346  74.009  1.00  0.00    -0.124 C  
BRANCH  17  18
HETATM   18  C   UNL     1      -8.937   2.941  74.115  1.00  0.00    -0.078 C  
BRANCH  18  19
HETATM   19  O   UNL     1     -10.008   2.009  73.986  1.00  0.00    -0.086 OA 
HETATM   20  C   UNL     1     -11.201   2.643  73.546  1.00  0.00    -0.202 C  
ENDBRANCH  18  19
ENDBRANCH  17  18
ENDBRANCH  16  17
ENDBRANCH   7  16
BRANCH  12  21
HETATM   21  S   UNL     1     -10.525  11.139  68.501  1.00  0.00    -0.201 S  
HETATM   22  O   UNL     1      -9.716  10.605  67.433  1.00  0.00    -0.164 OA 
HETATM   23  O   UNL     1     -11.949  11.342  68.397  1.00  0.00    -0.555 OA 
HETATM   24  N   UNL     1      -9.851  12.599  68.980  1.00  0.00    -0.393 N  
HETATM   25  H1  UNL     1      -9.959  13.247  68.200  1.00  0.00     0.000 HD 
HETATM   26  H2  UNL     1      -9.415  12.801  69.880  1.00  0.00     0.000 HD 
ENDBRANCH  12  21
ENDBRANCH   3   5
ENDBRANCH   2   3
TORSDOF 7
ENDMDL
MODEL      112
REMARK 921   NORMALIZED FREE ENERGY PREDICTED BY IDOCK:   -3.47 KCAL/MOL
REMARK 922        TOTAL FREE ENERGY PREDICTED BY IDOCK:   -5.62 KCAL/MOL
REMARK 923 INTER-LIGAND FREE ENERGY PREDICTED BY IDOCK:   -5.32 KCAL/MOL
REMARK 924 INTRA-LIGAND FREE ENERGY PREDICTED BY IDOCK:   -0.30 KCAL/MOL
REMARK 927      BINDING AFFINITY PREDICTED BY RF-SCORE:    0.00 PKD
ROOT
HETATM    1  C   UNL     1     -12.659  11.469  70.889  1.00  0.00    -0.438 C  
HETATM    2  C   UNL     1     -11.554  11.027  69.939  1.00  0.00    -0.337 C  
ENDROOT
BRANCH   2   3
HETATM    3  N   UNL     1     -12.119  10.652  68.641  1.00  0.00    -0.812 NA 
HETATM    4  H   UNL     1     -12.536  11.463  68.182  1.00  0.00     0.000 HD 
BRANCH   3   5
HETATM    5  C   UNL     1     -11.159   9.987  67.746  1.00  0.00    -0.180 C  
HETATM    6  C   UNL     1     -10.272  10.975  66.877  1.00  0.00    -0.222 C  
HETATM    7  N   UNL     1      -9.113  11.596  67.579  1.00  0.00    -0.168 N  
HETATM    8  C   UNL     1     -10.764   7.860  69.299  1.00  0.00    -0.145 A  
HETATM    9  S   UNL     1      -7.967  10.545  68.220  1.00  0.00    -0.118 S  
HETATM   10  O   UNL     1      -7.300   9.886  67.116  1.00  0.00    -0.090 OA 
HETATM   11  C   UNL     1      -8.993   9.280  68.897  1.00  0.00    -0.136 A  
HETATM   12  C   UNL     1      -9.765   7.288  70.070  1.00  0.00    -0.175 A  
HETATM   13  O   UNL     1      -7.262  11.170  69.312  1.00  0.00    -0.115 OA 
HETATM   14  S   UNL     1      -8.292   8.147  69.937  1.00  0.00    -0.125 SA 
HETATM   15  C   UNL     1     -10.332   9.058  68.632  1.00  0.00    -0.233 A  
BRANCH   7  16
HETATM   16  C   UNL     1      -9.194  12.978  68.060  1.00  0.00    -0.212 C  
BRANCH  16  17
HETATM   17  C   UNL     1     -10.406  13.725  67.536  1.00  0.00    -0.241 C  
BRANCH  17  18
HETATM   18  C   UNL     1     -10.741  14.922  68.414  1.00  0.00    -0.245 C  
BRANCH  18  19
HETATM   19  O   UNL     1      -9.698  15.884  68.275  1.00  0.00    -0.206 OA 
HETATM   20  C   UNL     1     -10.209  17.156  67.902  1.00  0.00    -0.330 C  
ENDBRANCH  18  19
ENDBRANCH  17  18
ENDBRANCH  16  17
ENDBRANCH   7  16
BRANCH  12  21
HETATM   21  S   UNL     1      -9.723   5.856  71.124  1.00  0.00    -0.177 S  
HETATM   22  O   UNL     1     -10.043   4.735  70.275  1.00  0.00    -0.239 OA 
HETATM   23  O   UNL     1      -8.481   5.977  71.848  1.00  0.00    -0.130 OA 
HETATM   24  N   UNL     1     -10.965   6.031  72.239  1.00  0.00    -0.250 N  
HETATM   25  H1  UNL     1     -10.941   5.210  72.844  1.00  0.00     0.000 HD 
HETATM   26  H2  UNL     1     -11.619   6.811  72.301  1.00  0.00     0.000 HD 
ENDBRANCH  12  21
ENDBRANCH   3   5
ENDBRANCH   2   3
TORSDOF 7
ENDMDL
MODEL      113
REMARK 921   NORMALIZED FREE ENERGY PREDICTED BY IDOCK:   -3.46 KCAL/MOL
REMARK 922        TOTAL FREE ENERGY PREDICTED BY IDOCK:   -5.61 KCAL/MOL
REMARK 923 INTER-LIGAND FREE ENERGY PREDICTED BY IDOCK:   -5.00 KCAL/MOL
REMARK 924 INTRA-LIGAND FREE ENERGY PREDICTED BY IDOCK:   -0.61 KCAL/MOL
REMARK 927      BINDING AFFINITY PREDICTED BY RF-SCORE:    0.00 PKD
ROOT
HETATM    1  C   UNL     1     -12.488  14.213  70.437  1.00  0.00    -0.424 C  
HETATM    2  C   UNL     1     -11.841  14.311  69.062  1.00  0.00    -0.335 C  
ENDROOT
BRANCH   2   3
HETATM    3  N   UNL     1     -10.386  14.192  69.174  1.00  0.00    -0.409 NA 
HETATM    4  H   UNL     1     -10.134  13.604  69.970  1.00  0.00     0.000 HD 
BRANCH   3   5
HETATM    5  C   UNL     1      -9.735  13.710  67.947  1.00  0.00    -0.234 C  
HETATM    6  C   UNL     1      -8.463  14.548  67.501  1.00  0.00    -0.190 C  
HETATM    7  N   UNL     1      -7.198  14.248  68.231  1.00  0.00    -0.105 N  
HETATM    8  C   UNL     1     -10.361  11.145  68.289  1.00  0.00    -0.198 A  
HETATM    9  S   UNL     1      -6.638  12.664  68.151  1.00  0.00    -0.095 S  
HETATM   10  O   UNL     1      -6.235  12.402  66.784  1.00  0.00    -0.178 OA 
HETATM   11  C   UNL     1      -8.138  11.754  68.322  1.00  0.00    -0.154 A  
HETATM   12  C   UNL     1      -9.743   9.935  68.563  1.00  0.00    -0.154 A  
HETATM   13  O   UNL     1      -5.808  12.363  69.293  1.00  0.00    -0.073 OA 
HETATM   14  S   UNL     1      -8.041  10.093  68.621  1.00  0.00    -0.116 SA 
HETATM   15  C   UNL     1      -9.428  12.233  68.183  1.00  0.00    -0.213 A  
BRANCH   7  16
HETATM   16  C   UNL     1      -6.727  15.142  69.293  1.00  0.00    -0.146 C  
BRANCH  16  17
HETATM   17  C   UNL     1      -7.336  16.530  69.222  1.00  0.00    -0.201 C  
BRANCH  17  18
HETATM   18  C   UNL     1      -6.373  17.525  68.591  1.00  0.00    -0.186 C  
BRANCH  18  19
HETATM   19  O   UNL     1      -6.679  18.823  69.094  1.00  0.00    -0.276 OA 
HETATM   20  C   UNL     1      -8.004  19.213  68.760  1.00  0.00    -0.347 C  
ENDBRANCH  18  19
ENDBRANCH  17  18
ENDBRANCH  16  17
ENDBRANCH   7  16
BRANCH  12  21
HETATM   21  S   UNL     1     -10.369   8.292  68.834  1.00  0.00    -0.195 S  
HETATM   22  O   UNL     1     -10.907   7.864  67.566  1.00  0.00    -0.205 OA 
HETATM   23  O   UNL     1      -9.300   7.607  69.518  1.00  0.00    -0.153 OA 
HETATM   24  N   UNL     1     -11.643   8.426  69.918  1.00  0.00    -0.416 N  
HETATM   25  H1  UNL     1     -12.003   7.484  70.073  1.00  0.00     0.000 HD 
HETATM   26  H2  UNL     1     -11.993   9.286  70.341  1.00  0.00     0.000 HD 
ENDBRANCH  12  21
ENDBRANCH   3   5
ENDBRANCH   2   3
TORSDOF 7
ENDMDL
MODEL      114
REMARK 921   NORMALIZED FREE ENERGY PREDICTED BY IDOCK:   -3.44 KCAL/MOL
REMARK 922        TOTAL FREE ENERGY PREDICTED BY IDOCK:   -5.58 KCAL/MOL
REMARK 923 INTER-LIGAND FREE ENERGY PREDICTED BY IDOCK:   -4.99 KCAL/MOL
REMARK 924 INTRA-LIGAND FREE ENERGY PREDICTED BY IDOCK:   -0.59 KCAL/MOL
REMARK 927      BINDING AFFINITY PREDICTED BY RF-SCORE:    0.00 PKD
ROOT
HETATM    1  C   UNL     1     -10.027   9.458  66.309  1.00  0.00    -0.353 C  
HETATM    2  C   UNL     1     -10.680   8.187  66.835  1.00  0.00    -0.116 C  
ENDROOT
BRANCH   2   3
HETATM    3  N   UNL     1      -9.881   7.016  66.470  1.00  0.00    -0.361 NA 
HETATM    4  H   UNL     1      -8.963   7.053  66.915  1.00  0.00     0.000 HD 
BRANCH   3   5
HETATM    5  C   UNL     1     -10.543   5.734  66.756  1.00  0.00    -0.306 C  
HETATM    6  C   UNL     1      -9.927   4.486  65.992  1.00  0.00    -0.248 C  
HETATM    7  N   UNL     1      -8.681   3.916  66.580  1.00  0.00    -0.111 N  
HETATM    8  C   UNL     1     -11.257   6.341  69.248  1.00  0.00    -0.458 A  
HETATM    9  S   UNL     1      -8.777   3.363  68.164  1.00  0.00    -0.119 S  
HETATM   10  O   UNL     1      -9.644   2.203  68.180  1.00  0.00    -0.212 OA 
HETATM   11  C   UNL     1      -9.758   4.622  68.915  1.00  0.00    -0.166 A  
HETATM   12  C   UNL     1     -10.961   5.971  70.550  1.00  0.00    -0.319 A  
HETATM   13  O   UNL     1      -7.477   3.388  68.789  1.00  0.00    -0.050 OA 
HETATM   14  S   UNL     1      -9.860   4.663  70.602  1.00  0.00    -0.225 SA 
HETATM   15  C   UNL     1     -10.525   5.578  68.275  1.00  0.00    -0.225 A  
BRANCH   7  16
HETATM   16  C   UNL     1      -7.376   4.224  65.985  1.00  0.00    -0.080 C  
BRANCH  16  17
HETATM   17  C   UNL     1      -7.098   5.711  65.885  1.00  0.00    -0.067 C  
BRANCH  17  18
HETATM   18  C   UNL     1      -6.346   6.218  67.107  1.00  0.00    -0.037 C  
BRANCH  18  19
HETATM   19  O   UNL     1      -7.232   7.034  67.870  1.00  0.00    -0.086 OA 
HETATM   20  C   UNL     1      -6.587   8.214  68.330  1.00  0.00    -0.060 C  
ENDBRANCH  18  19
ENDBRANCH  17  18
ENDBRANCH  16  17
ENDBRANCH   7  16
BRANCH  12  21
HETATM   21  S   UNL     1     -11.513   6.570  72.131  1.00  0.00    -0.302 S  
HETATM   22  O   UNL     1     -11.320   5.477  73.053  1.00  0.00    -0.294 OA 
HETATM   23  O   UNL     1     -10.873   7.855  72.274  1.00  0.00    -0.249 OA 
HETATM   24  N   UNL     1     -13.162   6.851  72.000  1.00  0.00    -0.547 N  
HETATM   25  H1  UNL     1     -13.479   7.195  72.908  1.00  0.00     0.000 HD 
HETATM   26  H2  UNL     1     -13.739   6.706  71.172  1.00  0.00     0.000 HD 
ENDBRANCH  12  21
ENDBRANCH   3   5
ENDBRANCH   2   3
TORSDOF 7
ENDMDL
MODEL      115
REMARK 921   NORMALIZED FREE ENERGY PREDICTED BY IDOCK:   -3.44 KCAL/MOL
REMARK 922        TOTAL FREE ENERGY PREDICTED BY IDOCK:   -5.58 KCAL/MOL
REMARK 923 INTER-LIGAND FREE ENERGY PREDICTED BY IDOCK:   -5.24 KCAL/MOL
REMARK 924 INTRA-LIGAND FREE ENERGY PREDICTED BY IDOCK:   -0.33 KCAL/MOL
REMARK 927      BINDING AFFINITY PREDICTED BY RF-SCORE:    0.00 PKD
ROOT
HETATM    1  C   UNL     1     -10.420   5.476  70.789  1.00  0.00    -0.330 C  
HETATM    2  C   UNL     1     -10.203   5.626  69.289  1.00  0.00    -0.239 C  
ENDROOT
BRANCH   2   3
HETATM    3  N   UNL     1     -11.318   6.357  68.684  1.00  0.00    -0.559 NA 
HETATM    4  H   UNL     1     -11.737   6.997  69.359  1.00  0.00     0.000 HD 
BRANCH   3   5
HETATM    5  C   UNL     1     -10.958   7.069  67.448  1.00  0.00    -0.266 C  
HETATM    6  C   UNL     1     -10.302   8.496  67.674  1.00  0.00    -0.253 C  
HETATM    7  N   UNL     1      -8.855   8.495  68.036  1.00  0.00    -0.141 N  
HETATM    8  C   UNL     1     -10.441   4.886  66.012  1.00  0.00    -0.327 A  
HETATM    9  S   UNL     1      -7.802   7.779  66.938  1.00  0.00    -0.109 S  
HETATM   10  O   UNL     1      -7.786   8.593  65.740  1.00  0.00    -0.094 OA 
HETATM   11  C   UNL     1      -8.719   6.352  66.456  1.00  0.00    -0.133 A  
HETATM   12  C   UNL     1      -9.365   4.239  65.426  1.00  0.00    -0.164 A  
HETATM   13  O   UNL     1      -6.605   7.328  67.606  1.00  0.00    -0.052 OA 
HETATM   14  S   UNL     1      -7.920   5.140  65.588  1.00  0.00    -0.111 SA 
HETATM   15  C   UNL     1     -10.066   6.116  66.656  1.00  0.00    -0.218 A  
BRANCH   7  16
HETATM   16  C   UNL     1      -8.442   8.697  69.428  1.00  0.00    -0.126 C  
BRANCH  16  17
HETATM   17  C   UNL     1      -9.378   9.603  70.206  1.00  0.00    -0.292 C  
BRANCH  17  18
HETATM   18  C   UNL     1      -9.958   8.889  71.418  1.00  0.00    -0.308 C  
BRANCH  18  19
HETATM   19  O   UNL     1     -11.190   9.519  71.761  1.00  0.00    -0.363 OA 
HETATM   20  C   UNL     1     -12.115   8.591  72.309  1.00  0.00    -0.387 C  
ENDBRANCH  18  19
ENDBRANCH  17  18
ENDBRANCH  16  17
ENDBRANCH   7  16
BRANCH  12  21
HETATM   21  S   UNL     1      -9.215   2.702  64.544  1.00  0.00    -0.136 S  
HETATM   22  O   UNL     1      -8.298   2.960  63.461  1.00  0.00    -0.084 OA 
HETATM   23  O   UNL     1      -8.977   1.718  65.573  1.00  0.00    -0.123 OA 
HETATM   24  N   UNL     1     -10.719   2.369  63.880  1.00  0.00    -0.429 N  
HETATM   25  H1  UNL     1     -10.632   1.487  63.374  1.00  0.00     0.000 HD 
HETATM   26  H2  UNL     1     -11.560   2.939  63.965  1.00  0.00     0.000 HD 
ENDBRANCH  12  21
ENDBRANCH   3   5
ENDBRANCH   2   3
TORSDOF 7
ENDMDL
MODEL      116
REMARK 921   NORMALIZED FREE ENERGY PREDICTED BY IDOCK:   -3.43 KCAL/MOL
REMARK 922        TOTAL FREE ENERGY PREDICTED BY IDOCK:   -5.56 KCAL/MOL
REMARK 923 INTER-LIGAND FREE ENERGY PREDICTED BY IDOCK:   -5.06 KCAL/MOL
REMARK 924 INTRA-LIGAND FREE ENERGY PREDICTED BY IDOCK:   -0.51 KCAL/MOL
REMARK 927      BINDING AFFINITY PREDICTED BY RF-SCORE:    0.00 PKD
ROOT
HETATM    1  C   UNL     1     -12.559  12.251  64.102  1.00  0.00    -0.493 C  
HETATM    2  C   UNL     1     -12.103  12.716  65.479  1.00  0.00    -0.458 C  
ENDROOT
BRANCH   2   3
HETATM    3  N   UNL     1     -10.695  12.373  65.690  1.00  0.00    -0.257 NA 
HETATM    4  H   UNL     1     -10.093  12.943  65.096  1.00  0.00     0.000 HD 
BRANCH   3   5
HETATM    5  C   UNL     1     -10.269  12.458  67.096  1.00  0.00    -0.216 C  
HETATM    6  C   UNL     1      -9.485  11.185  67.627  1.00  0.00    -0.166 C  
HETATM    7  N   UNL     1      -8.045  11.104  67.247  1.00  0.00    -0.131 N  
HETATM    8  C   UNL     1      -9.953  15.102  67.128  1.00  0.00    -0.237 A  
HETATM    9  S   UNL     1      -7.060  12.373  67.744  1.00  0.00    -0.136 S  
HETATM   10  O   UNL     1      -6.967  12.326  69.189  1.00  0.00    -0.098 OA 
HETATM   11  C   UNL     1      -8.103  13.763  67.442  1.00  0.00    -0.177 A  
HETATM   12  C   UNL     1      -8.940  16.042  67.227  1.00  0.00    -0.197 A  
HETATM   13  O   UNL     1      -5.911  12.490  66.879  1.00  0.00    -0.278 OA 
HETATM   14  S   UNL     1      -7.418  15.308  67.495  1.00  0.00    -0.205 SA 
HETATM   15  C   UNL     1      -9.467  13.752  67.216  1.00  0.00    -0.236 A  
BRANCH   7  16
HETATM   16  C   UNL     1      -7.617  10.224  66.155  1.00  0.00    -0.124 C  
BRANCH  16  17
HETATM   17  C   UNL     1      -7.296   8.814  66.612  1.00  0.00    -0.082 C  
BRANCH  17  18
HETATM   18  C   UNL     1      -6.169   8.209  65.789  1.00  0.00    -0.045 C  
BRANCH  18  19
HETATM   19  O   UNL     1      -6.669   7.927  64.484  1.00  0.00    -0.055 OA 
HETATM   20  C   UNL     1      -5.718   8.252  63.480  1.00  0.00    -0.070 C  
ENDBRANCH  18  19
ENDBRANCH  17  18
ENDBRANCH  16  17
ENDBRANCH   7  16
BRANCH  12  21
HETATM   21  S   UNL     1      -8.929  17.819  67.151  1.00  0.00    -0.251 S  
HETATM   22  O   UNL     1      -8.096  18.158  66.024  1.00  0.00    -0.477 OA 
HETATM   23  O   UNL     1     -10.319  18.192  67.256  1.00  0.00    -0.354 OA 
HETATM   24  N   UNL     1      -8.165  18.364  68.542  1.00  0.00    -0.317 N  
HETATM   25  H1  UNL     1      -8.159  19.384  68.499  1.00  0.00     0.000 HD 
HETATM   26  H2  UNL     1      -7.779  17.787  69.289  1.00  0.00     0.000 HD 
ENDBRANCH  12  21
ENDBRANCH   3   5
ENDBRANCH   2   3
TORSDOF 7
ENDMDL
MODEL      117
REMARK 921   NORMALIZED FREE ENERGY PREDICTED BY IDOCK:   -3.42 KCAL/MOL
REMARK 922        TOTAL FREE ENERGY PREDICTED BY IDOCK:   -5.55 KCAL/MOL
REMARK 923 INTER-LIGAND FREE ENERGY PREDICTED BY IDOCK:   -4.98 KCAL/MOL
REMARK 924 INTRA-LIGAND FREE ENERGY PREDICTED BY IDOCK:   -0.57 KCAL/MOL
REMARK 927      BINDING AFFINITY PREDICTED BY RF-SCORE:    0.00 PKD
ROOT
HETATM    1  C   UNL     1     -12.771  13.562  65.020  1.00  0.00    -0.399 C  
HETATM    2  C   UNL     1     -12.402  13.396  66.487  1.00  0.00    -0.295 C  
ENDROOT
BRANCH   2   3
HETATM    3  N   UNL     1     -11.792  12.084  66.713  1.00  0.00    -0.614 NA 
HETATM    4  H   UNL     1     -12.452  11.337  66.492  1.00  0.00     0.000 HD 
BRANCH   3   5
HETATM    5  C   UNL     1     -10.525  11.888  65.990  1.00  0.00    -0.245 C  
HETATM    6  C   UNL     1      -9.505  13.097  66.106  1.00  0.00    -0.145 C  
HETATM    7  N   UNL     1      -8.716  13.164  67.370  1.00  0.00    -0.195 N  
HETATM    8  C   UNL     1     -10.456   9.240  66.267  1.00  0.00    -0.084 A  
HETATM    9  S   UNL     1      -7.750  11.835  67.727  1.00  0.00    -0.144 S  
HETATM   10  O   UNL     1      -6.688  11.778  66.743  1.00  0.00    -0.125 OA 
HETATM   11  C   UNL     1      -8.808  10.500  67.272  1.00  0.00    -0.136 A  
HETATM   12  C   UNL     1      -9.720   8.267  66.923  1.00  0.00    -0.225 A  
HETATM   13  O   UNL     1      -7.518  11.747  69.149  1.00  0.00    -0.072 OA 
HETATM   14  S   UNL     1      -8.383   8.937  67.754  1.00  0.00    -0.110 SA 
HETATM   15  C   UNL     1      -9.951  10.566  66.496  1.00  0.00    -0.266 A  
BRANCH   7  16
HETATM   16  C   UNL     1      -9.094  14.106  68.428  1.00  0.00    -0.191 C  
BRANCH  16  17
HETATM   17  C   UNL     1      -9.646  15.415  67.896  1.00  0.00    -0.206 C  
BRANCH  17  18
HETATM   18  C   UNL     1      -9.359  16.564  68.851  1.00  0.00    -0.256 C  
BRANCH  18  19
HETATM   19  O   UNL     1      -9.278  17.768  68.091  1.00  0.00    -0.262 OA 
HETATM   20  C   UNL     1      -8.796  17.522  66.777  1.00  0.00    -0.256 C  
ENDBRANCH  18  19
ENDBRANCH  17  18
ENDBRANCH  16  17
ENDBRANCH   7  16
BRANCH  12  21
HETATM   21  S   UNL     1      -9.887   6.500  67.040  1.00  0.00    -0.167 S  
HETATM   22  O   UNL     1     -11.286   6.255  67.291  1.00  0.00    -0.332 OA 
HETATM   23  O   UNL     1      -9.183   5.994  65.887  1.00  0.00    -0.146 OA 
HETATM   24  N   UNL     1      -9.025   6.015  68.396  1.00  0.00    -0.115 N  
HETATM   25  H1  UNL     1      -9.121   5.002  68.464  1.00  0.00     0.000 HD 
HETATM   26  H2  UNL     1      -8.505   6.619  69.033  1.00  0.00     0.000 HD 
ENDBRANCH  12  21
ENDBRANCH   3   5
ENDBRANCH   2   3
TORSDOF 7
ENDMDL
MODEL      118
REMARK 921   NORMALIZED FREE ENERGY PREDICTED BY IDOCK:   -3.40 KCAL/MOL
REMARK 922        TOTAL FREE ENERGY PREDICTED BY IDOCK:   -5.53 KCAL/MOL
REMARK 923 INTER-LIGAND FREE ENERGY PREDICTED BY IDOCK:   -4.44 KCAL/MOL
REMARK 924 INTRA-LIGAND FREE ENERGY PREDICTED BY IDOCK:   -1.09 KCAL/MOL
REMARK 927      BINDING AFFINITY PREDICTED BY RF-SCORE:    0.00 PKD
ROOT
HETATM    1  C   UNL     1      -9.387   4.292  67.156  1.00  0.00    -0.187 C  
HETATM    2  C   UNL     1      -9.756   5.401  66.180  1.00  0.00    -0.145 C  
ENDROOT
BRANCH   2   3
HETATM    3  N   UNL     1      -9.768   6.696  66.863  1.00  0.00    -0.158 NA 
HETATM    4  H   UNL     1     -10.726   6.989  67.062  1.00  0.00     0.000 HD 
BRANCH   3   5
HETATM    5  C   UNL     1      -8.951   6.729  68.086  1.00  0.00    -0.118 C  
HETATM    6  C   UNL     1      -7.482   7.294  67.884  1.00  0.00    -0.102 C  
HETATM    7  N   UNL     1      -7.359   8.778  67.821  1.00  0.00    -0.087 N  
HETATM    8  C   UNL     1     -10.981   7.121  69.764  1.00  0.00    -0.256 A  
HETATM    9  S   UNL     1      -7.899   9.638  69.162  1.00  0.00    -0.097 S  
HETATM   10  O   UNL     1      -7.017   9.335  70.270  1.00  0.00    -0.055 OA 
HETATM   11  C   UNL     1      -9.380   8.767  69.562  1.00  0.00    -0.157 A  
HETATM   12  C   UNL     1     -11.481   8.104  70.604  1.00  0.00    -0.231 A  
HETATM   13  O   UNL     1      -8.267  10.981  68.786  1.00  0.00    -0.140 OA 
HETATM   14  S   UNL     1     -10.451   9.468  70.665  1.00  0.00    -0.320 SA 
HETATM   15  C   UNL     1      -9.761   7.516  69.114  1.00  0.00    -0.166 A  
BRANCH   7  16
HETATM   16  C   UNL     1      -7.201   9.453  66.529  1.00  0.00    -0.089 C  
BRANCH  16  17
HETATM   17  C   UNL     1      -8.288   9.100  65.531  1.00  0.00    -0.138 C  
BRANCH  17  18
HETATM   18  C   UNL     1      -9.365  10.174  65.484  1.00  0.00    -0.207 C  
BRANCH  18  19
HETATM   19  O   UNL     1     -10.436   9.770  66.334  1.00  0.00    -0.204 OA 
HETATM   20  C   UNL     1     -11.100  10.889  66.904  1.00  0.00    -0.167 C  
ENDBRANCH  18  19
ENDBRANCH  17  18
ENDBRANCH  16  17
ENDBRANCH   7  16
BRANCH  12  21
HETATM   21  S   UNL     1     -12.940   8.199  71.617  1.00  0.00    -0.316 S  
HETATM   22  O   UNL     1     -13.519   6.879  71.594  1.00  0.00    -0.330 OA 
HETATM   23  O   UNL     1     -12.498   8.855  72.824  1.00  0.00    -0.280 OA 
HETATM   24  N   UNL     1     -14.003   9.244  70.848  1.00  0.00    -0.491 N  
HETATM   25  H1  UNL     1     -14.840   9.299  71.429  1.00  0.00     0.000 HD 
HETATM   26  H2  UNL     1     -13.844   9.732  69.967  1.00  0.00     0.000 HD 
ENDBRANCH  12  21
ENDBRANCH   3   5
ENDBRANCH   2   3
TORSDOF 7
ENDMDL
MODEL      119
REMARK 921   NORMALIZED FREE ENERGY PREDICTED BY IDOCK:   -3.32 KCAL/MOL
REMARK 922        TOTAL FREE ENERGY PREDICTED BY IDOCK:   -5.41 KCAL/MOL
REMARK 923 INTER-LIGAND FREE ENERGY PREDICTED BY IDOCK:   -5.42 KCAL/MOL
REMARK 924 INTRA-LIGAND FREE ENERGY PREDICTED BY IDOCK:    0.02 KCAL/MOL
REMARK 927      BINDING AFFINITY PREDICTED BY RF-SCORE:    0.00 PKD
ROOT
HETATM    1  C   UNL     1      -6.916   8.345  65.671  1.00  0.00    -0.067 C  
HETATM    2  C   UNL     1      -8.158   8.672  66.488  1.00  0.00    -0.103 C  
ENDROOT
BRANCH   2   3
HETATM    3  N   UNL     1      -9.291   7.861  66.038  1.00  0.00    -0.383 NA 
HETATM    4  H   UNL     1      -9.036   6.874  66.004  1.00  0.00     0.000 HD 
BRANCH   3   5
HETATM    5  C   UNL     1     -10.512   8.055  66.836  1.00  0.00    -0.317 C  
HETATM    6  C   UNL     1     -10.628   7.111  68.106  1.00  0.00    -0.192 C  
HETATM    7  N   UNL     1      -9.840   7.529  69.301  1.00  0.00    -0.167 N  
HETATM    8  C   UNL     1     -10.785  10.649  66.299  1.00  0.00    -0.172 A  
HETATM    9  S   UNL     1     -10.186   9.045  69.941  1.00  0.00    -0.212 S  
HETATM   10  O   UNL     1     -11.523   9.000  70.495  1.00  0.00    -0.259 OA 
HETATM   11  C   UNL     1     -10.377  10.007  68.475  1.00  0.00    -0.193 A  
HETATM   12  C   UNL     1     -10.703  11.873  66.942  1.00  0.00    -0.246 A  
HETATM   13  O   UNL     1      -9.047   9.562  70.660  1.00  0.00    -0.245 OA 
HETATM   14  S   UNL     1     -10.423  11.691  68.620  1.00  0.00    -0.205 SA 
HETATM   15  C   UNL     1     -10.557   9.541  67.186  1.00  0.00    -0.295 A  
BRANCH   7  16
HETATM   16  C   UNL     1      -8.568   6.869  69.616  1.00  0.00    -0.134 C  
BRANCH  16  17
HETATM   17  C   UNL     1      -8.632   6.009  70.863  1.00  0.00    -0.131 C  
BRANCH  17  18
HETATM   18  C   UNL     1     -10.037   5.983  71.446  1.00  0.00    -0.193 C  
BRANCH  18  19
HETATM   19  O   UNL     1     -10.130   4.876  72.341  1.00  0.00    -0.173 OA 
HETATM   20  C   UNL     1     -11.332   4.917  73.096  1.00  0.00    -0.315 C  
ENDBRANCH  18  19
ENDBRANCH  17  18
ENDBRANCH  16  17
ENDBRANCH   7  16
BRANCH  12  21
HETATM   21  S   UNL     1     -10.853  13.551  66.369  1.00  0.00    -0.291 S  
HETATM   22  O   UNL     1     -11.943  13.546  65.425  1.00  0.00    -0.342 OA 
HETATM   23  O   UNL     1     -10.845  14.345  67.574  1.00  0.00    -0.274 OA 
HETATM   24  N   UNL     1      -9.444  13.910  65.531  1.00  0.00    -0.511 N  
HETATM   25  H1  UNL     1      -9.530  14.872  65.202  1.00  0.00     0.000 HD 
HETATM   26  H2  UNL     1      -8.653  13.286  65.379  1.00  0.00     0.000 HD 
ENDBRANCH  12  21
ENDBRANCH   3   5
ENDBRANCH   2   3
TORSDOF 7
ENDMDL
MODEL      120
REMARK 921   NORMALIZED FREE ENERGY PREDICTED BY IDOCK:   -3.32 KCAL/MOL
REMARK 922        TOTAL FREE ENERGY PREDICTED BY IDOCK:   -5.41 KCAL/MOL
REMARK 923 INTER-LIGAND FREE ENERGY PREDICTED BY IDOCK:   -4.80 KCAL/MOL
REMARK 924 INTRA-LIGAND FREE ENERGY PREDICTED BY IDOCK:   -0.60 KCAL/MOL
REMARK 927      BINDING AFFINITY PREDICTED BY RF-SCORE:    0.00 PKD
ROOT
HETATM    1  C   UNL     1      -9.954   5.929  67.076  1.00  0.00    -0.195 C  
HETATM    2  C   UNL     1      -9.635   7.353  67.509  1.00  0.00    -0.140 C  
ENDROOT
BRANCH   2   3
HETATM    3  N   UNL     1     -10.870   8.088  67.791  1.00  0.00    -0.495 NA 
HETATM    4  H   UNL     1     -11.285   7.770  68.668  1.00  0.00     0.000 HD 
BRANCH   3   5
HETATM    5  C   UNL     1     -10.702   9.549  67.797  1.00  0.00    -0.242 C  
HETATM    6  C   UNL     1     -10.313  10.164  69.208  1.00  0.00    -0.223 C  
HETATM    7  N   UNL     1      -8.877  10.046  69.594  1.00  0.00    -0.205 N  
HETATM    8  C   UNL     1      -9.849   9.740  65.282  1.00  0.00    -0.335 A  
HETATM    9  S   UNL     1      -7.757  10.761  68.564  1.00  0.00    -0.126 S  
HETATM   10  O   UNL     1      -7.943  12.196  68.629  1.00  0.00    -0.130 OA 
HETATM   11  C   UNL     1      -8.411  10.330  66.984  1.00  0.00    -0.129 A  
HETATM   12  C   UNL     1      -8.697  10.055  64.579  1.00  0.00    -0.195 A  
HETATM   13  O   UNL     1      -6.470  10.122  68.696  1.00  0.00    -0.052 OA 
HETATM   14  S   UNL     1      -7.439  10.563  65.621  1.00  0.00    -0.094 SA 
HETATM   15  C   UNL     1      -9.682   9.861  66.704  1.00  0.00    -0.252 A  
BRANCH   7  16
HETATM   16  C   UNL     1      -8.450   9.016  70.546  1.00  0.00    -0.200 C  
BRANCH  16  17
HETATM   17  C   UNL     1      -9.432   8.807  71.684  1.00  0.00    -0.358 C  
BRANCH  17  18
HETATM   18  C   UNL     1      -9.789   7.337  71.844  1.00  0.00    -0.162 C  
BRANCH  18  19
HETATM   19  O   UNL     1     -10.790   7.013  70.881  1.00  0.00    -0.232 OA 
HETATM   20  C   UNL     1     -10.796   5.624  70.583  1.00  0.00    -0.234 C  
ENDBRANCH  18  19
ENDBRANCH  17  18
ENDBRANCH  16  17
ENDBRANCH   7  16
BRANCH  12  21
HETATM   21  S   UNL     1      -8.301  10.051  62.845  1.00  0.00    -0.183 S  
HETATM   22  O   UNL     1      -8.794   8.796  62.334  1.00  0.00    -0.194 OA 
HETATM   23  O   UNL     1      -8.750  11.337  62.370  1.00  0.00    -0.306 OA 
HETATM   24  N   UNL     1      -6.627  10.036  62.725  1.00  0.00    -0.119 N  
HETATM   25  H1  UNL     1      -6.400  10.034  61.730  1.00  0.00     0.000 HD 
HETATM   26  H2  UNL     1      -5.963  10.031  63.499  1.00  0.00     0.000 HD 
ENDBRANCH  12  21
ENDBRANCH   3   5
ENDBRANCH   2   3
TORSDOF 7
ENDMDL
MODEL      121
REMARK 921   NORMALIZED FREE ENERGY PREDICTED BY IDOCK:   -3.30 KCAL/MOL
REMARK 922        TOTAL FREE ENERGY PREDICTED BY IDOCK:   -5.38 KCAL/MOL
REMARK 923 INTER-LIGAND FREE ENERGY PREDICTED BY IDOCK:   -4.73 KCAL/MOL
REMARK 924 INTRA-LIGAND FREE ENERGY PREDICTED BY IDOCK:   -0.66 KCAL/MOL
REMARK 927      BINDING AFFINITY PREDICTED BY RF-SCORE:    0.00 PKD
ROOT
HETATM    1  C   UNL     1     -10.551   8.729  71.888  1.00  0.00    -0.425 C  
HETATM    2  C   UNL     1     -11.193   8.812  70.510  1.00  0.00    -0.247 C  
ENDROOT
BRANCH   2   3
HETATM    3  N   UNL     1     -10.300   8.243  69.498  1.00  0.00    -0.215 NA 
HETATM    4  H   UNL     1      -9.421   7.944  69.921  1.00  0.00     0.000 HD 
BRANCH   3   5
HETATM    5  C   UNL     1     -10.904   7.147  68.725  1.00  0.00    -0.120 C  
HETATM    6  C   UNL     1     -10.888   7.360  67.153  1.00  0.00    -0.270 C  
HETATM    7  N   UNL     1      -9.595   7.063  66.470  1.00  0.00    -0.170 N  
HETATM    8  C   UNL     1     -10.265   5.214  70.441  1.00  0.00    -0.334 A  
HETATM    9  S   UNL     1      -8.997   5.500  66.633  1.00  0.00    -0.121 S  
HETATM   10  O   UNL     1      -9.892   4.605  65.929  1.00  0.00    -0.182 OA 
HETATM   11  C   UNL     1      -9.335   5.172  68.333  1.00  0.00    -0.122 A  
HETATM   12  C   UNL     1      -9.435   4.107  70.522  1.00  0.00    -0.173 A  
HETATM   13  O   UNL     1      -7.564   5.487  66.460  1.00  0.00    -0.086 OA 
HETATM   14  S   UNL     1      -8.617   3.819  69.048  1.00  0.00    -0.086 SA 
HETATM   15  C   UNL     1     -10.186   5.873  69.167  1.00  0.00    -0.275 A  
BRANCH   7  16
HETATM   16  C   UNL     1      -8.703   8.156  66.071  1.00  0.00    -0.156 C  
BRANCH  16  17
HETATM   17  C   UNL     1      -9.416   9.485  65.912  1.00  0.00    -0.307 C  
BRANCH  17  18
HETATM   18  C   UNL     1      -9.482   9.906  64.451  1.00  0.00    -0.239 C  
BRANCH  18  19
HETATM   19  O   UNL     1     -10.518  10.875  64.312  1.00  0.00    -0.362 OA 
HETATM   20  C   UNL     1     -10.151  11.904  63.404  1.00  0.00    -0.438 C  
ENDBRANCH  18  19
ENDBRANCH  17  18
ENDBRANCH  16  17
ENDBRANCH   7  16
BRANCH  12  21
HETATM   21  S   UNL     1      -9.089   2.950  71.828  1.00  0.00    -0.105 S  
HETATM   22  O   UNL     1      -8.679   3.746  72.959  1.00  0.00    -0.093 OA 
HETATM   23  O   UNL     1     -10.235   2.072  71.845  1.00  0.00    -0.161 OA 
HETATM   24  N   UNL     1      -7.772   2.034  71.336  1.00  0.00    -0.040 N  
HETATM   25  H1  UNL     1      -7.574   1.370  72.085  1.00  0.00     0.000 HD 
HETATM   26  H2  UNL     1      -7.266   2.124  70.455  1.00  0.00     0.000 HD 
ENDBRANCH  12  21
ENDBRANCH   3   5
ENDBRANCH   2   3
TORSDOF 7
ENDMDL
MODEL      122
REMARK 921   NORMALIZED FREE ENERGY PREDICTED BY IDOCK:   -3.30 KCAL/MOL
REMARK 922        TOTAL FREE ENERGY PREDICTED BY IDOCK:   -5.38 KCAL/MOL
REMARK 923 INTER-LIGAND FREE ENERGY PREDICTED BY IDOCK:   -4.85 KCAL/MOL
REMARK 924 INTRA-LIGAND FREE ENERGY PREDICTED BY IDOCK:   -0.52 KCAL/MOL
REMARK 927      BINDING AFFINITY PREDICTED BY RF-SCORE:    0.00 PKD
ROOT
HETATM    1  C   UNL     1     -10.309   4.521  65.724  1.00  0.00    -0.287 C  
HETATM    2  C   UNL     1      -9.293   5.629  65.970  1.00  0.00    -0.134 C  
ENDROOT
BRANCH   2   3
HETATM    3  N   UNL     1      -9.746   6.502  67.055  1.00  0.00    -0.144 NA 
HETATM    4  H   UNL     1     -10.257   5.966  67.759  1.00  0.00     0.000 HD 
BRANCH   3   5
HETATM    5  C   UNL     1      -8.665   7.280  67.680  1.00  0.00    -0.125 C  
HETATM    6  C   UNL     1      -8.283   8.614  66.911  1.00  0.00    -0.105 C  
HETATM    7  N   UNL     1      -9.186   9.778  67.140  1.00  0.00    -0.137 N  
HETATM    8  C   UNL     1      -9.214   6.557  70.183  1.00  0.00    -0.158 A  
HETATM    9  S   UNL     1      -9.349  10.307  68.727  1.00  0.00    -0.175 S  
HETATM   10  O   UNL     1      -8.077  10.859  69.146  1.00  0.00    -0.149 OA 
HETATM   11  C   UNL     1      -9.442   8.775  69.597  1.00  0.00    -0.170 A  
HETATM   12  C   UNL     1      -9.691   7.111  71.360  1.00  0.00    -0.168 A  
HETATM   13  O   UNL     1     -10.607  10.990  68.906  1.00  0.00    -0.188 OA 
HETATM   14  S   UNL     1      -9.933   8.798  71.215  1.00  0.00    -0.291 SA 
HETATM   15  C   UNL     1      -9.099   7.522  69.124  1.00  0.00    -0.138 A  
BRANCH   7  16
HETATM   16  C   UNL     1     -10.190  10.143  66.135  1.00  0.00    -0.215 C  
BRANCH  16  17
HETATM   17  C   UNL     1      -9.934  11.494  65.495  1.00  0.00    -0.282 C  
BRANCH  17  18
HETATM   18  C   UNL     1     -11.157  12.394  65.595  1.00  0.00    -0.306 C  
BRANCH  18  19
HETATM   19  O   UNL     1     -11.147  13.286  64.482  1.00  0.00    -0.337 OA 
HETATM   20  C   UNL     1     -12.238  14.195  64.534  1.00  0.00    -0.445 C  
ENDBRANCH  18  19
ENDBRANCH  17  18
ENDBRANCH  16  17
ENDBRANCH   7  16
BRANCH  12  21
HETATM   21  S   UNL     1     -10.067   6.419  72.955  1.00  0.00    -0.200 S  
HETATM   22  O   UNL     1      -8.801   6.015  73.515  1.00  0.00    -0.126 OA 
HETATM   23  O   UNL     1     -10.939   7.389  73.573  1.00  0.00    -0.344 OA 
HETATM   24  N   UNL     1     -10.978   5.035  72.687  1.00  0.00    -0.230 N  
HETATM   25  H1  UNL     1     -11.194   4.638  73.602  1.00  0.00     0.000 HD 
HETATM   26  H2  UNL     1     -11.263   4.662  71.781  1.00  0.00     0.000 HD 
ENDBRANCH  12  21
ENDBRANCH   3   5
ENDBRANCH   2   3
TORSDOF 7
ENDMDL
MODEL      123
REMARK 921   NORMALIZED FREE ENERGY PREDICTED BY IDOCK:   -3.29 KCAL/MOL
REMARK 922        TOTAL FREE ENERGY PREDICTED BY IDOCK:   -5.37 KCAL/MOL
REMARK 923 INTER-LIGAND FREE ENERGY PREDICTED BY IDOCK:   -4.93 KCAL/MOL
REMARK 924 INTRA-LIGAND FREE ENERGY PREDICTED BY IDOCK:   -0.43 KCAL/MOL
REMARK 927      BINDING AFFINITY PREDICTED BY RF-SCORE:    0.00 PKD
ROOT
HETATM    1  C   UNL     1      -6.017  13.776  69.995  1.00  0.00    -0.144 C  
HETATM    2  C   UNL     1      -5.434  14.615  68.865  1.00  0.00    -0.087 C  
ENDROOT
BRANCH   2   3
HETATM    3  N   UNL     1      -6.508  15.211  68.068  1.00  0.00    -0.130 NA 
HETATM    4  H   UNL     1      -6.600  14.731  67.172  1.00  0.00     0.000 HD 
BRANCH   3   5
HETATM    5  C   UNL     1      -7.804  15.263  68.764  1.00  0.00    -0.154 C  
HETATM    6  C   UNL     1      -8.306  16.726  69.116  1.00  0.00    -0.086 C  
HETATM    7  N   UNL     1      -8.933  17.485  67.996  1.00  0.00    -0.252 N  
HETATM    8  C   UNL     1      -8.811  13.070  67.637  1.00  0.00    -0.191 A  
HETATM    9  S   UNL     1     -10.290  16.795  67.283  1.00  0.00    -0.295 S  
HETATM   10  O   UNL     1     -11.362  16.808  68.258  1.00  0.00    -0.274 OA 
HETATM   11  C   UNL     1      -9.820  15.097  67.208  1.00  0.00    -0.228 A  
HETATM   12  C   UNL     1      -9.806  12.704  66.746  1.00  0.00    -0.235 A  
HETATM   13  O   UNL     1     -10.446  17.268  65.928  1.00  0.00    -0.423 OA 
HETATM   14  S   UNL     1     -10.752  14.046  66.266  1.00  0.00    -0.292 SA 
HETATM   15  C   UNL     1      -8.784  14.485  67.889  1.00  0.00    -0.165 A  
BRANCH   7  16
HETATM   16  C   UNL     1      -8.171  18.516  67.284  1.00  0.00    -0.249 C  
BRANCH  16  17
HETATM   17  C   UNL     1      -6.876  17.999  66.687  1.00  0.00    -0.239 C  
BRANCH  17  18
HETATM   18  C   UNL     1      -5.893  19.132  66.432  1.00  0.00    -0.161 C  
BRANCH  18  19
HETATM   19  O   UNL     1      -5.727  19.271  65.022  1.00  0.00    -0.188 OA 
HETATM   20  C   UNL     1      -6.195  20.532  64.565  1.00  0.00    -0.300 C  
ENDBRANCH  18  19
ENDBRANCH  17  18
ENDBRANCH  16  17
ENDBRANCH   7  16
BRANCH  12  21
HETATM   21  S   UNL     1     -10.284  11.141  66.045  1.00  0.00    -0.257 S  
HETATM   22  O   UNL     1     -11.246  11.451  65.016  1.00  0.00    -0.207 OA 
HETATM   23  O   UNL     1      -9.036  10.463  65.790  1.00  0.00    -0.156 OA 
HETATM   24  N   UNL     1     -11.075  10.284  67.251  1.00  0.00    -0.222 N  
HETATM   25  H1  UNL     1     -11.350   9.387  66.849  1.00  0.00     0.000 HD 
HETATM   26  H2  UNL     1     -11.249  10.599  68.205  1.00  0.00     0.000 HD 
ENDBRANCH  12  21
ENDBRANCH   3   5
ENDBRANCH   2   3
TORSDOF 7
ENDMDL
MODEL      124
REMARK 921   NORMALIZED FREE ENERGY PREDICTED BY IDOCK:   -3.28 KCAL/MOL
REMARK 922        TOTAL FREE ENERGY PREDICTED BY IDOCK:   -5.35 KCAL/MOL
REMARK 923 INTER-LIGAND FREE ENERGY PREDICTED BY IDOCK:   -4.69 KCAL/MOL
REMARK 924 INTRA-LIGAND FREE ENERGY PREDICTED BY IDOCK:   -0.66 KCAL/MOL
REMARK 927      BINDING AFFINITY PREDICTED BY RF-SCORE:    0.00 PKD
ROOT
HETATM    1  C   UNL     1      -6.663  10.334  70.092  1.00  0.00    -0.146 C  
HETATM    2  C   UNL     1      -7.226  10.228  68.681  1.00  0.00    -0.081 C  
ENDROOT
BRANCH   2   3
HETATM    3  N   UNL     1      -7.526   8.832  68.357  1.00  0.00    -0.089 NA 
HETATM    4  H   UNL     1      -7.491   8.252  69.196  1.00  0.00     0.000 HD 
BRANCH   3   5
HETATM    5  C   UNL     1      -8.804   8.649  67.652  1.00  0.00    -0.136 C  
HETATM    6  C   UNL     1      -8.710   7.777  66.329  1.00  0.00    -0.155 C  
HETATM    7  N   UNL     1      -8.665   6.300  66.527  1.00  0.00    -0.126 N  
HETATM    8  C   UNL     1     -10.335   8.738  69.828  1.00  0.00    -0.214 A  
HETATM    9  S   UNL     1      -9.968   5.605  67.330  1.00  0.00    -0.179 S  
HETATM   10  O   UNL     1     -11.135   5.733  66.482  1.00  0.00    -0.200 OA 
HETATM   11  C   UNL     1     -10.256   6.782  68.611  1.00  0.00    -0.175 A  
HETATM   12  C   UNL     1     -11.142   7.903  70.585  1.00  0.00    -0.259 A  
HETATM   13  O   UNL     1      -9.574   4.364  67.954  1.00  0.00    -0.152 OA 
HETATM   14  S   UNL     1     -11.285   6.351  69.882  1.00  0.00    -0.437 SA 
HETATM   15  C   UNL     1      -9.776   8.076  68.681  1.00  0.00    -0.163 A  
BRANCH   7  16
HETATM   16  C   UNL     1      -7.391   5.580  66.429  1.00  0.00    -0.079 C  
BRANCH  16  17
HETATM   17  C   UNL     1      -7.111   5.041  65.039  1.00  0.00    -0.062 C  
BRANCH  17  18
HETATM   18  C   UNL     1      -8.382   4.975  64.206  1.00  0.00    -0.136 C  
BRANCH  18  19
HETATM   19  O   UNL     1      -8.641   3.608  63.892  1.00  0.00    -0.090 OA 
HETATM   20  C   UNL     1      -9.962   3.232  64.253  1.00  0.00    -0.166 C  
ENDBRANCH  18  19
ENDBRANCH  17  18
ENDBRANCH  16  17
ENDBRANCH   7  16
BRANCH  12  21
HETATM   21  S   UNL     1     -12.049   8.145  72.096  1.00  0.00    -0.366 S  
HETATM   22  O   UNL     1     -11.101   7.929  73.161  1.00  0.00    -0.382 OA 
HETATM   23  O   UNL     1     -12.755   9.389  71.898  1.00  0.00    -0.349 OA 
HETATM   24  N   UNL     1     -13.203   6.930  72.175  1.00  0.00    -0.548 N  
HETATM   25  H1  UNL     1     -13.724   7.068  73.042  1.00  0.00     0.000 HD 
HETATM   26  H2  UNL     1     -13.356   6.192  71.488  1.00  0.00     0.000 HD 
ENDBRANCH  12  21
ENDBRANCH   3   5
ENDBRANCH   2   3
TORSDOF 7
ENDMDL
MODEL      125
REMARK 921   NORMALIZED FREE ENERGY PREDICTED BY IDOCK:   -3.23 KCAL/MOL
REMARK 922        TOTAL FREE ENERGY PREDICTED BY IDOCK:   -5.29 KCAL/MOL
REMARK 923 INTER-LIGAND FREE ENERGY PREDICTED BY IDOCK:   -4.57 KCAL/MOL
REMARK 924 INTRA-LIGAND FREE ENERGY PREDICTED BY IDOCK:   -0.72 KCAL/MOL
REMARK 927      BINDING AFFINITY PREDICTED BY RF-SCORE:    0.00 PKD
ROOT
HETATM    1  C   UNL     1      -9.914   9.303  66.258  1.00  0.00    -0.357 C  
HETATM    2  C   UNL     1      -9.612   8.036  67.047  1.00  0.00    -0.196 C  
ENDROOT
BRANCH   2   3
HETATM    3  N   UNL     1     -10.203   6.871  66.386  1.00  0.00    -0.455 NA 
HETATM    4  H   UNL     1      -9.744   6.695  65.491  1.00  0.00     0.000 HD 
BRANCH   3   5
HETATM    5  C   UNL     1     -10.206   5.657  67.216  1.00  0.00    -0.206 C  
HETATM    6  C   UNL     1      -8.928   4.732  67.039  1.00  0.00    -0.111 C  
HETATM    7  N   UNL     1      -7.704   5.169  67.770  1.00  0.00    -0.087 N  
HETATM    8  C   UNL     1     -11.595   6.704  69.232  1.00  0.00    -0.147 A  
HETATM    9  S   UNL     1      -7.829   5.302  69.441  1.00  0.00    -0.089 S  
HETATM   10  O   UNL     1      -8.012   3.971  69.982  1.00  0.00    -0.051 OA 
HETATM   11  C   UNL     1      -9.421   6.042  69.614  1.00  0.00    -0.144 A  
HETATM   12  C   UNL     1     -11.419   7.073  70.555  1.00  0.00    -0.319 A  
HETATM   13  O   UNL     1      -6.853   6.236  69.948  1.00  0.00    -0.054 OA 
HETATM   14  S   UNL     1      -9.857   6.666  71.123  1.00  0.00    -0.181 SA 
HETATM   15  C   UNL     1     -10.412   6.129  68.654  1.00  0.00    -0.285 A  
BRANCH   7  16
HETATM   16  C   UNL     1      -6.622   5.854  67.055  1.00  0.00    -0.056 C  
BRANCH  16  17
HETATM   17  C   UNL     1      -6.549   5.488  65.585  1.00  0.00    -0.041 C  
BRANCH  17  18
HETATM   18  C   UNL     1      -6.756   6.709  64.700  1.00  0.00    -0.042 C  
BRANCH  18  19
HETATM   19  O   UNL     1      -8.095   6.684  64.211  1.00  0.00    -0.114 OA 
HETATM   20  C   UNL     1      -8.260   5.705  63.194  1.00  0.00    -0.091 C  
ENDBRANCH  18  19
ENDBRANCH  17  18
ENDBRANCH  16  17
ENDBRANCH   7  16
BRANCH  12  21
HETATM   21  S   UNL     1     -12.488   7.849  71.746  1.00  0.00    -0.331 S  
HETATM   22  O   UNL     1     -13.590   6.937  71.935  1.00  0.00    -0.277 OA 
HETATM   23  O   UNL     1     -11.604   8.261  72.810  1.00  0.00    -0.395 OA 
HETATM   24  N   UNL     1     -13.087   9.244  71.032  1.00  0.00    -0.541 N  
HETATM   25  H1  UNL     1     -13.701   9.689  71.715  1.00  0.00     0.000 HD 
HETATM   26  H2  UNL     1     -12.878   9.583  70.093  1.00  0.00     0.000 HD 
ENDBRANCH  12  21
ENDBRANCH   3   5
ENDBRANCH   2   3
TORSDOF 7
ENDMDL
MODEL      126
REMARK 921   NORMALIZED FREE ENERGY PREDICTED BY IDOCK:   -3.23 KCAL/MOL
REMARK 922        TOTAL FREE ENERGY PREDICTED BY IDOCK:   -5.28 KCAL/MOL
REMARK 923 INTER-LIGAND FREE ENERGY PREDICTED BY IDOCK:   -4.69 KCAL/MOL
REMARK 924 INTRA-LIGAND FREE ENERGY PREDICTED BY IDOCK:   -0.59 KCAL/MOL
REMARK 927      BINDING AFFINITY PREDICTED BY RF-SCORE:    0.00 PKD
ROOT
HETATM    1  C   UNL     1     -10.019   9.092  70.503  1.00  0.00    -0.263 C  
HETATM    2  C   UNL     1     -10.896   8.063  69.801  1.00  0.00    -0.194 C  
ENDROOT
BRANCH   2   3
HETATM    3  N   UNL     1     -10.622   8.057  68.363  1.00  0.00    -0.374 NA 
HETATM    4  H   UNL     1     -11.359   8.546  67.854  1.00  0.00     0.000 HD 
BRANCH   3   5
HETATM    5  C   UNL     1      -9.301   8.598  68.009  1.00  0.00    -0.136 C  
HETATM    6  C   UNL     1      -8.123   7.535  68.034  1.00  0.00    -0.124 C  
HETATM    7  N   UNL     1      -8.024   6.647  66.840  1.00  0.00    -0.107 N  
HETATM    8  C   UNL     1     -10.205  10.473  66.349  1.00  0.00    -0.296 A  
HETATM    9  S   UNL     1      -7.803   7.402  65.354  1.00  0.00    -0.125 S  
HETATM   10  O   UNL     1      -6.489   8.011  65.354  1.00  0.00    -0.048 OA 
HETATM   11  C   UNL     1      -8.896   8.779  65.496  1.00  0.00    -0.188 A  
HETATM   12  C   UNL     1     -10.199  10.777  64.997  1.00  0.00    -0.306 A  
HETATM   13  O   UNL     1      -8.289   6.564  64.284  1.00  0.00    -0.039 OA 
HETATM   14  S   UNL     1      -9.256   9.666  64.102  1.00  0.00    -0.066 SA 
HETATM   15  C   UNL     1      -9.471   9.275  66.651  1.00  0.00    -0.246 A  
BRANCH   7  16
HETATM   16  C   UNL     1      -8.526   5.270  66.899  1.00  0.00    -0.106 C  
BRANCH  16  17
HETATM   17  C   UNL     1      -7.688   4.365  67.782  1.00  0.00    -0.080 C  
BRANCH  17  18
HETATM   18  C   UNL     1      -6.202   4.548  67.511  1.00  0.00    -0.036 C  
BRANCH  18  19
HETATM   19  O   UNL     1      -5.594   5.069  68.690  1.00  0.00    -0.013 OA 
HETATM   20  C   UNL     1      -5.522   4.089  69.716  1.00  0.00    -0.015 C  
ENDBRANCH  18  19
ENDBRANCH  17  18
ENDBRANCH  16  17
ENDBRANCH   7  16
BRANCH  12  21
HETATM   21  S   UNL     1     -10.949  12.083  64.050  1.00  0.00    -0.423 S  
HETATM   22  O   UNL     1     -11.514  12.993  65.015  1.00  0.00    -0.301 OA 
HETATM   23  O   UNL     1      -9.937  12.461  63.094  1.00  0.00    -0.350 OA 
HETATM   24  N   UNL     1     -12.213  11.396  63.185  1.00  0.00    -0.853 N  
HETATM   25  H1  UNL     1     -12.644  12.145  62.641  1.00  0.00     0.000 HD 
HETATM   26  H2  UNL     1     -12.498  10.417  63.200  1.00  0.00     0.000 HD 
ENDBRANCH  12  21
ENDBRANCH   3   5
ENDBRANCH   2   3
TORSDOF 7
ENDMDL
MODEL      127
REMARK 921   NORMALIZED FREE ENERGY PREDICTED BY IDOCK:   -3.22 KCAL/MOL
REMARK 922        TOTAL FREE ENERGY PREDICTED BY IDOCK:   -5.27 KCAL/MOL
REMARK 923 INTER-LIGAND FREE ENERGY PREDICTED BY IDOCK:   -4.63 KCAL/MOL
REMARK 924 INTRA-LIGAND FREE ENERGY PREDICTED BY IDOCK:   -0.64 KCAL/MOL
REMARK 927      BINDING AFFINITY PREDICTED BY RF-SCORE:    0.00 PKD
ROOT
HETATM    1  C   UNL     1     -11.108   8.627  72.092  1.00  0.00    -0.434 C  
HETATM    2  C   UNL     1     -11.823   8.704  70.751  1.00  0.00    -0.171 C  
ENDROOT
BRANCH   2   3
HETATM    3  N   UNL     1     -10.853   8.687  69.654  1.00  0.00    -0.353 NA 
HETATM    4  H   UNL     1     -11.311   8.886  68.765  1.00  0.00     0.000 HD 
BRANCH   3   5
HETATM    5  C   UNL     1      -9.709   9.589  69.862  1.00  0.00    -0.224 C  
HETATM    6  C   UNL     1      -8.297   8.867  69.899  1.00  0.00    -0.128 C  
HETATM    7  N   UNL     1      -7.713   8.511  68.574  1.00  0.00    -0.102 N  
HETATM    8  C   UNL     1     -10.794  11.696  68.647  1.00  0.00    -0.253 A  
HETATM    9  S   UNL     1      -7.446   9.779  67.502  1.00  0.00    -0.091 S  
HETATM   10  O   UNL     1      -6.396  10.613  68.050  1.00  0.00    -0.057 OA 
HETATM   11  C   UNL     1      -8.904  10.744  67.733  1.00  0.00    -0.130 A  
HETATM   12  C   UNL     1     -10.621  12.459  67.504  1.00  0.00    -0.219 A  
HETATM   13  O   UNL     1      -7.448   9.300  66.141  1.00  0.00    -0.094 OA 
HETATM   14  S   UNL     1      -9.238  11.974  66.622  1.00  0.00    -0.212 SA 
HETATM   15  C   UNL     1      -9.810  10.656  68.774  1.00  0.00    -0.196 A  
BRANCH   7  16
HETATM   16  C   UNL     1      -7.785   7.133  68.080  1.00  0.00    -0.113 C  
BRANCH  16  17
HETATM   17  C   UNL     1      -8.242   6.142  69.134  1.00  0.00    -0.113 C  
BRANCH  17  18
HETATM   18  C   UNL     1      -7.262   4.985  69.267  1.00  0.00    -0.057 C  
BRANCH  18  19
HETATM   19  O   UNL     1      -6.541   5.149  70.486  1.00  0.00    -0.033 OA 
HETATM   20  C   UNL     1      -6.018   3.913  70.952  1.00  0.00    -0.014 C  
ENDBRANCH  18  19
ENDBRANCH  17  18
ENDBRANCH  16  17
ENDBRANCH   7  16
BRANCH  12  21
HETATM   21  S   UNL     1     -11.528  13.825  66.815  1.00  0.00    -0.367 S  
HETATM   22  O   UNL     1     -10.549  14.652  66.154  1.00  0.00    -0.296 OA 
HETATM   23  O   UNL     1     -12.642  13.210  66.134  1.00  0.00    -0.398 OA 
HETATM   24  N   UNL     1     -12.157  14.696  68.104  1.00  0.00    -0.572 N  
HETATM   25  H1  UNL     1     -12.677  15.480  67.709  1.00  0.00     0.000 HD 
HETATM   26  H2  UNL     1     -12.041  14.484  69.095  1.00  0.00     0.000 HD 
ENDBRANCH  12  21
ENDBRANCH   3   5
ENDBRANCH   2   3
TORSDOF 7
ENDMDL
MODEL      128
REMARK 921   NORMALIZED FREE ENERGY PREDICTED BY IDOCK:   -3.20 KCAL/MOL
REMARK 922        TOTAL FREE ENERGY PREDICTED BY IDOCK:   -5.24 KCAL/MOL
REMARK 923 INTER-LIGAND FREE ENERGY PREDICTED BY IDOCK:   -4.64 KCAL/MOL
REMARK 924 INTRA-LIGAND FREE ENERGY PREDICTED BY IDOCK:   -0.61 KCAL/MOL
REMARK 927      BINDING AFFINITY PREDICTED BY RF-SCORE:    0.00 PKD
ROOT
HETATM    1  C   UNL     1     -10.523  10.766  66.065  1.00  0.00    -0.273 C  
HETATM    2  C   UNL     1     -10.505   9.640  67.089  1.00  0.00    -0.249 C  
ENDROOT
BRANCH   2   3
HETATM    3  N   UNL     1     -10.267   8.355  66.428  1.00  0.00    -0.433 NA 
HETATM    4  H   UNL     1      -9.914   8.497  65.481  1.00  0.00     0.000 HD 
BRANCH   3   5
HETATM    5  C   UNL     1      -9.381   7.455  67.183  1.00  0.00    -0.142 C  
HETATM    6  C   UNL     1      -7.856   7.511  66.747  1.00  0.00    -0.110 C  
HETATM    7  N   UNL     1      -7.069   8.657  67.284  1.00  0.00    -0.078 N  
HETATM    8  C   UNL     1     -10.768   7.543  69.454  1.00  0.00    -0.200 A  
HETATM    9  S   UNL     1      -6.975   8.791  68.958  1.00  0.00    -0.065 S  
HETATM   10  O   UNL     1      -6.202   7.670  69.452  1.00  0.00    -0.033 OA 
HETATM   11  C   UNL     1      -8.627   8.395  69.433  1.00  0.00    -0.129 A  
HETATM   12  C   UNL     1     -10.645   8.026  70.747  1.00  0.00    -0.214 A  
HETATM   13  O   UNL     1      -6.722  10.158  69.343  1.00  0.00    -0.053 OA 
HETATM   14  S   UNL     1      -9.102   8.710  71.024  1.00  0.00    -0.220 SA 
HETATM   15  C   UNL     1      -9.597   7.789  68.657  1.00  0.00    -0.154 A  
BRANCH   7  16
HETATM   16  C   UNL     1      -6.779   9.818  66.436  1.00  0.00    -0.080 C  
BRANCH  16  17
HETATM   17  C   UNL     1      -6.577   9.457  64.976  1.00  0.00    -0.084 C  
BRANCH  17  18
HETATM   18  C   UNL     1      -7.628  10.114  64.094  1.00  0.00    -0.125 C  
BRANCH  18  19
HETATM   19  O   UNL     1      -8.611   9.135  63.765  1.00  0.00    -0.202 OA 
HETATM   20  C   UNL     1      -8.036   8.025  63.090  1.00  0.00    -0.143 C  
ENDBRANCH  18  19
ENDBRANCH  17  18
ENDBRANCH  16  17
ENDBRANCH   7  16
BRANCH  12  21
HETATM   21  S   UNL     1     -11.753   8.047  72.139  1.00  0.00    -0.368 S  
HETATM   22  O   UNL     1     -10.959   7.655  73.277  1.00  0.00    -0.400 OA 
HETATM   23  O   UNL     1     -12.432   9.316  72.040  1.00  0.00    -0.365 OA 
HETATM   24  N   UNL     1     -12.899   6.851  71.871  1.00  0.00    -0.516 N  
HETATM   25  H1  UNL     1     -13.535   6.863  72.670  1.00  0.00     0.000 HD 
HETATM   26  H2  UNL     1     -12.951   6.230  71.064  1.00  0.00     0.000 HD 
ENDBRANCH  12  21
ENDBRANCH   3   5
ENDBRANCH   2   3
TORSDOF 7
ENDMDL
MODEL      129
REMARK 921   NORMALIZED FREE ENERGY PREDICTED BY IDOCK:   -3.19 KCAL/MOL
REMARK 922        TOTAL FREE ENERGY PREDICTED BY IDOCK:   -5.23 KCAL/MOL
REMARK 923 INTER-LIGAND FREE ENERGY PREDICTED BY IDOCK:   -4.86 KCAL/MOL
REMARK 924 INTRA-LIGAND FREE ENERGY PREDICTED BY IDOCK:   -0.37 KCAL/MOL
REMARK 927      BINDING AFFINITY PREDICTED BY RF-SCORE:    0.00 PKD
ROOT
HETATM    1  C   UNL     1     -11.816   6.027  72.274  1.00  0.00    -0.305 C  
HETATM    2  C   UNL     1     -11.071   7.040  71.415  1.00  0.00    -0.245 C  
ENDROOT
BRANCH   2   3
HETATM    3  N   UNL     1      -9.725   7.266  71.947  1.00  0.00    -0.156 NA 
HETATM    4  H   UNL     1      -9.448   6.499  72.560  1.00  0.00     0.000 HD 
BRANCH   3   5
HETATM    5  C   UNL     1      -8.709   7.494  70.909  1.00  0.00    -0.142 C  
HETATM    6  C   UNL     1      -8.120   6.172  70.258  1.00  0.00    -0.112 C  
HETATM    7  N   UNL     1      -8.968   5.527  69.216  1.00  0.00    -0.111 N  
HETATM    8  C   UNL     1      -9.698   9.816  70.059  1.00  0.00    -0.292 A  
HETATM    9  S   UNL     1      -9.348   6.459  67.868  1.00  0.00    -0.113 S  
HETATM   10  O   UNL     1      -8.125   6.687  67.126  1.00  0.00    -0.111 OA 
HETATM   11  C   UNL     1      -9.680   8.025  68.609  1.00  0.00    -0.159 A  
HETATM   12  C   UNL     1     -10.319  10.353  68.943  1.00  0.00    -0.209 A  
HETATM   13  O   UNL     1     -10.570   5.993  67.259  1.00  0.00    -0.225 OA 
HETATM   14  S   UNL     1     -10.421   9.218  67.667  1.00  0.00    -0.255 SA 
HETATM   15  C   UNL     1      -9.350   8.432  69.888  1.00  0.00    -0.155 A  
BRANCH   7  16
HETATM   16  C   UNL     1      -9.773   4.346  69.544  1.00  0.00    -0.210 C  
BRANCH  16  17
HETATM   17  C   UNL     1      -8.960   3.067  69.609  1.00  0.00    -0.166 C  
BRANCH  17  18
HETATM   18  C   UNL     1      -8.725   2.632  71.048  1.00  0.00    -0.067 C  
BRANCH  18  19
HETATM   19  O   UNL     1      -9.638   3.341  71.883  1.00  0.00    -0.129 OA 
HETATM   20  C   UNL     1      -9.486   2.977  73.248  1.00  0.00    -0.093 C  
ENDBRANCH  18  19
ENDBRANCH  17  18
ENDBRANCH  16  17
ENDBRANCH   7  16
BRANCH  12  21
HETATM   21  S   UNL     1     -10.991  11.962  68.591  1.00  0.00    -0.243 S  
HETATM   22  O   UNL     1      -9.874  12.766  68.160  1.00  0.00    -0.216 OA 
HETATM   23  O   UNL     1     -12.147  11.698  67.769  1.00  0.00    -0.613 OA 
HETATM   24  N   UNL     1     -11.549  12.588  70.044  1.00  0.00    -0.530 N  
HETATM   25  H1  UNL     1     -11.934  13.511  69.842  1.00  0.00     0.000 HD 
HETATM   26  H2  UNL     1     -11.511  12.133  70.956  1.00  0.00     0.000 HD 
ENDBRANCH  12  21
ENDBRANCH   3   5
ENDBRANCH   2   3
TORSDOF 7
ENDMDL
MODEL      130
REMARK 921   NORMALIZED FREE ENERGY PREDICTED BY IDOCK:   -3.15 KCAL/MOL
REMARK 922        TOTAL FREE ENERGY PREDICTED BY IDOCK:   -5.18 KCAL/MOL
REMARK 923 INTER-LIGAND FREE ENERGY PREDICTED BY IDOCK:   -4.15 KCAL/MOL
REMARK 924 INTRA-LIGAND FREE ENERGY PREDICTED BY IDOCK:   -1.03 KCAL/MOL
REMARK 927      BINDING AFFINITY PREDICTED BY RF-SCORE:    0.00 PKD
ROOT
HETATM    1  C   UNL     1      -6.379   9.729  66.685  1.00  0.00    -0.066 C  
HETATM    2  C   UNL     1      -6.469   9.319  68.149  1.00  0.00    -0.058 C  
ENDROOT
BRANCH   2   3
HETATM    3  N   UNL     1      -7.051   7.980  68.267  1.00  0.00    -0.086 NA 
HETATM    4  H   UNL     1      -7.250   7.759  69.243  1.00  0.00     0.000 HD 
BRANCH   3   5
HETATM    5  C   UNL     1      -8.248   7.779  67.435  1.00  0.00    -0.123 C  
HETATM    6  C   UNL     1      -8.103   6.647  66.332  1.00  0.00    -0.113 C  
HETATM    7  N   UNL     1      -8.264   5.246  66.815  1.00  0.00    -0.108 N  
HETATM    8  C   UNL     1     -10.008   8.465  69.311  1.00  0.00    -0.195 A  
HETATM    9  S   UNL     1      -9.731   4.861  67.542  1.00  0.00    -0.165 S  
HETATM   10  O   UNL     1     -10.762   4.923  66.527  1.00  0.00    -0.253 OA 
HETATM   11  C   UNL     1     -10.024   6.301  68.518  1.00  0.00    -0.144 A  
HETATM   12  C   UNL     1     -10.997   7.888  70.092  1.00  0.00    -0.233 A  
HETATM   13  O   UNL     1      -9.571   3.745  68.443  1.00  0.00    -0.162 OA 
HETATM   14  S   UNL     1     -11.244   6.244  69.688  1.00  0.00    -0.417 SA 
HETATM   15  C   UNL     1      -9.400   7.529  68.405  1.00  0.00    -0.141 A  
BRANCH   7  16
HETATM   16  C   UNL     1      -7.086   4.402  67.041  1.00  0.00    -0.068 C  
BRANCH  16  17
HETATM   17  C   UNL     1      -6.128   4.974  68.069  1.00  0.00    -0.027 C  
BRANCH  17  18
HETATM   18  C   UNL     1      -6.460   4.480  69.469  1.00  0.00    -0.032 C  
BRANCH  18  19
HETATM   19  O   UNL     1      -7.158   5.516  70.156  1.00  0.00    -0.061 OA 
HETATM   20  C   UNL     1      -7.930   5.001  71.231  1.00  0.00    -0.109 C  
ENDBRANCH  18  19
ENDBRANCH  17  18
ENDBRANCH  16  17
ENDBRANCH   7  16
BRANCH  12  21
HETATM   21  S   UNL     1     -12.043   8.524  71.382  1.00  0.00    -0.305 S  
HETATM   22  O   UNL     1     -11.470   8.054  72.619  1.00  0.00    -0.381 OA 
HETATM   23  O   UNL     1     -12.204   9.921  71.059  1.00  0.00    -0.309 OA 
HETATM   24  N   UNL     1     -13.544   7.798  71.198  1.00  0.00    -0.590 N  
HETATM   25  H1  UNL     1     -14.145   8.163  71.939  1.00  0.00     0.000 HD 
HETATM   26  H2  UNL     1     -13.808   7.120  70.483  1.00  0.00     0.000 HD 
ENDBRANCH  12  21
ENDBRANCH   3   5
ENDBRANCH   2   3
TORSDOF 7
ENDMDL
MODEL      131
REMARK 921   NORMALIZED FREE ENERGY PREDICTED BY IDOCK:   -3.14 KCAL/MOL
REMARK 922        TOTAL FREE ENERGY PREDICTED BY IDOCK:   -5.16 KCAL/MOL
REMARK 923 INTER-LIGAND FREE ENERGY PREDICTED BY IDOCK:   -4.54 KCAL/MOL
REMARK 924 INTRA-LIGAND FREE ENERGY PREDICTED BY IDOCK:   -0.62 KCAL/MOL
REMARK 927      BINDING AFFINITY PREDICTED BY RF-SCORE:    0.00 PKD
ROOT
HETATM    1  C   UNL     1      -9.990   4.468  65.950  1.00  0.00    -0.260 C  
HETATM    2  C   UNL     1      -9.615   5.930  66.152  1.00  0.00    -0.076 C  
ENDROOT
BRANCH   2   3
HETATM    3  N   UNL     1     -10.079   6.399  67.459  1.00  0.00    -0.141 NA 
HETATM    4  H   UNL     1     -10.623   5.674  67.929  1.00  0.00     0.000 HD 
BRANCH   3   5
HETATM    5  C   UNL     1      -8.999   6.885  68.331  1.00  0.00    -0.121 C  
HETATM    6  C   UNL     1      -8.424   8.311  67.939  1.00  0.00    -0.132 C  
HETATM    7  N   UNL     1      -9.237   9.482  68.377  1.00  0.00    -0.130 N  
HETATM    8  C   UNL     1      -9.853   5.662  70.537  1.00  0.00    -0.249 A  
HETATM    9  S   UNL     1      -9.507   9.639  70.029  1.00  0.00    -0.241 S  
HETATM   10  O   UNL     1      -8.238   9.933  70.662  1.00  0.00    -0.210 OA 
HETATM   11  C   UNL     1      -9.822   7.966  70.492  1.00  0.00    -0.186 A  
HETATM   12  C   UNL     1     -10.392   5.974  71.775  1.00  0.00    -0.215 A  
HETATM   13  O   UNL     1     -10.710  10.397  70.275  1.00  0.00    -0.282 OA 
HETATM   14  S   UNL     1     -10.465   7.665  72.026  1.00  0.00    -0.224 SA 
HETATM   15  C   UNL     1      -9.548   6.829  69.755  1.00  0.00    -0.153 A  
BRANCH   7  16
HETATM   16  C   UNL     1     -10.101  10.181  67.420  1.00  0.00    -0.205 C  
BRANCH  16  17
HETATM   17  C   UNL     1      -9.387  10.568  66.139  1.00  0.00    -0.210 C  
BRANCH  17  18
HETATM   18  C   UNL     1     -10.281  10.366  64.924  1.00  0.00    -0.260 C  
BRANCH  18  19
HETATM   19  O   UNL     1      -9.453  10.047  63.808  1.00  0.00    -0.280 OA 
HETATM   20  C   UNL     1      -8.535   9.008  64.120  1.00  0.00    -0.170 C  
ENDBRANCH  18  19
ENDBRANCH  17  18
ENDBRANCH  16  17
ENDBRANCH   7  16
BRANCH  12  21
HETATM   21  S   UNL     1     -10.983   4.974  73.122  1.00  0.00    -0.331 S  
HETATM   22  O   UNL     1     -10.592   3.622  72.807  1.00  0.00    -0.161 OA 
HETATM   23  O   UNL     1     -10.550   5.674  74.307  1.00  0.00    -0.262 OA 
HETATM   24  N   UNL     1     -12.659   5.048  73.088  1.00  0.00    -0.042 N  
HETATM   25  H1  UNL     1     -12.999   4.474  73.861  1.00  0.00     0.000 HD 
HETATM   26  H2  UNL     1     -13.231   5.568  72.422  1.00  0.00     0.000 HD 
ENDBRANCH  12  21
ENDBRANCH   3   5
ENDBRANCH   2   3
TORSDOF 7
ENDMDL
MODEL      132
REMARK 921   NORMALIZED FREE ENERGY PREDICTED BY IDOCK:   -3.11 KCAL/MOL
REMARK 922        TOTAL FREE ENERGY PREDICTED BY IDOCK:   -5.11 KCAL/MOL
REMARK 923 INTER-LIGAND FREE ENERGY PREDICTED BY IDOCK:   -4.82 KCAL/MOL
REMARK 924 INTRA-LIGAND FREE ENERGY PREDICTED BY IDOCK:   -0.30 KCAL/MOL
REMARK 927      BINDING AFFINITY PREDICTED BY RF-SCORE:    0.00 PKD
ROOT
HETATM    1  C   UNL     1     -10.609   9.875  67.274  1.00  0.00    -0.316 C  
HETATM    2  C   UNL     1     -10.172   8.468  67.657  1.00  0.00    -0.236 C  
ENDROOT
BRANCH   2   3
HETATM    3  N   UNL     1     -11.079   7.477  67.072  1.00  0.00    -0.489 NA 
HETATM    4  H   UNL     1     -11.202   7.649  66.073  1.00  0.00     0.000 HD 
BRANCH   3   5
HETATM    5  C   UNL     1     -10.670   6.085  67.313  1.00  0.00    -0.318 C  
HETATM    6  C   UNL     1      -9.545   5.547  66.331  1.00  0.00    -0.158 C  
HETATM    7  N   UNL     1      -8.149   5.961  66.654  1.00  0.00    -0.102 N  
HETATM    8  C   UNL     1     -11.122   6.114  69.937  1.00  0.00    -0.481 A  
HETATM    9  S   UNL     1      -7.560   5.514  68.164  1.00  0.00    -0.081 S  
HETATM   10  O   UNL     1      -7.431   4.072  68.184  1.00  0.00    -0.065 OA 
HETATM   11  C   UNL     1      -8.962   5.819  69.190  1.00  0.00    -0.118 A  
HETATM   12  C   UNL     1     -10.418   6.060  71.129  1.00  0.00    -0.230 A  
HETATM   13  O   UNL     1      -6.508   6.410  68.581  1.00  0.00    -0.045 OA 
HETATM   14  S   UNL     1      -8.746   5.815  70.867  1.00  0.00    -0.135 SA 
HETATM   15  C   UNL     1     -10.269   6.011  68.784  1.00  0.00    -0.236 A  
BRANCH   7  16
HETATM   16  C   UNL     1      -7.507   7.045  65.904  1.00  0.00    -0.080 C  
BRANCH  16  17
HETATM   17  C   UNL     1      -7.659   6.906  64.401  1.00  0.00    -0.108 C  
BRANCH  17  18
HETATM   18  C   UNL     1      -7.671   8.265  63.718  1.00  0.00    -0.145 C  
BRANCH  18  19
HETATM   19  O   UNL     1      -8.670   9.070  64.341  1.00  0.00    -0.186 OA 
HETATM   20  C   UNL     1      -9.014  10.188  63.536  1.00  0.00    -0.245 C  
ENDBRANCH  18  19
ENDBRANCH  17  18
ENDBRANCH  16  17
ENDBRANCH   7  16
BRANCH  12  21
HETATM   21  S   UNL     1     -10.918   6.172  72.833  1.00  0.00    -0.251 S  
HETATM   22  O   UNL     1      -9.751   5.826  73.606  1.00  0.00    -0.149 OA 
HETATM   23  O   UNL     1     -11.588   7.447  72.929  1.00  0.00    -0.262 OA 
HETATM   24  N   UNL     1     -12.076   4.984  73.083  1.00  0.00    -0.381 N  
HETATM   25  H1  UNL     1     -12.363   5.049  74.060  1.00  0.00     0.000 HD 
HETATM   26  H2  UNL     1     -12.428   4.323  72.390  1.00  0.00     0.000 HD 
ENDBRANCH  12  21
ENDBRANCH   3   5
ENDBRANCH   2   3
TORSDOF 7
ENDMDL
MODEL      133
REMARK 921   NORMALIZED FREE ENERGY PREDICTED BY IDOCK:   -3.09 KCAL/MOL
REMARK 922        TOTAL FREE ENERGY PREDICTED BY IDOCK:   -5.08 KCAL/MOL
REMARK 923 INTER-LIGAND FREE ENERGY PREDICTED BY IDOCK:   -4.99 KCAL/MOL
REMARK 924 INTRA-LIGAND FREE ENERGY PREDICTED BY IDOCK:   -0.09 KCAL/MOL
REMARK 927      BINDING AFFINITY PREDICTED BY RF-SCORE:    0.00 PKD
ROOT
HETATM    1  C   UNL     1     -11.072   9.040  71.480  1.00  0.00    -0.419 C  
HETATM    2  C   UNL     1     -10.591   8.140  70.350  1.00  0.00    -0.224 C  
ENDROOT
BRANCH   2   3
HETATM    3  N   UNL     1     -11.701   7.336  69.833  1.00  0.00    -0.526 NA 
HETATM    4  H   UNL     1     -12.316   7.905  69.251  1.00  0.00     0.000 HD 
BRANCH   3   5
HETATM    5  C   UNL     1     -11.272   6.130  69.109  1.00  0.00    -0.339 C  
HETATM    6  C   UNL     1     -10.981   6.353  67.565  1.00  0.00    -0.364 C  
HETATM    7  N   UNL     1      -9.661   6.962  67.234  1.00  0.00    -0.137 N  
HETATM    8  C   UNL     1     -10.051   4.985  71.181  1.00  0.00    -0.293 A  
HETATM    9  S   UNL     1      -8.294   6.126  67.745  1.00  0.00    -0.116 S  
HETATM   10  O   UNL     1      -8.223   4.888  66.996  1.00  0.00    -0.107 OA 
HETATM   11  C   UNL     1      -8.786   5.605  69.357  1.00  0.00    -0.109 A  
HETATM   12  C   UNL     1      -8.774   4.650  71.599  1.00  0.00    -0.121 A  
HETATM   13  O   UNL     1      -7.177   7.026  67.896  1.00  0.00    -0.086 OA 
HETATM   14  S   UNL     1      -7.604   4.989  70.398  1.00  0.00    -0.064 SA 
HETATM   15  C   UNL     1     -10.068   5.584  69.874  1.00  0.00    -0.305 A  
BRANCH   7  16
HETATM   16  C   UNL     1      -9.568   8.385  66.891  1.00  0.00    -0.202 C  
BRANCH  16  17
HETATM   17  C   UNL     1     -10.869   9.137  67.095  1.00  0.00    -0.094 C  
BRANCH  17  18
HETATM   18  C   UNL     1     -10.620  10.536  67.639  1.00  0.00    -0.250 C  
BRANCH  18  19
HETATM   19  O   UNL     1     -11.767  11.335  67.358  1.00  0.00    -0.580 OA 
HETATM   20  C   UNL     1     -11.721  12.573  68.053  1.00  0.00    -0.355 C  
ENDBRANCH  18  19
ENDBRANCH  17  18
ENDBRANCH  16  17
ENDBRANCH   7  16
BRANCH  12  21
HETATM   21  S   UNL     1      -8.143   3.932  73.100  1.00  0.00    -0.089 S  
HETATM   22  O   UNL     1      -9.297   3.678  73.927  1.00  0.00    -0.093 OA 
HETATM   23  O   UNL     1      -7.240   2.899  72.653  1.00  0.00    -0.037 OA 
HETATM   24  N   UNL     1      -7.215   5.109  73.853  1.00  0.00    -0.082 N  
HETATM   25  H1  UNL     1      -6.853   4.698  74.714  1.00  0.00     0.000 HD 
HETATM   26  H2  UNL     1      -7.044   6.057  73.516  1.00  0.00     0.000 HD 
ENDBRANCH  12  21
ENDBRANCH   3   5
ENDBRANCH   2   3
TORSDOF 7
ENDMDL
MODEL      134
REMARK 921   NORMALIZED FREE ENERGY PREDICTED BY IDOCK:   -3.08 KCAL/MOL
REMARK 922        TOTAL FREE ENERGY PREDICTED BY IDOCK:   -5.07 KCAL/MOL
REMARK 923 INTER-LIGAND FREE ENERGY PREDICTED BY IDOCK:   -4.58 KCAL/MOL
REMARK 924 INTRA-LIGAND FREE ENERGY PREDICTED BY IDOCK:   -0.49 KCAL/MOL
REMARK 927      BINDING AFFINITY PREDICTED BY RF-SCORE:    0.00 PKD
ROOT
HETATM    1  C   UNL     1     -10.590   4.673  65.955  1.00  0.00    -0.265 C  
HETATM    2  C   UNL     1     -10.554   6.095  66.498  1.00  0.00    -0.144 C  
ENDROOT
BRANCH   2   3
HETATM    3  N   UNL     1     -10.705   6.087  67.955  1.00  0.00    -0.272 NA 
HETATM    4  H   UNL     1     -10.973   5.158  68.283  1.00  0.00     0.000 HD 
BRANCH   3   5
HETATM    5  C   UNL     1      -9.519   6.571  68.677  1.00  0.00    -0.123 C  
HETATM    6  C   UNL     1      -9.098   8.062  68.333  1.00  0.00    -0.136 C  
HETATM    7  N   UNL     1      -9.886   9.132  69.010  1.00  0.00    -0.170 N  
HETATM    8  C   UNL     1      -9.912   5.108  70.867  1.00  0.00    -0.280 A  
HETATM    9  S   UNL     1      -9.874   9.129  70.691  1.00  0.00    -0.269 S  
HETATM   10  O   UNL     1      -8.532   9.455  71.128  1.00  0.00    -0.303 OA 
HETATM   11  C   UNL     1     -10.013   7.405  71.038  1.00  0.00    -0.183 A  
HETATM   12  C   UNL     1     -10.244   5.276  72.202  1.00  0.00    -0.199 A  
HETATM   13  O   UNL     1     -11.056   9.777  71.206  1.00  0.00    -0.355 OA 
HETATM   14  S   UNL     1     -10.364   6.930  72.622  1.00  0.00    -0.216 SA 
HETATM   15  C   UNL     1      -9.810   6.356  70.160  1.00  0.00    -0.191 A  
BRANCH   7  16
HETATM   16  C   UNL     1     -10.939   9.848  68.282  1.00  0.00    -0.196 C  
BRANCH  16  17
HETATM   17  C   UNL     1     -10.403  10.925  67.358  1.00  0.00    -0.248 C  
BRANCH  17  18
HETATM   18  C   UNL     1      -9.075  11.474  67.860  1.00  0.00    -0.167 C  
BRANCH  18  19
HETATM   19  O   UNL     1      -8.975  12.838  67.457  1.00  0.00    -0.174 OA 
HETATM   20  C   UNL     1      -9.877  13.662  68.182  1.00  0.00    -0.236 C  
ENDBRANCH  18  19
ENDBRANCH  17  18
ENDBRANCH  16  17
ENDBRANCH   7  16
BRANCH  12  21
HETATM   21  S   UNL     1     -10.539   4.126  73.527  1.00  0.00    -0.232 S  
HETATM   22  O   UNL     1      -9.580   4.457  74.552  1.00  0.00    -0.114 OA 
HETATM   23  O   UNL     1     -11.967   4.166  73.728  1.00  0.00     0.032 OA 
HETATM   24  N   UNL     1     -10.165   2.598  72.942  1.00  0.00    -0.141 N  
HETATM   25  H1  UNL     1     -10.334   1.939  73.702  1.00  0.00     0.000 HD 
HETATM   26  H2  UNL     1      -9.832   2.372  72.005  1.00  0.00     0.000 HD 
ENDBRANCH  12  21
ENDBRANCH   3   5
ENDBRANCH   2   3
TORSDOF 7
ENDMDL
MODEL      135
REMARK 921   NORMALIZED FREE ENERGY PREDICTED BY IDOCK:   -3.06 KCAL/MOL
REMARK 922        TOTAL FREE ENERGY PREDICTED BY IDOCK:   -5.05 KCAL/MOL
REMARK 923 INTER-LIGAND FREE ENERGY PREDICTED BY IDOCK:   -4.72 KCAL/MOL
REMARK 924 INTRA-LIGAND FREE ENERGY PREDICTED BY IDOCK:   -0.33 KCAL/MOL
REMARK 927      BINDING AFFINITY PREDICTED BY RF-SCORE:    0.00 PKD
ROOT
HETATM    1  C   UNL     1     -11.140   5.909  72.351  1.00  0.00    -0.328 C  
HETATM    2  C   UNL     1     -10.584   7.004  71.451  1.00  0.00    -0.217 C  
ENDROOT
BRANCH   2   3
HETATM    3  N   UNL     1      -9.153   7.190  71.701  1.00  0.00    -0.137 NA 
HETATM    4  H   UNL     1      -8.751   6.355  72.128  1.00  0.00     0.000 HD 
BRANCH   3   5
HETATM    5  C   UNL     1      -8.389   7.581  70.506  1.00  0.00    -0.131 C  
HETATM    6  C   UNL     1      -7.819   6.366  69.660  1.00  0.00    -0.108 C  
HETATM    7  N   UNL     1      -8.793   5.690  68.755  1.00  0.00    -0.109 N  
HETATM    8  C   UNL     1      -9.743   9.825  70.035  1.00  0.00    -0.292 A  
HETATM    9  S   UNL     1      -9.519   6.646  67.578  1.00  0.00    -0.128 S  
HETATM   10  O   UNL     1      -8.495   7.043  66.633  1.00  0.00    -0.114 OA 
HETATM   11  C   UNL     1      -9.844   8.126  68.481  1.00  0.00    -0.179 A  
HETATM   12  C   UNL     1     -10.621  10.351  69.101  1.00  0.00    -0.228 A  
HETATM   13  O   UNL     1     -10.788   6.085  67.182  1.00  0.00    -0.301 OA 
HETATM   14  S   UNL     1     -10.867   9.281  67.789  1.00  0.00    -0.019 SA 
HETATM   15  C   UNL     1      -9.307   8.497  69.699  1.00  0.00    -0.157 A  
BRANCH   7  16
HETATM   16  C   UNL     1      -9.400   4.414  69.145  1.00  0.00    -0.155 C  
BRANCH  16  17
HETATM   17  C   UNL     1      -9.097   3.286  68.176  1.00  0.00    -0.214 C  
BRANCH  17  18
HETATM   18  C   UNL     1      -7.727   3.458  67.538  1.00  0.00    -0.077 C  
BRANCH  18  19
HETATM   19  O   UNL     1      -7.775   2.908  66.223  1.00  0.00    -0.075 OA 
HETATM   20  C   UNL     1      -8.545   3.719  65.347  1.00  0.00    -0.114 C  
ENDBRANCH  18  19
ENDBRANCH  17  18
ENDBRANCH  16  17
ENDBRANCH   7  16
BRANCH  12  21
HETATM   21  S   UNL     1     -11.499  11.895  69.003  1.00  0.00    -0.322 S  
HETATM   22  O   UNL     1     -12.126  11.908  67.705  1.00  0.00    -0.568 OA 
HETATM   23  O   UNL     1     -12.232  11.972  70.244  1.00  0.00    -0.312 OA 
HETATM   24  N   UNL     1     -10.347  13.116  69.034  1.00  0.00    -0.436 N  
HETATM   25  H1  UNL     1     -10.851  14.002  68.978  1.00  0.00     0.000 HD 
HETATM   26  H2  UNL     1      -9.336  12.995  69.097  1.00  0.00     0.000 HD 
ENDBRANCH  12  21
ENDBRANCH   3   5
ENDBRANCH   2   3
TORSDOF 7
ENDMDL
MODEL      136
REMARK 921   NORMALIZED FREE ENERGY PREDICTED BY IDOCK:   -3.04 KCAL/MOL
REMARK 922        TOTAL FREE ENERGY PREDICTED BY IDOCK:   -5.02 KCAL/MOL
REMARK 923 INTER-LIGAND FREE ENERGY PREDICTED BY IDOCK:   -5.20 KCAL/MOL
REMARK 924 INTRA-LIGAND FREE ENERGY PREDICTED BY IDOCK:    0.17 KCAL/MOL
REMARK 927      BINDING AFFINITY PREDICTED BY RF-SCORE:    0.00 PKD
ROOT
HETATM    1  C   UNL     1     -11.712  11.081  68.990  1.00  0.00    -0.402 C  
HETATM    2  C   UNL     1     -11.030   9.733  69.179  1.00  0.00    -0.175 C  
ENDROOT
BRANCH   2   3
HETATM    3  N   UNL     1     -11.113   8.943  67.949  1.00  0.00    -0.464 NA 
HETATM    4  H   UNL     1     -11.748   9.383  67.282  1.00  0.00     0.000 HD 
BRANCH   3   5
HETATM    5  C   UNL     1      -9.807   8.679  67.325  1.00  0.00    -0.197 C  
HETATM    6  C   UNL     1      -9.596   9.372  65.914  1.00  0.00    -0.270 C  
HETATM    7  N   UNL     1      -9.232  10.818  65.948  1.00  0.00    -0.182 N  
HETATM    8  C   UNL     1      -8.455   8.442  69.607  1.00  0.00    -0.127 A  
HETATM    9  S   UNL     1      -7.820  11.222  66.767  1.00  0.00    -0.151 S  
HETATM   10  O   UNL     1      -6.703  10.673  66.026  1.00  0.00    -0.122 OA 
HETATM   11  C   UNL     1      -7.928  10.178  68.184  1.00  0.00    -0.104 A  
HETATM   12  C   UNL     1      -7.477   9.109  70.328  1.00  0.00    -0.099 A  
HETATM   13  O   UNL     1      -7.874  12.589  67.223  1.00  0.00    -0.165 OA 
HETATM   14  S   UNL     1      -6.874  10.463  69.475  1.00  0.00    -0.109 SA 
HETATM   15  C   UNL     1      -8.757   9.085  68.357  1.00  0.00    -0.130 A  
BRANCH   7  16
HETATM   16  C   UNL     1     -10.246  11.843  65.680  1.00  0.00    -0.245 C  
BRANCH  16  17
HETATM   17  C   UNL     1     -10.239  12.332  64.244  1.00  0.00    -0.356 C  
BRANCH  17  18
HETATM   18  C   UNL     1     -11.649  12.406  63.677  1.00  0.00    -0.499 C  
BRANCH  18  19
HETATM   19  O   UNL     1     -12.525  12.841  64.714  1.00  0.00    -0.456 OA 
HETATM   20  C   UNL     1     -12.581  14.259  64.787  1.00  0.00    -0.291 C  
ENDBRANCH  18  19
ENDBRANCH  17  18
ENDBRANCH  16  17
ENDBRANCH   7  16
BRANCH  12  21
HETATM   21  S   UNL     1      -6.739   8.815  71.919  1.00  0.00    -0.010 S  
HETATM   22  O   UNL     1      -5.821   9.907  72.132  1.00  0.00    -0.294 OA 
HETATM   23  O   UNL     1      -7.855   8.531  72.788  1.00  0.00    -0.309 OA 
HETATM   24  N   UNL     1      -5.841   7.403  71.790  1.00  0.00    -0.036 N  
HETATM   25  H1  UNL     1      -5.417   7.235  72.702  1.00  0.00     0.000 HD 
HETATM   26  H2  UNL     1      -5.738   6.824  70.957  1.00  0.00     0.000 HD 
ENDBRANCH  12  21
ENDBRANCH   3   5
ENDBRANCH   2   3
TORSDOF 7
ENDMDL
MODEL      137
REMARK 921   NORMALIZED FREE ENERGY PREDICTED BY IDOCK:   -3.01 KCAL/MOL
REMARK 922        TOTAL FREE ENERGY PREDICTED BY IDOCK:   -4.97 KCAL/MOL
REMARK 923 INTER-LIGAND FREE ENERGY PREDICTED BY IDOCK:   -4.59 KCAL/MOL
REMARK 924 INTRA-LIGAND FREE ENERGY PREDICTED BY IDOCK:   -0.38 KCAL/MOL
REMARK 927      BINDING AFFINITY PREDICTED BY RF-SCORE:    0.00 PKD
ROOT
HETATM    1  C   UNL     1      -7.870   6.410  65.187  1.00  0.00    -0.111 C  
HETATM    2  C   UNL     1      -8.681   7.072  66.293  1.00  0.00    -0.146 C  
ENDROOT
BRANCH   2   3
HETATM    3  N   UNL     1     -10.079   6.644  66.223  1.00  0.00    -0.424 NA 
HETATM    4  H   UNL     1     -10.141   5.629  66.128  1.00  0.00     0.000 HD 
BRANCH   3   5
HETATM    5  C   UNL     1     -10.898   7.110  67.353  1.00  0.00    -0.276 C  
HETATM    6  C   UNL     1     -10.931   6.125  68.596  1.00  0.00    -0.336 C  
HETATM    7  N   UNL     1      -9.745   6.177  69.498  1.00  0.00    -0.144 N  
HETATM    8  C   UNL     1     -10.499   9.708  66.930  1.00  0.00    -0.282 A  
HETATM    9  S   UNL     1      -9.408   7.659  70.217  1.00  0.00    -0.156 S  
HETATM   10  O   UNL     1     -10.476   7.957  71.149  1.00  0.00    -0.204 OA 
HETATM   11  C   UNL     1      -9.704   8.771  68.880  1.00  0.00    -0.172 A  
HETATM   12  C   UNL     1      -9.863  10.788  67.521  1.00  0.00    -0.172 A  
HETATM   13  O   UNL     1      -8.009   7.748  70.560  1.00  0.00    -0.095 OA 
HETATM   14  S   UNL     1      -9.185  10.372  69.035  1.00  0.00    -0.187 SA 
HETATM   15  C   UNL     1     -10.380   8.503  67.704  1.00  0.00    -0.317 A  
BRANCH   7  16
HETATM   16  C   UNL     1      -8.705   5.147  69.413  1.00  0.00    -0.099 C  
BRANCH  16  17
HETATM   17  C   UNL     1      -9.189   3.858  68.776  1.00  0.00    -0.213 C  
BRANCH  17  18
HETATM   18  C   UNL     1      -8.406   3.538  67.511  1.00  0.00    -0.090 C  
BRANCH  18  19
HETATM   19  O   UNL     1      -8.705   2.198  67.127  1.00  0.00    -0.103 OA 
HETATM   20  C   UNL     1      -9.461   1.526  68.125  1.00  0.00    -0.168 C  
ENDBRANCH  18  19
ENDBRANCH  17  18
ENDBRANCH  16  17
ENDBRANCH   7  16
BRANCH  12  21
HETATM   21  S   UNL     1      -9.645  12.482  67.024  1.00  0.00    -0.222 S  
HETATM   22  O   UNL     1      -8.256  12.786  67.266  1.00  0.00    -0.178 OA 
HETATM   23  O   UNL     1     -10.263  12.558  65.722  1.00  0.00    -0.260 OA 
HETATM   24  N   UNL     1     -10.569  13.420  68.065  1.00  0.00    -0.237 N  
HETATM   25  H1  UNL     1     -10.444  14.392  67.780  1.00  0.00     0.000 HD 
HETATM   26  H2  UNL     1     -11.145  13.084  68.836  1.00  0.00     0.000 HD 
ENDBRANCH  12  21
ENDBRANCH   3   5
ENDBRANCH   2   3
TORSDOF 7
ENDMDL
MODEL      138
REMARK 921   NORMALIZED FREE ENERGY PREDICTED BY IDOCK:   -2.99 KCAL/MOL
REMARK 922        TOTAL FREE ENERGY PREDICTED BY IDOCK:   -4.95 KCAL/MOL
REMARK 923 INTER-LIGAND FREE ENERGY PREDICTED BY IDOCK:   -4.20 KCAL/MOL
REMARK 924 INTRA-LIGAND FREE ENERGY PREDICTED BY IDOCK:   -0.75 KCAL/MOL
REMARK 927      BINDING AFFINITY PREDICTED BY RF-SCORE:    0.00 PKD
ROOT
HETATM    1  C   UNL     1     -10.937   7.180  73.283  1.00  0.00    -0.325 C  
HETATM    2  C   UNL     1      -9.487   7.615  73.120  1.00  0.00    -0.243 C  
ENDROOT
BRANCH   2   3
HETATM    3  N   UNL     1      -9.106   7.596  71.707  1.00  0.00    -0.131 NA 
HETATM    4  H   UNL     1      -8.347   6.933  71.548  1.00  0.00     0.000 HD 
BRANCH   3   5
HETATM    5  C   UNL     1     -10.228   7.329  70.794  1.00  0.00    -0.197 C  
HETATM    6  C   UNL     1     -10.695   8.580  69.937  1.00  0.00    -0.224 C  
HETATM    7  N   UNL     1      -9.862   8.896  68.741  1.00  0.00    -0.169 N  
HETATM    8  C   UNL     1      -9.622   4.774  70.351  1.00  0.00    -0.267 A  
HETATM    9  S   UNL     1      -9.722   7.689  67.578  1.00  0.00    -0.167 S  
HETATM   10  O   UNL     1     -11.022   7.505  66.967  1.00  0.00    -0.306 OA 
HETATM   11  C   UNL     1      -9.532   6.254  68.586  1.00  0.00    -0.121 A  
HETATM   12  C   UNL     1      -9.172   3.960  69.324  1.00  0.00    -0.157 A  
HETATM   13  O   UNL     1      -8.506   7.857  66.820  1.00  0.00    -0.123 OA 
HETATM   14  S   UNL     1      -9.034   4.816  67.850  1.00  0.00    -0.115 SA 
HETATM   15  C   UNL     1      -9.801   6.139  69.937  1.00  0.00    -0.205 A  
BRANCH   7  16
HETATM   16  C   UNL     1      -8.888   9.991  68.787  1.00  0.00    -0.137 C  
BRANCH  16  17
HETATM   17  C   UNL     1      -9.481  11.337  68.418  1.00  0.00    -0.192 C  
BRANCH  17  18
HETATM   18  C   UNL     1      -9.942  11.360  66.968  1.00  0.00    -0.201 C  
BRANCH  18  19
HETATM   19  O   UNL     1     -11.139  12.131  66.892  1.00  0.00    -0.265 OA 
HETATM   20  C   UNL     1     -11.909  12.017  68.081  1.00  0.00    -0.286 C  
ENDBRANCH  18  19
ENDBRANCH  17  18
ENDBRANCH  16  17
ENDBRANCH   7  16
BRANCH  12  21
HETATM   21  S   UNL     1      -8.745   2.234  69.250  1.00  0.00    -0.091 S  
HETATM   22  O   UNL     1      -8.601   1.807  70.620  1.00  0.00    -0.048 OA 
HETATM   23  O   UNL     1      -9.705   1.665  68.334  1.00  0.00    -0.182 OA 
HETATM   24  N   UNL     1      -7.240   2.133  68.515  1.00  0.00    -0.043 N  
HETATM   25  H1  UNL     1      -6.995   1.143  68.473  1.00  0.00     0.000 HD 
HETATM   26  H2  UNL     1      -6.676   2.912  68.176  1.00  0.00     0.000 HD 
ENDBRANCH  12  21
ENDBRANCH   3   5
ENDBRANCH   2   3
TORSDOF 7
ENDMDL
MODEL      139
REMARK 921   NORMALIZED FREE ENERGY PREDICTED BY IDOCK:   -2.97 KCAL/MOL
REMARK 922        TOTAL FREE ENERGY PREDICTED BY IDOCK:   -4.92 KCAL/MOL
REMARK 923 INTER-LIGAND FREE ENERGY PREDICTED BY IDOCK:   -4.22 KCAL/MOL
REMARK 924 INTRA-LIGAND FREE ENERGY PREDICTED BY IDOCK:   -0.70 KCAL/MOL
REMARK 927      BINDING AFFINITY PREDICTED BY RF-SCORE:    0.00 PKD
ROOT
HETATM    1  C   UNL     1     -11.833  10.074  71.273  1.00  0.00    -0.471 C  
HETATM    2  C   UNL     1     -11.814  10.720  69.894  1.00  0.00    -0.335 C  
ENDROOT
BRANCH   2   3
HETATM    3  N   UNL     1     -10.563  10.403  69.202  1.00  0.00    -0.213 NA 
HETATM    4  H   UNL     1      -9.963   9.823  69.789  1.00  0.00     0.000 HD 
BRANCH   3   5
HETATM    5  C   UNL     1     -10.757   9.780  67.883  1.00  0.00    -0.258 C  
HETATM    6  C   UNL     1     -10.650  10.781  66.657  1.00  0.00    -0.232 C  
HETATM    7  N   UNL     1      -9.267  11.139  66.229  1.00  0.00    -0.188 N  
HETATM    8  C   UNL     1      -9.769   7.400  68.555  1.00  0.00    -0.152 A  
HETATM    9  S   UNL     1      -8.272   9.870  65.752  1.00  0.00    -0.130 S  
HETATM   10  O   UNL     1      -8.807   9.321  64.523  1.00  0.00    -0.198 OA 
HETATM   11  C   UNL     1      -8.666   8.645  66.958  1.00  0.00    -0.127 A  
HETATM   12  C   UNL     1      -8.673   6.597  68.280  1.00  0.00    -0.118 A  
HETATM   13  O   UNL     1      -6.884  10.224  65.924  1.00  0.00    -0.110 OA 
HETATM   14  S   UNL     1      -7.669   7.285  67.078  1.00  0.00    -0.113 SA 
HETATM   15  C   UNL     1      -9.756   8.629  67.809  1.00  0.00    -0.202 A  
BRANCH   7  16
HETATM   16  C   UNL     1      -8.683  12.426  66.617  1.00  0.00    -0.119 C  
BRANCH  16  17
HETATM   17  C   UNL     1      -9.723  13.477  66.960  1.00  0.00    -0.251 C  
BRANCH  17  18
HETATM   18  C   UNL     1      -9.581  13.947  68.400  1.00  0.00    -0.215 C  
BRANCH  18  19
HETATM   19  O   UNL     1     -10.545  14.971  68.633  1.00  0.00    -0.225 OA 
HETATM   20  C   UNL     1     -11.111  14.867  69.932  1.00  0.00    -0.259 C  
ENDBRANCH  18  19
ENDBRANCH  17  18
ENDBRANCH  16  17
ENDBRANCH   7  16
BRANCH  12  21
HETATM   21  S   UNL     1      -8.143   5.020  68.910  1.00  0.00    -0.084 S  
HETATM   22  O   UNL     1      -8.644   4.950  70.261  1.00  0.00    -0.092 OA 
HETATM   23  O   UNL     1      -8.503   4.080  67.876  1.00  0.00    -0.093 OA 
HETATM   24  N   UNL     1      -6.467   5.059  68.981  1.00  0.00    -0.035 N  
HETATM   25  H1  UNL     1      -6.163   4.154  69.343  1.00  0.00     0.000 HD 
HETATM   26  H2  UNL     1      -5.866   5.839  68.715  1.00  0.00     0.000 HD 
ENDBRANCH  12  21
ENDBRANCH   3   5
ENDBRANCH   2   3
TORSDOF 7
ENDMDL
MODEL      140
REMARK 921   NORMALIZED FREE ENERGY PREDICTED BY IDOCK:   -2.88 KCAL/MOL
REMARK 922        TOTAL FREE ENERGY PREDICTED BY IDOCK:   -4.79 KCAL/MOL
REMARK 923 INTER-LIGAND FREE ENERGY PREDICTED BY IDOCK:   -4.06 KCAL/MOL
REMARK 924 INTRA-LIGAND FREE ENERGY PREDICTED BY IDOCK:   -0.74 KCAL/MOL
REMARK 927      BINDING AFFINITY PREDICTED BY RF-SCORE:    0.00 PKD
ROOT
HETATM    1  C   UNL     1      -5.305   9.090  69.971  1.00  0.00    -0.028 C  
HETATM    2  C   UNL     1      -6.497   9.521  69.127  1.00  0.00    -0.045 C  
ENDROOT
BRANCH   2   3
HETATM    3  N   UNL     1      -7.081   8.366  68.443  1.00  0.00    -0.079 NA 
HETATM    4  H   UNL     1      -7.005   7.529  69.022  1.00  0.00     0.000 HD 
BRANCH   3   5
HETATM    5  C   UNL     1      -8.472   8.573  68.012  1.00  0.00    -0.131 C  
HETATM    6  C   UNL     1      -8.765   8.166  66.506  1.00  0.00    -0.143 C  
HETATM    7  N   UNL     1      -8.956   6.709  66.253  1.00  0.00    -0.152 N  
HETATM    8  C   UNL     1      -9.569   8.144  70.400  1.00  0.00    -0.171 A  
HETATM    9  S   UNL     1     -10.208   5.955  67.084  1.00  0.00    -0.232 S  
HETATM   10  O   UNL     1     -11.459   6.488  66.585  1.00  0.00    -0.046 OA 
HETATM   11  C   UNL     1     -10.055   6.686  68.682  1.00  0.00    -0.161 A  
HETATM   12  C   UNL     1     -10.374   7.215  71.040  1.00  0.00    -0.196 A  
HETATM   13  O   UNL     1      -9.946   4.543  67.221  1.00  0.00    -0.188 OA 
HETATM   14  S   UNL     1     -10.914   5.998  69.966  1.00  0.00    -0.379 SA 
HETATM   15  C   UNL     1      -9.343   7.823  69.018  1.00  0.00    -0.150 A  
BRANCH   7  16
HETATM   16  C   UNL     1      -7.869   5.911  65.676  1.00  0.00    -0.101 C  
BRANCH  16  17
HETATM   17  C   UNL     1      -6.772   6.753  65.054  1.00  0.00    -0.050 C  
BRANCH  17  18
HETATM   18  C   UNL     1      -6.752   6.605  63.540  1.00  0.00    -0.048 C  
BRANCH  18  19
HETATM   19  O   UNL     1      -7.971   7.134  63.023  1.00  0.00    -0.126 OA 
HETATM   20  C   UNL     1      -7.844   8.510  62.692  1.00  0.00    -0.140 C  
ENDBRANCH  18  19
ENDBRANCH  17  18
ENDBRANCH  16  17
ENDBRANCH   7  16
BRANCH  12  21
HETATM   21  S   UNL     1     -10.951   7.068  72.716  1.00  0.00    -0.299 S  
HETATM   22  O   UNL     1     -11.301   5.680  72.889  1.00  0.00    -0.289 OA 
HETATM   23  O   UNL     1      -9.947   7.741  73.504  1.00  0.00    -0.317 OA 
HETATM   24  N   UNL     1     -12.359   7.974  72.831  1.00  0.00    -0.586 N  
HETATM   25  H1  UNL     1     -12.690   7.890  73.792  1.00  0.00     0.000 HD 
HETATM   26  H2  UNL     1     -12.800   8.508  72.082  1.00  0.00     0.000 HD 
ENDBRANCH  12  21
ENDBRANCH   3   5
ENDBRANCH   2   3
TORSDOF 7
ENDMDL
MODEL      141
REMARK 921   NORMALIZED FREE ENERGY PREDICTED BY IDOCK:   -2.86 KCAL/MOL
REMARK 922        TOTAL FREE ENERGY PREDICTED BY IDOCK:   -4.76 KCAL/MOL
REMARK 923 INTER-LIGAND FREE ENERGY PREDICTED BY IDOCK:   -4.13 KCAL/MOL
REMARK 924 INTRA-LIGAND FREE ENERGY PREDICTED BY IDOCK:   -0.62 KCAL/MOL
REMARK 927      BINDING AFFINITY PREDICTED BY RF-SCORE:    0.00 PKD
ROOT
HETATM    1  C   UNL     1     -11.733  12.436  64.420  1.00  0.00    -0.435 C  
HETATM    2  C   UNL     1     -10.673  11.453  63.943  1.00  0.00    -0.397 C  
ENDROOT
BRANCH   2   3
HETATM    3  N   UNL     1      -9.559  11.406  64.892  1.00  0.00    -0.279 NA 
HETATM    4  H   UNL     1      -8.899  12.162  64.710  1.00  0.00     0.000 HD 
BRANCH   3   5
HETATM    5  C   UNL     1      -9.981  11.413  66.301  1.00  0.00    -0.224 C  
HETATM    6  C   UNL     1     -10.013   9.983  66.989  1.00  0.00    -0.205 C  
HETATM    7  N   UNL     1      -8.695   9.448  67.438  1.00  0.00    -0.125 N  
HETATM    8  C   UNL     1      -9.019  13.831  66.866  1.00  0.00    -0.234 A  
HETATM    9  S   UNL     1      -7.847  10.372  68.557  1.00  0.00    -0.114 S  
HETATM   10  O   UNL     1      -8.589  10.357  69.801  1.00  0.00    -0.118 OA 
HETATM   11  C   UNL     1      -8.113  12.002  67.938  1.00  0.00    -0.150 A  
HETATM   12  C   UNL     1      -8.019  14.417  67.624  1.00  0.00    -0.179 A  
HETATM   13  O   UNL     1      -6.434  10.096  68.474  1.00  0.00    -0.049 OA 
HETATM   14  S   UNL     1      -7.177  13.263  68.565  1.00  0.00    -0.114 SA 
HETATM   15  C   UNL     1      -9.060  12.401  67.013  1.00  0.00    -0.207 A  
BRANCH   7  16
HETATM   16  C   UNL     1      -7.997   8.436  66.638  1.00  0.00    -0.097 C  
BRANCH  16  17
HETATM   17  C   UNL     1      -8.926   7.389  66.054  1.00  0.00    -0.156 C  
BRANCH  17  18
HETATM   18  C   UNL     1      -8.196   6.076  65.810  1.00  0.00    -0.136 C  
BRANCH  18  19
HETATM   19  O   UNL     1      -8.663   5.526  64.580  1.00  0.00    -0.117 OA 
HETATM   20  C   UNL     1      -7.671   4.719  63.961  1.00  0.00    -0.079 C  
ENDBRANCH  18  19
ENDBRANCH  17  18
ENDBRANCH  16  17
ENDBRANCH   7  16
BRANCH  12  21
HETATM   21  S   UNL     1      -7.477  16.101  67.814  1.00  0.00    -0.142 S  
HETATM   22  O   UNL     1      -6.734  16.136  69.050  1.00  0.00    -0.147 OA 
HETATM   23  O   UNL     1      -6.909  16.443  66.532  1.00  0.00    -0.213 OA 
HETATM   24  N   UNL     1      -8.854  17.040  68.010  1.00  0.00    -0.218 N  
HETATM   25  H1  UNL     1      -8.543  18.006  68.119  1.00  0.00     0.000 HD 
HETATM   26  H2  UNL     1      -9.818  16.708  68.020  1.00  0.00     0.000 HD 
ENDBRANCH  12  21
ENDBRANCH   3   5
ENDBRANCH   2   3
TORSDOF 7
ENDMDL
MODEL      142
REMARK 921   NORMALIZED FREE ENERGY PREDICTED BY IDOCK:   -2.84 KCAL/MOL
REMARK 922        TOTAL FREE ENERGY PREDICTED BY IDOCK:   -4.74 KCAL/MOL
REMARK 923 INTER-LIGAND FREE ENERGY PREDICTED BY IDOCK:   -4.42 KCAL/MOL
REMARK 924 INTRA-LIGAND FREE ENERGY PREDICTED BY IDOCK:   -0.31 KCAL/MOL
REMARK 927      BINDING AFFINITY PREDICTED BY RF-SCORE:    0.00 PKD
ROOT
HETATM    1  C   UNL     1     -11.989  11.284  68.223  1.00  0.00    -0.215 C  
HETATM    2  C   UNL     1     -11.258  11.395  66.892  1.00  0.00    -0.264 C  
ENDROOT
BRANCH   2   3
HETATM    3  N   UNL     1     -10.503  12.648  66.830  1.00  0.00    -0.239 NA 
HETATM    4  H   UNL     1     -11.104  13.416  66.531  1.00  0.00     0.000 HD 
BRANCH   3   5
HETATM    5  C   UNL     1      -9.812  12.986  68.083  1.00  0.00    -0.228 C  
HETATM    6  C   UNL     1      -8.891  11.831  68.663  1.00  0.00    -0.060 C  
HETATM    7  N   UNL     1      -7.552  11.685  68.023  1.00  0.00    -0.109 N  
HETATM    8  C   UNL     1      -9.595  15.593  67.585  1.00  0.00    -0.220 A  
HETATM    9  S   UNL     1      -6.537  13.024  68.080  1.00  0.00    -0.135 S  
HETATM   10  O   UNL     1      -6.159  13.239  69.462  1.00  0.00    -0.099 OA 
HETATM   11  C   UNL     1      -7.670  14.335  67.753  1.00  0.00    -0.163 A  
HETATM   12  C   UNL     1      -8.618  16.537  67.311  1.00  0.00    -0.184 A  
HETATM   13  O   UNL     1      -5.586  12.985  66.996  1.00  0.00    -0.312 OA 
HETATM   14  S   UNL     1      -7.047  15.865  67.393  1.00  0.00    -0.212 SA 
HETATM   15  C   UNL     1      -9.051  14.282  67.810  1.00  0.00    -0.195 A  
BRANCH   7  16
HETATM   16  C   UNL     1      -7.315  10.623  67.039  1.00  0.00    -0.102 C  
BRANCH  16  17
HETATM   17  C   UNL     1      -6.439   9.502  67.567  1.00  0.00    -0.062 C  
BRANCH  17  18
HETATM   18  C   UNL     1      -6.578   9.355  69.075  1.00  0.00    -0.046 C  
BRANCH  18  19
HETATM   19  O   UNL     1      -5.319   9.662  69.671  1.00  0.00    -0.034 OA 
HETATM   20  C   UNL     1      -5.427   9.783  71.083  1.00  0.00    -0.071 C  
ENDBRANCH  18  19
ENDBRANCH  17  18
ENDBRANCH  16  17
ENDBRANCH   7  16
BRANCH  12  21
HETATM   21  S   UNL     1      -8.690  18.271  66.922  1.00  0.00    -0.274 S  
HETATM   22  O   UNL     1      -8.503  18.961  68.175  1.00  0.00    -0.289 OA 
HETATM   23  O   UNL     1      -7.809  18.423  65.789  1.00  0.00    -0.510 OA 
HETATM   24  N   UNL     1     -10.247  18.589  66.384  1.00  0.00    -0.400 N  
HETATM   25  H1  UNL     1     -10.288  19.584  66.162  1.00  0.00     0.000 HD 
HETATM   26  H2  UNL     1     -11.009  17.916  66.297  1.00  0.00     0.000 HD 
ENDBRANCH  12  21
ENDBRANCH   3   5
ENDBRANCH   2   3
TORSDOF 7
ENDMDL
MODEL      143
REMARK 921   NORMALIZED FREE ENERGY PREDICTED BY IDOCK:   -2.79 KCAL/MOL
REMARK 922        TOTAL FREE ENERGY PREDICTED BY IDOCK:   -4.67 KCAL/MOL
REMARK 923 INTER-LIGAND FREE ENERGY PREDICTED BY IDOCK:   -4.16 KCAL/MOL
REMARK 924 INTRA-LIGAND FREE ENERGY PREDICTED BY IDOCK:   -0.50 KCAL/MOL
REMARK 927      BINDING AFFINITY PREDICTED BY RF-SCORE:    0.00 PKD
ROOT
HETATM    1  C   UNL     1     -10.605   4.856  65.984  1.00  0.00    -0.312 C  
HETATM    2  C   UNL     1     -10.286   6.146  66.727  1.00  0.00    -0.231 C  
ENDROOT
BRANCH   2   3
HETATM    3  N   UNL     1     -10.283   5.912  68.173  1.00  0.00    -0.166 NA 
HETATM    4  H   UNL     1     -10.800   5.062  68.401  1.00  0.00     0.000 HD 
BRANCH   3   5
HETATM    5  C   UNL     1      -8.937   5.875  68.764  1.00  0.00    -0.117 C  
HETATM    6  C   UNL     1      -8.046   7.152  68.460  1.00  0.00    -0.125 C  
HETATM    7  N   UNL     1      -8.326   8.354  69.296  1.00  0.00    -0.120 N  
HETATM    8  C   UNL     1      -9.610   4.426  70.895  1.00  0.00    -0.255 A  
HETATM    9  S   UNL     1      -8.150   8.176  70.958  1.00  0.00    -0.108 S  
HETATM   10  O   UNL     1      -6.745   7.967  71.238  1.00  0.00    -0.041 OA 
HETATM   11  C   UNL     1      -8.864   6.583  71.215  1.00  0.00    -0.137 A  
HETATM   12  C   UNL     1      -9.727   4.562  72.269  1.00  0.00    -0.163 A  
HETATM   13  O   UNL     1      -8.964   9.140  71.659  1.00  0.00    -0.336 OA 
HETATM   14  S   UNL     1      -9.204   6.101  72.800  1.00  0.00    -0.136 SA 
HETATM   15  C   UNL     1      -9.138   5.625  70.257  1.00  0.00    -0.163 A  
BRANCH   7  16
HETATM   16  C   UNL     1      -9.118   9.463  68.754  1.00  0.00    -0.132 C  
BRANCH  16  17
HETATM   17  C   UNL     1     -10.611   9.288  68.957  1.00  0.00    -0.225 C  
BRANCH  17  18
HETATM   18  C   UNL     1     -11.208  10.461  69.720  1.00  0.00    -0.293 C  
BRANCH  18  19
HETATM   19  O   UNL     1     -12.446  10.040  70.290  1.00  0.00    -0.166 OA 
HETATM   20  C   UNL     1     -12.243   9.137  71.367  1.00  0.00    -0.335 C  
ENDBRANCH  18  19
ENDBRANCH  17  18
ENDBRANCH  16  17
ENDBRANCH   7  16
BRANCH  12  21
HETATM   21  S   UNL     1     -10.282   3.458  73.549  1.00  0.00    -0.151 S  
HETATM   22  O   UNL     1     -10.907   4.295  74.543  1.00  0.00    -0.250 OA 
HETATM   23  O   UNL     1     -10.974   2.407  72.843  1.00  0.00    -0.122 OA 
HETATM   24  N   UNL     1      -8.912   2.774  74.234  1.00  0.00    -0.078 N  
HETATM   25  H1  UNL     1      -9.230   2.142  74.969  1.00  0.00     0.000 HD 
HETATM   26  H2  UNL     1      -7.944   2.957  73.969  1.00  0.00     0.000 HD 
ENDBRANCH  12  21
ENDBRANCH   3   5
ENDBRANCH   2   3
TORSDOF 7
ENDMDL
MODEL      144
REMARK 921   NORMALIZED FREE ENERGY PREDICTED BY IDOCK:   -2.75 KCAL/MOL
REMARK 922        TOTAL FREE ENERGY PREDICTED BY IDOCK:   -4.61 KCAL/MOL
REMARK 923 INTER-LIGAND FREE ENERGY PREDICTED BY IDOCK:   -4.49 KCAL/MOL
REMARK 924 INTRA-LIGAND FREE ENERGY PREDICTED BY IDOCK:   -0.12 KCAL/MOL
REMARK 927      BINDING AFFINITY PREDICTED BY RF-SCORE:    0.00 PKD
ROOT
HETATM    1  C   UNL     1     -11.146   6.038  66.839  1.00  0.00    -0.253 C  
HETATM    2  C   UNL     1     -10.398   7.347  67.055  1.00  0.00    -0.314 C  
ENDROOT
BRANCH   2   3
HETATM    3  N   UNL     1      -9.019   7.229  66.579  1.00  0.00    -0.146 NA 
HETATM    4  H   UNL     1      -8.891   7.752  65.712  1.00  0.00     0.000 HD 
BRANCH   3   5
HETATM    5  C   UNL     1      -8.012   7.624  67.576  1.00  0.00    -0.120 C  
HETATM    6  C   UNL     1      -7.745   9.186  67.661  1.00  0.00    -0.089 C  
HETATM    7  N   UNL     1      -8.748   9.976  68.433  1.00  0.00    -0.115 N  
HETATM    8  C   UNL     1      -8.505   5.631  69.272  1.00  0.00    -0.106 A  
HETATM    9  S   UNL     1      -8.962   9.554  70.046  1.00  0.00    -0.236 S  
HETATM   10  O   UNL     1      -7.744   9.883  70.759  1.00  0.00    -0.293 OA 
HETATM   11  C   UNL     1      -8.923   7.793  69.954  1.00  0.00    -0.146 A  
HETATM   12  C   UNL     1      -9.032   5.429  70.537  1.00  0.00    -0.134 A  
HETATM   13  O   UNL     1     -10.275   9.941  70.500  1.00  0.00    -0.278 OA 
HETATM   14  S   UNL     1      -9.420   6.907  71.306  1.00  0.00    -0.164 SA 
HETATM   15  C   UNL     1      -8.470   7.020  68.902  1.00  0.00    -0.125 A  
BRANCH   7  16
HETATM   16  C   UNL     1      -9.776  10.750  67.731  1.00  0.00    -0.162 C  
BRANCH  16  17
HETATM   17  C   UNL     1      -9.219  11.621  66.621  1.00  0.00    -0.196 C  
BRANCH  17  18
HETATM   18  C   UNL     1     -10.252  12.627  66.135  1.00  0.00    -0.258 C  
BRANCH  18  19
HETATM   19  O   UNL     1     -11.441  11.917  65.796  1.00  0.00    -0.329 OA 
HETATM   20  C   UNL     1     -12.330  12.725  65.037  1.00  0.00    -0.499 C  
ENDBRANCH  18  19
ENDBRANCH  17  18
ENDBRANCH  16  17
ENDBRANCH   7  16
BRANCH  12  21
HETATM   21  S   UNL     1      -9.352   3.962  71.492  1.00  0.00    -0.147 S  
HETATM   22  O   UNL     1      -9.769   2.960  70.543  1.00  0.00    -0.141 OA 
HETATM   23  O   UNL     1      -8.192   3.824  72.339  1.00  0.00    -0.085 OA 
HETATM   24  N   UNL     1     -10.656   4.303  72.491  1.00  0.00    -0.151 N  
HETATM   25  H1  UNL     1     -10.839   3.461  73.039  1.00  0.00     0.000 HD 
HETATM   26  H2  UNL     1     -11.169   5.183  72.542  1.00  0.00     0.000 HD 
ENDBRANCH  12  21
ENDBRANCH   3   5
ENDBRANCH   2   3
TORSDOF 7
ENDMDL
MODEL      145
REMARK 921   NORMALIZED FREE ENERGY PREDICTED BY IDOCK:   -2.72 KCAL/MOL
REMARK 922        TOTAL FREE ENERGY PREDICTED BY IDOCK:   -4.56 KCAL/MOL
REMARK 923 INTER-LIGAND FREE ENERGY PREDICTED BY IDOCK:   -4.38 KCAL/MOL
REMARK 924 INTRA-LIGAND FREE ENERGY PREDICTED BY IDOCK:   -0.18 KCAL/MOL
REMARK 927      BINDING AFFINITY PREDICTED BY RF-SCORE:    0.00 PKD
ROOT
HETATM    1  C   UNL     1     -11.160   6.306  67.159  1.00  0.00    -0.389 C  
HETATM    2  C   UNL     1     -10.324   7.504  66.730  1.00  0.00    -0.262 C  
ENDROOT
BRANCH   2   3
HETATM    3  N   UNL     1      -9.218   7.071  65.873  1.00  0.00    -0.375 NA 
HETATM    4  H   UNL     1      -9.392   7.333  64.902  1.00  0.00     0.000 HD 
BRANCH   3   5
HETATM    5  C   UNL     1      -7.901   7.557  66.314  1.00  0.00    -0.102 C  
HETATM    6  C   UNL     1      -7.468   8.949  65.689  1.00  0.00    -0.086 C  
HETATM    7  N   UNL     1      -8.070  10.160  66.317  1.00  0.00    -0.121 N  
HETATM    8  C   UNL     1      -7.991   6.445  68.732  1.00  0.00    -0.110 A  
HETATM    9  S   UNL     1      -7.772  10.387  67.956  1.00  0.00    -0.093 S  
HETATM   10  O   UNL     1      -6.360  10.667  68.118  1.00  0.00    -0.057 OA 
HETATM   11  C   UNL     1      -7.941   8.744  68.573  1.00  0.00    -0.112 A  
HETATM   12  C   UNL     1      -8.082   6.820  70.063  1.00  0.00    -0.125 A  
HETATM   13  O   UNL     1      -8.812  11.190  68.553  1.00  0.00    -0.151 OA 
HETATM   14  S   UNL     1      -8.040   8.520  70.246  1.00  0.00    -0.113 SA 
HETATM   15  C   UNL     1      -7.946   7.572  67.840  1.00  0.00    -0.119 A  
BRANCH   7  16
HETATM   16  C   UNL     1      -9.193  10.847  65.671  1.00  0.00    -0.203 C  
BRANCH  16  17
HETATM   17  C   UNL     1      -9.545  10.273  64.312  1.00  0.00    -0.375 C  
BRANCH  17  18
HETATM   18  C   UNL     1     -10.442  11.219  63.527  1.00  0.00    -0.395 C  
BRANCH  18  19
HETATM   19  O   UNL     1     -10.802  12.304  64.379  1.00  0.00    -0.291 OA 
HETATM   20  C   UNL     1     -11.696  13.199  63.733  1.00  0.00    -0.461 C  
ENDBRANCH  18  19
ENDBRANCH  17  18
ENDBRANCH  16  17
ENDBRANCH   7  16
BRANCH  12  21
HETATM   21  S   UNL     1      -8.206   5.890  71.574  1.00  0.00    -0.120 S  
HETATM   22  O   UNL     1      -9.369   5.050  71.422  1.00  0.00    -0.142 OA 
HETATM   23  O   UNL     1      -6.875   5.376  71.792  1.00  0.00    -0.060 OA 
HETATM   24  N   UNL     1      -8.519   6.989  72.802  1.00  0.00    -0.114 N  
HETATM   25  H1  UNL     1      -8.590   6.456  73.669  1.00  0.00     0.000 HD 
HETATM   26  H2  UNL     1      -8.619   7.999  72.702  1.00  0.00     0.000 HD 
ENDBRANCH  12  21
ENDBRANCH   3   5
ENDBRANCH   2   3
TORSDOF 7
ENDMDL
MODEL      146
REMARK 921   NORMALIZED FREE ENERGY PREDICTED BY IDOCK:   -2.71 KCAL/MOL
REMARK 922        TOTAL FREE ENERGY PREDICTED BY IDOCK:   -4.55 KCAL/MOL
REMARK 923 INTER-LIGAND FREE ENERGY PREDICTED BY IDOCK:   -5.30 KCAL/MOL
REMARK 924 INTRA-LIGAND FREE ENERGY PREDICTED BY IDOCK:    0.75 KCAL/MOL
REMARK 927      BINDING AFFINITY PREDICTED BY RF-SCORE:    0.00 PKD
ROOT
HETATM    1  C   UNL     1     -11.911  12.037  65.944  1.00  0.00    -0.232 C  
HETATM    2  C   UNL     1     -12.124  13.494  66.333  1.00  0.00    -0.417 C  
ENDROOT
BRANCH   2   3
HETATM    3  N   UNL     1     -11.023  13.961  67.178  1.00  0.00    -0.287 NA 
HETATM    4  H   UNL     1     -10.891  13.336  67.975  1.00  0.00     0.000 HD 
BRANCH   3   5
HETATM    5  C   UNL     1      -9.758  14.150  66.452  1.00  0.00    -0.298 C  
HETATM    6  C   UNL     1      -9.530  15.617  65.893  1.00  0.00    -0.341 C  
HETATM    7  N   UNL     1      -9.054  16.624  66.885  1.00  0.00    -0.218 N  
HETATM    8  C   UNL     1      -8.370  12.352  67.842  1.00  0.00    -0.165 A  
HETATM    9  S   UNL     1      -7.595  16.296  67.653  1.00  0.00    -0.151 S  
HETATM   10  O   UNL     1      -6.542  16.369  66.661  1.00  0.00    -0.255 OA 
HETATM   11  C   UNL     1      -7.748  14.568  67.969  1.00  0.00    -0.135 A  
HETATM   12  C   UNL     1      -7.326  12.298  68.751  1.00  0.00    -0.083 A  
HETATM   13  O   UNL     1      -7.531  16.971  68.927  1.00  0.00    -0.230 OA 
HETATM   14  S   UNL     1      -6.642  13.842  69.022  1.00  0.00    -0.111 SA 
HETATM   15  C   UNL     1      -8.653  13.690  67.401  1.00  0.00    -0.212 A  
BRANCH   7  16
HETATM   16  C   UNL     1      -9.993  17.588  67.468  1.00  0.00    -0.315 C  
BRANCH  16  17
HETATM   17  C   UNL     1      -9.312  18.666  68.290  1.00  0.00    -0.359 C  
BRANCH  17  18
HETATM   18  C   UNL     1      -9.928  20.032  68.030  1.00  0.00    -0.416 C  
BRANCH  18  19
HETATM   19  O   UNL     1      -9.450  20.506  66.773  1.00  0.00    -0.351 OA 
HETATM   20  C   UNL     1     -10.273  20.064  65.703  1.00  0.00    -0.258 C  
ENDBRANCH  18  19
ENDBRANCH  17  18
ENDBRANCH  16  17
ENDBRANCH   7  16
BRANCH  12  21
HETATM   21  S   UNL     1      -6.572  10.959  69.647  1.00  0.00    -0.136 S  
HETATM   22  O   UNL     1      -5.463  11.542  70.363  1.00  0.00    -0.101 OA 
HETATM   23  O   UNL     1      -7.676  10.292  70.294  1.00  0.00    -0.183 OA 
HETATM   24  N   UNL     1      -5.950   9.896  68.508  1.00  0.00    -0.042 N  
HETATM   25  H1  UNL     1      -5.518   9.128  69.022  1.00  0.00     0.000 HD 
HETATM   26  H2  UNL     1      -5.996   9.998  67.494  1.00  0.00     0.000 HD 
ENDBRANCH  12  21
ENDBRANCH   3   5
ENDBRANCH   2   3
TORSDOF 7
ENDMDL
MODEL      147
REMARK 921   NORMALIZED FREE ENERGY PREDICTED BY IDOCK:   -2.70 KCAL/MOL
REMARK 922        TOTAL FREE ENERGY PREDICTED BY IDOCK:   -4.53 KCAL/MOL
REMARK 923 INTER-LIGAND FREE ENERGY PREDICTED BY IDOCK:   -4.31 KCAL/MOL
REMARK 924 INTRA-LIGAND FREE ENERGY PREDICTED BY IDOCK:   -0.23 KCAL/MOL
REMARK 927      BINDING AFFINITY PREDICTED BY RF-SCORE:    0.00 PKD
ROOT
HETATM    1  C   UNL     1     -12.234  14.810  71.376  1.00  0.00    -0.400 C  
HETATM    2  C   UNL     1     -12.545  13.819  70.262  1.00  0.00    -0.222 C  
ENDROOT
BRANCH   2   3
HETATM    3  N   UNL     1     -12.280  14.424  68.955  1.00  0.00    -0.553 NA 
HETATM    4  H   UNL     1     -11.364  14.873  68.945  1.00  0.00     0.000 HD 
BRANCH   3   5
HETATM    5  C   UNL     1     -12.410  13.484  67.830  1.00  0.00     0.061 C  
HETATM    6  C   UNL     1     -12.719  14.167  66.431  1.00  0.00    -0.038 C  
HETATM    7  N   UNL     1     -11.549  14.769  65.729  1.00  0.00    -0.327 N  
HETATM    8  C   UNL     1     -10.708  11.673  68.786  1.00  0.00    -0.254 A  
HETATM    9  S   UNL     1     -10.277  13.734  65.357  1.00  0.00    -0.309 S  
HETATM   10  O   UNL     1     -10.744  12.795  64.358  1.00  0.00    -0.329 OA 
HETATM   11  C   UNL     1     -10.178  12.761  66.825  1.00  0.00    -0.239 A  
HETATM   12  C   UNL     1      -9.457  11.148  68.503  1.00  0.00    -0.193 A  
HETATM   13  O   UNL     1      -9.044  14.473  65.235  1.00  0.00     0.602 OA 
HETATM   14  S   UNL     1      -8.820  11.779  67.047  1.00  0.00    -0.187 SA 
HETATM   15  C   UNL     1     -11.128  12.655  67.824  1.00  0.00    -0.287 A  
BRANCH   7  16
HETATM   16  C   UNL     1     -11.333  16.219  65.763  1.00  0.00     0.359 C  
BRANCH  16  17
HETATM   17  C   UNL     1     -10.474  16.670  66.929  1.00  0.00    -0.271 C  
BRANCH  17  18
HETATM   18  C   UNL     1      -9.548  17.808  66.526  1.00  0.00    -0.308 C  
BRANCH  18  19
HETATM   19  O   UNL     1      -9.943  18.979  67.237  1.00  0.00    -0.317 OA 
HETATM   20  C   UNL     1      -9.031  19.286  68.282  1.00  0.00    -0.335 C  
ENDBRANCH  18  19
ENDBRANCH  17  18
ENDBRANCH  16  17
ENDBRANCH   7  16
BRANCH  12  21
HETATM   21  S   UNL     1      -8.431   9.957  69.336  1.00  0.00    -0.179 S  
HETATM   22  O   UNL     1      -9.290   9.298  70.289  1.00  0.00    -0.201 OA 
HETATM   23  O   UNL     1      -7.744   9.266  68.271  1.00  0.00    -0.086 OA 
HETATM   24  N   UNL     1      -7.274  10.820  70.191  1.00  0.00    -0.293 N  
HETATM   25  H1  UNL     1      -6.685  10.137  70.669  1.00  0.00     0.000 HD 
HETATM   26  H2  UNL     1      -7.178  11.835  70.228  1.00  0.00     0.000 HD 
ENDBRANCH  12  21
ENDBRANCH   3   5
ENDBRANCH   2   3
TORSDOF 7
ENDMDL
MODEL      148
REMARK 921   NORMALIZED FREE ENERGY PREDICTED BY IDOCK:   -2.62 KCAL/MOL
REMARK 922        TOTAL FREE ENERGY PREDICTED BY IDOCK:   -4.43 KCAL/MOL
REMARK 923 INTER-LIGAND FREE ENERGY PREDICTED BY IDOCK:   -3.66 KCAL/MOL
REMARK 924 INTRA-LIGAND FREE ENERGY PREDICTED BY IDOCK:   -0.76 KCAL/MOL
REMARK 927      BINDING AFFINITY PREDICTED BY RF-SCORE:    0.00 PKD
ROOT
HETATM    1  C   UNL     1      -5.432  10.699  69.746  1.00  0.00    -0.040 C  
HETATM    2  C   UNL     1      -6.621  11.230  68.958  1.00  0.00    -0.079 C  
ENDROOT
BRANCH   2   3
HETATM    3  N   UNL     1      -7.123  10.204  68.041  1.00  0.00    -0.083 NA 
HETATM    4  H   UNL     1      -6.632   9.321  68.186  1.00  0.00     0.000 HD 
BRANCH   3   5
HETATM    5  C   UNL     1      -8.579  10.006  68.113  1.00  0.00    -0.118 C  
HETATM    6  C   UNL     1      -9.300   9.886  66.705  1.00  0.00    -0.157 C  
HETATM    7  N   UNL     1      -9.201   8.556  66.036  1.00  0.00    -0.206 N  
HETATM    8  C   UNL     1      -8.563   8.675  70.420  1.00  0.00    -0.160 A  
HETATM    9  S   UNL     1      -9.823   7.240  66.878  1.00  0.00    -0.221 S  
HETATM   10  O   UNL     1     -11.260   7.402  66.960  1.00  0.00    -0.145 OA 
HETATM   11  C   UNL     1      -9.274   7.584  68.518  1.00  0.00    -0.143 A  
HETATM   12  C   UNL     1      -8.812   7.401  70.904  1.00  0.00    -0.148 A  
HETATM   13  O   UNL     1      -9.186   6.019  66.448  1.00  0.00    -0.146 OA 
HETATM   14  S   UNL     1      -9.391   6.359  69.678  1.00  0.00    -0.144 SA 
HETATM   15  C   UNL     1      -8.795   8.786  69.005  1.00  0.00    -0.137 A  
BRANCH   7  16
HETATM   16  C   UNL     1      -8.246   8.348  64.944  1.00  0.00    -0.153 C  
BRANCH  16  17
HETATM   17  C   UNL     1      -7.605   9.632  64.454  1.00  0.00    -0.128 C  
BRANCH  17  18
HETATM   18  C   UNL     1      -7.936   9.892  62.991  1.00  0.00    -0.142 C  
BRANCH  18  19
HETATM   19  O   UNL     1      -9.348  10.043  62.872  1.00  0.00    -0.284 OA 
HETATM   20  C   UNL     1      -9.760  11.364  63.196  1.00  0.00    -0.393 C  
ENDBRANCH  18  19
ENDBRANCH  17  18
ENDBRANCH  16  17
ENDBRANCH   7  16
BRANCH  12  21
HETATM   21  S   UNL     1      -8.668   6.674  72.521  1.00  0.00    -0.123 S  
HETATM   22  O   UNL     1      -9.447   5.462  72.476  1.00  0.00    -0.145 OA 
HETATM   23  O   UNL     1      -7.253   6.703  72.804  1.00  0.00    -0.080 OA 
HETATM   24  N   UNL     1      -9.408   7.726  73.599  1.00  0.00    -0.287 N  
HETATM   25  H1  UNL     1      -9.326   7.309  74.527  1.00  0.00     0.000 HD 
HETATM   26  H2  UNL     1      -9.857   8.613  73.371  1.00  0.00     0.000 HD 
ENDBRANCH  12  21
ENDBRANCH   3   5
ENDBRANCH   2   3
TORSDOF 7
ENDMDL
MODEL      149
REMARK 921   NORMALIZED FREE ENERGY PREDICTED BY IDOCK:   -2.60 KCAL/MOL
REMARK 922        TOTAL FREE ENERGY PREDICTED BY IDOCK:   -4.40 KCAL/MOL
REMARK 923 INTER-LIGAND FREE ENERGY PREDICTED BY IDOCK:   -4.18 KCAL/MOL
REMARK 924 INTRA-LIGAND FREE ENERGY PREDICTED BY IDOCK:   -0.22 KCAL/MOL
REMARK 927      BINDING AFFINITY PREDICTED BY RF-SCORE:    0.00 PKD
ROOT
HETATM    1  C   UNL     1     -10.781   6.444  68.624  1.00  0.00    -0.341 C  
HETATM    2  C   UNL     1     -10.623   7.927  68.312  1.00  0.00    -0.109 C  
ENDROOT
BRANCH   2   3
HETATM    3  N   UNL     1     -11.010   8.734  69.471  1.00  0.00    -0.412 NA 
HETATM    4  H   UNL     1     -11.508   8.165  70.156  1.00  0.00     0.000 HD 
BRANCH   3   5
HETATM    5  C   UNL     1      -9.885   9.440  70.103  1.00  0.00    -0.232 C  
HETATM    6  C   UNL     1      -9.534   8.944  71.569  1.00  0.00    -0.277 C  
HETATM    7  N   UNL     1      -8.732   7.690  71.657  1.00  0.00    -0.114 N  
HETATM    8  C   UNL     1      -8.568   9.942  67.844  1.00  0.00    -0.125 A  
HETATM    9  S   UNL     1      -7.227   7.702  70.906  1.00  0.00    -0.062 S  
HETATM   10  O   UNL     1      -6.376   8.625  71.629  1.00  0.00    -0.058 OA 
HETATM   11  C   UNL     1      -7.591   8.561  69.409  1.00  0.00    -0.090 A  
HETATM   12  C   UNL     1      -7.397   9.574  67.201  1.00  0.00    -0.088 A  
HETATM   13  O   UNL     1      -6.826   6.361  70.557  1.00  0.00    -0.058 OA 
HETATM   14  S   UNL     1      -6.440   8.541  68.171  1.00  0.00    -0.057 SA 
HETATM   15  C   UNL     1      -8.712   9.321  69.132  1.00  0.00    -0.139 A  
BRANCH   7  16
HETATM   16  C   UNL     1      -9.384   6.417  71.979  1.00  0.00    -0.151 C  
BRANCH  16  17
HETATM   17  C   UNL     1     -10.623   6.579  72.839  1.00  0.00    -0.267 C  
BRANCH  17  18
HETATM   18  C   UNL     1     -11.854   6.010  72.149  1.00  0.00    -0.247 C  
BRANCH  18  19
HETATM   19  O   UNL     1     -12.371   7.003  71.267  1.00  0.00    -0.349 OA 
HETATM   20  C   UNL     1     -13.679   7.407  71.648  1.00  0.00    -0.373 C  
ENDBRANCH  18  19
ENDBRANCH  17  18
ENDBRANCH  16  17
ENDBRANCH   7  16
BRANCH  12  21
HETATM   21  S   UNL     1      -6.714   9.981  65.610  1.00  0.00    -0.112 S  
HETATM   22  O   UNL     1      -5.876   8.864  65.246  1.00  0.00    -0.050 OA 
HETATM   23  O   UNL     1      -7.848  10.414  64.830  1.00  0.00    -0.149 OA 
HETATM   24  N   UNL     1      -5.725  11.319  65.829  1.00  0.00    -0.318 N  
HETATM   25  H1  UNL     1      -5.332  11.552  64.917  1.00  0.00     0.000 HD 
HETATM   26  H2  UNL     1      -5.549  11.806  66.708  1.00  0.00     0.000 HD 
ENDBRANCH  12  21
ENDBRANCH   3   5
ENDBRANCH   2   3
TORSDOF 7
ENDMDL
MODEL      150
REMARK 921   NORMALIZED FREE ENERGY PREDICTED BY IDOCK:   -2.60 KCAL/MOL
REMARK 922        TOTAL FREE ENERGY PREDICTED BY IDOCK:   -4.40 KCAL/MOL
REMARK 923 INTER-LIGAND FREE ENERGY PREDICTED BY IDOCK:   -3.84 KCAL/MOL
REMARK 924 INTRA-LIGAND FREE ENERGY PREDICTED BY IDOCK:   -0.55 KCAL/MOL
REMARK 927      BINDING AFFINITY PREDICTED BY RF-SCORE:    0.00 PKD
ROOT
HETATM    1  C   UNL     1      -8.442   5.458  66.253  1.00  0.00    -0.117 C  
HETATM    2  C   UNL     1      -8.636   6.902  65.810  1.00  0.00    -0.131 C  
ENDROOT
BRANCH   2   3
HETATM    3  N   UNL     1      -8.429   7.812  66.939  1.00  0.00    -0.123 NA 
HETATM    4  H   UNL     1      -9.297   8.292  67.178  1.00  0.00     0.000 HD 
BRANCH   3   5
HETATM    5  C   UNL     1      -7.850   7.163  68.125  1.00  0.00    -0.118 C  
HETATM    6  C   UNL     1      -6.296   7.413  68.323  1.00  0.00    -0.040 C  
HETATM    7  N   UNL     1      -5.919   8.727  68.920  1.00  0.00    -0.043 N  
HETATM    8  C   UNL     1     -10.054   7.292  69.614  1.00  0.00    -0.195 A  
HETATM    9  S   UNL     1      -6.541   9.070  70.444  1.00  0.00    -0.056 S  
HETATM   10  O   UNL     1      -5.934   8.155  71.389  1.00  0.00    -0.034 OA 
HETATM   11  C   UNL     1      -8.193   8.471  70.290  1.00  0.00    -0.115 A  
HETATM   12  C   UNL     1     -10.527   7.937  70.745  1.00  0.00    -0.210 A  
HETATM   13  O   UNL     1      -6.608  10.496  70.653  1.00  0.00    -0.313 OA 
HETATM   14  S   UNL     1      -9.313   8.889  71.485  1.00  0.00    -0.227 SA 
HETATM   15  C   UNL     1      -8.689   7.629  69.313  1.00  0.00    -0.136 A  
BRANCH   7  16
HETATM   16  C   UNL     1      -5.422   9.811  68.066  1.00  0.00    -0.039 C  
BRANCH  16  17
HETATM   17  C   UNL     1      -6.410  10.231  66.994  1.00  0.00    -0.071 C  
BRANCH  17  18
HETATM   18  C   UNL     1      -7.414  11.239  67.532  1.00  0.00    -0.106 C  
BRANCH  18  19
HETATM   19  O   UNL     1      -7.114  12.514  66.968  1.00  0.00    -0.094 OA 
HETATM   20  C   UNL     1      -6.518  13.380  67.924  1.00  0.00    -0.151 C  
ENDBRANCH  18  19
ENDBRANCH  17  18
ENDBRANCH  16  17
ENDBRANCH   7  16
BRANCH  12  21
HETATM   21  S   UNL     1     -12.107   7.942  71.561  1.00  0.00    -0.316 S  
HETATM   22  O   UNL     1     -12.783   6.749  71.114  1.00  0.00    -0.332 OA 
HETATM   23  O   UNL     1     -11.798   8.212  72.945  1.00  0.00    -0.352 OA 
HETATM   24  N   UNL     1     -12.956   9.267  70.978  1.00  0.00    -0.525 N  
HETATM   25  H1  UNL     1     -13.863   9.270  71.446  1.00  0.00     0.000 HD 
HETATM   26  H2  UNL     1     -12.628   9.941  70.286  1.00  0.00     0.000 HD 
ENDBRANCH  12  21
ENDBRANCH   3   5
ENDBRANCH   2   3
TORSDOF 7
ENDMDL
MODEL      151
REMARK 921   NORMALIZED FREE ENERGY PREDICTED BY IDOCK:   -2.59 KCAL/MOL
REMARK 922        TOTAL FREE ENERGY PREDICTED BY IDOCK:   -4.38 KCAL/MOL
REMARK 923 INTER-LIGAND FREE ENERGY PREDICTED BY IDOCK:   -4.15 KCAL/MOL
REMARK 924 INTRA-LIGAND FREE ENERGY PREDICTED BY IDOCK:   -0.22 KCAL/MOL
REMARK 927      BINDING AFFINITY PREDICTED BY RF-SCORE:    0.00 PKD
ROOT
HETATM    1  C   UNL     1     -10.556   5.542  70.647  1.00  0.00    -0.329 C  
HETATM    2  C   UNL     1     -10.288   5.749  69.163  1.00  0.00    -0.248 C  
ENDROOT
BRANCH   2   3
HETATM    3  N   UNL     1     -11.440   6.388  68.523  1.00  0.00    -0.494 NA 
HETATM    4  H   UNL     1     -11.890   7.043  69.163  1.00  0.00     0.000 HD 
BRANCH   3   5
HETATM    5  C   UNL     1     -11.119   7.047  67.247  1.00  0.00    -0.232 C  
HETATM    6  C   UNL     1     -10.513   8.507  67.392  1.00  0.00    -0.280 C  
HETATM    7  N   UNL     1      -9.064   8.578  67.737  1.00  0.00    -0.135 N  
HETATM    8  C   UNL     1     -10.535   4.813  65.920  1.00  0.00    -0.313 A  
HETATM    9  S   UNL     1      -7.996   7.845  66.666  1.00  0.00    -0.104 S  
HETATM   10  O   UNL     1      -8.021   8.596  65.427  1.00  0.00    -0.099 OA 
HETATM   11  C   UNL     1      -8.864   6.362  66.268  1.00  0.00    -0.145 A  
HETATM   12  C   UNL     1      -9.442   4.176  65.357  1.00  0.00    -0.173 A  
HETATM   13  O   UNL     1      -6.777   7.473  67.342  1.00  0.00    -0.063 OA 
HETATM   14  S   UNL     1      -8.029   5.136  65.455  1.00  0.00    -0.115 SA 
HETATM   15  C   UNL     1     -10.199   6.087  66.495  1.00  0.00    -0.200 A  
BRANCH   7  16
HETATM   16  C   UNL     1      -8.645   8.867  69.112  1.00  0.00    -0.134 C  
BRANCH  16  17
HETATM   17  C   UNL     1      -8.212  10.307  69.317  1.00  0.00    -0.164 C  
BRANCH  17  18
HETATM   18  C   UNL     1      -6.975  10.393  70.198  1.00  0.00    -0.141 C  
BRANCH  18  19
HETATM   19  O   UNL     1      -7.079   9.395  71.212  1.00  0.00    -0.279 OA 
HETATM   20  C   UNL     1      -5.799   8.930  71.618  1.00  0.00    -0.060 C  
ENDBRANCH  18  19
ENDBRANCH  17  18
ENDBRANCH  16  17
ENDBRANCH   7  16
BRANCH  12  21
HETATM   21  S   UNL     1      -9.243   2.602  64.553  1.00  0.00    -0.136 S  
HETATM   22  O   UNL     1      -9.180   1.626  65.614  1.00  0.00    -0.098 OA 
HETATM   23  O   UNL     1     -10.252   2.593  63.522  1.00  0.00    -0.143 OA 
HETATM   24  N   UNL     1      -7.751   2.628  63.785  1.00  0.00    -0.067 N  
HETATM   25  H1  UNL     1      -7.637   1.725  63.325  1.00  0.00     0.000 HD 
HETATM   26  H2  UNL     1      -7.085   3.401  63.780  1.00  0.00     0.000 HD 
ENDBRANCH  12  21
ENDBRANCH   3   5
ENDBRANCH   2   3
TORSDOF 7
ENDMDL
MODEL      152
REMARK 921   NORMALIZED FREE ENERGY PREDICTED BY IDOCK:   -2.58 KCAL/MOL
REMARK 922        TOTAL FREE ENERGY PREDICTED BY IDOCK:   -4.37 KCAL/MOL
REMARK 923 INTER-LIGAND FREE ENERGY PREDICTED BY IDOCK:   -4.56 KCAL/MOL
REMARK 924 INTRA-LIGAND FREE ENERGY PREDICTED BY IDOCK:    0.19 KCAL/MOL
REMARK 927      BINDING AFFINITY PREDICTED BY RF-SCORE:    0.00 PKD
ROOT
HETATM    1  C   UNL     1      -7.231  13.172  68.467  1.00  0.00    -0.110 C  
HETATM    2  C   UNL     1      -8.338  12.274  67.931  1.00  0.00    -0.163 C  
ENDROOT
BRANCH   2   3
HETATM    3  N   UNL     1      -9.548  12.420  68.742  1.00  0.00    -0.410 NA 
HETATM    4  H   UNL     1      -9.697  13.398  68.994  1.00  0.00     0.000 HD 
BRANCH   3   5
HETATM    5  C   UNL     1     -10.753  11.856  68.114  1.00  0.00    -0.215 C  
HETATM    6  C   UNL     1     -11.955  12.881  67.953  1.00  0.00    -0.282 C  
HETATM    7  N   UNL     1     -11.855  13.822  66.801  1.00  0.00    -0.395 N  
HETATM    8  C   UNL     1      -9.470  10.094  66.586  1.00  0.00    -0.211 A  
HETATM    9  S   UNL     1     -11.754  13.135  65.270  1.00  0.00    -0.366 S  
HETATM   10  O   UNL     1     -13.018  12.487  64.987  1.00  0.00    -0.779 OA 
HETATM   11  C   UNL     1     -10.655  11.787  65.565  1.00  0.00    -0.276 A  
HETATM   12  C   UNL     1      -9.201   9.857  65.247  1.00  0.00    -0.226 A  
HETATM   13  O   UNL     1     -11.104  14.039  64.352  1.00  0.00    -0.365 OA 
HETATM   14  S   UNL     1      -9.996  10.981  64.233  1.00  0.00    -0.345 SA 
HETATM   15  C   UNL     1     -10.296  11.253  66.788  1.00  0.00    -0.278 A  
BRANCH   7  16
HETATM   16  C   UNL     1     -11.430  15.209  67.015  1.00  0.00    -0.228 C  
BRANCH  16  17
HETATM   17  C   UNL     1     -11.303  15.578  68.481  1.00  0.00    -0.356 C  
BRANCH  17  18
HETATM   18  C   UNL     1      -9.856  15.860  68.857  1.00  0.00    -0.226 C  
BRANCH  18  19
HETATM   19  O   UNL     1      -9.849  16.648  70.045  1.00  0.00     0.223 OA 
HETATM   20  C   UNL     1     -11.096  17.298  70.247  1.00  0.00     0.981 C  
ENDBRANCH  18  19
ENDBRANCH  17  18
ENDBRANCH  16  17
ENDBRANCH   7  16
BRANCH  12  21
HETATM   21  S   UNL     1      -8.230   8.623  64.411  1.00  0.00    -0.141 S  
HETATM   22  O   UNL     1      -8.391   7.412  65.176  1.00  0.00    -0.135 OA 
HETATM   23  O   UNL     1      -8.610   8.746  63.024  1.00  0.00    -0.179 OA 
HETATM   24  N   UNL     1      -6.626   9.100  64.528  1.00  0.00    -0.078 N  
HETATM   25  H1  UNL     1      -6.069   8.393  64.048  1.00  0.00     0.000 HD 
HETATM   26  H2  UNL     1      -6.273   9.938  64.991  1.00  0.00     0.000 HD 
ENDBRANCH  12  21
ENDBRANCH   3   5
ENDBRANCH   2   3
TORSDOF 7
ENDMDL
MODEL      153
REMARK 921   NORMALIZED FREE ENERGY PREDICTED BY IDOCK:   -2.57 KCAL/MOL
REMARK 922        TOTAL FREE ENERGY PREDICTED BY IDOCK:   -4.36 KCAL/MOL
REMARK 923 INTER-LIGAND FREE ENERGY PREDICTED BY IDOCK:   -3.70 KCAL/MOL
REMARK 924 INTRA-LIGAND FREE ENERGY PREDICTED BY IDOCK:   -0.66 KCAL/MOL
REMARK 927      BINDING AFFINITY PREDICTED BY RF-SCORE:    0.00 PKD
ROOT
HETATM    1  C   UNL     1     -10.363   4.485  65.731  1.00  0.00    -0.287 C  
HETATM    2  C   UNL     1      -9.831   5.892  65.965  1.00  0.00     0.066 C  
ENDROOT
BRANCH   2   3
HETATM    3  N   UNL     1      -9.784   6.186  67.399  1.00  0.00    -0.116 NA 
HETATM    4  H   UNL     1     -10.316   5.493  67.926  1.00  0.00     0.000 HD 
BRANCH   3   5
HETATM    5  C   UNL     1      -8.419   6.308  67.934  1.00  0.00    -0.117 C  
HETATM    6  C   UNL     1      -7.508   7.369  67.184  1.00  0.00    -0.106 C  
HETATM    7  N   UNL     1      -7.729   8.795  67.558  1.00  0.00    -0.100 N  
HETATM    8  C   UNL     1      -9.053   5.710  70.450  1.00  0.00    -0.164 A  
HETATM    9  S   UNL     1      -7.500   9.196  69.174  1.00  0.00    -0.073 S  
HETATM   10  O   UNL     1      -6.090   9.048  69.475  1.00  0.00    -0.036 OA 
HETATM   11  C   UNL     1      -8.243   7.817  69.985  1.00  0.00    -0.121 A  
HETATM   12  C   UNL     1      -9.119   6.316  71.694  1.00  0.00    -0.145 A  
HETATM   13  O   UNL     1      -8.264  10.371  69.517  1.00  0.00    -0.164 OA 
HETATM   14  S   UNL     1      -8.539   7.925  71.646  1.00  0.00    -0.129 SA 
HETATM   15  C   UNL     1      -8.574   6.597  69.425  1.00  0.00    -0.135 A  
BRANCH   7  16
HETATM   16  C   UNL     1      -8.512   9.675  66.685  1.00  0.00    -0.123 C  
BRANCH  16  17
HETATM   17  C   UNL     1     -10.004   9.608  66.948  1.00  0.00    -0.272 C  
BRANCH  17  18
HETATM   18  C   UNL     1     -10.646  10.983  66.848  1.00  0.00    -0.258 C  
BRANCH  18  19
HETATM   19  O   UNL     1     -11.850  10.972  67.613  1.00  0.00    -0.599 OA 
HETATM   20  C   UNL     1     -11.656  10.357  68.879  1.00  0.00    -0.139 C  
ENDBRANCH  18  19
ENDBRANCH  17  18
ENDBRANCH  16  17
ENDBRANCH   7  16
BRANCH  12  21
HETATM   21  S   UNL     1      -9.656   5.744  73.290  1.00  0.00    -0.144 S  
HETATM   22  O   UNL     1     -10.692   6.657  73.705  1.00  0.00    -0.301 OA 
HETATM   23  O   UNL     1      -9.866   4.327  73.113  1.00  0.00    -0.129 OA 
HETATM   24  N   UNL     1      -8.358   5.924  74.338  1.00  0.00    -0.112 N  
HETATM   25  H1  UNL     1      -8.666   5.595  75.253  1.00  0.00     0.000 HD 
HETATM   26  H2  UNL     1      -7.436   6.292  74.104  1.00  0.00     0.000 HD 
ENDBRANCH  12  21
ENDBRANCH   3   5
ENDBRANCH   2   3
TORSDOF 7
ENDMDL
MODEL      154
REMARK 921   NORMALIZED FREE ENERGY PREDICTED BY IDOCK:   -2.47 KCAL/MOL
REMARK 922        TOTAL FREE ENERGY PREDICTED BY IDOCK:   -4.21 KCAL/MOL
REMARK 923 INTER-LIGAND FREE ENERGY PREDICTED BY IDOCK:   -4.24 KCAL/MOL
REMARK 924 INTRA-LIGAND FREE ENERGY PREDICTED BY IDOCK:    0.03 KCAL/MOL
REMARK 927      BINDING AFFINITY PREDICTED BY RF-SCORE:    0.00 PKD
ROOT
HETATM    1  C   UNL     1     -10.626   8.735  66.755  1.00  0.00    -0.220 C  
HETATM    2  C   UNL     1     -10.300   9.076  68.203  1.00  0.00    -0.214 C  
ENDROOT
BRANCH   2   3
HETATM    3  N   UNL     1      -8.850   9.089  68.408  1.00  0.00    -0.133 NA 
HETATM    4  H   UNL     1      -8.360   9.130  67.513  1.00  0.00     0.000 HD 
BRANCH   3   5
HETATM    5  C   UNL     1      -8.387  10.161  69.303  1.00  0.00    -0.158 C  
HETATM    6  C   UNL     1      -6.853  10.075  69.700  1.00  0.00    -0.078 C  
HETATM    7  N   UNL     1      -5.889  10.578  68.680  1.00  0.00    -0.041 N  
HETATM    8  C   UNL     1     -10.071  12.017  68.403  1.00  0.00    -0.211 A  
HETATM    9  S   UNL     1      -6.055  12.184  68.211  1.00  0.00    -0.056 S  
HETATM   10  O   UNL     1      -5.714  13.017  69.346  1.00  0.00    -0.079 OA 
HETATM   11  C   UNL     1      -7.808  12.335  68.098  1.00  0.00    -0.148 A  
HETATM   12  C   UNL     1     -10.048  13.207  67.693  1.00  0.00    -0.221 A  
HETATM   13  O   UNL     1      -5.511  12.384  66.890  1.00  0.00    -0.332 OA 
HETATM   14  S   UNL     1      -8.450  13.706  67.343  1.00  0.00    -0.202 SA 
HETATM   15  C   UNL     1      -8.757  11.473  68.616  1.00  0.00    -0.103 A  
BRANCH   7  16
HETATM   16  C   UNL     1      -5.152   9.635  67.831  1.00  0.00    -0.036 C  
BRANCH  16  17
HETATM   17  C   UNL     1      -6.046   8.616  67.151  1.00  0.00    -0.055 C  
BRANCH  17  18
HETATM   18  C   UNL     1      -6.692   9.194  65.900  1.00  0.00    -0.079 C  
BRANCH  18  19
HETATM   19  O   UNL     1      -7.163   8.113  65.099  1.00  0.00    -0.069 OA 
HETATM   20  C   UNL     1      -7.640   8.566  63.841  1.00  0.00    -0.129 C  
ENDBRANCH  18  19
ENDBRANCH  17  18
ENDBRANCH  16  17
ENDBRANCH   7  16
BRANCH  12  21
HETATM   21  S   UNL     1     -11.332  14.292  67.112  1.00  0.00    -0.354 S  
HETATM   22  O   UNL     1     -10.659  15.474  66.633  1.00  0.00    -0.299 OA 
HETATM   23  O   UNL     1     -12.163  13.455  66.281  1.00  0.00    -0.414 OA 
HETATM   24  N   UNL     1     -12.249  14.725  68.449  1.00  0.00    -0.605 N  
HETATM   25  H1  UNL     1     -12.986  15.348  68.116  1.00  0.00     0.000 HD 
HETATM   26  H2  UNL     1     -12.099  14.424  69.412  1.00  0.00     0.000 HD 
ENDBRANCH  12  21
ENDBRANCH   3   5
ENDBRANCH   2   3
TORSDOF 7
ENDMDL
MODEL      155
REMARK 921   NORMALIZED FREE ENERGY PREDICTED BY IDOCK:   -2.42 KCAL/MOL
REMARK 922        TOTAL FREE ENERGY PREDICTED BY IDOCK:   -4.15 KCAL/MOL
REMARK 923 INTER-LIGAND FREE ENERGY PREDICTED BY IDOCK:   -3.16 KCAL/MOL
REMARK 924 INTRA-LIGAND FREE ENERGY PREDICTED BY IDOCK:   -0.99 KCAL/MOL
REMARK 927      BINDING AFFINITY PREDICTED BY RF-SCORE:    0.00 PKD
ROOT
HETATM    1  C   UNL     1      -9.746  11.624  65.710  1.00  0.00    -0.262 C  
HETATM    2  C   UNL     1     -10.122  11.410  67.170  1.00  0.00    -0.198 C  
ENDROOT
BRANCH   2   3
HETATM    3  N   UNL     1      -9.575  10.141  67.655  1.00  0.00    -0.147 NA 
HETATM    4  H   UNL     1     -10.019   9.353  67.182  1.00  0.00     0.000 HD 
BRANCH   3   5
HETATM    5  C   UNL     1      -8.110  10.049  67.553  1.00  0.00    -0.110 C  
HETATM    6  C   UNL     1      -7.334  10.333  68.908  1.00  0.00    -0.090 C  
HETATM    7  N   UNL     1      -7.288   9.203  69.879  1.00  0.00    -0.058 N  
HETATM    8  C   UNL     1      -8.082   8.201  65.636  1.00  0.00    -0.119 A  
HETATM    9  S   UNL     1      -6.577   7.776  69.344  1.00  0.00    -0.040 S  
HETATM   10  O   UNL     1      -5.165   8.028  69.147  1.00  0.00    -0.025 OA 
HETATM   11  C   UNL     1      -7.210   7.665  67.702  1.00  0.00    -0.087 A  
HETATM   12  C   UNL     1      -7.734   6.872  65.457  1.00  0.00    -0.101 A  
HETATM   13  O   UNL     1      -7.085   6.648  70.088  1.00  0.00    -0.070 OA 
HETATM   14  S   UNL     1      -7.021   6.209  66.864  1.00  0.00    -0.073 SA 
HETATM   15  C   UNL     1      -7.813   8.670  66.968  1.00  0.00    -0.096 A  
BRANCH   7  16
HETATM   16  C   UNL     1      -8.183   9.189  71.041  1.00  0.00    -0.137 C  
BRANCH  16  17
HETATM   17  C   UNL     1      -9.652   9.260  70.667  1.00  0.00    -0.334 C  
BRANCH  17  18
HETATM   18  C   UNL     1     -10.277   7.874  70.613  1.00  0.00    -0.196 C  
BRANCH  18  19
HETATM   19  O   UNL     1     -10.247   7.423  69.260  1.00  0.00    -0.188 OA 
HETATM   20  C   UNL     1     -11.301   6.508  68.993  1.00  0.00    -0.220 C  
ENDBRANCH  18  19
ENDBRANCH  17  18
ENDBRANCH  16  17
ENDBRANCH   7  16
BRANCH  12  21
HETATM   21  S   UNL     1      -7.865   5.765  64.071  1.00  0.00    -0.122 S  
HETATM   22  O   UNL     1      -7.786   6.597  62.896  1.00  0.00    -0.086 OA 
HETATM   23  O   UNL     1      -6.927   4.708  64.364  1.00  0.00    -0.048 OA 
HETATM   24  N   UNL     1      -9.401   5.091  64.126  1.00  0.00    -0.354 N  
HETATM   25  H1  UNL     1      -9.477   4.456  63.331  1.00  0.00     0.000 HD 
HETATM   26  H2  UNL     1     -10.123   5.281  64.821  1.00  0.00     0.000 HD 
ENDBRANCH  12  21
ENDBRANCH   3   5
ENDBRANCH   2   3
TORSDOF 7
ENDMDL
MODEL      156
REMARK 921   NORMALIZED FREE ENERGY PREDICTED BY IDOCK:   -2.41 KCAL/MOL
REMARK 922        TOTAL FREE ENERGY PREDICTED BY IDOCK:   -4.12 KCAL/MOL
REMARK 923 INTER-LIGAND FREE ENERGY PREDICTED BY IDOCK:   -3.96 KCAL/MOL
REMARK 924 INTRA-LIGAND FREE ENERGY PREDICTED BY IDOCK:   -0.16 KCAL/MOL
REMARK 927      BINDING AFFINITY PREDICTED BY RF-SCORE:    0.00 PKD
ROOT
HETATM    1  C   UNL     1     -10.942   7.407  69.978  1.00  0.00    -0.264 C  
HETATM    2  C   UNL     1     -10.086   7.975  68.854  1.00  0.00    -0.201 C  
ENDROOT
BRANCH   2   3
HETATM    3  N   UNL     1      -8.666   7.752  69.132  1.00  0.00    -0.138 NA 
HETATM    4  H   UNL     1      -8.375   6.831  68.803  1.00  0.00     0.000 HD 
BRANCH   3   5
HETATM    5  C   UNL     1      -7.785   8.799  68.592  1.00  0.00    -0.098 C  
HETATM    6  C   UNL     1      -6.823   8.315  67.426  1.00  0.00    -0.070 C  
HETATM    7  N   UNL     1      -7.443   8.208  66.074  1.00  0.00    -0.079 N  
HETATM    8  C   UNL     1      -9.458  10.823  69.030  1.00  0.00    -0.179 A  
HETATM    9  S   UNL     1      -8.111   9.613  65.436  1.00  0.00    -0.133 S  
HETATM   10  O   UNL     1      -7.030  10.540  65.171  1.00  0.00    -0.113 OA 
HETATM   11  C   UNL     1      -8.904  10.298  66.855  1.00  0.00    -0.132 A  
HETATM   12  C   UNL     1     -10.230  11.727  68.317  1.00  0.00    -0.205 A  
HETATM   13  O   UNL     1      -9.135   9.293  64.472  1.00  0.00    -0.200 OA 
HETATM   14  S   UNL     1      -9.991  11.573  66.631  1.00  0.00    -0.212 SA 
HETATM   15  C   UNL     1      -8.700   9.949  68.177  1.00  0.00    -0.122 A  
BRANCH   7  16
HETATM   16  C   UNL     1      -7.835   6.899  65.543  1.00  0.00    -0.112 C  
BRANCH  16  17
HETATM   17  C   UNL     1      -9.274   6.532  65.854  1.00  0.00    -0.022 C  
BRANCH  17  18
HETATM   18  C   UNL     1      -9.361   5.188  66.563  1.00  0.00    -0.141 C  
BRANCH  18  19
HETATM   19  O   UNL     1      -8.285   5.104  67.495  1.00  0.00    -0.103 OA 
HETATM   20  C   UNL     1      -8.548   4.143  68.508  1.00  0.00    -0.094 C  
ENDBRANCH  18  19
ENDBRANCH  17  18
ENDBRANCH  16  17
ENDBRANCH   7  16
BRANCH  12  21
HETATM   21  S   UNL     1     -11.374  12.995  68.816  1.00  0.00    -0.309 S  
HETATM   22  O   UNL     1     -11.921  13.531  67.594  1.00  0.00    -0.354 OA 
HETATM   23  O   UNL     1     -12.175  12.375  69.843  1.00  0.00    -0.248 OA 
HETATM   24  N   UNL     1     -10.473  14.204  69.553  1.00  0.00    -0.434 N  
HETATM   25  H1  UNL     1     -11.129  14.932  69.839  1.00  0.00     0.000 HD 
HETATM   26  H2  UNL     1      -9.463  14.211  69.690  1.00  0.00     0.000 HD 
ENDBRANCH  12  21
ENDBRANCH   3   5
ENDBRANCH   2   3
TORSDOF 7
ENDMDL
MODEL      157
REMARK 921   NORMALIZED FREE ENERGY PREDICTED BY IDOCK:   -2.34 KCAL/MOL
REMARK 922        TOTAL FREE ENERGY PREDICTED BY IDOCK:   -4.04 KCAL/MOL
REMARK 923 INTER-LIGAND FREE ENERGY PREDICTED BY IDOCK:   -3.47 KCAL/MOL
REMARK 924 INTRA-LIGAND FREE ENERGY PREDICTED BY IDOCK:   -0.57 KCAL/MOL
REMARK 927      BINDING AFFINITY PREDICTED BY RF-SCORE:    0.00 PKD
ROOT
HETATM    1  C   UNL     1     -10.239  10.503  65.669  1.00  0.00    -0.315 C  
HETATM    2  C   UNL     1     -10.745   9.801  66.921  1.00  0.00    -0.122 C  
ENDROOT
BRANCH   2   3
HETATM    3  N   UNL     1     -10.166   8.460  67.023  1.00  0.00    -0.279 NA 
HETATM    4  H   UNL     1     -10.595   7.830  66.345  1.00  0.00     0.000 HD 
BRANCH   3   5
HETATM    5  C   UNL     1      -8.700   8.438  66.897  1.00  0.00    -0.130 C  
HETATM    6  C   UNL     1      -7.932   9.341  67.952  1.00  0.00    -0.100 C  
HETATM    7  N   UNL     1      -7.774   8.758  69.315  1.00  0.00    -0.093 N  
HETATM    8  C   UNL     1      -8.540   5.943  65.979  1.00  0.00    -0.142 A  
HETATM    9  S   UNL     1      -6.951   7.295  69.420  1.00  0.00    -0.063 S  
HETATM   10  O   UNL     1      -5.569   7.535  69.061  1.00  0.00    -0.021 OA 
HETATM   11  C   UNL     1      -7.596   6.431  68.024  1.00  0.00    -0.103 A  
HETATM   12  C   UNL     1      -8.082   4.699  66.379  1.00  0.00    -0.103 A  
HETATM   13  O   UNL     1      -7.349   6.575  70.605  1.00  0.00    -0.075 OA 
HETATM   14  S   UNL     1      -7.294   4.772  67.896  1.00  0.00    -0.071 SA 
HETATM   15  C   UNL     1      -8.294   6.967  66.958  1.00  0.00    -0.121 A  
BRANCH   7  16
HETATM   16  C   UNL     1      -8.648   9.191  70.410  1.00  0.00    -0.209 C  
BRANCH  16  17
HETATM   17  C   UNL     1     -10.018   8.540  70.377  1.00  0.00    -0.203 C  
BRANCH  17  18
HETATM   18  C   UNL     1     -10.999   9.269  71.283  1.00  0.00    -0.351 C  
BRANCH  18  19
HETATM   19  O   UNL     1     -12.106   9.696  70.491  1.00  0.00    -0.231 OA 
HETATM   20  C   UNL     1     -12.119  11.108  70.334  1.00  0.00    -0.385 C  
ENDBRANCH  18  19
ENDBRANCH  17  18
ENDBRANCH  16  17
ENDBRANCH   7  16
BRANCH  12  21
HETATM   21  S   UNL     1      -8.137   3.090  65.623  1.00  0.00    -0.088 S  
HETATM   22  O   UNL     1      -6.764   2.723  65.382  1.00  0.00    -0.038 OA 
HETATM   23  O   UNL     1      -9.031   2.328  66.462  1.00  0.00    -0.131 OA 
HETATM   24  N   UNL     1      -8.892   3.273  64.136  1.00  0.00    -0.096 N  
HETATM   25  H1  UNL     1      -8.924   2.350  63.701  1.00  0.00     0.000 HD 
HETATM   26  H2  UNL     1      -9.251   4.142  63.740  1.00  0.00     0.000 HD 
ENDBRANCH  12  21
ENDBRANCH   3   5
ENDBRANCH   2   3
TORSDOF 7
ENDMDL
MODEL      158
REMARK 921   NORMALIZED FREE ENERGY PREDICTED BY IDOCK:   -2.34 KCAL/MOL
REMARK 922        TOTAL FREE ENERGY PREDICTED BY IDOCK:   -4.03 KCAL/MOL
REMARK 923 INTER-LIGAND FREE ENERGY PREDICTED BY IDOCK:   -3.65 KCAL/MOL
REMARK 924 INTRA-LIGAND FREE ENERGY PREDICTED BY IDOCK:   -0.37 KCAL/MOL
REMARK 927      BINDING AFFINITY PREDICTED BY RF-SCORE:    0.00 PKD
ROOT
HETATM    1  C   UNL     1      -9.545   6.134  70.464  1.00  0.00    -0.192 C  
HETATM    2  C   UNL     1      -9.495   7.149  69.330  1.00  0.00    -0.152 C  
ENDROOT
BRANCH   2   3
HETATM    3  N   UNL     1     -10.843   7.630  69.018  1.00  0.00    -0.409 NA 
HETATM    4  H   UNL     1     -11.119   8.370  69.664  1.00  0.00     0.000 HD 
BRANCH   3   5
HETATM    5  C   UNL     1     -11.007   8.070  67.624  1.00  0.00     0.116 C  
HETATM    6  C   UNL     1     -10.631   9.590  67.363  1.00  0.00    -0.271 C  
HETATM    7  N   UNL     1      -9.176   9.887  67.234  1.00  0.00    -0.137 N  
HETATM    8  C   UNL     1     -10.466   5.708  66.521  1.00  0.00    -0.309 A  
HETATM    9  S   UNL     1      -8.349   9.091  66.005  1.00  0.00    -0.128 S  
HETATM   10  O   UNL     1      -8.845   9.589  64.738  1.00  0.00    -0.184 OA 
HETATM   11  C   UNL     1      -9.040   7.471  66.112  1.00  0.00    -0.137 A  
HETATM   12  C   UNL     1      -9.487   5.103  65.749  1.00  0.00    -0.141 A  
HETATM   13  O   UNL     1      -6.945   8.991  66.322  1.00  0.00    -0.077 OA 
HETATM   14  S   UNL     1      -8.281   6.217  65.269  1.00  0.00    -0.129 SA 
HETATM   15  C   UNL     1     -10.193   7.096  66.775  1.00  0.00    -0.289 A  
BRANCH   7  16
HETATM   16  C   UNL     1      -8.438  10.474  68.357  1.00  0.00    -0.128 C  
BRANCH  16  17
HETATM   17  C   UNL     1      -8.575  11.982  68.441  1.00  0.00    -0.147 C  
BRANCH  17  18
HETATM   18  C   UNL     1      -8.024  12.658  67.194  1.00  0.00    -0.122 C  
BRANCH  18  19
HETATM   19  O   UNL     1      -6.621  12.413  67.136  1.00  0.00    -0.154 OA 
HETATM   20  C   UNL     1      -5.901  13.299  67.982  1.00  0.00    -0.120 C  
ENDBRANCH  18  19
ENDBRANCH  17  18
ENDBRANCH  16  17
ENDBRANCH   7  16
BRANCH  12  21
HETATM   21  S   UNL     1      -9.270   3.439  65.161  1.00  0.00    -0.152 S  
HETATM   22  O   UNL     1      -9.214   2.611  66.340  1.00  0.00    -0.133 OA 
HETATM   23  O   UNL     1     -10.266   3.288  64.128  1.00  0.00    -0.179 OA 
HETATM   24  N   UNL     1      -7.769   3.376  64.413  1.00  0.00    -0.076 N  
HETATM   25  H1  UNL     1      -7.644   2.421  64.076  1.00  0.00     0.000 HD 
HETATM   26  H2  UNL     1      -7.107   4.145  64.314  1.00  0.00     0.000 HD 
ENDBRANCH  12  21
ENDBRANCH   3   5
ENDBRANCH   2   3
TORSDOF 7
ENDMDL
MODEL      159
REMARK 921   NORMALIZED FREE ENERGY PREDICTED BY IDOCK:   -2.28 KCAL/MOL
REMARK 922        TOTAL FREE ENERGY PREDICTED BY IDOCK:   -3.95 KCAL/MOL
REMARK 923 INTER-LIGAND FREE ENERGY PREDICTED BY IDOCK:   -3.38 KCAL/MOL
REMARK 924 INTRA-LIGAND FREE ENERGY PREDICTED BY IDOCK:   -0.57 KCAL/MOL
REMARK 927      BINDING AFFINITY PREDICTED BY RF-SCORE:    0.00 PKD
ROOT
HETATM    1  C   UNL     1     -11.950   9.163  71.395  1.00  0.00    -0.410 C  
HETATM    2  C   UNL     1     -12.034   9.932  70.084  1.00  0.00    -0.077 C  
ENDROOT
BRANCH   2   3
HETATM    3  N   UNL     1     -10.796   9.771  69.319  1.00  0.00    -0.231 NA 
HETATM    4  H   UNL     1      -9.987   9.765  69.941  1.00  0.00     0.000 HD 
BRANCH   3   5
HETATM    5  C   UNL     1     -10.790   8.587  68.446  1.00  0.00     0.076 C  
HETATM    6  C   UNL     1     -10.660   8.908  66.897  1.00  0.00    -0.184 C  
HETATM    7  N   UNL     1      -9.284   9.214  66.410  1.00  0.00    -0.170 N  
HETATM    8  C   UNL     1      -9.637   6.954  70.205  1.00  0.00    -0.170 A  
HETATM    9  S   UNL     1      -8.121   8.020  66.634  1.00  0.00    -0.105 S  
HETATM   10  O   UNL     1      -8.469   6.896  65.790  1.00  0.00    -0.141 OA 
HETATM   11  C   UNL     1      -8.510   7.454  68.258  1.00  0.00    -0.125 A  
HETATM   12  C   UNL     1      -8.444   6.275  70.390  1.00  0.00    -0.134 A  
HETATM   13  O   UNL     1      -6.801   8.602  66.676  1.00  0.00    -0.067 OA 
HETATM   14  S   UNL     1      -7.397   6.457  69.050  1.00  0.00    -0.091 SA 
HETATM   15  C   UNL     1      -9.674   7.684  68.968  1.00  0.00    -0.160 A  
BRANCH   7  16
HETATM   16  C   UNL     1      -8.878  10.602  66.167  1.00  0.00    -0.168 C  
BRANCH  16  17
HETATM   17  C   UNL     1      -9.254  11.103  64.786  1.00  0.00    -0.157 C  
BRANCH  17  18
HETATM   18  C   UNL     1      -9.872  12.492  64.851  1.00  0.00    -0.072 C  
BRANCH  18  19
HETATM   19  O   UNL     1     -10.948  12.459  65.786  1.00  0.00    -0.280 OA 
HETATM   20  C   UNL     1     -12.204  12.354  65.132  1.00  0.00    -0.384 C  
ENDBRANCH  18  19
ENDBRANCH  17  18
ENDBRANCH  16  17
ENDBRANCH   7  16
BRANCH  12  21
HETATM   21  S   UNL     1      -7.823   5.261  71.714  1.00  0.00    -0.113 S  
HETATM   22  O   UNL     1      -6.400   5.495  71.752  1.00  0.00    -0.040 OA 
HETATM   23  O   UNL     1      -8.706   5.535  72.822  1.00  0.00    -0.120 OA 
HETATM   24  N   UNL     1      -8.073   3.664  71.265  1.00  0.00    -0.063 N  
HETATM   25  H1  UNL     1      -7.716   3.082  72.024  1.00  0.00     0.000 HD 
HETATM   26  H2  UNL     1      -8.499   3.336  70.399  1.00  0.00     0.000 HD 
ENDBRANCH  12  21
ENDBRANCH   3   5
ENDBRANCH   2   3
TORSDOF 7
ENDMDL
MODEL      160
REMARK 921   NORMALIZED FREE ENERGY PREDICTED BY IDOCK:   -2.27 KCAL/MOL
REMARK 922        TOTAL FREE ENERGY PREDICTED BY IDOCK:   -3.94 KCAL/MOL
REMARK 923 INTER-LIGAND FREE ENERGY PREDICTED BY IDOCK:   -3.22 KCAL/MOL
REMARK 924 INTRA-LIGAND FREE ENERGY PREDICTED BY IDOCK:   -0.71 KCAL/MOL
REMARK 927      BINDING AFFINITY PREDICTED BY RF-SCORE:    0.00 PKD
ROOT
HETATM    1  C   UNL     1     -10.444   8.815  67.062  1.00  0.00    -0.338 C  
HETATM    2  C   UNL     1     -10.509   8.451  68.539  1.00  0.00    -0.164 C  
ENDROOT
BRANCH   2   3
HETATM    3  N   UNL     1     -10.355   7.006  68.714  1.00  0.00    -0.180 NA 
HETATM    4  H   UNL     1     -11.003   6.499  68.111  1.00  0.00     0.000 HD 
BRANCH   3   5
HETATM    5  C   UNL     1      -8.978   6.529  68.514  1.00  0.00    -0.126 C  
HETATM    6  C   UNL     1      -8.201   6.170  69.850  1.00  0.00    -0.120 C  
HETATM    7  N   UNL     1      -8.520   4.844  70.451  1.00  0.00    -0.094 N  
HETATM    8  C   UNL     1      -9.421   5.391  66.147  1.00  0.00    -0.171 A  
HETATM    9  S   UNL     1      -8.238   3.492  69.492  1.00  0.00    -0.052 S  
HETATM   10  O   UNL     1      -6.807   3.371  69.302  1.00  0.00    -0.040 OA 
HETATM   11  C   UNL     1      -8.817   4.051  67.922  1.00  0.00    -0.111 A  
HETATM   12  C   UNL     1      -9.469   4.130  65.575  1.00  0.00    -0.176 A  
HETATM   13  O   UNL     1      -9.078   2.394  69.904  1.00  0.00    -0.088 OA 
HETATM   14  S   UNL     1      -9.031   2.911  66.692  1.00  0.00    -0.148 SA 
HETATM   15  C   UNL     1      -9.075   5.355  67.542  1.00  0.00    -0.107 A  
BRANCH   7  16
HETATM   16  C   UNL     1      -9.421   4.752  71.605  1.00  0.00    -0.151 C  
BRANCH  16  17
HETATM   17  C   UNL     1      -8.715   4.351  72.886  1.00  0.00    -0.109 C  
BRANCH  17  18
HETATM   18  C   UNL     1      -9.619   3.512  73.777  1.00  0.00    -0.102 C  
BRANCH  18  19
HETATM   19  O   UNL     1     -10.114   2.419  73.007  1.00  0.00    -0.109 OA 
HETATM   20  C   UNL     1     -11.485   2.166  73.282  1.00  0.00    -0.095 C  
ENDBRANCH  18  19
ENDBRANCH  17  18
ENDBRANCH  16  17
ENDBRANCH   7  16
BRANCH  12  21
HETATM   21  S   UNL     1      -9.869   3.561  63.938  1.00  0.00    -0.186 S  
HETATM   22  O   UNL     1      -8.787   2.690  63.552  1.00  0.00    -0.085 OA 
HETATM   23  O   UNL     1     -11.243   3.131  64.031  1.00  0.00    -0.175 OA 
HETATM   24  N   UNL     1      -9.838   4.903  62.931  1.00  0.00    -0.296 N  
HETATM   25  H1  UNL     1     -10.067   4.576  61.992  1.00  0.00     0.000 HD 
HETATM   26  H2  UNL     1      -9.629   5.863  63.205  1.00  0.00     0.000 HD 
ENDBRANCH  12  21
ENDBRANCH   3   5
ENDBRANCH   2   3
TORSDOF 7
ENDMDL
MODEL      161
REMARK 921   NORMALIZED FREE ENERGY PREDICTED BY IDOCK:   -2.26 KCAL/MOL
REMARK 922        TOTAL FREE ENERGY PREDICTED BY IDOCK:   -3.92 KCAL/MOL
REMARK 923 INTER-LIGAND FREE ENERGY PREDICTED BY IDOCK:   -4.20 KCAL/MOL
REMARK 924 INTRA-LIGAND FREE ENERGY PREDICTED BY IDOCK:    0.28 KCAL/MOL
REMARK 927      BINDING AFFINITY PREDICTED BY RF-SCORE:    0.00 PKD
ROOT
HETATM    1  C   UNL     1      -8.670   7.385  65.566  1.00  0.00    -0.051 C  
HETATM    2  C   UNL     1      -9.135   8.224  66.748  1.00  0.00    -0.156 C  
ENDROOT
BRANCH   2   3
HETATM    3  N   UNL     1      -8.545   9.562  66.686  1.00  0.00    -0.133 NA 
HETATM    4  H   UNL     1      -9.004  10.125  65.969  1.00  0.00     0.000 HD 
BRANCH   3   5
HETATM    5  C   UNL     1      -8.541  10.268  67.977  1.00  0.00    -0.118 C  
HETATM    6  C   UNL     1      -9.129  11.741  67.925  1.00  0.00    -0.181 C  
HETATM    7  N   UNL     1     -10.617  11.848  67.927  1.00  0.00    -0.195 N  
HETATM    8  C   UNL     1      -8.849   8.094  69.483  1.00  0.00    -0.143 A  
HETATM    9  S   UNL     1     -11.420  11.181  69.245  1.00  0.00    -0.325 S  
HETATM   10  O   UNL     1     -11.086  11.966  70.415  1.00  0.00     0.381 OA 
HETATM   11  C   UNL     1     -10.519   9.683  69.481  1.00  0.00    -0.224 A  
HETATM   12  C   UNL     1      -9.794   7.508  70.310  1.00  0.00    -0.183 A  
HETATM   13  O   UNL     1     -12.772  10.827  68.886  1.00  0.00    -0.153 OA 
HETATM   14  S   UNL     1     -11.167   8.509  70.511  1.00  0.00    -0.209 SA 
HETATM   15  C   UNL     1      -9.281   9.360  68.957  1.00  0.00    -0.145 A  
BRANCH   7  16
HETATM   16  C   UNL     1     -11.340  12.110  66.679  1.00  0.00    -0.350 C  
BRANCH  16  17
HETATM   17  C   UNL     1     -11.782  13.553  66.533  1.00  0.00    -0.408 C  
BRANCH  17  18
HETATM   18  C   UNL     1     -10.791  14.354  65.702  1.00  0.00    -0.317 C  
BRANCH  18  19
HETATM   19  O   UNL     1     -10.164  15.311  66.553  1.00  0.00    -0.260 OA 
HETATM   20  C   UNL     1      -8.761  15.360  66.338  1.00  0.00    -0.272 C  
ENDBRANCH  18  19
ENDBRANCH  17  18
ENDBRANCH  16  17
ENDBRANCH   7  16
BRANCH  12  21
HETATM   21  S   UNL     1      -9.836   5.965  71.193  1.00  0.00    -0.185 S  
HETATM   22  O   UNL     1      -8.704   5.995  72.087  1.00  0.00    -0.132 OA 
HETATM   23  O   UNL     1     -11.202   5.843  71.641  1.00  0.00    -0.272 OA 
HETATM   24  N   UNL     1      -9.574   4.749  70.068  1.00  0.00    -0.170 N  
HETATM   25  H1  UNL     1      -9.598   3.863  70.575  1.00  0.00     0.000 HD 
HETATM   26  H2  UNL     1      -9.420   4.870  69.067  1.00  0.00     0.000 HD 
ENDBRANCH  12  21
ENDBRANCH   3   5
ENDBRANCH   2   3
TORSDOF 7
ENDMDL
MODEL      162
REMARK 921   NORMALIZED FREE ENERGY PREDICTED BY IDOCK:   -2.20 KCAL/MOL
REMARK 922        TOTAL FREE ENERGY PREDICTED BY IDOCK:   -3.83 KCAL/MOL
REMARK 923 INTER-LIGAND FREE ENERGY PREDICTED BY IDOCK:   -3.38 KCAL/MOL
REMARK 924 INTRA-LIGAND FREE ENERGY PREDICTED BY IDOCK:   -0.45 KCAL/MOL
REMARK 927      BINDING AFFINITY PREDICTED BY RF-SCORE:    0.00 PKD
ROOT
HETATM    1  C   UNL     1     -10.609   4.891  65.998  1.00  0.00    -0.312 C  
HETATM    2  C   UNL     1     -10.215   6.142  66.771  1.00  0.00    -0.206 C  
ENDROOT
BRANCH   2   3
HETATM    3  N   UNL     1     -10.228   5.875  68.211  1.00  0.00    -0.167 NA 
HETATM    4  H   UNL     1     -10.800   5.055  68.420  1.00  0.00     0.000 HD 
BRANCH   3   5
HETATM    5  C   UNL     1      -8.888   5.736  68.800  1.00  0.00    -0.110 C  
HETATM    6  C   UNL     1      -7.947   6.999  68.607  1.00  0.00    -0.120 C  
HETATM    7  N   UNL     1      -8.186   8.136  69.541  1.00  0.00    -0.119 N  
HETATM    8  C   UNL     1      -9.628   4.139  70.799  1.00  0.00    -0.260 A  
HETATM    9  S   UNL     1      -8.026   7.811  71.183  1.00  0.00    -0.093 S  
HETATM   10  O   UNL     1      -6.631   7.526  71.447  1.00  0.00    -0.042 OA 
HETATM   11  C   UNL     1      -8.801   6.231  71.303  1.00  0.00    -0.139 A  
HETATM   12  C   UNL     1      -9.747   4.163  72.179  1.00  0.00    -0.162 A  
HETATM   13  O   UNL     1      -8.806   8.743  71.961  1.00  0.00    -0.312 OA 
HETATM   14  S   UNL     1      -9.168   5.630  72.840  1.00  0.00    -0.133 SA 
HETATM   15  C   UNL     1      -9.106   5.369  70.266  1.00  0.00    -0.166 A  
BRANCH   7  16
HETATM   16  C   UNL     1      -8.932   9.317  69.094  1.00  0.00    -0.144 C  
BRANCH  16  17
HETATM   17  C   UNL     1      -8.063  10.348  68.399  1.00  0.00    -0.112 C  
BRANCH  17  18
HETATM   18  C   UNL     1      -7.889  10.022  66.924  1.00  0.00    -0.106 C  
BRANCH  18  19
HETATM   19  O   UNL     1      -6.723  10.693  66.452  1.00  0.00    -0.107 OA 
HETATM   20  C   UNL     1      -6.027   9.915  65.488  1.00  0.00    -0.076 C  
ENDBRANCH  18  19
ENDBRANCH  17  18
ENDBRANCH  16  17
ENDBRANCH   7  16
BRANCH  12  21
HETATM   21  S   UNL     1     -10.350   2.977  73.359  1.00  0.00    -0.160 S  
HETATM   22  O   UNL     1      -9.304   2.835  74.342  1.00  0.00    -0.080 OA 
HETATM   23  O   UNL     1     -11.684   3.430  73.675  1.00  0.00    -0.100 OA 
HETATM   24  N   UNL     1     -10.504   1.515  72.551  1.00  0.00    -0.150 N  
HETATM   25  H1  UNL     1     -10.850   0.835  73.228  1.00  0.00     0.000 HD 
HETATM   26  H2  UNL     1     -10.291   1.339  71.569  1.00  0.00     0.000 HD 
ENDBRANCH  12  21
ENDBRANCH   3   5
ENDBRANCH   2   3
TORSDOF 7
ENDMDL
MODEL      163
REMARK 921   NORMALIZED FREE ENERGY PREDICTED BY IDOCK:   -2.02 KCAL/MOL
REMARK 922        TOTAL FREE ENERGY PREDICTED BY IDOCK:   -3.57 KCAL/MOL
REMARK 923 INTER-LIGAND FREE ENERGY PREDICTED BY IDOCK:   -2.89 KCAL/MOL
REMARK 924 INTRA-LIGAND FREE ENERGY PREDICTED BY IDOCK:   -0.69 KCAL/MOL
REMARK 927      BINDING AFFINITY PREDICTED BY RF-SCORE:    0.00 PKD
ROOT
HETATM    1  C   UNL     1      -8.511   7.038  71.230  1.00  0.00    -0.118 C  
HETATM    2  C   UNL     1      -7.807   8.064  70.352  1.00  0.00    -0.091 C  
ENDROOT
BRANCH   2   3
HETATM    3  N   UNL     1      -7.621   7.535  68.999  1.00  0.00    -0.106 NA 
HETATM    4  H   UNL     1      -7.570   6.515  69.016  1.00  0.00     0.000 HD 
BRANCH   3   5
HETATM    5  C   UNL     1      -8.642   7.987  68.041  1.00  0.00    -0.129 C  
HETATM    6  C   UNL     1      -8.491   9.498  67.580  1.00  0.00    -0.126 C  
HETATM    7  N   UNL     1      -7.463   9.758  66.532  1.00  0.00    -0.094 N  
HETATM    8  C   UNL     1      -9.003   5.617  66.882  1.00  0.00    -0.112 A  
HETATM    9  S   UNL     1      -7.652   8.947  65.071  1.00  0.00    -0.103 S  
HETATM   10  O   UNL     1      -8.841   9.465  64.425  1.00  0.00    -0.202 OA 
HETATM   11  C   UNL     1      -8.145   7.346  65.621  1.00  0.00    -0.129 A  
HETATM   12  C   UNL     1      -8.777   4.992  65.667  1.00  0.00    -0.139 A  
HETATM   13  O   UNL     1      -6.382   8.809  64.400  1.00  0.00    -0.070 OA 
HETATM   14  S   UNL     1      -8.146   6.077  64.504  1.00  0.00    -0.100 SA 
HETATM   15  C   UNL     1      -8.599   6.997  66.880  1.00  0.00    -0.120 A  
BRANCH   7  16
HETATM   16  C   UNL     1      -6.158  10.319  66.899  1.00  0.00    -0.060 C  
BRANCH  16  17
HETATM   17  C   UNL     1      -6.160  11.833  66.983  1.00  0.00    -0.152 C  
BRANCH  17  18
HETATM   18  C   UNL     1      -5.788  12.310  68.379  1.00  0.00    -0.054 C  
BRANCH  18  19
HETATM   19  O   UNL     1      -5.994  11.232  69.289  1.00  0.00    -0.046 OA 
HETATM   20  C   UNL     1      -5.414  11.502  70.558  1.00  0.00    -0.139 C  
ENDBRANCH  18  19
ENDBRANCH  17  18
ENDBRANCH  16  17
ENDBRANCH   7  16
BRANCH  12  21
HETATM   21  S   UNL     1      -9.032   3.326  65.099  1.00  0.00    -0.145 S  
HETATM   22  O   UNL     1      -8.026   3.096  64.092  1.00  0.00    -0.080 OA 
HETATM   23  O   UNL     1      -9.142   2.546  66.309  1.00  0.00    -0.144 OA 
HETATM   24  N   UNL     1     -10.533   3.288  64.349  1.00  0.00    -0.425 N  
HETATM   25  H1  UNL     1     -10.680   2.332  64.024  1.00  0.00     0.000 HD 
HETATM   26  H2  UNL     1     -11.176   4.072  64.239  1.00  0.00     0.000 HD 
ENDBRANCH  12  21
ENDBRANCH   3   5
ENDBRANCH   2   3
TORSDOF 7
ENDMDL
MODEL      164
REMARK 921   NORMALIZED FREE ENERGY PREDICTED BY IDOCK:   -1.90 KCAL/MOL
REMARK 922        TOTAL FREE ENERGY PREDICTED BY IDOCK:   -3.41 KCAL/MOL
REMARK 923 INTER-LIGAND FREE ENERGY PREDICTED BY IDOCK:   -2.99 KCAL/MOL
REMARK 924 INTRA-LIGAND FREE ENERGY PREDICTED BY IDOCK:   -0.42 KCAL/MOL
REMARK 927      BINDING AFFINITY PREDICTED BY RF-SCORE:    0.00 PKD
ROOT
HETATM    1  C   UNL     1      -8.453   7.105  70.900  1.00  0.00    -0.133 C  
HETATM    2  C   UNL     1      -7.731   8.234  70.178  1.00  0.00    -0.084 C  
ENDROOT
BRANCH   2   3
HETATM    3  N   UNL     1      -7.600   7.926  68.753  1.00  0.00    -0.098 NA 
HETATM    4  H   UNL     1      -7.188   7.001  68.621  1.00  0.00     0.000 HD 
BRANCH   3   5
HETATM    5  C   UNL     1      -8.860   8.043  68.003  1.00  0.00    -0.128 C  
HETATM    6  C   UNL     1      -9.436   9.519  67.906  1.00  0.00    -0.132 C  
HETATM    7  N   UNL     1      -8.803  10.398  66.883  1.00  0.00    -0.133 N  
HETATM    8  C   UNL     1      -8.381   6.021  66.338  1.00  0.00    -0.118 A  
HETATM    9  S   UNL     1      -8.875   9.873  65.287  1.00  0.00    -0.197 S  
HETATM   10  O   UNL     1     -10.261   9.915  64.866  1.00  0.00    -0.176 OA 
HETATM   11  C   UNL     1      -8.551   8.149  65.471  1.00  0.00    -0.149 A  
HETATM   12  C   UNL     1      -8.119   5.798  64.996  1.00  0.00    -0.131 A  
HETATM   13  O   UNL     1      -7.796  10.443  64.518  1.00  0.00    -0.141 OA 
HETATM   14  S   UNL     1      -8.206   7.244  64.086  1.00  0.00     0.132 SA 
HETATM   15  C   UNL     1      -8.600   7.409  66.638  1.00  0.00    -0.128 A  
BRANCH   7  16
HETATM   16  C   UNL     1      -7.813  11.404  67.283  1.00  0.00    -0.149 C  
BRANCH  16  17
HETATM   17  C   UNL     1      -8.431  12.741  67.646  1.00  0.00    -0.178 C  
BRANCH  17  18
HETATM   18  C   UNL     1      -9.913  12.777  67.304  1.00  0.00    -0.219 C  
BRANCH  18  19
HETATM   19  O   UNL     1     -10.269  14.124  67.002  1.00  0.00    -0.256 OA 
HETATM   20  C   UNL     1     -11.257  14.615  67.898  1.00  0.00    -0.304 C  
ENDBRANCH  18  19
ENDBRANCH  17  18
ENDBRANCH  16  17
ENDBRANCH   7  16
BRANCH  12  21
HETATM   21  S   UNL     1      -7.743   4.330  64.066  1.00  0.00    -0.084 S  
HETATM   22  O   UNL     1      -6.486   3.849  64.584  1.00  0.00    -0.039 OA 
HETATM   23  O   UNL     1      -8.964   3.561  64.096  1.00  0.00    -0.102 OA 
HETATM   24  N   UNL     1      -7.498   4.806  62.476  1.00  0.00    -0.043 N  
HETATM   25  H1  UNL     1      -7.282   3.964  61.942  1.00  0.00     0.000 HD 
HETATM   26  H2  UNL     1      -7.554   5.757  62.111  1.00  0.00     0.000 HD 
ENDBRANCH  12  21
ENDBRANCH   3   5
ENDBRANCH   2   3
TORSDOF 7
ENDMDL
MODEL      165
REMARK 921   NORMALIZED FREE ENERGY PREDICTED BY IDOCK:   -1.71 KCAL/MOL
REMARK 922        TOTAL FREE ENERGY PREDICTED BY IDOCK:   -3.15 KCAL/MOL
REMARK 923 INTER-LIGAND FREE ENERGY PREDICTED BY IDOCK:   -3.21 KCAL/MOL
REMARK 924 INTRA-LIGAND FREE ENERGY PREDICTED BY IDOCK:    0.07 KCAL/MOL
REMARK 927      BINDING AFFINITY PREDICTED BY RF-SCORE:    0.00 PKD
ROOT
HETATM    1  C   UNL     1     -12.001   9.112  71.463  1.00  0.00    -0.422 C  
HETATM    2  C   UNL     1     -11.681  10.465  70.842  1.00  0.00    -0.360 C  
ENDROOT
BRANCH   2   3
HETATM    3  N   UNL     1     -10.255  10.553  70.521  1.00  0.00    -0.198 NA 
HETATM    4  H   UNL     1      -9.701  10.655  71.371  1.00  0.00     0.000 HD 
BRANCH   3   5
HETATM    5  C   UNL     1      -9.760   9.430  69.710  1.00  0.00    -0.199 C  
HETATM    6  C   UNL     1      -9.025   9.856  68.369  1.00  0.00    -0.120 C  
HETATM    7  N   UNL     1      -7.612  10.308  68.518  1.00  0.00    -0.086 N  
HETATM    8  C   UNL     1      -9.291   7.795  71.759  1.00  0.00    -0.179 A  
HETATM    9  S   UNL     1      -6.534   9.206  69.190  1.00  0.00    -0.042 S  
HETATM   10  O   UNL     1      -6.376   8.110  68.256  1.00  0.00    -0.048 OA 
HETATM   11  C   UNL     1      -7.509   8.509  70.484  1.00  0.00    -0.062 A  
HETATM   12  C   UNL     1      -8.222   7.211  72.419  1.00  0.00    -0.104 A  
HETATM   13  O   UNL     1      -5.422   9.894  69.799  1.00  0.00    -0.036 OA 
HETATM   14  S   UNL     1      -6.735   7.564  71.653  1.00  0.00    -0.050 SA 
HETATM   15  C   UNL     1      -8.880   8.595  70.637  1.00  0.00    -0.192 A  
BRANCH   7  16
HETATM   16  C   UNL     1      -7.287  11.737  68.498  1.00  0.00    -0.103 C  
BRANCH  16  17
HETATM   17  C   UNL     1      -7.375  12.353  67.114  1.00  0.00    -0.081 C  
BRANCH  17  18
HETATM   18  C   UNL     1      -7.979  13.748  67.166  1.00  0.00    -0.044 C  
BRANCH  18  19
HETATM   19  O   UNL     1      -9.157  13.696  67.969  1.00  0.00    -0.178 OA 
HETATM   20  C   UNL     1     -10.331  13.668  67.170  1.00  0.00    -0.250 C  
ENDBRANCH  18  19
ENDBRANCH  17  18
ENDBRANCH  16  17
ENDBRANCH   7  16
BRANCH  12  21
HETATM   21  S   UNL     1      -8.114   6.173  73.860  1.00  0.00    -0.105 S  
HETATM   22  O   UNL     1      -6.873   6.527  74.504  1.00  0.00    -0.091 OA 
HETATM   23  O   UNL     1      -9.405   6.299  74.493  1.00  0.00    -0.165 OA 
HETATM   24  N   UNL     1      -7.983   4.591  73.316  1.00  0.00    -0.094 N  
HETATM   25  H1  UNL     1      -7.920   3.996  74.143  1.00  0.00     0.000 HD 
HETATM   26  H2  UNL     1      -7.967   4.283  72.344  1.00  0.00     0.000 HD 
ENDBRANCH  12  21
ENDBRANCH   3   5
ENDBRANCH   2   3
TORSDOF 7
ENDMDL
MODEL      166
REMARK 921   NORMALIZED FREE ENERGY PREDICTED BY IDOCK:   -1.52 KCAL/MOL
REMARK 922        TOTAL FREE ENERGY PREDICTED BY IDOCK:   -2.87 KCAL/MOL
REMARK 923 INTER-LIGAND FREE ENERGY PREDICTED BY IDOCK:   -2.79 KCAL/MOL
REMARK 924 INTRA-LIGAND FREE ENERGY PREDICTED BY IDOCK:   -0.09 KCAL/MOL
REMARK 927      BINDING AFFINITY PREDICTED BY RF-SCORE:    0.00 PKD
ROOT
HETATM    1  C   UNL     1     -12.521  11.643  69.316  1.00  0.00     0.110 C  
HETATM    2  C   UNL     1     -11.694  12.016  68.094  1.00  0.00    -0.333 C  
ENDROOT
BRANCH   2   3
HETATM    3  N   UNL     1     -11.308  13.428  68.153  1.00  0.00    -0.269 NA 
HETATM    4  H   UNL     1     -12.130  14.021  68.270  1.00  0.00     0.000 HD 
BRANCH   3   5
HETATM    5  C   UNL     1     -10.302  13.725  69.184  1.00  0.00     0.029 C  
HETATM    6  C   UNL     1      -9.368  12.500  69.568  1.00  0.00     1.563 C  
HETATM    7  N   UNL     1      -8.247  12.218  68.626  1.00  0.00    -0.074 N  
HETATM    8  C   UNL     1      -9.993  16.290  68.540  1.00  0.00    -0.234 A  
HETATM    9  S   UNL     1      -7.139  13.458  68.377  1.00  0.00    -0.119 S  
HETATM   10  O   UNL     1      -6.414  13.663  69.614  1.00  0.00    -0.118 OA 
HETATM   11  C   UNL     1      -8.202  14.862  68.283  1.00  0.00    -0.145 A  
HETATM   12  C   UNL     1      -9.038  17.133  67.996  1.00  0.00    -0.240 A  
HETATM   13  O   UNL     1      -6.493  13.309  67.095  1.00  0.00    -0.224 OA 
HETATM   14  S   UNL     1      -7.559  16.320  67.719  1.00  0.00    -0.142 SA 
HETATM   15  C   UNL     1      -9.524  14.938  68.679  1.00  0.00    -0.208 A  
BRANCH   7  16
HETATM   16  C   UNL     1      -8.352  11.120  67.659  1.00  0.00    -0.122 C  
BRANCH  16  17
HETATM   17  C   UNL     1      -9.130   9.929  68.187  1.00  0.00    -0.121 C  
BRANCH  17  18
HETATM   18  C   UNL     1      -9.698   9.091  67.051  1.00  0.00    -0.189 C  
BRANCH  18  19
HETATM   19  O   UNL     1     -10.435   8.011  67.618  1.00  0.00    -0.231 OA 
HETATM   20  C   UNL     1     -10.072   6.768  67.031  1.00  0.00    -0.200 C  
ENDBRANCH  18  19
ENDBRANCH  17  18
ENDBRANCH  16  17
ENDBRANCH   7  16
BRANCH  12  21
HETATM   21  S   UNL     1      -9.055  18.859  67.565  1.00  0.00    -0.282 S  
HETATM   22  O   UNL     1      -8.369  19.537  68.637  1.00  0.00    -0.354 OA 
HETATM   23  O   UNL     1      -8.616  18.892  66.191  1.00  0.00    -0.423 OA 
HETATM   24  N   UNL     1     -10.659  19.353  67.583  1.00  0.00    -0.458 N  
HETATM   25  H1  UNL     1     -10.669  20.343  67.336  1.00  0.00     0.000 HD 
HETATM   26  H2  UNL     1     -11.470  18.774  67.801  1.00  0.00     0.000 HD 
ENDBRANCH  12  21
ENDBRANCH   3   5
ENDBRANCH   2   3
TORSDOF 7
ENDMDL
MODEL      167
REMARK 921   NORMALIZED FREE ENERGY PREDICTED BY IDOCK:   -0.95 KCAL/MOL
REMARK 922        TOTAL FREE ENERGY PREDICTED BY IDOCK:   -2.07 KCAL/MOL
REMARK 923 INTER-LIGAND FREE ENERGY PREDICTED BY IDOCK:   -1.56 KCAL/MOL
REMARK 924 INTRA-LIGAND FREE ENERGY PREDICTED BY IDOCK:   -0.52 KCAL/MOL
REMARK 927      BINDING AFFINITY PREDICTED BY RF-SCORE:    0.00 PKD
ROOT
HETATM    1  C   UNL     1     -10.555  13.140  64.867  1.00  0.00    -0.366 C  
HETATM    2  C   UNL     1      -9.367  12.199  64.724  1.00  0.00     0.292 C  
ENDROOT
BRANCH   2   3
HETATM    3  N   UNL     1      -8.328  12.540  65.697  1.00  0.00     0.560 NA 
HETATM    4  H   UNL     1      -7.694  13.243  65.315  1.00  0.00     0.000 HD 
BRANCH   3   5
HETATM    5  C   UNL     1      -8.855  12.970  67.001  1.00  0.00    -0.212 C  
HETATM    6  C   UNL     1      -8.511  11.997  68.206  1.00  0.00    -0.167 C  
HETATM    7  N   UNL     1      -7.139  12.126  68.775  1.00  0.00    -0.107 N  
HETATM    8  C   UNL     1      -8.728  15.583  66.502  1.00  0.00    -0.340 A  
HETATM    9  S   UNL     1      -6.715  13.633  69.389  1.00  0.00    -0.016 S  
HETATM   10  O   UNL     1      -7.524  13.878  70.566  1.00  0.00     1.086 OA 
HETATM   11  C   UNL     1      -7.408  14.712  68.178  1.00  0.00    -0.125 A  
HETATM   12  C   UNL     1      -8.025  16.703  66.916  1.00  0.00    -0.220 A  
HETATM   13  O   UNL     1      -5.282  13.805  69.363  1.00  0.00    -0.082 OA 
HETATM   14  S   UNL     1      -6.959  16.342  68.204  1.00  0.00    -0.133 SA 
HETATM   15  C   UNL     1      -8.345  14.394  67.214  1.00  0.00    -0.228 A  
BRANCH   7  16
HETATM   16  C   UNL     1      -6.098  11.156  68.420  1.00  0.00    -0.045 C  
BRANCH  16  17
HETATM   17  C   UNL     1      -6.639   9.927  67.715  1.00  0.00    -0.068 C  
BRANCH  17  18
HETATM   18  C   UNL     1      -6.799   8.761  68.678  1.00  0.00    -0.063 C  
BRANCH  18  19
HETATM   19  O   UNL     1      -7.157   7.604  67.925  1.00  0.00    -0.080 OA 
HETATM   20  C   UNL     1      -7.285   7.903  66.542  1.00  0.00    -0.083 C  
ENDBRANCH  18  19
ENDBRANCH  17  18
ENDBRANCH  16  17
ENDBRANCH   7  16
BRANCH  12  21
HETATM   21  S   UNL     1      -8.040  18.401  66.388  1.00  0.00    -0.234 S  
HETATM   22  O   UNL     1      -7.264  18.441  65.173  1.00  0.00    -0.388 OA 
HETATM   23  O   UNL     1      -9.428  18.789  66.460  1.00  0.00    -0.318 OA 
HETATM   24  N   UNL     1      -7.219  19.284  67.555  1.00  0.00    -0.220 N  
HETATM   25  H1  UNL     1      -7.227  20.259  67.252  1.00  0.00     0.000 HD 
HETATM   26  H2  UNL     1      -6.792  18.917  68.405  1.00  0.00     0.000 HD 
ENDBRANCH  12  21
ENDBRANCH   3   5
ENDBRANCH   2   3
TORSDOF 7
ENDMDL
MODEL      168
REMARK 921   NORMALIZED FREE ENERGY PREDICTED BY IDOCK:    6.28 KCAL/MOL
REMARK 922        TOTAL FREE ENERGY PREDICTED BY IDOCK:    8.12 KCAL/MOL
REMARK 923 INTER-LIGAND FREE ENERGY PREDICTED BY IDOCK:    4.08 KCAL/MOL
REMARK 924 INTRA-LIGAND FREE ENERGY PREDICTED BY IDOCK:    4.04 KCAL/MOL
REMARK 927      BINDING AFFINITY PREDICTED BY RF-SCORE:    0.00 PKD
ROOT
HETATM    1  C   UNL     1     -10.575  15.435  68.369  1.00  0.00    -0.247 C  
HETATM    2  C   UNL     1     -10.221  13.956  68.296  1.00  0.00    -0.247 C  
ENDROOT
BRANCH   2   3
HETATM    3  N   UNL     1      -9.591  13.522  69.545  1.00  0.00     0.271 NA 
HETATM    4  H   UNL     1     -10.040  13.966  70.347  1.00  0.00     0.000 HD 
BRANCH   3   5
HETATM    5  C   UNL     1      -9.555  12.061  69.713  1.00  0.00     1.891 C  
HETATM    6  C   UNL     1     -10.953  11.403  70.075  1.00  0.00     0.152 C  
HETATM    7  N   UNL     1     -11.890  11.198  68.933  1.00  0.00    -0.338 N  
HETATM    8  C   UNL     1      -7.586  11.631  67.974  1.00  0.00    -0.117 A  
HETATM    9  S   UNL     1     -11.345  10.227  67.673  1.00  0.00     0.218 S  
HETATM   10  O   UNL     1     -11.222   8.874  68.174  1.00  0.00     0.160 OA 
HETATM   11  C   UNL     1      -9.672  10.764  67.518  1.00  0.00    -0.166 A  
HETATM   12  C   UNL     1      -7.382  11.048  66.733  1.00  0.00    -0.139 A  
HETATM   13  O   UNL     1     -12.029  10.560  66.447  1.00  0.00     1.085 OA 
HETATM   14  S   UNL     1      -8.799  10.288  66.150  1.00  0.00    -0.155 SA 
HETATM   15  C   UNL     1      -8.942  11.503  68.430  1.00  0.00    -0.173 A  
BRANCH   7  16
HETATM   16  C   UNL     1     -13.007  12.124  68.719  1.00  0.00     2.392 C  
BRANCH  16  17
HETATM   17  C   UNL     1     -12.624  13.579  68.908  1.00  0.00     0.502 C  
BRANCH  17  18
HETATM   18  C   UNL     1     -12.505  13.933  70.383  1.00  0.00    -0.334 C  
BRANCH  18  19
HETATM   19  O   UNL     1     -13.780  14.374  70.842  1.00  0.00    -0.248 OA 
HETATM   20  C   UNL     1     -13.657  15.301  71.912  1.00  0.00    -0.475 C  
ENDBRANCH  18  19
ENDBRANCH  17  18
ENDBRANCH  16  17
ENDBRANCH   7  16
BRANCH  12  21
HETATM   21  S   UNL     1      -5.958  10.927  65.674  1.00  0.00     0.001 S  
HETATM   22  O   UNL     1      -5.140  12.073  65.986  1.00  0.00    -0.187 OA 
HETATM   23  O   UNL     1      -5.511   9.563  65.827  1.00  0.00    -0.039 OA 
HETATM   24  N   UNL     1      -6.504  11.095  64.097  1.00  0.00     0.273 N  
HETATM   25  H1  UNL     1      -5.687  11.025  63.489  1.00  0.00     0.000 HD 
HETATM   26  H2  UNL     1      -7.470  11.239  63.801  1.00  0.00     0.000 HD 
ENDBRANCH  12  21
ENDBRANCH   3   5
ENDBRANCH   2   3
TORSDOF 7
ENDMDL
MODEL      169
REMARK 921   NORMALIZED FREE ENERGY PREDICTED BY IDOCK:    8.68 KCAL/MOL
REMARK 922        TOTAL FREE ENERGY PREDICTED BY IDOCK:   11.50 KCAL/MOL
REMARK 923 INTER-LIGAND FREE ENERGY PREDICTED BY IDOCK:    6.76 KCAL/MOL
REMARK 924 INTRA-LIGAND FREE ENERGY PREDICTED BY IDOCK:    4.74 KCAL/MOL
REMARK 927      BINDING AFFINITY PREDICTED BY RF-SCORE:    0.00 PKD
ROOT
HETATM    1  C   UNL     1     -11.394   5.515  64.451  1.00  0.00     3.876 C  
HETATM    2  C   UNL     1     -10.749   6.328  65.566  1.00  0.00     2.167 C  
ENDROOT
BRANCH   2   3
HETATM    3  N   UNL     1      -9.578   5.626  66.095  1.00  0.00    -0.238 NA 
HETATM    4  H   UNL     1      -9.382   4.788  65.545  1.00  0.00     0.000 HD 
BRANCH   3   5
HETATM    5  C   UNL     1      -8.378   6.471  66.199  1.00  0.00    -0.129 C  
HETATM    6  C   UNL     1      -8.553   7.940  65.626  1.00  0.00    -0.138 C  
HETATM    7  N   UNL     1      -9.251   8.907  66.521  1.00  0.00    -0.169 N  
HETATM    8  C   UNL     1      -7.434   5.338  68.416  1.00  0.00    -0.075 A  
HETATM    9  S   UNL     1      -8.554   9.183  68.025  1.00  0.00    -0.125 S  
HETATM   10  O   UNL     1      -7.293   9.864  67.815  1.00  0.00    -0.088 OA 
HETATM   11  C   UNL     1      -8.071   7.552  68.490  1.00  0.00    -0.125 A  
HETATM   12  C   UNL     1      -7.225   5.645  69.751  1.00  0.00    -0.069 A  
HETATM   13  O   UNL     1      -9.549   9.632  68.969  1.00  0.00    -0.158 OA 
HETATM   14  S   UNL     1      -7.603   7.278  70.092  1.00  0.00    -0.091 SA 
HETATM   15  C   UNL     1      -7.969   6.444  67.670  1.00  0.00    -0.114 A  
BRANCH   7  16
HETATM   16  C   UNL     1     -10.659   9.245  66.288  1.00  0.00     0.148 C  
BRANCH  16  17
HETATM   17  C   UNL     1     -11.552   8.943  67.477  1.00  0.00     1.994 C  
BRANCH  17  18
HETATM   18  C   UNL     1     -10.887   7.965  68.434  1.00  0.00     0.082 C  
BRANCH  18  19
HETATM   19  O   UNL     1     -11.833   6.950  68.764  1.00  0.00     0.387 OA 
HETATM   20  C   UNL     1     -11.252   5.940  69.577  1.00  0.00    -0.229 C  
ENDBRANCH  18  19
ENDBRANCH  17  18
ENDBRANCH  16  17
ENDBRANCH   7  16
BRANCH  12  21
HETATM   21  S   UNL     1      -6.632   4.693  71.131  1.00  0.00    -0.028 S  
HETATM   22  O   UNL     1      -7.734   4.618  72.058  1.00  0.00    -0.086 OA 
HETATM   23  O   UNL     1      -6.015   3.534  70.531  1.00  0.00    -0.017 OA 
HETATM   24  N   UNL     1      -5.408   5.585  71.853  1.00  0.00    -0.016 N  
HETATM   25  H1  UNL     1      -5.068   5.039  72.645  1.00  0.00     0.000 HD 
HETATM   26  H2  UNL     1      -5.069   6.501  71.558  1.00  0.00     0.000 HD 
ENDBRANCH  12  21
ENDBRANCH   3   5
ENDBRANCH   2   3
TORSDOF 7
ENDMDL
MODEL      170
REMARK 921   NORMALIZED FREE ENERGY PREDICTED BY IDOCK:   12.94 KCAL/MOL
REMARK 922        TOTAL FREE ENERGY PREDICTED BY IDOCK:   17.50 KCAL/MOL
REMARK 923 INTER-LIGAND FREE ENERGY PREDICTED BY IDOCK:   14.26 KCAL/MOL
REMARK 924 INTRA-LIGAND FREE ENERGY PREDICTED BY IDOCK:    3.24 KCAL/MOL
REMARK 927      BINDING AFFINITY PREDICTED BY RF-SCORE:    0.00 PKD
ROOT
HETATM    1  C   UNL     1      -7.383  13.448  71.369  1.00  0.00     5.048 C  
HETATM    2  C   UNL     1      -7.962  12.713  70.168  1.00  0.00     3.148 C  
ENDROOT
BRANCH   2   3
HETATM    3  N   UNL     1      -7.879  13.551  68.970  1.00  0.00    -0.336 NA 
HETATM    4  H   UNL     1      -7.390  13.060  68.221  1.00  0.00     0.000 HD 
BRANCH   3   5
HETATM    5  C   UNL     1      -9.183  14.046  68.502  1.00  0.00    -0.170 C  
HETATM    6  C   UNL     1      -9.289  15.625  68.391  1.00  0.00    -0.195 C  
HETATM    7  N   UNL     1      -8.677  16.234  67.175  1.00  0.00    -0.184 N  
HETATM    8  C   UNL     1      -9.748  11.938  66.977  1.00  0.00    -0.204 A  
HETATM    9  S   UNL     1      -9.279  15.722  65.690  1.00  0.00     0.125 S  
HETATM   10  O   UNL     1     -10.644  16.193  65.577  1.00  0.00    -0.371 OA 
HETATM   11  C   UNL     1      -9.461  13.990  65.966  1.00  0.00    -0.136 A  
HETATM   12  C   UNL     1      -9.890  11.613  65.637  1.00  0.00    -0.240 A  
HETATM   13  O   UNL     1      -8.290  15.901  64.655  1.00  0.00     4.198 OA 
HETATM   14  S   UNL     1      -9.744  12.990  64.632  1.00  0.00     0.292 SA 
HETATM   15  C   UNL     1      -9.457  13.331  67.181  1.00  0.00    -0.240 A  
BRANCH   7  16
HETATM   16  C   UNL     1      -7.364  16.881  67.253  1.00  0.00    -0.169 C  
BRANCH  16  17
HETATM   17  C   UNL     1      -6.313  16.025  67.934  1.00  0.00    -0.155 C  
BRANCH  17  18
HETATM   18  C   UNL     1      -6.736  15.649  69.346  1.00  0.00    -0.180 C  
BRANCH  18  19
HETATM   19  O   UNL     1      -5.853  16.291  70.263  1.00  0.00    -0.183 OA 
HETATM   20  C   UNL     1      -6.529  16.681  71.450  1.00  0.00     2.768 C  
ENDBRANCH  18  19
ENDBRANCH  17  18
ENDBRANCH  16  17
ENDBRANCH   7  16
BRANCH  12  21
HETATM   21  S   UNL     1     -10.208  10.080  64.794  1.00  0.00     0.373 S  
HETATM   22  O   UNL     1     -10.941   9.263  65.729  1.00  0.00     1.103 OA 
HETATM   23  O   UNL     1     -10.726  10.477  63.506  1.00  0.00     0.161 OA 
HETATM   24  N   UNL     1      -8.721   9.351  64.524  1.00  0.00    -0.198 N  
HETATM   25  H1  UNL     1      -8.903   8.471  64.040  1.00  0.00     0.000 HD 
HETATM   26  H2  UNL     1      -7.808   9.716  64.793  1.00  0.00     0.000 HD 
ENDBRANCH  12  21
ENDBRANCH   3   5
ENDBRANCH   2   3
TORSDOF 7
ENDMDL
MODEL      171
REMARK 921   NORMALIZED FREE ENERGY PREDICTED BY IDOCK:   20.32 KCAL/MOL
REMARK 922        TOTAL FREE ENERGY PREDICTED BY IDOCK:   27.90 KCAL/MOL
REMARK 923 INTER-LIGAND FREE ENERGY PREDICTED BY IDOCK:   23.54 KCAL/MOL
REMARK 924 INTRA-LIGAND FREE ENERGY PREDICTED BY IDOCK:    4.36 KCAL/MOL
REMARK 927      BINDING AFFINITY PREDICTED BY RF-SCORE:    0.00 PKD
ROOT
HETATM    1  C   UNL     1     -13.881  16.325  73.445  1.00  0.00     0.195 C  
HETATM    2  C   UNL     1     -14.393  15.238  72.509  1.00  0.00    -0.245 C  
ENDROOT
BRANCH   2   3
HETATM    3  N   UNL     1     -13.271  14.518  71.903  1.00  0.00    -0.336 NA 
HETATM    4  H   UNL     1     -12.726  14.035  72.618  1.00  0.00     0.000 HD 
BRANCH   3   5
HETATM    5  C   UNL     1     -13.672  13.586  70.838  1.00  0.00     0.484 C  
HETATM    6  C   UNL     1     -14.356  14.274  69.581  1.00  0.00     5.730 C  
HETATM    7  N   UNL     1     -13.427  14.913  68.605  1.00  0.00     3.234 N  
HETATM    8  C   UNL     1     -11.737  11.811  71.281  1.00  0.00     1.006 A  
HETATM    9  S   UNL     1     -12.276  13.916  67.894  1.00  0.00    -0.008 S  
HETATM   10  O   UNL     1     -12.969  12.975  67.038  1.00  0.00     0.646 OA 
HETATM   11  C   UNL     1     -11.769  12.932  69.267  1.00  0.00    -0.321 A  
HETATM   12  C   UNL     1     -10.595  11.322  70.669  1.00  0.00     1.873 A  
HETATM   13  O   UNL     1     -11.135  14.688  67.462  1.00  0.00    -0.292 OA 
HETATM   14  S   UNL     1     -10.379  11.984  69.107  1.00  0.00     0.197 SA 
HETATM   15  C   UNL     1     -12.419  12.791  70.479  1.00  0.00    -0.280 A  
BRANCH   7  16
HETATM   16  C   UNL     1     -13.243  16.368  68.605  1.00  0.00     3.974 C  
BRANCH  16  17
HETATM   17  C   UNL     1     -11.980  16.812  67.891  1.00  0.00     1.074 C  
BRANCH  17  18
HETATM   18  C   UNL     1     -10.744  16.169  68.502  1.00  0.00    -0.300 C  
BRANCH  18  19
HETATM   19  O   UNL     1     -10.719  16.481  69.894  1.00  0.00    -0.329 OA 
HETATM   20  C   UNL     1      -9.409  16.813  70.330  1.00  0.00     1.953 C  
ENDBRANCH  18  19
ENDBRANCH  17  18
ENDBRANCH  16  17
ENDBRANCH   7  16
BRANCH  12  21
HETATM   21  S   UNL     1      -9.358  10.150  71.181  1.00  0.00     2.393 S  
HETATM   22  O   UNL     1      -8.091  10.815  71.002  1.00  0.00     2.045 OA 
HETATM   23  O   UNL     1      -9.829   9.662  72.455  1.00  0.00     1.018 OA 
HETATM   24  N   UNL     1      -9.424   8.865  70.104  1.00  0.00    -0.171 N  
HETATM   25  H1  UNL     1      -8.715   8.193  70.398  1.00  0.00     0.000 HD 
HETATM   26  H2  UNL     1     -10.054   8.773  69.307  1.00  0.00     0.000 HD 
ENDBRANCH  12  21
ENDBRANCH   3   5
ENDBRANCH   2   3
TORSDOF 7
ENDMDL
