MODEL        1
REMARK 921   NORMALIZED FREE ENERGY PREDICTED BY IDOCK:   -5.30 KCAL/MOL
REMARK 922        TOTAL FREE ENERGY PREDICTED BY IDOCK:   -7.41 KCAL/MOL
REMARK 923 INTER-LIGAND FREE ENERGY PREDICTED BY IDOCK:   -6.85 KCAL/MOL
REMARK 924 INTRA-LIGAND FREE ENERGY PREDICTED BY IDOCK:   -0.55 KCAL/MOL
REMARK 927      BINDING AFFINITY PREDICTED BY RF-SCORE:    0.00 PKD
ROOT
HETATM    1  C   UNL     1     -12.447  15.708  74.352  1.00  0.00    -0.790 C  
HETATM    2  C   UNL     1     -13.198  15.721  73.027  1.00  0.00    -0.671 C  
ENDROOT
BRANCH   2   3
HETATM    3  C   UNL     1     -12.232  15.935  71.862  1.00  0.00    -0.558 C  
BRANCH   3   4
HETATM    4  C   UNL     1     -12.655  15.240  70.565  1.00  0.00    -0.450 C  
HETATM    5  C   UNL     1     -11.890  15.656  69.318  1.00  0.00    -0.363 C  
HETATM    6  N   UNL     1     -11.959  14.490  68.466  1.00  0.00    -0.315 N  
HETATM    7  C   UNL     1     -11.946  13.355  69.252  1.00  0.00    -0.317 C  
HETATM    8  O   UNL     1     -11.682  12.214  68.900  1.00  0.00    -0.288 OA 
HETATM    9  C   UNL     1     -12.404  13.729  70.642  1.00  0.00    -0.445 C  
BRANCH   6  10
HETATM   10  C   UNL     1     -11.602  14.580  67.035  1.00  0.00    -0.386 C  
BRANCH  10  11
HETATM   11  C   UNL     1     -10.092  14.660  66.749  1.00  0.00    -0.266 C  
HETATM   12  C   UNL     1      -9.698  15.699  65.715  1.00  0.00    -0.380 C  
ENDBRANCH  10  11
BRANCH  10  13
HETATM   13  C   UNL     1     -12.325  13.703  65.966  1.00  0.00    -0.445 C  
HETATM   14  N   UNL     1     -11.926  12.415  65.792  1.00  0.00    -0.417 N  
HETATM   15  O   UNL     1     -13.285  14.120  65.318  1.00  0.00    -0.760 OA 
HETATM   16  H1  UNL     1     -12.398  11.842  65.093  1.00  0.00     0.000 HD 
HETATM   17  H2  UNL     1     -11.166  12.027  66.352  1.00  0.00     0.000 HD 
ENDBRANCH  10  13
ENDBRANCH   6  10
ENDBRANCH   3   4
ENDBRANCH   2   3
TORSDOF 5
ENDMDL
MODEL        2
REMARK 921   NORMALIZED FREE ENERGY PREDICTED BY IDOCK:   -5.25 KCAL/MOL
REMARK 922        TOTAL FREE ENERGY PREDICTED BY IDOCK:   -7.34 KCAL/MOL
REMARK 923 INTER-LIGAND FREE ENERGY PREDICTED BY IDOCK:   -6.88 KCAL/MOL
REMARK 924 INTRA-LIGAND FREE ENERGY PREDICTED BY IDOCK:   -0.46 KCAL/MOL
REMARK 927      BINDING AFFINITY PREDICTED BY RF-SCORE:    0.00 PKD
ROOT
HETATM    1  C   UNL     1     -13.029  10.646  71.475  1.00  0.00    -0.566 C  
HETATM    2  C   UNL     1     -12.197  11.600  70.626  1.00  0.00    -0.461 C  
ENDROOT
BRANCH   2   3
HETATM    3  C   UNL     1     -11.488  10.843  69.504  1.00  0.00    -0.372 C  
BRANCH   3   4
HETATM    4  C   UNL     1     -10.989  11.737  68.365  1.00  0.00    -0.274 C  
HETATM    5  C   UNL     1     -11.128  11.157  66.967  1.00  0.00    -0.273 C  
HETATM    6  N   UNL     1     -11.251  12.323  66.120  1.00  0.00    -0.312 N  
HETATM    7  C   UNL     1     -11.927  13.311  66.809  1.00  0.00    -0.382 C  
HETATM    8  O   UNL     1     -12.482  14.294  66.338  1.00  0.00    -0.441 OA 
HETATM    9  C   UNL     1     -11.802  13.035  68.289  1.00  0.00    -0.381 C  
BRANCH   6  10
HETATM   10  C   UNL     1     -11.099  12.210  64.655  1.00  0.00    -0.317 C  
BRANCH  10  11
HETATM   11  C   UNL     1     -10.406  10.922  64.174  1.00  0.00    -0.432 C  
HETATM   12  C   UNL     1      -9.418  11.122  63.040  1.00  0.00    -0.386 C  
ENDBRANCH  10  11
BRANCH  10  13
HETATM   13  C   UNL     1     -12.257  12.611  63.690  1.00  0.00    -0.536 C  
HETATM   14  N   UNL     1     -12.358  13.905  63.282  1.00  0.00    -1.148 N  
HETATM   15  O   UNL     1     -13.046  11.783  63.235  1.00  0.00    -0.598 OA 
HETATM   16  H1  UNL     1     -13.115  14.166  62.651  1.00  0.00     0.000 HD 
HETATM   17  H2  UNL     1     -11.686  14.603  63.602  1.00  0.00     0.000 HD 
ENDBRANCH  10  13
ENDBRANCH   6  10
ENDBRANCH   3   4
ENDBRANCH   2   3
TORSDOF 5
ENDMDL
MODEL        3
REMARK 921   NORMALIZED FREE ENERGY PREDICTED BY IDOCK:   -5.13 KCAL/MOL
REMARK 922        TOTAL FREE ENERGY PREDICTED BY IDOCK:   -7.19 KCAL/MOL
REMARK 923 INTER-LIGAND FREE ENERGY PREDICTED BY IDOCK:   -6.66 KCAL/MOL
REMARK 924 INTRA-LIGAND FREE ENERGY PREDICTED BY IDOCK:   -0.53 KCAL/MOL
REMARK 927      BINDING AFFINITY PREDICTED BY RF-SCORE:    0.00 PKD
ROOT
HETATM    1  C   UNL     1     -13.856  15.443  71.521  1.00  0.00    -0.599 C  
HETATM    2  C   UNL     1     -12.753  14.843  70.659  1.00  0.00    -0.422 C  
ENDROOT
BRANCH   2   3
HETATM    3  C   UNL     1     -12.126  15.913  69.766  1.00  0.00    -0.231 C  
BRANCH   3   4
HETATM    4  C   UNL     1     -11.223  15.354  68.662  1.00  0.00    -0.312 C  
HETATM    5  C   UNL     1     -11.834  14.251  67.810  1.00  0.00    -0.379 C  
HETATM    6  N   UNL     1     -11.153  14.378  66.541  1.00  0.00    -0.324 N  
HETATM    7  C   UNL     1     -10.873  15.710  66.310  1.00  0.00    -0.262 C  
HETATM    8  O   UNL     1     -10.597  16.233  65.240  1.00  0.00    -0.508 OA 
HETATM    9  C   UNL     1     -10.875  16.438  67.634  1.00  0.00    -0.280 C  
BRANCH   6  10
HETATM   10  C   UNL     1     -11.232  13.301  65.533  1.00  0.00    -0.287 C  
BRANCH  10  11
HETATM   11  C   UNL     1     -10.951  11.887  66.073  1.00  0.00    -0.355 C  
HETATM   12  C   UNL     1     -10.189  10.986  65.118  1.00  0.00    -0.352 C  
ENDBRANCH  10  11
BRANCH  10  13
HETATM   13  C   UNL     1     -12.375  13.273  64.470  1.00  0.00    -0.368 C  
HETATM   14  N   UNL     1     -12.328  14.147  63.429  1.00  0.00    -1.144 N  
HETATM   15  O   UNL     1     -13.284  12.444  64.509  1.00  0.00    -0.834 OA 
HETATM   16  H1  UNL     1     -13.075  14.128  62.735  1.00  0.00     0.000 HD 
HETATM   17  H2  UNL     1     -11.558  14.810  63.343  1.00  0.00     0.000 HD 
ENDBRANCH  10  13
ENDBRANCH   6  10
ENDBRANCH   3   4
ENDBRANCH   2   3
TORSDOF 5
ENDMDL
MODEL        4
REMARK 921   NORMALIZED FREE ENERGY PREDICTED BY IDOCK:   -5.10 KCAL/MOL
REMARK 922        TOTAL FREE ENERGY PREDICTED BY IDOCK:   -7.14 KCAL/MOL
REMARK 923 INTER-LIGAND FREE ENERGY PREDICTED BY IDOCK:   -6.82 KCAL/MOL
REMARK 924 INTRA-LIGAND FREE ENERGY PREDICTED BY IDOCK:   -0.32 KCAL/MOL
REMARK 927      BINDING AFFINITY PREDICTED BY RF-SCORE:    0.00 PKD
ROOT
HETATM    1  C   UNL     1     -12.334  15.793  73.470  1.00  0.00    -0.663 C  
HETATM    2  C   UNL     1     -12.569  15.850  71.966  1.00  0.00    -0.517 C  
ENDROOT
BRANCH   2   3
HETATM    3  C   UNL     1     -11.810  14.728  71.259  1.00  0.00    -0.390 C  
BRANCH   3   4
HETATM    4  C   UNL     1     -12.323  14.419  69.850  1.00  0.00    -0.365 C  
HETATM    5  C   UNL     1     -11.609  15.140  68.718  1.00  0.00    -0.349 C  
HETATM    6  N   UNL     1     -11.762  14.250  67.589  1.00  0.00    -0.369 N  
HETATM    7  C   UNL     1     -11.748  12.944  68.039  1.00  0.00    -0.356 C  
HETATM    8  O   UNL     1     -11.543  11.936  67.379  1.00  0.00    -0.408 OA 
HETATM    9  C   UNL     1     -12.121  12.938  69.503  1.00  0.00    -0.274 C  
BRANCH   6  10
HETATM   10  C   UNL     1     -11.476  14.716  66.217  1.00  0.00    -0.351 C  
BRANCH  10  11
HETATM   11  C   UNL     1     -10.015  14.539  65.764  1.00  0.00    -0.361 C  
HETATM   12  C   UNL     1      -9.084  15.664  66.181  1.00  0.00    -0.378 C  
ENDBRANCH  10  11
BRANCH  10  13
HETATM   13  C   UNL     1     -12.461  14.421  65.043  1.00  0.00    -0.359 C  
HETATM   14  N   UNL     1     -12.230  14.994  63.831  1.00  0.00    -1.005 N  
HETATM   15  O   UNL     1     -13.403  13.638  65.160  1.00  0.00    -0.677 OA 
HETATM   16  H1  UNL     1     -12.874  14.801  63.063  1.00  0.00     0.000 HD 
HETATM   17  H2  UNL     1     -11.426  15.606  63.690  1.00  0.00     0.000 HD 
ENDBRANCH  10  13
ENDBRANCH   6  10
ENDBRANCH   3   4
ENDBRANCH   2   3
TORSDOF 5
ENDMDL
MODEL        5
REMARK 921   NORMALIZED FREE ENERGY PREDICTED BY IDOCK:   -5.05 KCAL/MOL
REMARK 922        TOTAL FREE ENERGY PREDICTED BY IDOCK:   -7.07 KCAL/MOL
REMARK 923 INTER-LIGAND FREE ENERGY PREDICTED BY IDOCK:   -6.41 KCAL/MOL
REMARK 924 INTRA-LIGAND FREE ENERGY PREDICTED BY IDOCK:   -0.66 KCAL/MOL
REMARK 927      BINDING AFFINITY PREDICTED BY RF-SCORE:    0.00 PKD
ROOT
HETATM    1  C   UNL     1     -10.535  11.435  63.467  1.00  0.00    -0.477 C  
HETATM    2  C   UNL     1     -11.892  12.110  63.617  1.00  0.00    -0.608 C  
ENDROOT
BRANCH   2   3
HETATM    3  C   UNL     1     -12.248  12.282  65.093  1.00  0.00    -0.345 C  
BRANCH   3   4
HETATM    4  C   UNL     1     -12.206  13.733  65.581  1.00  0.00    -0.484 C  
HETATM    5  C   UNL     1     -10.912  14.162  66.255  1.00  0.00    -0.303 C  
HETATM    6  N   UNL     1     -10.847  15.584  66.005  1.00  0.00    -0.319 N  
HETATM    7  C   UNL     1     -11.407  15.852  64.771  1.00  0.00    -0.309 C  
HETATM    8  O   UNL     1     -11.259  16.859  64.094  1.00  0.00    -1.176 OA 
HETATM    9  C   UNL     1     -12.330  14.712  64.406  1.00  0.00    -0.420 C  
BRANCH   6  10
HETATM   10  C   UNL     1      -9.901  16.438  66.752  1.00  0.00    -0.256 C  
BRANCH  10  11
HETATM   11  C   UNL     1      -8.465  16.452  66.196  1.00  0.00    -0.329 C  
HETATM   12  C   UNL     1      -7.400  16.015  67.185  1.00  0.00    -0.257 C  
ENDBRANCH  10  11
BRANCH  10  13
HETATM   13  C   UNL     1     -10.315  17.856  67.253  1.00  0.00    -0.369 C  
HETATM   14  N   UNL     1     -10.387  18.877  66.357  1.00  0.00    -0.418 N  
HETATM   15  O   UNL     1     -10.640  18.068  68.422  1.00  0.00    -0.340 OA 
HETATM   16  H1  UNL     1     -10.657  19.804  66.686  1.00  0.00     0.000 HD 
HETATM   17  H2  UNL     1     -10.173  18.719  65.372  1.00  0.00     0.000 HD 
ENDBRANCH  10  13
ENDBRANCH   6  10
ENDBRANCH   3   4
ENDBRANCH   2   3
TORSDOF 5
ENDMDL
MODEL        6
REMARK 921   NORMALIZED FREE ENERGY PREDICTED BY IDOCK:   -5.02 KCAL/MOL
REMARK 922        TOTAL FREE ENERGY PREDICTED BY IDOCK:   -7.04 KCAL/MOL
REMARK 923 INTER-LIGAND FREE ENERGY PREDICTED BY IDOCK:   -6.56 KCAL/MOL
REMARK 924 INTRA-LIGAND FREE ENERGY PREDICTED BY IDOCK:   -0.48 KCAL/MOL
REMARK 927      BINDING AFFINITY PREDICTED BY RF-SCORE:    0.00 PKD
ROOT
HETATM    1  C   UNL     1     -12.719  15.376  73.777  1.00  0.00    -0.723 C  
HETATM    2  C   UNL     1     -11.913  15.885  72.589  1.00  0.00    -0.610 C  
ENDROOT
BRANCH   2   3
HETATM    3  C   UNL     1     -12.572  15.471  71.274  1.00  0.00    -0.509 C  
BRANCH   3   4
HETATM    4  C   UNL     1     -11.581  15.088  70.172  1.00  0.00    -0.326 C  
HETATM    5  C   UNL     1     -12.124  14.166  69.092  1.00  0.00    -0.325 C  
HETATM    6  N   UNL     1     -11.331  14.491  67.928  1.00  0.00    -0.295 N  
HETATM    7  C   UNL     1     -11.018  15.836  67.957  1.00  0.00    -0.330 C  
HETATM    8  O   UNL     1     -10.643  16.529  67.022  1.00  0.00    -0.310 OA 
HETATM    9  C   UNL     1     -11.131  16.324  69.382  1.00  0.00    -0.328 C  
BRANCH   6  10
HETATM   10  C   UNL     1     -11.332  13.608  66.744  1.00  0.00    -0.328 C  
BRANCH  10  11
HETATM   11  C   UNL     1     -11.561  12.117  67.051  1.00  0.00    -0.406 C  
HETATM   12  C   UNL     1     -10.545  11.179  66.424  1.00  0.00    -0.315 C  
ENDBRANCH  10  11
BRANCH  10  13
HETATM   13  C   UNL     1     -12.058  14.022  65.427  1.00  0.00    -0.401 C  
HETATM   14  N   UNL     1     -11.383  14.760  64.506  1.00  0.00    -0.611 N  
HETATM   15  O   UNL     1     -13.202  13.650  65.166  1.00  0.00    -0.739 OA 
HETATM   16  H1  UNL     1     -11.859  15.031  63.645  1.00  0.00     0.000 HD 
HETATM   17  H2  UNL     1     -10.416  15.039  64.673  1.00  0.00     0.000 HD 
ENDBRANCH  10  13
ENDBRANCH   6  10
ENDBRANCH   3   4
ENDBRANCH   2   3
TORSDOF 5
ENDMDL
MODEL        7
REMARK 921   NORMALIZED FREE ENERGY PREDICTED BY IDOCK:   -5.01 KCAL/MOL
REMARK 922        TOTAL FREE ENERGY PREDICTED BY IDOCK:   -7.03 KCAL/MOL
REMARK 923 INTER-LIGAND FREE ENERGY PREDICTED BY IDOCK:   -6.59 KCAL/MOL
REMARK 924 INTRA-LIGAND FREE ENERGY PREDICTED BY IDOCK:   -0.44 KCAL/MOL
REMARK 927      BINDING AFFINITY PREDICTED BY RF-SCORE:    0.00 PKD
ROOT
HETATM    1  C   UNL     1     -13.863  15.364  72.507  1.00  0.00    -0.651 C  
HETATM    2  C   UNL     1     -13.433  14.217  71.602  1.00  0.00    -0.448 C  
ENDROOT
BRANCH   2   3
HETATM    3  C   UNL     1     -12.121  14.553  70.893  1.00  0.00    -0.404 C  
BRANCH   3   4
HETATM    4  C   UNL     1     -12.241  14.646  69.369  1.00  0.00    -0.270 C  
HETATM    5  C   UNL     1     -11.239  15.566  68.688  1.00  0.00    -0.325 C  
HETATM    6  N   UNL     1     -11.095  14.999  67.365  1.00  0.00    -0.316 N  
HETATM    7  C   UNL     1     -11.220  13.626  67.446  1.00  0.00    -0.302 C  
HETATM    8  O   UNL     1     -10.858  12.801  66.620  1.00  0.00    -0.258 OA 
HETATM    9  C   UNL     1     -11.972  13.287  68.711  1.00  0.00    -0.335 C  
BRANCH   6  10
HETATM   10  C   UNL     1     -10.445  15.767  66.283  1.00  0.00    -0.309 C  
BRANCH  10  11
HETATM   11  C   UNL     1      -8.914  15.626  66.220  1.00  0.00    -0.377 C  
HETATM   12  C   UNL     1      -8.151  16.925  66.408  1.00  0.00    -0.350 C  
ENDBRANCH  10  11
BRANCH  10  13
HETATM   13  C   UNL     1     -11.058  15.818  64.849  1.00  0.00    -0.399 C  
HETATM   14  N   UNL     1     -11.506  14.666  64.283  1.00  0.00    -0.639 N  
HETATM   15  O   UNL     1     -11.206  16.877  64.238  1.00  0.00    -1.204 OA 
HETATM   16  H1  UNL     1     -11.906  14.700  63.345  1.00  0.00     0.000 HD 
HETATM   17  H2  UNL     1     -11.444  13.781  64.787  1.00  0.00     0.000 HD 
ENDBRANCH  10  13
ENDBRANCH   6  10
ENDBRANCH   3   4
ENDBRANCH   2   3
TORSDOF 5
ENDMDL
MODEL        8
REMARK 921   NORMALIZED FREE ENERGY PREDICTED BY IDOCK:   -4.98 KCAL/MOL
REMARK 922        TOTAL FREE ENERGY PREDICTED BY IDOCK:   -6.99 KCAL/MOL
REMARK 923 INTER-LIGAND FREE ENERGY PREDICTED BY IDOCK:   -6.59 KCAL/MOL
REMARK 924 INTRA-LIGAND FREE ENERGY PREDICTED BY IDOCK:   -0.40 KCAL/MOL
REMARK 927      BINDING AFFINITY PREDICTED BY RF-SCORE:    0.00 PKD
ROOT
HETATM    1  C   UNL     1     -13.165  10.597  71.848  1.00  0.00    -0.528 C  
HETATM    2  C   UNL     1     -12.006  10.135  70.974  1.00  0.00    -0.474 C  
ENDROOT
BRANCH   2   3
HETATM    3  C   UNL     1     -11.450  11.300  70.157  1.00  0.00    -0.336 C  
BRANCH   3   4
HETATM    4  C   UNL     1     -11.891  11.301  68.690  1.00  0.00    -0.369 C  
HETATM    5  C   UNL     1     -11.744  12.628  67.961  1.00  0.00    -0.350 C  
HETATM    6  N   UNL     1     -11.560  12.244  66.579  1.00  0.00    -0.380 N  
HETATM    7  C   UNL     1     -10.864  11.053  66.531  1.00  0.00    -0.209 C  
HETATM    8  O   UNL     1     -10.263  10.586  65.574  1.00  0.00    -0.272 OA 
HETATM    9  C   UNL     1     -11.030  10.346  67.855  1.00  0.00    -0.354 C  
BRANCH   6  10
HETATM   10  C   UNL     1     -11.685  13.242  65.497  1.00  0.00    -0.346 C  
BRANCH  10  11
HETATM   11  C   UNL     1     -10.378  13.971  65.136  1.00  0.00    -0.422 C  
HETATM   12  C   UNL     1     -10.188  15.308  65.827  1.00  0.00    -0.372 C  
ENDBRANCH  10  11
BRANCH  10  13
HETATM   13  C   UNL     1     -12.528  12.945  64.218  1.00  0.00    -0.349 C  
HETATM   14  N   UNL     1     -12.355  13.728  63.119  1.00  0.00    -1.106 N  
HETATM   15  O   UNL     1     -13.297  11.986  64.149  1.00  0.00    -0.725 OA 
HETATM   16  H1  UNL     1     -12.906  13.533  62.283  1.00  0.00     0.000 HD 
HETATM   17  H2  UNL     1     -11.686  14.497  63.131  1.00  0.00     0.000 HD 
ENDBRANCH  10  13
ENDBRANCH   6  10
ENDBRANCH   3   4
ENDBRANCH   2   3
TORSDOF 5
ENDMDL
MODEL        9
REMARK 921   NORMALIZED FREE ENERGY PREDICTED BY IDOCK:   -4.92 KCAL/MOL
REMARK 922        TOTAL FREE ENERGY PREDICTED BY IDOCK:   -6.91 KCAL/MOL
REMARK 923 INTER-LIGAND FREE ENERGY PREDICTED BY IDOCK:   -6.38 KCAL/MOL
REMARK 924 INTRA-LIGAND FREE ENERGY PREDICTED BY IDOCK:   -0.53 KCAL/MOL
REMARK 927      BINDING AFFINITY PREDICTED BY RF-SCORE:    0.00 PKD
ROOT
HETATM    1  C   UNL     1     -10.541  19.637  67.342  1.00  0.00    -0.589 C  
HETATM    2  C   UNL     1     -10.188  18.698  66.195  1.00  0.00    -0.450 C  
ENDROOT
BRANCH   2   3
HETATM    3  C   UNL     1      -9.966  17.277  66.711  1.00  0.00    -0.301 C  
BRANCH   3   4
HETATM    4  C   UNL     1      -9.992  16.205  65.618  1.00  0.00    -0.330 C  
HETATM    5  C   UNL     1      -9.960  14.766  66.109  1.00  0.00    -0.304 C  
HETATM    6  N   UNL     1     -10.642  14.030  65.067  1.00  0.00    -0.386 N  
HETATM    7  C   UNL     1     -11.633  14.826  64.527  1.00  0.00    -0.361 C  
HETATM    8  O   UNL     1     -12.595  14.463  63.866  1.00  0.00    -0.814 OA 
HETATM    9  C   UNL     1     -11.296  16.271  64.813  1.00  0.00    -0.214 C  
BRANCH   6  10
HETATM   10  C   UNL     1     -10.559  12.557  65.008  1.00  0.00    -0.300 C  
BRANCH  10  11
HETATM   11  C   UNL     1     -11.389  11.819  66.074  1.00  0.00    -0.335 C  
HETATM   12  C   UNL     1     -10.660  10.682  66.767  1.00  0.00    -0.297 C  
ENDBRANCH  10  11
BRANCH  10  13
HETATM   13  C   UNL     1     -10.607  11.799  63.645  1.00  0.00    -0.439 C  
HETATM   14  N   UNL     1     -11.809  11.377  63.168  1.00  0.00    -0.867 N  
HETATM   15  O   UNL     1      -9.601  11.627  62.956  1.00  0.00    -0.392 OA 
HETATM   16  H1  UNL     1     -11.840  10.881  62.277  1.00  0.00     0.000 HD 
HETATM   17  H2  UNL     1     -12.666  11.552  63.693  1.00  0.00     0.000 HD 
ENDBRANCH  10  13
ENDBRANCH   6  10
ENDBRANCH   3   4
ENDBRANCH   2   3
TORSDOF 5
ENDMDL
MODEL       10
REMARK 921   NORMALIZED FREE ENERGY PREDICTED BY IDOCK:   -4.80 KCAL/MOL
REMARK 922        TOTAL FREE ENERGY PREDICTED BY IDOCK:   -6.76 KCAL/MOL
REMARK 923 INTER-LIGAND FREE ENERGY PREDICTED BY IDOCK:   -6.48 KCAL/MOL
REMARK 924 INTRA-LIGAND FREE ENERGY PREDICTED BY IDOCK:   -0.28 KCAL/MOL
REMARK 927      BINDING AFFINITY PREDICTED BY RF-SCORE:    0.00 PKD
ROOT
HETATM    1  C   UNL     1     -10.611  19.492  66.684  1.00  0.00    -0.583 C  
HETATM    2  C   UNL     1     -10.210  19.216  68.127  1.00  0.00    -0.489 C  
ENDROOT
BRANCH   2   3
HETATM    3  C   UNL     1      -9.933  17.727  68.334  1.00  0.00    -0.362 C  
BRANCH   3   4
HETATM    4  C   UNL     1     -10.909  16.803  67.600  1.00  0.00    -0.252 C  
HETATM    5  C   UNL     1     -10.280  15.851  66.594  1.00  0.00    -0.288 C  
HETATM    6  N   UNL     1     -11.189  14.727  66.567  1.00  0.00    -0.340 N  
HETATM    7  C   UNL     1     -11.730  14.554  67.827  1.00  0.00    -0.374 C  
HETATM    8  O   UNL     1     -12.277  13.553  68.266  1.00  0.00    -0.313 OA 
HETATM    9  C   UNL     1     -11.616  15.859  68.580  1.00  0.00    -0.383 C  
BRANCH   6  10
HETATM   10  C   UNL     1     -11.107  13.717  65.493  1.00  0.00    -0.295 C  
BRANCH  10  11
HETATM   11  C   UNL     1     -10.420  12.399  65.895  1.00  0.00    -0.284 C  
HETATM   12  C   UNL     1      -9.048  12.567  66.522  1.00  0.00    -0.177 C  
ENDBRANCH  10  11
BRANCH  10  13
HETATM   13  C   UNL     1     -12.317  13.446  64.546  1.00  0.00    -0.360 C  
HETATM   14  N   UNL     1     -12.356  14.061  63.333  1.00  0.00    -1.154 N  
HETATM   15  O   UNL     1     -13.207  12.645  64.834  1.00  0.00    -0.819 OA 
HETATM   16  H1  UNL     1     -13.147  13.883  62.715  1.00  0.00     0.000 HD 
HETATM   17  H2  UNL     1     -11.605  14.690  63.047  1.00  0.00     0.000 HD 
ENDBRANCH  10  13
ENDBRANCH   6  10
ENDBRANCH   3   4
ENDBRANCH   2   3
TORSDOF 5
ENDMDL
MODEL       11
REMARK 921   NORMALIZED FREE ENERGY PREDICTED BY IDOCK:   -4.70 KCAL/MOL
REMARK 922        TOTAL FREE ENERGY PREDICTED BY IDOCK:   -6.63 KCAL/MOL
REMARK 923 INTER-LIGAND FREE ENERGY PREDICTED BY IDOCK:   -6.40 KCAL/MOL
REMARK 924 INTRA-LIGAND FREE ENERGY PREDICTED BY IDOCK:   -0.23 KCAL/MOL
REMARK 927      BINDING AFFINITY PREDICTED BY RF-SCORE:    0.00 PKD
ROOT
HETATM    1  C   UNL     1     -12.344  15.374  74.332  1.00  0.00    -0.766 C  
HETATM    2  C   UNL     1     -12.611  15.935  72.942  1.00  0.00    -0.581 C  
ENDROOT
BRANCH   2   3
HETATM    3  C   UNL     1     -11.633  15.345  71.926  1.00  0.00    -0.521 C  
BRANCH   3   4
HETATM    4  C   UNL     1     -12.051  15.548  70.467  1.00  0.00    -0.423 C  
HETATM    5  C   UNL     1     -11.039  16.268  69.589  1.00  0.00    -0.333 C  
HETATM    6  N   UNL     1     -11.309  15.760  68.262  1.00  0.00    -0.358 N  
HETATM    7  C   UNL     1     -11.715  14.443  68.358  1.00  0.00    -0.332 C  
HETATM    8  O   UNL     1     -11.730  13.607  67.466  1.00  0.00    -0.328 OA 
HETATM    9  C   UNL     1     -12.237  14.203  69.755  1.00  0.00    -0.397 C  
BRANCH   6  10
HETATM   10  C   UNL     1     -10.751  16.430  67.070  1.00  0.00    -0.217 C  
BRANCH  10  11
HETATM   11  C   UNL     1      -9.909  17.685  67.368  1.00  0.00    -0.305 C  
HETATM   12  C   UNL     1     -10.614  19.000  67.089  1.00  0.00    -0.545 C  
ENDBRANCH  10  11
BRANCH  10  13
HETATM   13  C   UNL     1     -10.127  15.609  65.899  1.00  0.00    -0.353 C  
HETATM   14  N   UNL     1      -9.053  14.814  66.151  1.00  0.00    -0.496 N  
HETATM   15  O   UNL     1     -10.614  15.608  64.768  1.00  0.00    -0.448 OA 
HETATM   16  H1  UNL     1      -8.646  14.277  65.385  1.00  0.00     0.000 HD 
HETATM   17  H2  UNL     1      -8.661  14.755  67.091  1.00  0.00     0.000 HD 
ENDBRANCH  10  13
ENDBRANCH   6  10
ENDBRANCH   3   4
ENDBRANCH   2   3
TORSDOF 5
ENDMDL
MODEL       12
REMARK 921   NORMALIZED FREE ENERGY PREDICTED BY IDOCK:   -4.69 KCAL/MOL
REMARK 922        TOTAL FREE ENERGY PREDICTED BY IDOCK:   -6.61 KCAL/MOL
REMARK 923 INTER-LIGAND FREE ENERGY PREDICTED BY IDOCK:   -6.18 KCAL/MOL
REMARK 924 INTRA-LIGAND FREE ENERGY PREDICTED BY IDOCK:   -0.44 KCAL/MOL
REMARK 927      BINDING AFFINITY PREDICTED BY RF-SCORE:    0.00 PKD
ROOT
HETATM    1  C   UNL     1     -12.311  15.362  74.442  1.00  0.00    -0.766 C  
HETATM    2  C   UNL     1     -12.729  16.086  73.168  1.00  0.00    -0.619 C  
ENDROOT
BRANCH   2   3
HETATM    3  C   UNL     1     -14.007  15.476  72.595  1.00  0.00    -0.617 C  
BRANCH   3   4
HETATM    4  C   UNL     1     -13.774  14.545  71.401  1.00  0.00    -0.448 C  
HETATM    5  C   UNL     1     -12.575  14.883  70.530  1.00  0.00    -0.360 C  
HETATM    6  N   UNL     1     -12.183  13.609  69.970  1.00  0.00    -0.338 N  
HETATM    7  C   UNL     1     -12.433  12.614  70.895  1.00  0.00    -0.278 C  
HETATM    8  O   UNL     1     -11.963  11.486  70.914  1.00  0.00    -0.307 OA 
HETATM    9  C   UNL     1     -13.475  13.115  71.868  1.00  0.00    -0.513 C  
BRANCH   6  10
HETATM   10  C   UNL     1     -11.249  13.542  68.829  1.00  0.00    -0.274 C  
BRANCH  10  11
HETATM   11  C   UNL     1     -11.904  13.213  67.475  1.00  0.00    -0.409 C  
HETATM   12  C   UNL     1     -11.452  11.904  66.854  1.00  0.00    -0.390 C  
ENDBRANCH  10  11
BRANCH  10  13
HETATM   13  C   UNL     1     -10.111  14.595  68.654  1.00  0.00    -0.238 C  
HETATM   14  N   UNL     1      -8.861  14.295  69.100  1.00  0.00    -0.382 N  
HETATM   15  O   UNL     1     -10.292  15.663  68.069  1.00  0.00    -0.238 OA 
HETATM   16  H1  UNL     1      -8.118  14.983  68.985  1.00  0.00     0.000 HD 
HETATM   17  H2  UNL     1      -8.670  13.395  69.542  1.00  0.00     0.000 HD 
ENDBRANCH  10  13
ENDBRANCH   6  10
ENDBRANCH   3   4
ENDBRANCH   2   3
TORSDOF 5
ENDMDL
MODEL       13
REMARK 921   NORMALIZED FREE ENERGY PREDICTED BY IDOCK:   -4.68 KCAL/MOL
REMARK 922        TOTAL FREE ENERGY PREDICTED BY IDOCK:   -6.60 KCAL/MOL
REMARK 923 INTER-LIGAND FREE ENERGY PREDICTED BY IDOCK:   -6.19 KCAL/MOL
REMARK 924 INTRA-LIGAND FREE ENERGY PREDICTED BY IDOCK:   -0.41 KCAL/MOL
REMARK 927      BINDING AFFINITY PREDICTED BY RF-SCORE:    0.00 PKD
ROOT
HETATM    1  C   UNL     1     -11.729   9.366  71.511  1.00  0.00    -0.465 C  
HETATM    2  C   UNL     1     -10.930  10.030  70.398  1.00  0.00    -0.384 C  
ENDROOT
BRANCH   2   3
HETATM    3  C   UNL     1     -11.846  10.856  69.496  1.00  0.00    -0.404 C  
BRANCH   3   4
HETATM    4  C   UNL     1     -11.205  12.141  68.963  1.00  0.00    -0.314 C  
HETATM    5  C   UNL     1     -11.538  12.492  67.522  1.00  0.00    -0.361 C  
HETATM    6  N   UNL     1     -11.424  13.934  67.482  1.00  0.00    -0.321 N  
HETATM    7  C   UNL     1     -11.820  14.451  68.700  1.00  0.00    -0.331 C  
HETATM    8  O   UNL     1     -12.152  15.602  68.942  1.00  0.00    -0.319 OA 
HETATM    9  C   UNL     1     -11.696  13.366  69.745  1.00  0.00    -0.355 C  
BRANCH   6  10
HETATM   10  C   UNL     1     -11.369  14.650  66.192  1.00  0.00    -0.350 C  
BRANCH  10  11
HETATM   11  C   UNL     1      -9.960  14.784  65.586  1.00  0.00    -0.390 C  
HETATM   12  C   UNL     1      -8.844  14.916  66.607  1.00  0.00    -0.287 C  
ENDBRANCH  10  11
BRANCH  10  13
HETATM   13  C   UNL     1     -12.430  14.390  65.077  1.00  0.00    -0.359 C  
HETATM   14  N   UNL     1     -12.067  14.537  63.775  1.00  0.00    -0.956 N  
HETATM   15  O   UNL     1     -13.567  13.995  65.336  1.00  0.00    -0.593 OA 
HETATM   16  H1  UNL     1     -12.760  14.367  63.047  1.00  0.00     0.000 HD 
HETATM   17  H2  UNL     1     -11.115  14.813  63.530  1.00  0.00     0.000 HD 
ENDBRANCH  10  13
ENDBRANCH   6  10
ENDBRANCH   3   4
ENDBRANCH   2   3
TORSDOF 5
ENDMDL
MODEL       14
REMARK 921   NORMALIZED FREE ENERGY PREDICTED BY IDOCK:   -4.67 KCAL/MOL
REMARK 922        TOTAL FREE ENERGY PREDICTED BY IDOCK:   -6.59 KCAL/MOL
REMARK 923 INTER-LIGAND FREE ENERGY PREDICTED BY IDOCK:   -6.30 KCAL/MOL
REMARK 924 INTRA-LIGAND FREE ENERGY PREDICTED BY IDOCK:   -0.29 KCAL/MOL
REMARK 927      BINDING AFFINITY PREDICTED BY RF-SCORE:    0.00 PKD
ROOT
HETATM    1  C   UNL     1     -12.986  15.512  72.250  1.00  0.00    -0.504 C  
HETATM    2  C   UNL     1     -12.591  15.758  70.799  1.00  0.00    -0.405 C  
ENDROOT
BRANCH   2   3
HETATM    3  C   UNL     1     -11.668  14.649  70.296  1.00  0.00    -0.355 C  
BRANCH   3   4
HETATM    4  C   UNL     1     -12.149  13.972  69.009  1.00  0.00    -0.358 C  
HETATM    5  C   UNL     1     -11.625  14.576  67.716  1.00  0.00    -0.365 C  
HETATM    6  N   UNL     1     -11.629  13.466  66.789  1.00  0.00    -0.346 N  
HETATM    7  C   UNL     1     -11.343  12.303  67.478  1.00  0.00    -0.325 C  
HETATM    8  O   UNL     1     -10.959  11.241  67.009  1.00  0.00    -0.270 OA 
HETATM    9  C   UNL     1     -11.666  12.518  68.938  1.00  0.00    -0.367 C  
BRANCH   6  10
HETATM   10  C   UNL     1     -11.481  13.695  65.338  1.00  0.00    -0.311 C  
BRANCH  10  11
HETATM   11  C   UNL     1     -12.612  13.109  64.472  1.00  0.00    -0.344 C  
HETATM   12  C   UNL     1     -12.171  12.029  63.502  1.00  0.00    -0.653 C  
ENDBRANCH  10  11
BRANCH  10  13
HETATM   13  C   UNL     1     -11.014  15.076  64.781  1.00  0.00    -0.373 C  
HETATM   14  N   UNL     1     -11.830  15.752  63.928  1.00  0.00    -0.967 N  
HETATM   15  O   UNL     1      -9.960  15.602  65.137  1.00  0.00    -0.357 OA 
HETATM   16  H1  UNL     1     -11.524  16.654  63.565  1.00  0.00     0.000 HD 
HETATM   17  H2  UNL     1     -12.733  15.363  63.657  1.00  0.00     0.000 HD 
ENDBRANCH  10  13
ENDBRANCH   6  10
ENDBRANCH   3   4
ENDBRANCH   2   3
TORSDOF 5
ENDMDL
MODEL       15
REMARK 921   NORMALIZED FREE ENERGY PREDICTED BY IDOCK:   -4.67 KCAL/MOL
REMARK 922        TOTAL FREE ENERGY PREDICTED BY IDOCK:   -6.59 KCAL/MOL
REMARK 923 INTER-LIGAND FREE ENERGY PREDICTED BY IDOCK:   -6.19 KCAL/MOL
REMARK 924 INTRA-LIGAND FREE ENERGY PREDICTED BY IDOCK:   -0.39 KCAL/MOL
REMARK 927      BINDING AFFINITY PREDICTED BY RF-SCORE:    0.00 PKD
ROOT
HETATM    1  C   UNL     1     -10.516  11.235  64.054  1.00  0.00    -0.440 C  
HETATM    2  C   UNL     1     -10.319  12.038  65.334  1.00  0.00    -0.301 C  
ENDROOT
BRANCH   2   3
HETATM    3  C   UNL     1     -11.667  12.446  65.927  1.00  0.00    -0.476 C  
BRANCH   3   4
HETATM    4  C   UNL     1     -11.843  13.957  66.095  1.00  0.00    -0.422 C  
HETATM    5  C   UNL     1     -10.630  14.704  66.628  1.00  0.00    -0.289 C  
HETATM    6  N   UNL     1     -10.776  16.035  66.081  1.00  0.00    -0.283 N  
HETATM    7  C   UNL     1     -11.366  15.948  64.834  1.00  0.00    -0.256 C  
HETATM    8  O   UNL     1     -11.367  16.798  63.956  1.00  0.00    -1.153 OA 
HETATM    9  C   UNL     1     -12.107  14.635  64.745  1.00  0.00    -0.428 C  
BRANCH   6  10
HETATM   10  C   UNL     1      -9.971  17.157  66.603  1.00  0.00    -0.295 C  
BRANCH  10  11
HETATM   11  C   UNL     1     -10.452  17.726  67.951  1.00  0.00    -0.401 C  
HETATM   12  C   UNL     1     -10.512  19.242  68.012  1.00  0.00    -0.488 C  
ENDBRANCH  10  11
BRANCH  10  13
HETATM   13  C   UNL     1      -8.412  17.133  66.536  1.00  0.00    -0.274 C  
HETATM   14  N   UNL     1      -7.727  16.345  67.406  1.00  0.00    -0.144 N  
HETATM   15  O   UNL     1      -7.785  17.757  65.679  1.00  0.00    -0.545 OA 
HETATM   16  H1  UNL     1      -6.709  16.330  67.362  1.00  0.00     0.000 HD 
HETATM   17  H2  UNL     1      -8.224  15.777  68.093  1.00  0.00     0.000 HD 
ENDBRANCH  10  13
ENDBRANCH   6  10
ENDBRANCH   3   4
ENDBRANCH   2   3
TORSDOF 5
ENDMDL
MODEL       16
REMARK 921   NORMALIZED FREE ENERGY PREDICTED BY IDOCK:   -4.66 KCAL/MOL
REMARK 922        TOTAL FREE ENERGY PREDICTED BY IDOCK:   -6.58 KCAL/MOL
REMARK 923 INTER-LIGAND FREE ENERGY PREDICTED BY IDOCK:   -6.06 KCAL/MOL
REMARK 924 INTRA-LIGAND FREE ENERGY PREDICTED BY IDOCK:   -0.52 KCAL/MOL
REMARK 927      BINDING AFFINITY PREDICTED BY RF-SCORE:    0.00 PKD
ROOT
HETATM    1  C   UNL     1     -10.279  11.681  63.434  1.00  0.00    -0.471 C  
HETATM    2  C   UNL     1     -11.778  11.874  63.620  1.00  0.00    -0.572 C  
ENDROOT
BRANCH   2   3
HETATM    3  C   UNL     1     -12.156  13.346  63.458  1.00  0.00    -0.497 C  
BRANCH   3   4
HETATM    4  C   UNL     1     -12.253  14.114  64.779  1.00  0.00    -0.457 C  
HETATM    5  C   UNL     1     -12.258  13.259  66.037  1.00  0.00    -0.424 C  
HETATM    6  N   UNL     1     -11.693  14.127  67.046  1.00  0.00    -0.385 N  
HETATM    7  C   UNL     1     -10.749  14.947  66.460  1.00  0.00    -0.309 C  
HETATM    8  O   UNL     1      -9.862  15.574  67.021  1.00  0.00    -0.228 OA 
HETATM    9  C   UNL     1     -11.034  15.024  64.978  1.00  0.00    -0.436 C  
BRANCH   6  10
HETATM   10  C   UNL     1     -11.803  13.788  68.480  1.00  0.00    -0.370 C  
BRANCH  10  11
HETATM   11  C   UNL     1     -11.185  12.433  68.872  1.00  0.00    -0.330 C  
HETATM   12  C   UNL     1     -11.933  11.690  69.965  1.00  0.00    -0.429 C  
ENDBRANCH  10  11
BRANCH  10  13
HETATM   13  C   UNL     1     -11.543  14.857  69.585  1.00  0.00    -0.303 C  
HETATM   14  N   UNL     1     -10.267  15.077  70.003  1.00  0.00    -0.487 N  
HETATM   15  O   UNL     1     -12.447  15.553  70.048  1.00  0.00    -0.361 OA 
HETATM   16  H1  UNL     1     -10.098  15.776  70.726  1.00  0.00     0.000 HD 
HETATM   17  H2  UNL     1      -9.492  14.551  69.599  1.00  0.00     0.000 HD 
ENDBRANCH  10  13
ENDBRANCH   6  10
ENDBRANCH   3   4
ENDBRANCH   2   3
TORSDOF 5
ENDMDL
MODEL       17
REMARK 921   NORMALIZED FREE ENERGY PREDICTED BY IDOCK:   -4.66 KCAL/MOL
REMARK 922        TOTAL FREE ENERGY PREDICTED BY IDOCK:   -6.58 KCAL/MOL
REMARK 923 INTER-LIGAND FREE ENERGY PREDICTED BY IDOCK:   -6.17 KCAL/MOL
REMARK 924 INTRA-LIGAND FREE ENERGY PREDICTED BY IDOCK:   -0.40 KCAL/MOL
REMARK 927      BINDING AFFINITY PREDICTED BY RF-SCORE:    0.00 PKD
ROOT
HETATM    1  C   UNL     1     -10.832  10.211  70.263  1.00  0.00    -0.370 C  
HETATM    2  C   UNL     1     -12.048  10.846  69.601  1.00  0.00    -0.400 C  
ENDROOT
BRANCH   2   3
HETATM    3  C   UNL     1     -11.707  12.239  69.072  1.00  0.00    -0.376 C  
BRANCH   3   4
HETATM    4  C   UNL     1     -10.788  12.235  67.847  1.00  0.00    -0.252 C  
HETATM    5  C   UNL     1     -11.491  12.200  66.500  1.00  0.00    -0.369 C  
HETATM    6  N   UNL     1     -10.561  12.855  65.607  1.00  0.00    -0.273 N  
HETATM    7  C   UNL     1      -9.889  13.842  66.301  1.00  0.00    -0.306 C  
HETATM    8  O   UNL     1      -9.273  14.788  65.832  1.00  0.00    -0.227 OA 
HETATM    9  C   UNL     1      -9.959  13.523  67.777  1.00  0.00    -0.232 C  
BRANCH   6  10
HETATM   10  C   UNL     1     -10.726  12.758  64.143  1.00  0.00    -0.412 C  
BRANCH  10  11
HETATM   11  C   UNL     1      -9.862  11.679  63.465  1.00  0.00    -0.391 C  
HETATM   12  C   UNL     1      -9.479  10.518  64.364  1.00  0.00    -0.333 C  
ENDBRANCH  10  11
BRANCH  10  13
HETATM   13  C   UNL     1     -12.137  12.835  63.482  1.00  0.00    -0.559 C  
HETATM   14  N   UNL     1     -12.714  11.691  63.026  1.00  0.00    -0.865 N  
HETATM   15  O   UNL     1     -12.773  13.888  63.417  1.00  0.00    -0.806 OA 
HETATM   16  H1  UNL     1     -13.637  11.742  62.594  1.00  0.00     0.000 HD 
HETATM   17  H2  UNL     1     -12.232  10.796  63.114  1.00  0.00     0.000 HD 
ENDBRANCH  10  13
ENDBRANCH   6  10
ENDBRANCH   3   4
ENDBRANCH   2   3
TORSDOF 5
ENDMDL
MODEL       18
REMARK 921   NORMALIZED FREE ENERGY PREDICTED BY IDOCK:   -4.66 KCAL/MOL
REMARK 922        TOTAL FREE ENERGY PREDICTED BY IDOCK:   -6.58 KCAL/MOL
REMARK 923 INTER-LIGAND FREE ENERGY PREDICTED BY IDOCK:   -6.07 KCAL/MOL
REMARK 924 INTRA-LIGAND FREE ENERGY PREDICTED BY IDOCK:   -0.51 KCAL/MOL
REMARK 927      BINDING AFFINITY PREDICTED BY RF-SCORE:    0.00 PKD
ROOT
HETATM    1  C   UNL     1      -8.223  10.579  62.473  1.00  0.00    -0.212 C  
HETATM    2  C   UNL     1      -9.655  11.025  62.740  1.00  0.00    -0.337 C  
ENDROOT
BRANCH   2   3
HETATM    3  C   UNL     1     -10.078  10.658  64.162  1.00  0.00    -0.402 C  
BRANCH   3   4
HETATM    4  C   UNL     1     -11.017  11.674  64.817  1.00  0.00    -0.351 C  
HETATM    5  C   UNL     1     -10.337  12.811  65.563  1.00  0.00    -0.284 C  
HETATM    6  N   UNL     1     -11.289  13.896  65.482  1.00  0.00    -0.304 N  
HETATM    7  C   UNL     1     -11.959  13.819  64.277  1.00  0.00    -0.443 C  
HETATM    8  O   UNL     1     -12.593  14.708  63.725  1.00  0.00    -0.820 OA 
HETATM    9  C   UNL     1     -11.861  12.402  63.763  1.00  0.00    -0.587 C  
BRANCH   6  10
HETATM   10  C   UNL     1     -11.148  15.088  66.343  1.00  0.00    -0.329 C  
BRANCH  10  11
HETATM   11  C   UNL     1     -11.026  14.788  67.848  1.00  0.00    -0.282 C  
HETATM   12  C   UNL     1     -11.672  15.821  68.753  1.00  0.00    -0.387 C  
ENDBRANCH  10  11
BRANCH  10  13
HETATM   13  C   UNL     1     -10.219  16.273  65.936  1.00  0.00    -0.364 C  
HETATM   14  N   UNL     1      -8.874  16.140  66.093  1.00  0.00    -0.336 N  
HETATM   15  O   UNL     1     -10.657  17.301  65.419  1.00  0.00    -0.630 OA 
HETATM   16  H1  UNL     1      -8.267  16.915  65.827  1.00  0.00     0.000 HD 
HETATM   17  H2  UNL     1      -8.479  15.279  66.471  1.00  0.00     0.000 HD 
ENDBRANCH  10  13
ENDBRANCH   6  10
ENDBRANCH   3   4
ENDBRANCH   2   3
TORSDOF 5
ENDMDL
MODEL       19
REMARK 921   NORMALIZED FREE ENERGY PREDICTED BY IDOCK:   -4.60 KCAL/MOL
REMARK 922        TOTAL FREE ENERGY PREDICTED BY IDOCK:   -6.50 KCAL/MOL
REMARK 923 INTER-LIGAND FREE ENERGY PREDICTED BY IDOCK:   -6.04 KCAL/MOL
REMARK 924 INTRA-LIGAND FREE ENERGY PREDICTED BY IDOCK:   -0.46 KCAL/MOL
REMARK 927      BINDING AFFINITY PREDICTED BY RF-SCORE:    0.00 PKD
ROOT
HETATM    1  C   UNL     1     -10.881   9.228  71.585  1.00  0.00    -0.418 C  
HETATM    2  C   UNL     1     -10.540   9.980  70.305  1.00  0.00    -0.354 C  
ENDROOT
BRANCH   2   3
HETATM    3  C   UNL     1     -11.481  11.169  70.112  1.00  0.00    -0.361 C  
BRANCH   3   4
HETATM    4  C   UNL     1     -11.898  11.405  68.658  1.00  0.00    -0.377 C  
HETATM    5  C   UNL     1     -11.594  12.789  68.105  1.00  0.00    -0.336 C  
HETATM    6  N   UNL     1     -11.434  12.566  66.685  1.00  0.00    -0.338 N  
HETATM    7  C   UNL     1     -10.873  11.320  66.484  1.00  0.00    -0.265 C  
HETATM    8  O   UNL     1     -10.314  10.915  65.475  1.00  0.00    -0.260 OA 
HETATM    9  C   UNL     1     -11.136  10.473  67.707  1.00  0.00    -0.382 C  
BRANCH   6  10
HETATM   10  C   UNL     1     -11.432  13.701  65.739  1.00  0.00    -0.315 C  
BRANCH  10  11
HETATM   11  C   UNL     1     -10.044  14.303  65.455  1.00  0.00    -0.370 C  
HETATM   12  C   UNL     1      -9.840  15.706  65.999  1.00  0.00    -0.362 C  
ENDBRANCH  10  11
BRANCH  10  13
HETATM   13  C   UNL     1     -12.302  13.674  64.444  1.00  0.00    -0.338 C  
HETATM   14  N   UNL     1     -12.819  12.490  64.021  1.00  0.00    -0.749 N  
HETATM   15  O   UNL     1     -12.587  14.701  63.827  1.00  0.00    -0.820 OA 
HETATM   16  H1  UNL     1     -13.386  12.473  63.175  1.00  0.00     0.000 HD 
HETATM   17  H2  UNL     1     -12.641  11.631  64.543  1.00  0.00     0.000 HD 
ENDBRANCH  10  13
ENDBRANCH   6  10
ENDBRANCH   3   4
ENDBRANCH   2   3
TORSDOF 5
ENDMDL
MODEL       20
REMARK 921   NORMALIZED FREE ENERGY PREDICTED BY IDOCK:   -4.59 KCAL/MOL
REMARK 922        TOTAL FREE ENERGY PREDICTED BY IDOCK:   -6.49 KCAL/MOL
REMARK 923 INTER-LIGAND FREE ENERGY PREDICTED BY IDOCK:   -6.30 KCAL/MOL
REMARK 924 INTRA-LIGAND FREE ENERGY PREDICTED BY IDOCK:   -0.18 KCAL/MOL
REMARK 927      BINDING AFFINITY PREDICTED BY RF-SCORE:    0.00 PKD
ROOT
HETATM    1  C   UNL     1     -10.098  20.079  68.184  1.00  0.00    -0.547 C  
HETATM    2  C   UNL     1      -9.295  18.817  68.472  1.00  0.00    -0.390 C  
ENDROOT
BRANCH   2   3
HETATM    3  C   UNL     1     -10.142  17.570  68.221  1.00  0.00    -0.346 C  
BRANCH   3   4
HETATM    4  C   UNL     1      -9.848  16.874  66.888  1.00  0.00    -0.278 C  
HETATM    5  C   UNL     1     -10.263  15.414  66.805  1.00  0.00    -0.271 C  
HETATM    6  N   UNL     1     -10.519  15.207  65.397  1.00  0.00    -0.360 N  
HETATM    7  C   UNL     1     -11.029  16.370  64.855  1.00  0.00    -0.263 C  
HETATM    8  O   UNL     1     -11.642  16.490  63.804  1.00  0.00    -1.109 OA 
HETATM    9  C   UNL     1     -10.632  17.527  65.742  1.00  0.00    -0.176 C  
BRANCH   6  10
HETATM   10  C   UNL     1     -10.650  13.842  64.848  1.00  0.00    -0.413 C  
BRANCH  10  11
HETATM   11  C   UNL     1      -9.884  12.756  65.625  1.00  0.00    -0.190 C  
HETATM   12  C   UNL     1     -10.767  11.758  66.353  1.00  0.00    -0.306 C  
ENDBRANCH  10  11
BRANCH  10  13
HETATM   13  C   UNL     1     -12.025  13.301  64.347  1.00  0.00    -0.406 C  
HETATM   14  N   UNL     1     -13.153  13.640  65.027  1.00  0.00    -0.727 N  
HETATM   15  O   UNL     1     -12.130  12.629  63.321  1.00  0.00    -0.521 OA 
HETATM   16  H1  UNL     1     -14.052  13.287  64.700  1.00  0.00     0.000 HD 
HETATM   17  H2  UNL     1     -13.102  14.239  65.851  1.00  0.00     0.000 HD 
ENDBRANCH  10  13
ENDBRANCH   6  10
ENDBRANCH   3   4
ENDBRANCH   2   3
TORSDOF 5
ENDMDL
MODEL       21
REMARK 921   NORMALIZED FREE ENERGY PREDICTED BY IDOCK:   -4.59 KCAL/MOL
REMARK 922        TOTAL FREE ENERGY PREDICTED BY IDOCK:   -6.48 KCAL/MOL
REMARK 923 INTER-LIGAND FREE ENERGY PREDICTED BY IDOCK:   -5.95 KCAL/MOL
REMARK 924 INTRA-LIGAND FREE ENERGY PREDICTED BY IDOCK:   -0.53 KCAL/MOL
REMARK 927      BINDING AFFINITY PREDICTED BY RF-SCORE:    0.00 PKD
ROOT
HETATM    1  C   UNL     1      -9.779  10.554  64.028  1.00  0.00    -0.383 C  
HETATM    2  C   UNL     1     -10.663  11.662  63.468  1.00  0.00    -0.495 C  
ENDROOT
BRANCH   2   3
HETATM    3  C   UNL     1     -11.946  11.793  64.288  1.00  0.00    -0.277 C  
BRANCH   3   4
HETATM    4  C   UNL     1     -12.098  13.141  64.998  1.00  0.00    -0.458 C  
HETATM    5  C   UNL     1     -10.893  13.596  65.807  1.00  0.00    -0.273 C  
HETATM    6  N   UNL     1     -10.988  15.039  65.787  1.00  0.00    -0.342 N  
HETATM    7  C   UNL     1     -11.526  15.439  64.579  1.00  0.00    -0.311 C  
HETATM    8  O   UNL     1     -11.472  16.553  64.078  1.00  0.00    -1.137 OA 
HETATM    9  C   UNL     1     -12.290  14.278  63.986  1.00  0.00    -0.283 C  
BRANCH   6  10
HETATM   10  C   UNL     1     -10.182  15.861  66.713  1.00  0.00    -0.282 C  
BRANCH  10  11
HETATM   11  C   UNL     1     -10.358  15.515  68.203  1.00  0.00    -0.237 C  
HETATM   12  C   UNL     1     -11.753  15.759  68.748  1.00  0.00    -0.387 C  
ENDBRANCH  10  11
BRANCH  10  13
HETATM   13  C   UNL     1      -8.696  16.212  66.396  1.00  0.00    -0.325 C  
HETATM   14  N   UNL     1      -7.730  15.291  66.660  1.00  0.00    -0.229 N  
HETATM   15  O   UNL     1      -8.374  17.271  65.856  1.00  0.00    -0.533 OA 
HETATM   16  H1  UNL     1      -6.758  15.522  66.453  1.00  0.00     0.000 HD 
HETATM   17  H2  UNL     1      -7.973  14.385  67.060  1.00  0.00     0.000 HD 
ENDBRANCH  10  13
ENDBRANCH   6  10
ENDBRANCH   3   4
ENDBRANCH   2   3
TORSDOF 5
ENDMDL
MODEL       22
REMARK 921   NORMALIZED FREE ENERGY PREDICTED BY IDOCK:   -4.56 KCAL/MOL
REMARK 922        TOTAL FREE ENERGY PREDICTED BY IDOCK:   -6.44 KCAL/MOL
REMARK 923 INTER-LIGAND FREE ENERGY PREDICTED BY IDOCK:   -6.12 KCAL/MOL
REMARK 924 INTRA-LIGAND FREE ENERGY PREDICTED BY IDOCK:   -0.32 KCAL/MOL
REMARK 927      BINDING AFFINITY PREDICTED BY RF-SCORE:    0.00 PKD
ROOT
HETATM    1  C   UNL     1     -12.653  11.913  63.361  1.00  0.00    -0.555 C  
HETATM    2  C   UNL     1     -11.636  12.492  64.337  1.00  0.00    -0.419 C  
ENDROOT
BRANCH   2   3
HETATM    3  C   UNL     1     -12.338  13.268  65.450  1.00  0.00    -0.528 C  
BRANCH   3   4
HETATM    4  C   UNL     1     -11.489  13.458  66.710  1.00  0.00    -0.376 C  
HETATM    5  C   UNL     1     -11.778  14.717  67.512  1.00  0.00    -0.348 C  
HETATM    6  N   UNL     1     -11.412  14.358  68.864  1.00  0.00    -0.271 N  
HETATM    7  C   UNL     1     -11.690  13.020  69.066  1.00  0.00    -0.329 C  
HETATM    8  O   UNL     1     -11.809  12.442  70.137  1.00  0.00    -0.324 OA 
HETATM    9  C   UNL     1     -11.742  12.333  67.721  1.00  0.00    -0.403 C  
BRANCH   6  10
HETATM   10  C   UNL     1     -11.252  15.395  69.903  1.00  0.00    -0.299 C  
BRANCH  10  11
HETATM   11  C   UNL     1     -10.592  16.699  69.418  1.00  0.00    -0.333 C  
HETATM   12  C   UNL     1      -9.115  16.578  69.094  1.00  0.00    -0.184 C  
ENDBRANCH  10  11
BRANCH  10  13
HETATM   13  C   UNL     1     -12.390  15.696  70.927  1.00  0.00    -0.429 C  
HETATM   14  N   UNL     1     -13.674  15.399  70.590  1.00  0.00    -0.841 N  
HETATM   15  O   UNL     1     -12.158  16.134  72.053  1.00  0.00    -0.476 OA 
HETATM   16  H1  UNL     1     -14.418  15.596  71.259  1.00  0.00     0.000 HD 
HETATM   17  H2  UNL     1     -13.890  14.986  69.683  1.00  0.00     0.000 HD 
ENDBRANCH  10  13
ENDBRANCH   6  10
ENDBRANCH   3   4
ENDBRANCH   2   3
TORSDOF 5
ENDMDL
MODEL       23
REMARK 921   NORMALIZED FREE ENERGY PREDICTED BY IDOCK:   -4.55 KCAL/MOL
REMARK 922        TOTAL FREE ENERGY PREDICTED BY IDOCK:   -6.44 KCAL/MOL
REMARK 923 INTER-LIGAND FREE ENERGY PREDICTED BY IDOCK:   -6.25 KCAL/MOL
REMARK 924 INTRA-LIGAND FREE ENERGY PREDICTED BY IDOCK:   -0.19 KCAL/MOL
REMARK 927      BINDING AFFINITY PREDICTED BY RF-SCORE:    0.00 PKD
ROOT
HETATM    1  C   UNL     1      -9.948  19.125  69.055  1.00  0.00    -0.422 C  
HETATM    2  C   UNL     1      -9.676  17.716  68.546  1.00  0.00    -0.328 C  
ENDROOT
BRANCH   2   3
HETATM    3  C   UNL     1     -10.617  16.711  69.209  1.00  0.00    -0.343 C  
BRANCH   3   4
HETATM    4  C   UNL     1     -11.410  15.851  68.221  1.00  0.00    -0.342 C  
HETATM    5  C   UNL     1     -10.641  15.382  66.996  1.00  0.00    -0.309 C  
HETATM    6  N   UNL     1     -11.296  14.146  66.628  1.00  0.00    -0.332 N  
HETATM    7  C   UNL     1     -11.736  13.511  67.774  1.00  0.00    -0.359 C  
HETATM    8  O   UNL     1     -12.045  12.335  67.895  1.00  0.00    -0.466 OA 
HETATM    9  C   UNL     1     -11.863  14.539  68.873  1.00  0.00    -0.359 C  
BRANCH   6  10
HETATM   10  C   UNL     1     -11.053  13.527  65.310  1.00  0.00    -0.297 C  
BRANCH  10  11
HETATM   11  C   UNL     1      -9.972  12.430  65.301  1.00  0.00    -0.234 C  
HETATM   12  C   UNL     1     -10.492  11.033  65.016  1.00  0.00    -0.344 C  
ENDBRANCH  10  11
BRANCH  10  13
HETATM   13  C   UNL     1     -12.235  13.149  64.364  1.00  0.00    -0.398 C  
HETATM   14  N   UNL     1     -12.105  13.370  63.028  1.00  0.00    -0.871 N  
HETATM   15  O   UNL     1     -13.256  12.601  64.779  1.00  0.00    -0.846 OA 
HETATM   16  H1  UNL     1     -12.878  13.123  62.410  1.00  0.00     0.000 HD 
HETATM   17  H2  UNL     1     -11.249  13.775  62.650  1.00  0.00     0.000 HD 
ENDBRANCH  10  13
ENDBRANCH   6  10
ENDBRANCH   3   4
ENDBRANCH   2   3
TORSDOF 5
ENDMDL
MODEL       24
REMARK 921   NORMALIZED FREE ENERGY PREDICTED BY IDOCK:   -4.50 KCAL/MOL
REMARK 922        TOTAL FREE ENERGY PREDICTED BY IDOCK:   -6.38 KCAL/MOL
REMARK 923 INTER-LIGAND FREE ENERGY PREDICTED BY IDOCK:   -5.89 KCAL/MOL
REMARK 924 INTRA-LIGAND FREE ENERGY PREDICTED BY IDOCK:   -0.49 KCAL/MOL
REMARK 927      BINDING AFFINITY PREDICTED BY RF-SCORE:    0.00 PKD
ROOT
HETATM    1  C   UNL     1     -12.378  12.015  63.486  1.00  0.00    -0.661 C  
HETATM    2  C   UNL     1     -12.473  12.790  64.794  1.00  0.00    -0.539 C  
ENDROOT
BRANCH   2   3
HETATM    3  C   UNL     1     -12.074  14.250  64.585  1.00  0.00    -0.478 C  
BRANCH   3   4
HETATM    4  C   UNL     1     -10.999  14.749  65.555  1.00  0.00    -0.350 C  
HETATM    5  C   UNL     1     -10.557  16.191  65.361  1.00  0.00    -0.380 C  
HETATM    6  N   UNL     1     -10.128  16.601  66.680  1.00  0.00    -0.290 N  
HETATM    7  C   UNL     1     -10.909  15.967  67.626  1.00  0.00    -0.312 C  
HETATM    8  O   UNL     1     -11.055  16.284  68.798  1.00  0.00    -0.323 OA 
HETATM    9  C   UNL     1     -11.511  14.730  67.001  1.00  0.00    -0.362 C  
BRANCH   6  10
HETATM   10  C   UNL     1      -9.340  17.836  66.865  1.00  0.00    -0.269 C  
BRANCH  10  11
HETATM   11  C   UNL     1      -7.935  17.808  66.236  1.00  0.00    -0.283 C  
HETATM   12  C   UNL     1      -7.091  16.609  66.629  1.00  0.00    -0.257 C  
ENDBRANCH  10  11
BRANCH  10  13
HETATM   13  C   UNL     1      -9.993  19.243  66.701  1.00  0.00    -0.380 C  
HETATM   14  N   UNL     1      -9.388  20.162  65.901  1.00  0.00    -0.560 N  
HETATM   15  O   UNL     1     -11.072  19.529  67.222  1.00  0.00    -0.444 OA 
HETATM   16  H1  UNL     1      -9.815  21.081  65.794  1.00  0.00     0.000 HD 
HETATM   17  H2  UNL     1      -8.520  19.934  65.416  1.00  0.00     0.000 HD 
ENDBRANCH  10  13
ENDBRANCH   6  10
ENDBRANCH   3   4
ENDBRANCH   2   3
TORSDOF 5
ENDMDL
MODEL       25
REMARK 921   NORMALIZED FREE ENERGY PREDICTED BY IDOCK:   -4.50 KCAL/MOL
REMARK 922        TOTAL FREE ENERGY PREDICTED BY IDOCK:   -6.37 KCAL/MOL
REMARK 923 INTER-LIGAND FREE ENERGY PREDICTED BY IDOCK:   -6.26 KCAL/MOL
REMARK 924 INTRA-LIGAND FREE ENERGY PREDICTED BY IDOCK:   -0.11 KCAL/MOL
REMARK 927      BINDING AFFINITY PREDICTED BY RF-SCORE:    0.00 PKD
ROOT
HETATM    1  C   UNL     1     -12.356  15.894  74.563  1.00  0.00    -0.752 C  
HETATM    2  C   UNL     1     -12.456  15.975  73.045  1.00  0.00    -0.614 C  
ENDROOT
BRANCH   2   3
HETATM    3  C   UNL     1     -13.823  15.488  72.567  1.00  0.00    -0.669 C  
BRANCH   3   4
HETATM    4  C   UNL     1     -13.760  14.475  71.421  1.00  0.00    -0.448 C  
HETATM    5  C   UNL     1     -12.670  14.719  70.389  1.00  0.00    -0.316 C  
HETATM    6  N   UNL     1     -12.379  13.399  69.875  1.00  0.00    -0.247 N  
HETATM    7  C   UNL     1     -12.536  12.475  70.890  1.00  0.00    -0.269 C  
HETATM    8  O   UNL     1     -12.092  11.336  70.928  1.00  0.00    -0.348 OA 
HETATM    9  C   UNL     1     -13.438  13.070  71.945  1.00  0.00    -0.498 C  
BRANCH   6  10
HETATM   10  C   UNL     1     -11.593  13.229  68.636  1.00  0.00    -0.327 C  
BRANCH  10  11
HETATM   11  C   UNL     1     -11.598  11.801  68.058  1.00  0.00    -0.386 C  
HETATM   12  C   UNL     1     -10.262  11.340  67.504  1.00  0.00    -0.217 C  
ENDBRANCH  10  11
BRANCH  10  13
HETATM   13  C   UNL     1     -11.647  14.290  67.493  1.00  0.00    -0.363 C  
HETATM   14  N   UNL     1     -12.597  14.171  66.527  1.00  0.00    -0.519 N  
HETATM   15  O   UNL     1     -10.898  15.267  67.472  1.00  0.00    -0.289 OA 
HETATM   16  H1  UNL     1     -12.632  14.864  65.781  1.00  0.00     0.000 HD 
HETATM   17  H2  UNL     1     -13.265  13.400  66.549  1.00  0.00     0.000 HD 
ENDBRANCH  10  13
ENDBRANCH   6  10
ENDBRANCH   3   4
ENDBRANCH   2   3
TORSDOF 5
ENDMDL
MODEL       26
REMARK 921   NORMALIZED FREE ENERGY PREDICTED BY IDOCK:   -4.49 KCAL/MOL
REMARK 922        TOTAL FREE ENERGY PREDICTED BY IDOCK:   -6.35 KCAL/MOL
REMARK 923 INTER-LIGAND FREE ENERGY PREDICTED BY IDOCK:   -5.89 KCAL/MOL
REMARK 924 INTRA-LIGAND FREE ENERGY PREDICTED BY IDOCK:   -0.46 KCAL/MOL
REMARK 927      BINDING AFFINITY PREDICTED BY RF-SCORE:    0.00 PKD
ROOT
HETATM    1  C   UNL     1     -10.525  18.129  67.354  1.00  0.00    -0.414 C  
HETATM    2  C   UNL     1     -10.505  16.641  67.030  1.00  0.00    -0.283 C  
ENDROOT
BRANCH   2   3
HETATM    3  C   UNL     1     -10.621  16.416  65.523  1.00  0.00    -0.346 C  
BRANCH   3   4
HETATM    4  C   UNL     1     -10.631  14.941  65.110  1.00  0.00    -0.450 C  
HETATM    5  C   UNL     1     -10.466  13.941  66.244  1.00  0.00    -0.287 C  
HETATM    6  N   UNL     1     -11.150  12.761  65.766  1.00  0.00    -0.279 N  
HETATM    7  C   UNL     1     -12.226  13.146  64.990  1.00  0.00    -0.440 C  
HETATM    8  O   UNL     1     -13.195  12.468  64.680  1.00  0.00    -0.848 OA 
HETATM    9  C   UNL     1     -11.980  14.551  64.493  1.00  0.00    -0.482 C  
BRANCH   6  10
HETATM   10  C   UNL     1     -10.964  11.458  66.436  1.00  0.00    -0.260 C  
BRANCH  10  11
HETATM   11  C   UNL     1      -9.777  10.627  65.915  1.00  0.00    -0.273 C  
HETATM   12  C   UNL     1      -9.829  10.313  64.430  1.00  0.00    -0.374 C  
ENDBRANCH  10  11
BRANCH  10  13
HETATM   13  C   UNL     1     -11.101  11.319  67.984  1.00  0.00    -0.266 C  
HETATM   14  N   UNL     1      -9.986  11.421  68.756  1.00  0.00    -0.289 N  
HETATM   15  O   UNL     1     -12.194  11.182  68.534  1.00  0.00    -0.600 OA 
HETATM   16  H1  UNL     1     -10.077  11.330  69.768  1.00  0.00     0.000 HD 
HETATM   17  H2  UNL     1      -9.074  11.587  68.331  1.00  0.00     0.000 HD 
ENDBRANCH  10  13
ENDBRANCH   6  10
ENDBRANCH   3   4
ENDBRANCH   2   3
TORSDOF 5
ENDMDL
MODEL       27
REMARK 921   NORMALIZED FREE ENERGY PREDICTED BY IDOCK:   -4.46 KCAL/MOL
REMARK 922        TOTAL FREE ENERGY PREDICTED BY IDOCK:   -6.32 KCAL/MOL
REMARK 923 INTER-LIGAND FREE ENERGY PREDICTED BY IDOCK:   -5.98 KCAL/MOL
REMARK 924 INTRA-LIGAND FREE ENERGY PREDICTED BY IDOCK:   -0.33 KCAL/MOL
REMARK 927      BINDING AFFINITY PREDICTED BY RF-SCORE:    0.00 PKD
ROOT
HETATM    1  C   UNL     1     -12.342  15.382  74.134  1.00  0.00    -0.800 C  
HETATM    2  C   UNL     1     -13.397  15.597  73.056  1.00  0.00    -0.668 C  
ENDROOT
BRANCH   2   3
HETATM    3  C   UNL     1     -13.443  14.404  72.102  1.00  0.00    -0.507 C  
BRANCH   3   4
HETATM    4  C   UNL     1     -12.285  14.359  71.102  1.00  0.00    -0.420 C  
HETATM    5  C   UNL     1     -12.530  13.532  69.850  1.00  0.00    -0.134 C  
HETATM    6  N   UNL     1     -11.687  14.154  68.854  1.00  0.00    -0.313 N  
HETATM    7  C   UNL     1     -11.630  15.513  69.097  1.00  0.00    -0.362 C  
HETATM    8  O   UNL     1     -11.287  16.390  68.317  1.00  0.00    -0.350 OA 
HETATM    9  C   UNL     1     -11.984  15.756  70.545  1.00  0.00    -0.401 C  
BRANCH   6  10
HETATM   10  C   UNL     1     -11.398  13.470  67.577  1.00  0.00    -0.308 C  
BRANCH  10  11
HETATM   11  C   UNL     1     -12.251  13.940  66.384  1.00  0.00    -0.487 C  
HETATM   12  C   UNL     1     -12.431  12.904  65.289  1.00  0.00    -0.552 C  
ENDBRANCH  10  11
BRANCH  10  13
HETATM   13  C   UNL     1      -9.932  13.180  67.130  1.00  0.00    -0.236 C  
HETATM   14  N   UNL     1      -9.382  11.970  67.421  1.00  0.00    -0.175 N  
HETATM   15  O   UNL     1      -9.277  13.986  66.469  1.00  0.00    -0.270 OA 
HETATM   16  H1  UNL     1      -8.423  11.781  67.129  1.00  0.00     0.000 HD 
HETATM   17  H2  UNL     1      -9.919  11.263  67.923  1.00  0.00     0.000 HD 
ENDBRANCH  10  13
ENDBRANCH   6  10
ENDBRANCH   3   4
ENDBRANCH   2   3
TORSDOF 5
ENDMDL
MODEL       28
REMARK 921   NORMALIZED FREE ENERGY PREDICTED BY IDOCK:   -4.45 KCAL/MOL
REMARK 922        TOTAL FREE ENERGY PREDICTED BY IDOCK:   -6.30 KCAL/MOL
REMARK 923 INTER-LIGAND FREE ENERGY PREDICTED BY IDOCK:   -5.82 KCAL/MOL
REMARK 924 INTRA-LIGAND FREE ENERGY PREDICTED BY IDOCK:   -0.48 KCAL/MOL
REMARK 927      BINDING AFFINITY PREDICTED BY RF-SCORE:    0.00 PKD
ROOT
HETATM    1  C   UNL     1     -10.428  10.896  63.961  1.00  0.00    -0.379 C  
HETATM    2  C   UNL     1     -10.171  11.985  64.995  1.00  0.00    -0.308 C  
ENDROOT
BRANCH   2   3
HETATM    3  C   UNL     1     -11.443  12.288  65.786  1.00  0.00    -0.417 C  
BRANCH   3   4
HETATM    4  C   UNL     1     -11.704  13.782  66.000  1.00  0.00    -0.383 C  
HETATM    5  C   UNL     1     -10.538  14.577  66.566  1.00  0.00    -0.297 C  
HETATM    6  N   UNL     1     -10.753  15.914  66.060  1.00  0.00    -0.311 N  
HETATM    7  C   UNL     1     -11.328  15.835  64.806  1.00  0.00    -0.314 C  
HETATM    8  O   UNL     1     -11.369  16.712  63.955  1.00  0.00    -1.104 OA 
HETATM    9  C   UNL     1     -11.995  14.487  64.669  1.00  0.00    -0.478 C  
BRANCH   6  10
HETATM   10  C   UNL     1     -10.015  17.062  66.624  1.00  0.00    -0.302 C  
BRANCH  10  11
HETATM   11  C   UNL     1     -10.844  17.974  67.547  1.00  0.00    -0.252 C  
HETATM   12  C   UNL     1     -10.478  19.445  67.477  1.00  0.00    -0.577 C  
ENDBRANCH  10  11
BRANCH  10  13
HETATM   13  C   UNL     1      -8.561  16.899  67.166  1.00  0.00    -0.197 C  
HETATM   14  N   UNL     1      -7.527  16.877  66.283  1.00  0.00    -0.284 N  
HETATM   15  O   UNL     1      -8.313  16.853  68.371  1.00  0.00    -0.218 OA 
HETATM   16  H1  UNL     1      -6.577  16.771  66.637  1.00  0.00     0.000 HD 
HETATM   17  H2  UNL     1      -7.699  16.966  65.281  1.00  0.00     0.000 HD 
ENDBRANCH  10  13
ENDBRANCH   6  10
ENDBRANCH   3   4
ENDBRANCH   2   3
TORSDOF 5
ENDMDL
MODEL       29
REMARK 921   NORMALIZED FREE ENERGY PREDICTED BY IDOCK:   -4.44 KCAL/MOL
REMARK 922        TOTAL FREE ENERGY PREDICTED BY IDOCK:   -6.30 KCAL/MOL
REMARK 923 INTER-LIGAND FREE ENERGY PREDICTED BY IDOCK:   -5.83 KCAL/MOL
REMARK 924 INTRA-LIGAND FREE ENERGY PREDICTED BY IDOCK:   -0.47 KCAL/MOL
REMARK 927      BINDING AFFINITY PREDICTED BY RF-SCORE:    0.00 PKD
ROOT
HETATM    1  C   UNL     1     -10.502  18.890  66.143  1.00  0.00    -0.521 C  
HETATM    2  C   UNL     1     -10.159  17.595  66.868  1.00  0.00    -0.331 C  
ENDROOT
BRANCH   2   3
HETATM    3  C   UNL     1      -9.311  16.687  65.978  1.00  0.00    -0.270 C  
BRANCH   3   4
HETATM    4  C   UNL     1      -9.874  15.272  65.813  1.00  0.00    -0.395 C  
HETATM    5  C   UNL     1     -10.280  14.573  67.101  1.00  0.00    -0.260 C  
HETATM    6  N   UNL     1     -11.323  13.661  66.685  1.00  0.00    -0.316 N  
HETATM    7  C   UNL     1     -12.037  14.234  65.651  1.00  0.00    -0.393 C  
HETATM    8  O   UNL     1     -13.151  13.920  65.258  1.00  0.00    -0.777 OA 
HETATM    9  C   UNL     1     -11.174  15.289  64.998  1.00  0.00    -0.409 C  
BRANCH   6  10
HETATM   10  C   UNL     1     -11.775  12.575  67.578  1.00  0.00    -0.374 C  
BRANCH  10  11
HETATM   11  C   UNL     1     -11.174  11.192  67.269  1.00  0.00    -0.347 C  
HETATM   12  C   UNL     1     -10.313  11.141  66.020  1.00  0.00    -0.308 C  
ENDBRANCH  10  11
BRANCH  10  13
HETATM   13  C   UNL     1     -11.901  12.795  69.117  1.00  0.00    -0.301 C  
HETATM   14  N   UNL     1     -11.371  11.868  69.960  1.00  0.00    -0.510 N  
HETATM   15  O   UNL     1     -12.408  13.810  69.594  1.00  0.00    -0.316 OA 
HETATM   16  H1  UNL     1     -11.453  12.012  70.966  1.00  0.00     0.000 HD 
HETATM   17  H2  UNL     1     -10.899  11.042  69.592  1.00  0.00     0.000 HD 
ENDBRANCH  10  13
ENDBRANCH   6  10
ENDBRANCH   3   4
ENDBRANCH   2   3
TORSDOF 5
ENDMDL
MODEL       30
REMARK 921   NORMALIZED FREE ENERGY PREDICTED BY IDOCK:   -4.44 KCAL/MOL
REMARK 922        TOTAL FREE ENERGY PREDICTED BY IDOCK:   -6.30 KCAL/MOL
REMARK 923 INTER-LIGAND FREE ENERGY PREDICTED BY IDOCK:   -6.17 KCAL/MOL
REMARK 924 INTRA-LIGAND FREE ENERGY PREDICTED BY IDOCK:   -0.13 KCAL/MOL
REMARK 927      BINDING AFFINITY PREDICTED BY RF-SCORE:    0.00 PKD
ROOT
HETATM    1  C   UNL     1      -9.742  19.903  66.743  1.00  0.00    -0.538 C  
HETATM    2  C   UNL     1     -10.289  18.686  67.477  1.00  0.00    -0.453 C  
ENDROOT
BRANCH   2   3
HETATM    3  C   UNL     1      -9.656  17.403  66.939  1.00  0.00    -0.279 C  
BRANCH   3   4
HETATM    4  C   UNL     1     -10.664  16.399  66.373  1.00  0.00    -0.161 C  
HETATM    5  C   UNL     1     -10.071  15.273  65.540  1.00  0.00    -0.375 C  
HETATM    6  N   UNL     1     -11.013  14.188  65.705  1.00  0.00    -0.296 N  
HETATM    7  C   UNL     1     -11.550  14.246  66.977  1.00  0.00    -0.386 C  
HETATM    8  O   UNL     1     -12.124  13.351  67.579  1.00  0.00    -0.347 OA 
HETATM    9  C   UNL     1     -11.392  15.655  67.500  1.00  0.00    -0.198 C  
BRANCH   6  10
HETATM   10  C   UNL     1     -10.969  13.010  64.816  1.00  0.00    -0.327 C  
BRANCH  10  11
HETATM   11  C   UNL     1     -10.716  11.670  65.530  1.00  0.00    -0.333 C  
HETATM   12  C   UNL     1      -9.278  11.445  65.960  1.00  0.00    -0.229 C  
ENDBRANCH  10  11
BRANCH  10  13
HETATM   13  C   UNL     1     -11.998  12.835  63.655  1.00  0.00    -0.539 C  
HETATM   14  N   UNL     1     -12.114  11.621  63.055  1.00  0.00    -0.927 N  
HETATM   15  O   UNL     1     -12.752  13.744  63.307  1.00  0.00    -0.783 OA 
HETATM   16  H1  UNL     1     -12.786  11.507  62.296  1.00  0.00     0.000 HD 
HETATM   17  H2  UNL     1     -11.538  10.835  63.358  1.00  0.00     0.000 HD 
ENDBRANCH  10  13
ENDBRANCH   6  10
ENDBRANCH   3   4
ENDBRANCH   2   3
TORSDOF 5
ENDMDL
MODEL       31
REMARK 921   NORMALIZED FREE ENERGY PREDICTED BY IDOCK:   -4.44 KCAL/MOL
REMARK 922        TOTAL FREE ENERGY PREDICTED BY IDOCK:   -6.29 KCAL/MOL
REMARK 923 INTER-LIGAND FREE ENERGY PREDICTED BY IDOCK:   -5.89 KCAL/MOL
REMARK 924 INTRA-LIGAND FREE ENERGY PREDICTED BY IDOCK:   -0.40 KCAL/MOL
REMARK 927      BINDING AFFINITY PREDICTED BY RF-SCORE:    0.00 PKD
ROOT
HETATM    1  C   UNL     1     -12.155  16.140  72.870  1.00  0.00    -0.643 C  
HETATM    2  C   UNL     1     -12.924  15.375  71.800  1.00  0.00    -0.509 C  
ENDROOT
BRANCH   2   3
HETATM    3  C   UNL     1     -12.076  14.235  71.239  1.00  0.00    -0.391 C  
BRANCH   3   4
HETATM    4  C   UNL     1     -12.475  13.795  69.827  1.00  0.00    -0.216 C  
HETATM    5  C   UNL     1     -11.659  14.400  68.696  1.00  0.00    -0.314 C  
HETATM    6  N   UNL     1     -11.732  13.406  67.648  1.00  0.00    -0.340 N  
HETATM    7  C   UNL     1     -11.775  12.150  68.220  1.00  0.00    -0.342 C  
HETATM    8  O   UNL     1     -11.531  11.081  67.678  1.00  0.00    -0.445 OA 
HETATM    9  C   UNL     1     -12.268  12.286  69.642  1.00  0.00    -0.175 C  
BRANCH   6  10
HETATM   10  C   UNL     1     -11.327  13.737  66.266  1.00  0.00    -0.321 C  
BRANCH  10  11
HETATM   11  C   UNL     1     -12.467  13.697  65.232  1.00  0.00    -0.517 C  
HETATM   12  C   UNL     1     -12.345  12.593  64.198  1.00  0.00    -0.518 C  
ENDBRANCH  10  11
BRANCH  10  13
HETATM   13  C   UNL     1     -10.351  14.917  65.971  1.00  0.00    -0.299 C  
HETATM   14  N   UNL     1      -9.015  14.723  66.134  1.00  0.00    -0.495 N  
HETATM   15  O   UNL     1     -10.745  15.999  65.536  1.00  0.00    -0.367 OA 
HETATM   16  H1  UNL     1      -8.377  15.495  65.941  1.00  0.00     0.000 HD 
HETATM   17  H2  UNL     1      -8.656  13.820  66.444  1.00  0.00     0.000 HD 
ENDBRANCH  10  13
ENDBRANCH   6  10
ENDBRANCH   3   4
ENDBRANCH   2   3
TORSDOF 5
ENDMDL
MODEL       32
REMARK 921   NORMALIZED FREE ENERGY PREDICTED BY IDOCK:   -4.44 KCAL/MOL
REMARK 922        TOTAL FREE ENERGY PREDICTED BY IDOCK:   -6.29 KCAL/MOL
REMARK 923 INTER-LIGAND FREE ENERGY PREDICTED BY IDOCK:   -5.69 KCAL/MOL
REMARK 924 INTRA-LIGAND FREE ENERGY PREDICTED BY IDOCK:   -0.60 KCAL/MOL
REMARK 927      BINDING AFFINITY PREDICTED BY RF-SCORE:    0.00 PKD
ROOT
HETATM    1  C   UNL     1     -14.332  15.440  72.421  1.00  0.00    -0.489 C  
HETATM    2  C   UNL     1     -13.736  14.058  72.184  1.00  0.00    -0.603 C  
ENDROOT
BRANCH   2   3
HETATM    3  C   UNL     1     -12.371  14.169  71.507  1.00  0.00    -0.395 C  
BRANCH   3   4
HETATM    4  C   UNL     1     -12.333  15.153  70.335  1.00  0.00    -0.411 C  
HETATM    5  C   UNL     1     -11.185  16.150  70.351  1.00  0.00    -0.381 C  
HETATM    6  N   UNL     1     -10.970  16.453  68.954  1.00  0.00    -0.323 N  
HETATM    7  C   UNL     1     -11.237  15.326  68.202  1.00  0.00    -0.324 C  
HETATM    8  O   UNL     1     -10.880  15.101  67.054  1.00  0.00    -0.303 OA 
HETATM    9  C   UNL     1     -12.138  14.416  69.004  1.00  0.00    -0.298 C  
BRANCH   6  10
HETATM   10  C   UNL     1     -10.147  17.612  68.552  1.00  0.00    -0.375 C  
BRANCH  10  11
HETATM   11  C   UNL     1      -8.628  17.358  68.555  1.00  0.00    -0.270 C  
HETATM   12  C   UNL     1      -7.778  18.614  68.633  1.00  0.00    -0.344 C  
ENDBRANCH  10  11
BRANCH  10  13
HETATM   13  C   UNL     1     -10.556  18.514  67.346  1.00  0.00    -0.424 C  
HETATM   14  N   UNL     1     -10.540  17.987  66.093  1.00  0.00    -0.329 N  
HETATM   15  O   UNL     1     -10.954  19.669  67.499  1.00  0.00    -0.419 OA 
HETATM   16  H1  UNL     1     -10.807  18.577  65.305  1.00  0.00     0.000 HD 
HETATM   17  H2  UNL     1     -10.264  17.016  65.942  1.00  0.00     0.000 HD 
ENDBRANCH  10  13
ENDBRANCH   6  10
ENDBRANCH   3   4
ENDBRANCH   2   3
TORSDOF 5
ENDMDL
MODEL       33
REMARK 921   NORMALIZED FREE ENERGY PREDICTED BY IDOCK:   -4.40 KCAL/MOL
REMARK 922        TOTAL FREE ENERGY PREDICTED BY IDOCK:   -6.25 KCAL/MOL
REMARK 923 INTER-LIGAND FREE ENERGY PREDICTED BY IDOCK:   -5.78 KCAL/MOL
REMARK 924 INTRA-LIGAND FREE ENERGY PREDICTED BY IDOCK:   -0.46 KCAL/MOL
REMARK 927      BINDING AFFINITY PREDICTED BY RF-SCORE:    0.00 PKD
ROOT
HETATM    1  C   UNL     1     -10.534  11.609  63.333  1.00  0.00    -0.482 C  
HETATM    2  C   UNL     1     -11.967  12.025  63.640  1.00  0.00    -0.612 C  
ENDROOT
BRANCH   2   3
HETATM    3  C   UNL     1     -12.093  13.547  63.661  1.00  0.00    -0.459 C  
BRANCH   3   4
HETATM    4  C   UNL     1     -11.929  14.169  65.050  1.00  0.00    -0.412 C  
HETATM    5  C   UNL     1     -11.967  13.193  66.215  1.00  0.00    -0.415 C  
HETATM    6  N   UNL     1     -11.165  13.836  67.232  1.00  0.00    -0.301 N  
HETATM    7  C   UNL     1     -10.150  14.547  66.623  1.00  0.00    -0.272 C  
HETATM    8  O   UNL     1      -9.117  14.952  67.138  1.00  0.00    -0.200 OA 
HETATM    9  C   UNL     1     -10.555  14.835  65.196  1.00  0.00    -0.439 C  
BRANCH   6  10
HETATM   10  C   UNL     1     -11.199  13.362  68.630  1.00  0.00    -0.269 C  
BRANCH  10  11
HETATM   11  C   UNL     1     -12.159  14.136  69.552  1.00  0.00    -0.388 C  
HETATM   12  C   UNL     1     -11.820  15.605  69.728  1.00  0.00    -0.376 C  
ENDBRANCH  10  11
BRANCH  10  13
HETATM   13  C   UNL     1     -11.213  11.839  68.967  1.00  0.00    -0.265 C  
HETATM   14  N   UNL     1     -10.043  11.224  69.287  1.00  0.00    -0.426 N  
HETATM   15  O   UNL     1     -12.257  11.189  69.013  1.00  0.00    -0.469 OA 
HETATM   16  H1  UNL     1     -10.053  10.228  69.506  1.00  0.00     0.000 HD 
HETATM   17  H2  UNL     1      -9.169  11.750  69.307  1.00  0.00     0.000 HD 
ENDBRANCH  10  13
ENDBRANCH   6  10
ENDBRANCH   3   4
ENDBRANCH   2   3
TORSDOF 5
ENDMDL
MODEL       34
REMARK 921   NORMALIZED FREE ENERGY PREDICTED BY IDOCK:   -4.38 KCAL/MOL
REMARK 922        TOTAL FREE ENERGY PREDICTED BY IDOCK:   -6.22 KCAL/MOL
REMARK 923 INTER-LIGAND FREE ENERGY PREDICTED BY IDOCK:   -5.84 KCAL/MOL
REMARK 924 INTRA-LIGAND FREE ENERGY PREDICTED BY IDOCK:   -0.37 KCAL/MOL
REMARK 927      BINDING AFFINITY PREDICTED BY RF-SCORE:    0.00 PKD
ROOT
HETATM    1  C   UNL     1     -11.207   9.098  71.209  1.00  0.00    -0.407 C  
HETATM    2  C   UNL     1     -10.297   9.782  70.196  1.00  0.00    -0.335 C  
ENDROOT
BRANCH   2   3
HETATM    3  C   UNL     1     -10.982   9.873  68.833  1.00  0.00    -0.214 C  
BRANCH   3   4
HETATM    4  C   UNL     1     -10.669  11.159  68.062  1.00  0.00    -0.254 C  
HETATM    5  C   UNL     1     -11.252  11.241  66.660  1.00  0.00    -0.177 C  
HETATM    6  N   UNL     1     -11.415  12.661  66.437  1.00  0.00    -0.335 N  
HETATM    7  C   UNL     1     -11.733  13.272  67.634  1.00  0.00    -0.366 C  
HETATM    8  O   UNL     1     -12.239  14.374  67.791  1.00  0.00    -0.314 OA 
HETATM    9  C   UNL     1     -11.270  12.382  68.764  1.00  0.00    -0.318 C  
BRANCH   6  10
HETATM   10  C   UNL     1     -11.668  13.186  65.080  1.00  0.00    -0.337 C  
BRANCH  10  11
HETATM   11  C   UNL     1     -10.666  14.254  64.603  1.00  0.00    -0.384 C  
HETATM   12  C   UNL     1     -11.206  15.672  64.604  1.00  0.00    -0.380 C  
ENDBRANCH  10  11
BRANCH  10  13
HETATM   13  C   UNL     1     -12.068  12.237  63.908  1.00  0.00    -0.506 C  
HETATM   14  N   UNL     1     -11.089  11.579  63.230  1.00  0.00    -0.780 N  
HETATM   15  O   UNL     1     -13.243  12.017  63.616  1.00  0.00    -0.737 OA 
HETATM   16  H1  UNL     1     -11.351  10.959  62.464  1.00  0.00     0.000 HD 
HETATM   17  H2  UNL     1     -10.109  11.702  63.485  1.00  0.00     0.000 HD 
ENDBRANCH  10  13
ENDBRANCH   6  10
ENDBRANCH   3   4
ENDBRANCH   2   3
TORSDOF 5
ENDMDL
MODEL       35
REMARK 921   NORMALIZED FREE ENERGY PREDICTED BY IDOCK:   -4.38 KCAL/MOL
REMARK 922        TOTAL FREE ENERGY PREDICTED BY IDOCK:   -6.21 KCAL/MOL
REMARK 923 INTER-LIGAND FREE ENERGY PREDICTED BY IDOCK:   -6.03 KCAL/MOL
REMARK 924 INTRA-LIGAND FREE ENERGY PREDICTED BY IDOCK:   -0.18 KCAL/MOL
REMARK 927      BINDING AFFINITY PREDICTED BY RF-SCORE:    0.00 PKD
ROOT
HETATM    1  C   UNL     1     -11.300   9.965  71.052  1.00  0.00    -0.460 C  
HETATM    2  C   UNL     1     -12.368  10.819  70.382  1.00  0.00    -0.438 C  
ENDROOT
BRANCH   2   3
HETATM    3  C   UNL     1     -11.726  11.938  69.562  1.00  0.00    -0.410 C  
BRANCH   3   4
HETATM    4  C   UNL     1     -11.899  11.781  68.048  1.00  0.00    -0.304 C  
HETATM    5  C   UNL     1     -11.550  13.006  67.217  1.00  0.00    -0.356 C  
HETATM    6  N   UNL     1     -11.145  12.454  65.943  1.00  0.00    -0.300 N  
HETATM    7  C   UNL     1     -10.519  11.241  66.154  1.00  0.00    -0.254 C  
HETATM    8  O   UNL     1      -9.785  10.643  65.381  1.00  0.00    -0.217 OA 
HETATM    9  C   UNL     1     -10.958  10.703  67.496  1.00  0.00    -0.371 C  
BRANCH   6  10
HETATM   10  C   UNL     1     -11.019  13.320  64.753  1.00  0.00    -0.350 C  
BRANCH  10  11
HETATM   11  C   UNL     1     -11.765  12.816  63.504  1.00  0.00    -0.597 C  
HETATM   12  C   UNL     1     -12.973  11.945  63.798  1.00  0.00    -0.290 C  
ENDBRANCH  10  11
BRANCH  10  13
HETATM   13  C   UNL     1     -11.120  14.873  64.870  1.00  0.00    -0.414 C  
HETATM   14  N   UNL     1     -11.945  15.545  64.023  1.00  0.00    -0.950 N  
HETATM   15  O   UNL     1     -10.525  15.504  65.744  1.00  0.00    -0.315 OA 
HETATM   16  H1  UNL     1     -12.010  16.560  64.100  1.00  0.00     0.000 HD 
HETATM   17  H2  UNL     1     -12.490  15.043  63.323  1.00  0.00     0.000 HD 
ENDBRANCH  10  13
ENDBRANCH   6  10
ENDBRANCH   3   4
ENDBRANCH   2   3
TORSDOF 5
ENDMDL
MODEL       36
REMARK 921   NORMALIZED FREE ENERGY PREDICTED BY IDOCK:   -4.36 KCAL/MOL
REMARK 922        TOTAL FREE ENERGY PREDICTED BY IDOCK:   -6.19 KCAL/MOL
REMARK 923 INTER-LIGAND FREE ENERGY PREDICTED BY IDOCK:   -5.70 KCAL/MOL
REMARK 924 INTRA-LIGAND FREE ENERGY PREDICTED BY IDOCK:   -0.50 KCAL/MOL
REMARK 927      BINDING AFFINITY PREDICTED BY RF-SCORE:    0.00 PKD
ROOT
HETATM    1  C   UNL     1     -10.387  11.746  63.424  1.00  0.00    -0.481 C  
HETATM    2  C   UNL     1     -11.098  11.754  64.771  1.00  0.00    -0.356 C  
ENDROOT
BRANCH   2   3
HETATM    3  C   UNL     1     -12.431  12.495  64.673  1.00  0.00    -0.539 C  
BRANCH   3   4
HETATM    4  C   UNL     1     -12.460  13.830  65.423  1.00  0.00    -0.532 C  
HETATM    5  C   UNL     1     -11.832  13.818  66.808  1.00  0.00    -0.420 C  
HETATM    6  N   UNL     1     -11.383  15.180  66.995  1.00  0.00    -0.316 N  
HETATM    7  C   UNL     1     -10.986  15.696  65.777  1.00  0.00    -0.248 C  
HETATM    8  O   UNL     1     -10.276  16.673  65.584  1.00  0.00    -0.496 OA 
HETATM    9  C   UNL     1     -11.648  14.898  64.679  1.00  0.00    -0.395 C  
BRANCH   6  10
HETATM   10  C   UNL     1     -10.992  15.667  68.334  1.00  0.00    -0.308 C  
BRANCH  10  11
HETATM   11  C   UNL     1     -11.910  15.211  69.482  1.00  0.00    -0.358 C  
HETATM   12  C   UNL     1     -11.702  15.951  70.791  1.00  0.00    -0.433 C  
ENDBRANCH  10  11
BRANCH  10  13
HETATM   13  C   UNL     1      -9.498  15.674  68.786  1.00  0.00    -0.214 C  
HETATM   14  N   UNL     1      -8.888  14.490  69.062  1.00  0.00    -0.351 N  
HETATM   15  O   UNL     1      -8.836  16.710  68.841  1.00  0.00    -0.250 OA 
HETATM   16  H1  UNL     1      -7.912  14.495  69.358  1.00  0.00     0.000 HD 
HETATM   17  H2  UNL     1      -9.398  13.611  68.974  1.00  0.00     0.000 HD 
ENDBRANCH  10  13
ENDBRANCH   6  10
ENDBRANCH   3   4
ENDBRANCH   2   3
TORSDOF 5
ENDMDL
MODEL       37
REMARK 921   NORMALIZED FREE ENERGY PREDICTED BY IDOCK:   -4.33 KCAL/MOL
REMARK 922        TOTAL FREE ENERGY PREDICTED BY IDOCK:   -6.15 KCAL/MOL
REMARK 923 INTER-LIGAND FREE ENERGY PREDICTED BY IDOCK:   -5.76 KCAL/MOL
REMARK 924 INTRA-LIGAND FREE ENERGY PREDICTED BY IDOCK:   -0.39 KCAL/MOL
REMARK 927      BINDING AFFINITY PREDICTED BY RF-SCORE:    0.00 PKD
ROOT
HETATM    1  C   UNL     1     -10.442  19.904  67.102  1.00  0.00    -0.566 C  
HETATM    2  C   UNL     1     -10.548  18.484  67.645  1.00  0.00    -0.450 C  
ENDROOT
BRANCH   2   3
HETATM    3  C   UNL     1     -10.515  17.467  66.505  1.00  0.00    -0.270 C  
BRANCH   3   4
HETATM    4  C   UNL     1     -10.613  16.010  66.965  1.00  0.00    -0.302 C  
HETATM    5  C   UNL     1     -11.135  15.028  65.927  1.00  0.00    -0.334 C  
HETATM    6  N   UNL     1     -10.527  13.771  66.305  1.00  0.00    -0.286 N  
HETATM    7  C   UNL     1      -9.276  14.017  66.834  1.00  0.00    -0.260 C  
HETATM    8  O   UNL     1      -8.361  13.217  66.971  1.00  0.00    -0.166 OA 
HETATM    9  C   UNL     1      -9.230  15.448  67.315  1.00  0.00    -0.217 C  
BRANCH   6  10
HETATM   10  C   UNL     1     -11.015  12.498  65.737  1.00  0.00    -0.292 C  
BRANCH  10  11
HETATM   11  C   UNL     1     -11.330  11.406  66.776  1.00  0.00    -0.252 C  
HETATM   12  C   UNL     1     -11.708  11.930  68.149  1.00  0.00    -0.388 C  
ENDBRANCH  10  11
BRANCH  10  13
HETATM   13  C   UNL     1     -12.058  12.478  64.577  1.00  0.00    -0.425 C  
HETATM   14  N   UNL     1     -11.621  12.302  63.301  1.00  0.00    -0.711 N  
HETATM   15  O   UNL     1     -13.269  12.553  64.784  1.00  0.00    -0.839 OA 
HETATM   16  H1  UNL     1     -12.303  12.289  62.543  1.00  0.00     0.000 HD 
HETATM   17  H2  UNL     1     -10.626  12.185  63.105  1.00  0.00     0.000 HD 
ENDBRANCH  10  13
ENDBRANCH   6  10
ENDBRANCH   3   4
ENDBRANCH   2   3
TORSDOF 5
ENDMDL
MODEL       38
REMARK 921   NORMALIZED FREE ENERGY PREDICTED BY IDOCK:   -4.33 KCAL/MOL
REMARK 922        TOTAL FREE ENERGY PREDICTED BY IDOCK:   -6.15 KCAL/MOL
REMARK 923 INTER-LIGAND FREE ENERGY PREDICTED BY IDOCK:   -5.80 KCAL/MOL
REMARK 924 INTRA-LIGAND FREE ENERGY PREDICTED BY IDOCK:   -0.35 KCAL/MOL
REMARK 927      BINDING AFFINITY PREDICTED BY RF-SCORE:    0.00 PKD
ROOT
HETATM    1  C   UNL     1     -12.474  12.022  63.409  1.00  0.00    -0.625 C  
HETATM    2  C   UNL     1     -11.837  13.318  63.893  1.00  0.00    -0.522 C  
ENDROOT
BRANCH   2   3
HETATM    3  C   UNL     1     -12.401  13.721  65.254  1.00  0.00    -0.491 C  
BRANCH   3   4
HETATM    4  C   UNL     1     -11.358  14.293  66.219  1.00  0.00    -0.347 C  
HETATM    5  C   UNL     1     -10.908  15.717  65.930  1.00  0.00    -0.293 C  
HETATM    6  N   UNL     1     -10.522  16.227  67.227  1.00  0.00    -0.298 N  
HETATM    7  C   UNL     1     -11.335  15.666  68.192  1.00  0.00    -0.340 C  
HETATM    8  O   UNL     1     -11.520  16.072  69.331  1.00  0.00    -0.333 OA 
HETATM    9  C   UNL     1     -11.918  14.385  67.644  1.00  0.00    -0.378 C  
BRANCH   6  10
HETATM   10  C   UNL     1      -9.739  17.473  67.344  1.00  0.00    -0.274 C  
BRANCH  10  11
HETATM   11  C   UNL     1     -10.564  18.768  67.235  1.00  0.00    -0.504 C  
HETATM   12  C   UNL     1     -10.572  19.399  65.854  1.00  0.00    -0.551 C  
ENDBRANCH  10  11
BRANCH  10  13
HETATM   13  C   UNL     1      -8.611  17.622  68.412  1.00  0.00    -0.284 C  
HETATM   14  N   UNL     1      -8.102  16.502  68.992  1.00  0.00    -0.235 N  
HETATM   15  O   UNL     1      -8.124  18.714  68.702  1.00  0.00    -0.327 OA 
HETATM   16  H1  UNL     1      -7.365  16.599  69.690  1.00  0.00     0.000 HD 
HETATM   17  H2  UNL     1      -8.450  15.579  68.733  1.00  0.00     0.000 HD 
ENDBRANCH  10  13
ENDBRANCH   6  10
ENDBRANCH   3   4
ENDBRANCH   2   3
TORSDOF 5
ENDMDL
MODEL       39
REMARK 921   NORMALIZED FREE ENERGY PREDICTED BY IDOCK:   -4.32 KCAL/MOL
REMARK 922        TOTAL FREE ENERGY PREDICTED BY IDOCK:   -6.14 KCAL/MOL
REMARK 923 INTER-LIGAND FREE ENERGY PREDICTED BY IDOCK:   -5.89 KCAL/MOL
REMARK 924 INTRA-LIGAND FREE ENERGY PREDICTED BY IDOCK:   -0.26 KCAL/MOL
REMARK 927      BINDING AFFINITY PREDICTED BY RF-SCORE:    0.00 PKD
ROOT
HETATM    1  C   UNL     1      -7.285  20.416  66.800  1.00  0.00    -0.329 C  
HETATM    2  C   UNL     1      -8.702  20.365  67.354  1.00  0.00    -0.415 C  
ENDROOT
BRANCH   2   3
HETATM    3  C   UNL     1      -9.685  19.904  66.279  1.00  0.00    -0.551 C  
BRANCH   3   4
HETATM    4  C   UNL     1     -10.594  18.751  66.716  1.00  0.00    -0.458 C  
HETATM    5  C   UNL     1     -10.361  17.426  66.007  1.00  0.00    -0.304 C  
HETATM    6  N   UNL     1     -10.783  16.438  66.974  1.00  0.00    -0.268 N  
HETATM    7  C   UNL     1     -10.495  16.898  68.244  1.00  0.00    -0.352 C  
HETATM    8  O   UNL     1     -10.416  16.237  69.270  1.00  0.00    -0.244 OA 
HETATM    9  C   UNL     1     -10.370  18.403  68.192  1.00  0.00    -0.393 C  
BRANCH   6  10
HETATM   10  C   UNL     1     -11.007  15.035  66.570  1.00  0.00    -0.327 C  
BRANCH  10  11
HETATM   11  C   UNL     1     -11.963  14.244  67.482  1.00  0.00    -0.411 C  
HETATM   12  C   UNL     1     -11.405  12.927  67.991  1.00  0.00    -0.333 C  
ENDBRANCH  10  11
BRANCH  10  13
HETATM   13  C   UNL     1     -11.221  14.650  65.073  1.00  0.00    -0.386 C  
HETATM   14  N   UNL     1     -10.293  13.874  64.453  1.00  0.00    -0.646 N  
HETATM   15  O   UNL     1     -12.235  14.974  64.453  1.00  0.00    -0.469 OA 
HETATM   16  H1  UNL     1     -10.433  13.623  63.474  1.00  0.00     0.000 HD 
HETATM   17  H2  UNL     1      -9.468  13.548  64.958  1.00  0.00     0.000 HD 
ENDBRANCH  10  13
ENDBRANCH   6  10
ENDBRANCH   3   4
ENDBRANCH   2   3
TORSDOF 5
ENDMDL
MODEL       40
REMARK 921   NORMALIZED FREE ENERGY PREDICTED BY IDOCK:   -4.32 KCAL/MOL
REMARK 922        TOTAL FREE ENERGY PREDICTED BY IDOCK:   -6.14 KCAL/MOL
REMARK 923 INTER-LIGAND FREE ENERGY PREDICTED BY IDOCK:   -5.71 KCAL/MOL
REMARK 924 INTRA-LIGAND FREE ENERGY PREDICTED BY IDOCK:   -0.43 KCAL/MOL
REMARK 927      BINDING AFFINITY PREDICTED BY RF-SCORE:    0.00 PKD
ROOT
HETATM    1  C   UNL     1     -10.717   7.101  67.317  1.00  0.00    -0.399 C  
HETATM    2  C   UNL     1     -10.429   8.576  67.566  1.00  0.00    -0.328 C  
ENDROOT
BRANCH   2   3
HETATM    3  C   UNL     1      -9.960   9.257  66.281  1.00  0.00    -0.357 C  
BRANCH   3   4
HETATM    4  C   UNL     1      -9.701  10.759  66.430  1.00  0.00    -0.241 C  
HETATM    5  C   UNL     1     -10.649  11.668  65.663  1.00  0.00    -0.275 C  
HETATM    6  N   UNL     1     -10.661  12.888  66.439  1.00  0.00    -0.269 N  
HETATM    7  C   UNL     1     -10.521  12.574  67.776  1.00  0.00    -0.220 C  
HETATM    8  O   UNL     1     -10.791  13.284  68.735  1.00  0.00    -0.245 OA 
HETATM    9  C   UNL     1      -9.884  11.209  67.885  1.00  0.00    -0.187 C  
BRANCH   6  10
HETATM   10  C   UNL     1     -11.219  14.134  65.875  1.00  0.00    -0.313 C  
BRANCH  10  11
HETATM   11  C   UNL     1     -10.172  15.127  65.338  1.00  0.00    -0.402 C  
HETATM   12  C   UNL     1     -10.247  16.515  65.946  1.00  0.00    -0.368 C  
ENDBRANCH  10  11
BRANCH  10  13
HETATM   13  C   UNL     1     -12.483  14.112  64.960  1.00  0.00    -0.419 C  
HETATM   14  N   UNL     1     -12.321  14.172  63.612  1.00  0.00    -1.092 N  
HETATM   15  O   UNL     1     -13.618  13.978  65.417  1.00  0.00    -0.593 OA 
HETATM   16  H1  UNL     1     -13.147  14.157  63.014  1.00  0.00     0.000 HD 
HETATM   17  H2  UNL     1     -11.388  14.230  63.203  1.00  0.00     0.000 HD 
ENDBRANCH  10  13
ENDBRANCH   6  10
ENDBRANCH   3   4
ENDBRANCH   2   3
TORSDOF 5
ENDMDL
MODEL       41
REMARK 921   NORMALIZED FREE ENERGY PREDICTED BY IDOCK:   -4.31 KCAL/MOL
REMARK 922        TOTAL FREE ENERGY PREDICTED BY IDOCK:   -6.13 KCAL/MOL
REMARK 923 INTER-LIGAND FREE ENERGY PREDICTED BY IDOCK:   -5.71 KCAL/MOL
REMARK 924 INTRA-LIGAND FREE ENERGY PREDICTED BY IDOCK:   -0.42 KCAL/MOL
REMARK 927      BINDING AFFINITY PREDICTED BY RF-SCORE:    0.00 PKD
ROOT
HETATM    1  C   UNL     1     -14.274   7.354  71.628  1.00  0.00    -0.583 C  
HETATM    2  C   UNL     1     -13.073   8.264  71.846  1.00  0.00    -0.367 C  
ENDROOT
BRANCH   2   3
HETATM    3  C   UNL     1     -13.501   9.731  71.840  1.00  0.00    -0.485 C  
BRANCH   3   4
HETATM    4  C   UNL     1     -12.445  10.687  71.277  1.00  0.00    -0.515 C  
HETATM    5  C   UNL     1     -12.278  10.666  69.766  1.00  0.00    -0.247 C  
HETATM    6  N   UNL     1     -11.808  11.997  69.451  1.00  0.00    -0.323 N  
HETATM    7  C   UNL     1     -12.380  12.896  70.330  1.00  0.00    -0.223 C  
HETATM    8  O   UNL     1     -12.472  14.107  70.192  1.00  0.00    -0.343 OA 
HETATM    9  C   UNL     1     -12.813  12.148  71.568  1.00  0.00    -0.394 C  
BRANCH   6  10
HETATM   10  C   UNL     1     -11.231  12.298  68.125  1.00  0.00    -0.269 C  
BRANCH  10  11
HETATM   11  C   UNL     1     -10.488  11.125  67.462  1.00  0.00    -0.239 C  
HETATM   12  C   UNL     1      -9.096  11.462  66.958  1.00  0.00    -0.169 C  
ENDBRANCH  10  11
BRANCH  10  13
HETATM   13  C   UNL     1     -12.028  13.121  67.066  1.00  0.00    -0.355 C  
HETATM   14  N   UNL     1     -12.255  14.442  67.292  1.00  0.00    -0.608 N  
HETATM   15  O   UNL     1     -12.405  12.627  66.003  1.00  0.00    -0.587 OA 
HETATM   16  H1  UNL     1     -12.776  14.980  66.599  1.00  0.00     0.000 HD 
HETATM   17  H2  UNL     1     -11.909  14.890  68.141  1.00  0.00     0.000 HD 
ENDBRANCH  10  13
ENDBRANCH   6  10
ENDBRANCH   3   4
ENDBRANCH   2   3
TORSDOF 5
ENDMDL
MODEL       42
REMARK 921   NORMALIZED FREE ENERGY PREDICTED BY IDOCK:   -4.31 KCAL/MOL
REMARK 922        TOTAL FREE ENERGY PREDICTED BY IDOCK:   -6.12 KCAL/MOL
REMARK 923 INTER-LIGAND FREE ENERGY PREDICTED BY IDOCK:   -5.95 KCAL/MOL
REMARK 924 INTRA-LIGAND FREE ENERGY PREDICTED BY IDOCK:   -0.17 KCAL/MOL
REMARK 927      BINDING AFFINITY PREDICTED BY RF-SCORE:    0.00 PKD
ROOT
HETATM    1  C   UNL     1      -9.709  20.606  67.321  1.00  0.00    -0.562 C  
HETATM    2  C   UNL     1     -10.661  19.492  67.737  1.00  0.00    -0.487 C  
ENDROOT
BRANCH   2   3
HETATM    3  C   UNL     1      -9.924  18.429  68.551  1.00  0.00    -0.415 C  
BRANCH   3   4
HETATM    4  C   UNL     1      -9.674  17.124  67.791  1.00  0.00    -0.271 C  
HETATM    5  C   UNL     1     -10.706  16.029  68.009  1.00  0.00    -0.309 C  
HETATM    6  N   UNL     1     -10.659  15.260  66.785  1.00  0.00    -0.299 N  
HETATM    7  C   UNL     1     -10.384  16.109  65.730  1.00  0.00    -0.378 C  
HETATM    8  O   UNL     1     -10.569  15.894  64.541  1.00  0.00    -0.449 OA 
HETATM    9  C   UNL     1      -9.720  17.352  66.275  1.00  0.00    -0.276 C  
BRANCH   6  10
HETATM   10  C   UNL     1     -11.288  13.926  66.708  1.00  0.00    -0.333 C  
BRANCH  10  11
HETATM   11  C   UNL     1     -11.879  13.413  68.033  1.00  0.00    -0.392 C  
HETATM   12  C   UNL     1     -10.948  12.525  68.839  1.00  0.00    -0.272 C  
ENDBRANCH  10  11
BRANCH  10  13
HETATM   13  C   UNL     1     -12.198  13.531  65.504  1.00  0.00    -0.451 C  
HETATM   14  N   UNL     1     -11.684  12.744  64.520  1.00  0.00    -0.346 N  
HETATM   15  O   UNL     1     -13.384  13.856  65.446  1.00  0.00    -0.710 OA 
HETATM   16  H1  UNL     1     -12.280  12.486  63.734  1.00  0.00     0.000 HD 
HETATM   17  H2  UNL     1     -10.719  12.417  64.569  1.00  0.00     0.000 HD 
ENDBRANCH  10  13
ENDBRANCH   6  10
ENDBRANCH   3   4
ENDBRANCH   2   3
TORSDOF 5
ENDMDL
MODEL       43
REMARK 921   NORMALIZED FREE ENERGY PREDICTED BY IDOCK:   -4.30 KCAL/MOL
REMARK 922        TOTAL FREE ENERGY PREDICTED BY IDOCK:   -6.11 KCAL/MOL
REMARK 923 INTER-LIGAND FREE ENERGY PREDICTED BY IDOCK:   -5.74 KCAL/MOL
REMARK 924 INTRA-LIGAND FREE ENERGY PREDICTED BY IDOCK:   -0.38 KCAL/MOL
REMARK 927      BINDING AFFINITY PREDICTED BY RF-SCORE:    0.00 PKD
ROOT
HETATM    1  C   UNL     1      -8.865   9.324  62.357  1.00  0.00    -0.242 C  
HETATM    2  C   UNL     1      -9.246  10.057  63.636  1.00  0.00    -0.314 C  
ENDROOT
BRANCH   2   3
HETATM    3  C   UNL     1     -10.315  11.113  63.355  1.00  0.00    -0.419 C  
BRANCH   3   4
HETATM    4  C   UNL     1     -10.940  11.720  64.614  1.00  0.00    -0.368 C  
HETATM    5  C   UNL     1     -10.196  12.904  65.210  1.00  0.00    -0.278 C  
HETATM    6  N   UNL     1     -11.232  13.664  65.875  1.00  0.00    -0.303 N  
HETATM    7  C   UNL     1     -12.408  13.544  65.160  1.00  0.00    -0.449 C  
HETATM    8  O   UNL     1     -13.390  14.269  65.226  1.00  0.00    -0.660 OA 
HETATM    9  C   UNL     1     -12.331  12.294  64.316  1.00  0.00    -0.519 C  
BRANCH   6  10
HETATM   10  C   UNL     1     -10.886  14.729  66.838  1.00  0.00    -0.316 C  
BRANCH  10  11
HETATM   11  C   UNL     1     -10.501  16.077  66.201  1.00  0.00    -0.334 C  
HETATM   12  C   UNL     1      -9.011  16.364  66.181  1.00  0.00    -0.367 C  
ENDBRANCH  10  11
BRANCH  10  13
HETATM   13  C   UNL     1     -11.723  14.947  68.137  1.00  0.00    -0.318 C  
HETATM   14  N   UNL     1     -12.273  13.867  68.754  1.00  0.00    -0.481 N  
HETATM   15  O   UNL     1     -11.849  16.056  68.655  1.00  0.00    -0.367 OA 
HETATM   16  H1  UNL     1     -12.820  14.010  69.603  1.00  0.00     0.000 HD 
HETATM   17  H2  UNL     1     -12.141  12.930  68.375  1.00  0.00     0.000 HD 
ENDBRANCH  10  13
ENDBRANCH   6  10
ENDBRANCH   3   4
ENDBRANCH   2   3
TORSDOF 5
ENDMDL
MODEL       44
REMARK 921   NORMALIZED FREE ENERGY PREDICTED BY IDOCK:   -4.29 KCAL/MOL
REMARK 922        TOTAL FREE ENERGY PREDICTED BY IDOCK:   -6.10 KCAL/MOL
REMARK 923 INTER-LIGAND FREE ENERGY PREDICTED BY IDOCK:   -5.73 KCAL/MOL
REMARK 924 INTRA-LIGAND FREE ENERGY PREDICTED BY IDOCK:   -0.37 KCAL/MOL
REMARK 927      BINDING AFFINITY PREDICTED BY RF-SCORE:    0.00 PKD
ROOT
HETATM    1  C   UNL     1     -10.206  20.055  66.735  1.00  0.00    -0.592 C  
HETATM    2  C   UNL     1     -10.287  18.635  67.282  1.00  0.00    -0.440 C  
ENDROOT
BRANCH   2   3
HETATM    3  C   UNL     1      -9.793  17.629  66.244  1.00  0.00    -0.297 C  
BRANCH   3   4
HETATM    4  C   UNL     1     -10.015  16.166  66.637  1.00  0.00    -0.270 C  
HETATM    5  C   UNL     1     -10.788  15.943  67.927  1.00  0.00    -0.327 C  
HETATM    6  N   UNL     1     -11.421  14.657  67.733  1.00  0.00    -0.325 N  
HETATM    7  C   UNL     1     -11.740  14.509  66.397  1.00  0.00    -0.363 C  
HETATM    8  O   UNL     1     -12.539  13.721  65.911  1.00  0.00    -0.472 OA 
HETATM    9  C   UNL     1     -10.864  15.436  65.589  1.00  0.00    -0.363 C  
BRANCH   6  10
HETATM   10  C   UNL     1     -12.018  13.931  68.872  1.00  0.00    -0.358 C  
BRANCH  10  11
HETATM   11  C   UNL     1     -11.422  12.536  69.133  1.00  0.00    -0.361 C  
HETATM   12  C   UNL     1     -10.197  12.206  68.301  1.00  0.00    -0.209 C  
ENDBRANCH  10  11
BRANCH  10  13
HETATM   13  C   UNL     1     -12.338  14.659  70.215  1.00  0.00    -0.349 C  
HETATM   14  N   UNL     1     -13.398  15.509  70.267  1.00  0.00    -0.714 N  
HETATM   15  O   UNL     1     -11.701  14.440  71.245  1.00  0.00    -0.289 OA 
HETATM   16  H1  UNL     1     -13.607  15.984  71.145  1.00  0.00     0.000 HD 
HETATM   17  H2  UNL     1     -13.976  15.669  69.442  1.00  0.00     0.000 HD 
ENDBRANCH  10  13
ENDBRANCH   6  10
ENDBRANCH   3   4
ENDBRANCH   2   3
TORSDOF 5
ENDMDL
MODEL       45
REMARK 921   NORMALIZED FREE ENERGY PREDICTED BY IDOCK:   -4.25 KCAL/MOL
REMARK 922        TOTAL FREE ENERGY PREDICTED BY IDOCK:   -6.05 KCAL/MOL
REMARK 923 INTER-LIGAND FREE ENERGY PREDICTED BY IDOCK:   -5.89 KCAL/MOL
REMARK 924 INTRA-LIGAND FREE ENERGY PREDICTED BY IDOCK:   -0.16 KCAL/MOL
REMARK 927      BINDING AFFINITY PREDICTED BY RF-SCORE:    0.00 PKD
ROOT
HETATM    1  C   UNL     1      -9.312  10.215  62.408  1.00  0.00    -0.297 C  
HETATM    2  C   UNL     1     -10.250  10.700  63.506  1.00  0.00    -0.201 C  
ENDROOT
BRANCH   2   3
HETATM    3  C   UNL     1      -9.606  10.526  64.881  1.00  0.00    -0.334 C  
BRANCH   3   4
HETATM    4  C   UNL     1      -9.678  11.774  65.766  1.00  0.00    -0.260 C  
HETATM    5  C   UNL     1     -10.240  13.020  65.100  1.00  0.00    -0.272 C  
HETATM    6  N   UNL     1     -10.814  13.768  66.196  1.00  0.00    -0.279 N  
HETATM    7  C   UNL     1     -11.316  12.885  67.132  1.00  0.00    -0.306 C  
HETATM    8  O   UNL     1     -12.128  13.124  68.014  1.00  0.00    -0.325 OA 
HETATM    9  C   UNL     1     -10.626  11.553  66.952  1.00  0.00    -0.284 C  
BRANCH   6  10
HETATM   10  C   UNL     1     -11.193  15.185  66.024  1.00  0.00    -0.275 C  
BRANCH  10  11
HETATM   11  C   UNL     1     -10.270  16.192  66.735  1.00  0.00    -0.281 C  
HETATM   12  C   UNL     1     -10.709  16.569  68.139  1.00  0.00    -0.343 C  
ENDBRANCH  10  11
BRANCH  10  13
HETATM   13  C   UNL     1     -11.652  15.737  64.638  1.00  0.00    -0.218 C  
HETATM   14  N   UNL     1     -12.345  14.920  63.801  1.00  0.00    -1.071 N  
HETATM   15  O   UNL     1     -11.461  16.906  64.303  1.00  0.00    -1.142 OA 
HETATM   16  H1  UNL     1     -12.645  15.280  62.895  1.00  0.00     0.000 HD 
HETATM   17  H2  UNL     1     -12.563  13.961  64.074  1.00  0.00     0.000 HD 
ENDBRANCH  10  13
ENDBRANCH   6  10
ENDBRANCH   3   4
ENDBRANCH   2   3
TORSDOF 5
ENDMDL
MODEL       46
REMARK 921   NORMALIZED FREE ENERGY PREDICTED BY IDOCK:   -4.24 KCAL/MOL
REMARK 922        TOTAL FREE ENERGY PREDICTED BY IDOCK:   -6.04 KCAL/MOL
REMARK 923 INTER-LIGAND FREE ENERGY PREDICTED BY IDOCK:   -5.46 KCAL/MOL
REMARK 924 INTRA-LIGAND FREE ENERGY PREDICTED BY IDOCK:   -0.58 KCAL/MOL
REMARK 927      BINDING AFFINITY PREDICTED BY RF-SCORE:    0.00 PKD
ROOT
HETATM    1  C   UNL     1     -11.412  12.005  68.957  1.00  0.00    -0.357 C  
HETATM    2  C   UNL     1     -11.750  13.284  68.203  1.00  0.00    -0.397 C  
ENDROOT
BRANCH   2   3
HETATM    3  C   UNL     1     -11.639  14.498  69.124  1.00  0.00    -0.331 C  
BRANCH   3   4
HETATM    4  C   UNL     1     -11.403  15.821  68.389  1.00  0.00    -0.372 C  
HETATM    5  C   UNL     1     -10.364  16.741  69.011  1.00  0.00    -0.326 C  
HETATM    6  N   UNL     1      -9.855  17.496  67.887  1.00  0.00    -0.282 N  
HETATM    7  C   UNL     1      -9.861  16.693  66.764  1.00  0.00    -0.273 C  
HETATM    8  O   UNL     1      -9.234  16.866  65.728  1.00  0.00    -0.527 OA 
HETATM    9  C   UNL     1     -10.854  15.576  66.978  1.00  0.00    -0.314 C  
BRANCH   6  10
HETATM   10  C   UNL     1      -9.047  18.714  68.102  1.00  0.00    -0.313 C  
BRANCH  10  11
HETATM   11  C   UNL     1      -7.578  18.455  68.485  1.00  0.00    -0.319 C  
HETATM   12  C   UNL     1      -6.921  19.580  69.265  1.00  0.00    -0.385 C  
ENDBRANCH  10  11
BRANCH  10  13
HETATM   13  C   UNL     1      -9.163  19.940  67.145  1.00  0.00    -0.357 C  
HETATM   14  N   UNL     1      -8.399  19.973  66.021  1.00  0.00    -0.508 N  
HETATM   15  O   UNL     1      -9.970  20.849  67.341  1.00  0.00    -0.397 OA 
HETATM   16  H1  UNL     1      -8.475  20.775  65.395  1.00  0.00     0.000 HD 
HETATM   17  H2  UNL     1      -7.759  19.208  65.806  1.00  0.00     0.000 HD 
ENDBRANCH  10  13
ENDBRANCH   6  10
ENDBRANCH   3   4
ENDBRANCH   2   3
TORSDOF 5
ENDMDL
MODEL       47
REMARK 921   NORMALIZED FREE ENERGY PREDICTED BY IDOCK:   -4.22 KCAL/MOL
REMARK 922        TOTAL FREE ENERGY PREDICTED BY IDOCK:   -6.01 KCAL/MOL
REMARK 923 INTER-LIGAND FREE ENERGY PREDICTED BY IDOCK:   -6.08 KCAL/MOL
REMARK 924 INTRA-LIGAND FREE ENERGY PREDICTED BY IDOCK:    0.07 KCAL/MOL
REMARK 927      BINDING AFFINITY PREDICTED BY RF-SCORE:    0.00 PKD
ROOT
HETATM    1  C   UNL     1     -12.047  12.873  63.368  1.00  0.00    -0.610 C  
HETATM    2  C   UNL     1     -10.739  12.930  64.146  1.00  0.00    -0.443 C  
ENDROOT
BRANCH   2   3
HETATM    3  C   UNL     1     -10.755  14.089  65.142  1.00  0.00    -0.393 C  
BRANCH   3   4
HETATM    4  C   UNL     1     -10.637  13.656  66.606  1.00  0.00    -0.277 C  
HETATM    5  C   UNL     1     -11.606  14.324  67.568  1.00  0.00    -0.363 C  
HETATM    6  N   UNL     1     -11.775  13.349  68.622  1.00  0.00    -0.328 N  
HETATM    7  C   UNL     1     -11.699  12.081  68.079  1.00  0.00    -0.331 C  
HETATM    8  O   UNL     1     -12.093  11.037  68.580  1.00  0.00    -0.573 OA 
HETATM    9  C   UNL     1     -10.956  12.165  66.767  1.00  0.00    -0.325 C  
BRANCH   6  10
HETATM   10  C   UNL     1     -12.399  13.726  69.906  1.00  0.00    -0.275 C  
BRANCH  10  11
HETATM   11  C   UNL     1     -12.331  12.646  71.001  1.00  0.00    -0.307 C  
HETATM   12  C   UNL     1     -13.411  12.752  72.062  1.00  0.00    -0.540 C  
ENDBRANCH  10  11
BRANCH  10  13
HETATM   13  C   UNL     1     -12.196  15.148  70.516  1.00  0.00    -0.341 C  
HETATM   14  N   UNL     1     -13.290  15.904  70.804  1.00  0.00    -0.662 N  
HETATM   15  O   UNL     1     -11.081  15.583  70.803  1.00  0.00    -0.315 OA 
HETATM   16  H1  UNL     1     -13.156  16.833  71.203  1.00  0.00     0.000 HD 
HETATM   17  H2  UNL     1     -14.228  15.547  70.625  1.00  0.00     0.000 HD 
ENDBRANCH  10  13
ENDBRANCH   6  10
ENDBRANCH   3   4
ENDBRANCH   2   3
TORSDOF 5
ENDMDL
MODEL       48
REMARK 921   NORMALIZED FREE ENERGY PREDICTED BY IDOCK:   -4.19 KCAL/MOL
REMARK 922        TOTAL FREE ENERGY PREDICTED BY IDOCK:   -5.97 KCAL/MOL
REMARK 923 INTER-LIGAND FREE ENERGY PREDICTED BY IDOCK:   -5.49 KCAL/MOL
REMARK 924 INTRA-LIGAND FREE ENERGY PREDICTED BY IDOCK:   -0.48 KCAL/MOL
REMARK 927      BINDING AFFINITY PREDICTED BY RF-SCORE:    0.00 PKD
ROOT
HETATM    1  C   UNL     1      -8.699   9.462  63.486  1.00  0.00    -0.221 C  
HETATM    2  C   UNL     1      -8.798   9.242  64.991  1.00  0.00    -0.238 C  
ENDROOT
BRANCH   2   3
HETATM    3  C   UNL     1      -8.015  10.316  65.745  1.00  0.00    -0.144 C  
BRANCH   3   4
HETATM    4  C   UNL     1      -8.895  11.361  66.437  1.00  0.00    -0.193 C  
HETATM    5  C   UNL     1      -9.835  12.134  65.525  1.00  0.00    -0.221 C  
HETATM    6  N   UNL     1     -10.935  12.496  66.391  1.00  0.00    -0.264 N  
HETATM    7  C   UNL     1     -11.127  11.492  67.321  1.00  0.00    -0.293 C  
HETATM    8  O   UNL     1     -12.124  11.292  67.998  1.00  0.00    -0.638 OA 
HETATM    9  C   UNL     1      -9.846  10.701  67.443  1.00  0.00    -0.198 C  
BRANCH   6  10
HETATM   10  C   UNL     1     -11.919  13.516  65.974  1.00  0.00    -0.409 C  
BRANCH  10  11
HETATM   11  C   UNL     1     -11.600  14.949  66.439  1.00  0.00    -0.238 C  
HETATM   12  C   UNL     1     -11.332  15.086  67.927  1.00  0.00    -0.344 C  
ENDBRANCH  10  11
BRANCH  10  13
HETATM   13  C   UNL     1     -12.517  13.520  64.533  1.00  0.00    -0.291 C  
HETATM   14  N   UNL     1     -12.488  14.672  63.811  1.00  0.00    -1.068 N  
HETATM   15  O   UNL     1     -12.957  12.499  64.005  1.00  0.00    -0.733 OA 
HETATM   16  H1  UNL     1     -12.880  14.674  62.870  1.00  0.00     0.000 HD 
HETATM   17  H2  UNL     1     -12.082  15.521  64.205  1.00  0.00     0.000 HD 
ENDBRANCH  10  13
ENDBRANCH   6  10
ENDBRANCH   3   4
ENDBRANCH   2   3
TORSDOF 5
ENDMDL
MODEL       49
REMARK 921   NORMALIZED FREE ENERGY PREDICTED BY IDOCK:   -4.18 KCAL/MOL
REMARK 922        TOTAL FREE ENERGY PREDICTED BY IDOCK:   -5.95 KCAL/MOL
REMARK 923 INTER-LIGAND FREE ENERGY PREDICTED BY IDOCK:   -5.52 KCAL/MOL
REMARK 924 INTRA-LIGAND FREE ENERGY PREDICTED BY IDOCK:   -0.43 KCAL/MOL
REMARK 927      BINDING AFFINITY PREDICTED BY RF-SCORE:    0.00 PKD
ROOT
HETATM    1  C   UNL     1      -7.251  19.892  65.666  1.00  0.00    -0.331 C  
HETATM    2  C   UNL     1      -7.935  20.266  66.974  1.00  0.00    -0.366 C  
ENDROOT
BRANCH   2   3
HETATM    3  C   UNL     1      -9.433  19.974  66.901  1.00  0.00    -0.529 C  
BRANCH   3   4
HETATM    4  C   UNL     1      -9.929  18.981  67.955  1.00  0.00    -0.436 C  
HETATM    5  C   UNL     1     -10.840  17.877  67.440  1.00  0.00    -0.204 C  
HETATM    6  N   UNL     1     -10.616  16.786  68.362  1.00  0.00    -0.336 N  
HETATM    7  C   UNL     1      -9.300  16.812  68.780  1.00  0.00    -0.254 C  
HETATM    8  O   UNL     1      -8.670  15.900  69.296  1.00  0.00    -0.246 OA 
HETATM    9  C   UNL     1      -8.759  18.208  68.576  1.00  0.00    -0.309 C  
BRANCH   6  10
HETATM   10  C   UNL     1     -11.534  15.630  68.399  1.00  0.00    -0.369 C  
BRANCH  10  11
HETATM   11  C   UNL     1     -11.158  14.475  67.452  1.00  0.00    -0.320 C  
HETATM   12  C   UNL     1     -12.273  14.031  66.523  1.00  0.00    -0.485 C  
ENDBRANCH  10  11
BRANCH  10  13
HETATM   13  C   UNL     1     -12.089  15.082  69.750  1.00  0.00    -0.314 C  
HETATM   14  N   UNL     1     -13.120  15.733  70.352  1.00  0.00    -0.743 N  
HETATM   15  O   UNL     1     -11.666  14.043  70.258  1.00  0.00    -0.277 OA 
HETATM   16  H1  UNL     1     -13.483  15.374  71.235  1.00  0.00     0.000 HD 
HETATM   17  H2  UNL     1     -13.526  16.567  69.926  1.00  0.00     0.000 HD 
ENDBRANCH  10  13
ENDBRANCH   6  10
ENDBRANCH   3   4
ENDBRANCH   2   3
TORSDOF 5
ENDMDL
MODEL       50
REMARK 921   NORMALIZED FREE ENERGY PREDICTED BY IDOCK:   -4.16 KCAL/MOL
REMARK 922        TOTAL FREE ENERGY PREDICTED BY IDOCK:   -5.93 KCAL/MOL
REMARK 923 INTER-LIGAND FREE ENERGY PREDICTED BY IDOCK:   -5.50 KCAL/MOL
REMARK 924 INTRA-LIGAND FREE ENERGY PREDICTED BY IDOCK:   -0.44 KCAL/MOL
REMARK 927      BINDING AFFINITY PREDICTED BY RF-SCORE:    0.00 PKD
ROOT
HETATM    1  C   UNL     1     -14.243  14.393  71.998  1.00  0.00    -0.639 C  
HETATM    2  C   UNL     1     -13.417  13.136  72.238  1.00  0.00    -0.665 C  
ENDROOT
BRANCH   2   3
HETATM    3  C   UNL     1     -12.659  12.739  70.972  1.00  0.00    -0.362 C  
BRANCH   3   4
HETATM    4  C   UNL     1     -12.724  11.244  70.647  1.00  0.00    -0.314 C  
HETATM    5  C   UNL     1     -11.402  10.598  70.264  1.00  0.00    -0.319 C  
HETATM    6  N   UNL     1     -11.564   9.217  70.663  1.00  0.00    -0.267 N  
HETATM    7  C   UNL     1     -12.354   9.164  71.795  1.00  0.00    -0.372 C  
HETATM    8  O   UNL     1     -12.454   8.236  72.584  1.00  0.00    -0.308 OA 
HETATM    9  C   UNL     1     -13.169  10.434  71.871  1.00  0.00    -0.535 C  
BRANCH   6  10
HETATM   10  C   UNL     1     -10.625   8.180  70.189  1.00  0.00    -0.237 C  
BRANCH  10  11
HETATM   11  C   UNL     1      -9.306   8.094  70.978  1.00  0.00    -0.180 C  
HETATM   12  C   UNL     1      -8.057   8.034  70.117  1.00  0.00    -0.114 C  
ENDBRANCH  10  11
BRANCH  10  13
HETATM   13  C   UNL     1     -11.127   6.758  69.789  1.00  0.00    -0.316 C  
HETATM   14  N   UNL     1     -11.343   6.481  68.475  1.00  0.00    -0.578 N  
HETATM   15  O   UNL     1     -11.273   5.859  70.617  1.00  0.00    -0.294 OA 
HETATM   16  H1  UNL     1     -11.671   5.552  68.214  1.00  0.00     0.000 HD 
HETATM   17  H2  UNL     1     -11.180   7.192  67.761  1.00  0.00     0.000 HD 
ENDBRANCH  10  13
ENDBRANCH   6  10
ENDBRANCH   3   4
ENDBRANCH   2   3
TORSDOF 5
ENDMDL
MODEL       51
REMARK 921   NORMALIZED FREE ENERGY PREDICTED BY IDOCK:   -4.16 KCAL/MOL
REMARK 922        TOTAL FREE ENERGY PREDICTED BY IDOCK:   -5.93 KCAL/MOL
REMARK 923 INTER-LIGAND FREE ENERGY PREDICTED BY IDOCK:   -5.56 KCAL/MOL
REMARK 924 INTRA-LIGAND FREE ENERGY PREDICTED BY IDOCK:   -0.37 KCAL/MOL
REMARK 927      BINDING AFFINITY PREDICTED BY RF-SCORE:    0.00 PKD
ROOT
HETATM    1  C   UNL     1     -10.542  17.527  68.090  1.00  0.00    -0.366 C  
HETATM    2  C   UNL     1     -10.561  16.210  67.325  1.00  0.00    -0.305 C  
ENDROOT
BRANCH   2   3
HETATM    3  C   UNL     1     -10.728  16.460  65.827  1.00  0.00    -0.245 C  
BRANCH   3   4
HETATM    4  C   UNL     1     -10.706  15.187  64.975  1.00  0.00    -0.451 C  
HETATM    5  C   UNL     1      -9.993  13.995  65.594  1.00  0.00    -0.286 C  
HETATM    6  N   UNL     1     -10.651  12.853  65.000  1.00  0.00    -0.303 N  
HETATM    7  C   UNL     1     -11.981  13.158  64.788  1.00  0.00    -0.388 C  
HETATM    8  O   UNL     1     -12.899  12.372  64.602  1.00  0.00    -0.714 OA 
HETATM    9  C   UNL     1     -12.126  14.660  64.735  1.00  0.00    -0.428 C  
BRANCH   6  10
HETATM   10  C   UNL     1     -10.057  11.504  65.101  1.00  0.00    -0.268 C  
BRANCH  10  11
HETATM   11  C   UNL     1     -10.521  10.683  66.318  1.00  0.00    -0.268 C  
HETATM   12  C   UNL     1     -10.093  11.245  67.661  1.00  0.00    -0.201 C  
ENDBRANCH  10  11
BRANCH  10  13
HETATM   13  C   UNL     1      -9.900  10.594  63.844  1.00  0.00    -0.338 C  
HETATM   14  N   UNL     1     -10.650  10.859  62.741  1.00  0.00    -0.757 N  
HETATM   15  O   UNL     1      -9.075   9.682  63.795  1.00  0.00    -0.241 OA 
HETATM   16  H1  UNL     1     -10.548  10.264  61.919  1.00  0.00     0.000 HD 
HETATM   17  H2  UNL     1     -11.305  11.642  62.735  1.00  0.00     0.000 HD 
ENDBRANCH  10  13
ENDBRANCH   6  10
ENDBRANCH   3   4
ENDBRANCH   2   3
TORSDOF 5
ENDMDL
MODEL       52
REMARK 921   NORMALIZED FREE ENERGY PREDICTED BY IDOCK:   -4.16 KCAL/MOL
REMARK 922        TOTAL FREE ENERGY PREDICTED BY IDOCK:   -5.93 KCAL/MOL
REMARK 923 INTER-LIGAND FREE ENERGY PREDICTED BY IDOCK:   -5.55 KCAL/MOL
REMARK 924 INTRA-LIGAND FREE ENERGY PREDICTED BY IDOCK:   -0.38 KCAL/MOL
REMARK 927      BINDING AFFINITY PREDICTED BY RF-SCORE:    0.00 PKD
ROOT
HETATM    1  C   UNL     1     -11.680   8.292  72.115  1.00  0.00    -0.429 C  
HETATM    2  C   UNL     1     -12.932   9.134  72.320  1.00  0.00    -0.492 C  
ENDROOT
BRANCH   2   3
HETATM    3  C   UNL     1     -13.173  10.043  71.116  1.00  0.00    -0.441 C  
BRANCH   3   4
HETATM    4  C   UNL     1     -12.331  11.323  71.121  1.00  0.00    -0.429 C  
HETATM    5  C   UNL     1     -11.967  11.875  69.752  1.00  0.00    -0.307 C  
HETATM    6  N   UNL     1     -11.816  13.294  69.980  1.00  0.00    -0.316 N  
HETATM    7  C   UNL     1     -12.709  13.692  70.956  1.00  0.00    -0.332 C  
HETATM    8  O   UNL     1     -13.089  14.830  71.192  1.00  0.00    -0.343 OA 
HETATM    9  C   UNL     1     -13.096  12.482  71.773  1.00  0.00    -0.450 C  
BRANCH   6  10
HETATM   10  C   UNL     1     -11.166  14.155  68.971  1.00  0.00    -0.271 C  
BRANCH  10  11
HETATM   11  C   UNL     1     -12.028  14.465  67.734  1.00  0.00    -0.368 C  
HETATM   12  C   UNL     1     -11.550  13.811  66.450  1.00  0.00    -0.380 C  
ENDBRANCH  10  11
BRANCH  10  13
HETATM   13  C   UNL     1     -10.330  15.403  69.392  1.00  0.00    -0.258 C  
HETATM   14  N   UNL     1      -8.990  15.266  69.582  1.00  0.00    -0.426 N  
HETATM   15  O   UNL     1     -10.833  16.522  69.497  1.00  0.00    -0.310 OA 
HETATM   16  H1  UNL     1      -8.444  16.082  69.858  1.00  0.00     0.000 HD 
HETATM   17  H2  UNL     1      -8.538  14.361  69.451  1.00  0.00     0.000 HD 
ENDBRANCH  10  13
ENDBRANCH   6  10
ENDBRANCH   3   4
ENDBRANCH   2   3
TORSDOF 5
ENDMDL
MODEL       53
REMARK 921   NORMALIZED FREE ENERGY PREDICTED BY IDOCK:   -4.15 KCAL/MOL
REMARK 922        TOTAL FREE ENERGY PREDICTED BY IDOCK:   -5.92 KCAL/MOL
REMARK 923 INTER-LIGAND FREE ENERGY PREDICTED BY IDOCK:   -5.70 KCAL/MOL
REMARK 924 INTRA-LIGAND FREE ENERGY PREDICTED BY IDOCK:   -0.22 KCAL/MOL
REMARK 927      BINDING AFFINITY PREDICTED BY RF-SCORE:    0.00 PKD
ROOT
HETATM    1  C   UNL     1     -12.524  15.880  74.303  1.00  0.00    -0.773 C  
HETATM    2  C   UNL     1     -12.857  15.327  72.923  1.00  0.00    -0.541 C  
ENDROOT
BRANCH   2   3
HETATM    3  C   UNL     1     -11.656  15.456  71.987  1.00  0.00    -0.544 C  
BRANCH   3   4
HETATM    4  C   UNL     1     -12.011  15.376  70.500  1.00  0.00    -0.394 C  
HETATM    5  C   UNL     1     -10.928  15.843  69.540  1.00  0.00    -0.311 C  
HETATM    6  N   UNL     1     -11.185  15.087  68.335  1.00  0.00    -0.279 N  
HETATM    7  C   UNL     1     -11.676  13.842  68.679  1.00  0.00    -0.361 C  
HETATM    8  O   UNL     1     -11.713  12.842  67.977  1.00  0.00    -0.321 OA 
HETATM    9  C   UNL     1     -12.258  13.924  70.070  1.00  0.00    -0.408 C  
BRANCH   6  10
HETATM   10  C   UNL     1     -10.547  15.465  67.057  1.00  0.00    -0.309 C  
BRANCH  10  11
HETATM   11  C   UNL     1     -11.383  15.157  65.801  1.00  0.00    -0.238 C  
HETATM   12  C   UNL     1     -10.803  14.078  64.906  1.00  0.00    -0.421 C  
ENDBRANCH  10  11
BRANCH  10  13
HETATM   13  C   UNL     1      -9.792  16.821  66.903  1.00  0.00    -0.266 C  
HETATM   14  N   UNL     1     -10.502  17.941  66.602  1.00  0.00    -0.343 N  
HETATM   15  O   UNL     1      -8.581  16.923  67.105  1.00  0.00    -0.188 OA 
HETATM   16  H1  UNL     1     -10.008  18.827  66.501  1.00  0.00     0.000 HD 
HETATM   17  H2  UNL     1     -11.514  17.896  66.480  1.00  0.00     0.000 HD 
ENDBRANCH  10  13
ENDBRANCH   6  10
ENDBRANCH   3   4
ENDBRANCH   2   3
TORSDOF 5
ENDMDL
MODEL       54
REMARK 921   NORMALIZED FREE ENERGY PREDICTED BY IDOCK:   -4.14 KCAL/MOL
REMARK 922        TOTAL FREE ENERGY PREDICTED BY IDOCK:   -5.91 KCAL/MOL
REMARK 923 INTER-LIGAND FREE ENERGY PREDICTED BY IDOCK:   -5.56 KCAL/MOL
REMARK 924 INTRA-LIGAND FREE ENERGY PREDICTED BY IDOCK:   -0.35 KCAL/MOL
REMARK 927      BINDING AFFINITY PREDICTED BY RF-SCORE:    0.00 PKD
ROOT
HETATM    1  C   UNL     1     -11.752   8.871  72.117  1.00  0.00    -0.411 C  
HETATM    2  C   UNL     1     -10.825   9.590  71.144  1.00  0.00    -0.425 C  
ENDROOT
BRANCH   2   3
HETATM    3  C   UNL     1     -11.542   9.867  69.823  1.00  0.00    -0.138 C  
BRANCH   3   4
HETATM    4  C   UNL     1     -11.007  11.086  69.066  1.00  0.00    -0.284 C  
HETATM    5  C   UNL     1     -11.280  11.102  67.570  1.00  0.00    -0.301 C  
HETATM    6  N   UNL     1     -11.317  12.509  67.240  1.00  0.00    -0.295 N  
HETATM    7  C   UNL     1     -11.844  13.209  68.308  1.00  0.00    -0.349 C  
HETATM    8  O   UNL     1     -12.312  14.338  68.294  1.00  0.00    -0.224 OA 
HETATM    9  C   UNL     1     -11.675  12.377  69.558  1.00  0.00    -0.388 C  
BRANCH   6  10
HETATM   10  C   UNL     1     -11.253  12.955  65.834  1.00  0.00    -0.293 C  
BRANCH  10  11
HETATM   11  C   UNL     1     -12.559  12.773  65.038  1.00  0.00    -0.538 C  
HETATM   12  C   UNL     1     -12.380  12.153  63.664  1.00  0.00    -0.673 C  
ENDBRANCH  10  11
BRANCH  10  13
HETATM   13  C   UNL     1     -10.545  14.289  65.441  1.00  0.00    -0.354 C  
HETATM   14  N   UNL     1      -9.241  14.468  65.783  1.00  0.00    -0.486 N  
HETATM   15  O   UNL     1     -11.110  15.159  64.777  1.00  0.00    -0.395 OA 
HETATM   16  H1  UNL     1      -8.779  15.340  65.526  1.00  0.00     0.000 HD 
HETATM   17  H2  UNL     1      -8.733  13.742  66.288  1.00  0.00     0.000 HD 
ENDBRANCH  10  13
ENDBRANCH   6  10
ENDBRANCH   3   4
ENDBRANCH   2   3
TORSDOF 5
ENDMDL
MODEL       55
REMARK 921   NORMALIZED FREE ENERGY PREDICTED BY IDOCK:   -4.14 KCAL/MOL
REMARK 922        TOTAL FREE ENERGY PREDICTED BY IDOCK:   -5.90 KCAL/MOL
REMARK 923 INTER-LIGAND FREE ENERGY PREDICTED BY IDOCK:   -5.72 KCAL/MOL
REMARK 924 INTRA-LIGAND FREE ENERGY PREDICTED BY IDOCK:   -0.19 KCAL/MOL
REMARK 927      BINDING AFFINITY PREDICTED BY RF-SCORE:    0.00 PKD
ROOT
HETATM    1  C   UNL     1     -13.065  10.928  71.711  1.00  0.00    -0.564 C  
HETATM    2  C   UNL     1     -12.159   9.766  71.321  1.00  0.00    -0.470 C  
ENDROOT
BRANCH   2   3
HETATM    3  C   UNL     1     -11.097  10.224  70.322  1.00  0.00    -0.388 C  
BRANCH   3   4
HETATM    4  C   UNL     1     -11.667  10.808  69.027  1.00  0.00    -0.357 C  
HETATM    5  C   UNL     1     -11.443  12.299  68.825  1.00  0.00    -0.311 C  
HETATM    6  N   UNL     1     -11.429  12.454  67.387  1.00  0.00    -0.329 N  
HETATM    7  C   UNL     1     -10.875  11.326  66.817  1.00  0.00    -0.282 C  
HETATM    8  O   UNL     1     -10.418  11.216  65.688  1.00  0.00    -0.254 OA 
HETATM    9  C   UNL     1     -10.995  10.183  67.798  1.00  0.00    -0.338 C  
BRANCH   6  10
HETATM   10  C   UNL     1     -11.543  13.793  66.773  1.00  0.00    -0.370 C  
BRANCH  10  11
HETATM   11  C   UNL     1     -12.675  13.936  65.739  1.00  0.00    -0.503 C  
HETATM   12  C   UNL     1     -12.282  14.667  64.469  1.00  0.00    -0.473 C  
ENDBRANCH  10  11
BRANCH  10  13
HETATM   13  C   UNL     1     -11.407  15.089  67.631  1.00  0.00    -0.334 C  
HETATM   14  N   UNL     1     -12.375  15.381  68.541  1.00  0.00    -0.470 N  
HETATM   15  O   UNL     1     -10.422  15.824  67.555  1.00  0.00    -0.275 OA 
HETATM   16  H1  UNL     1     -12.286  16.229  69.101  1.00  0.00     0.000 HD 
HETATM   17  H2  UNL     1     -13.177  14.763  68.662  1.00  0.00     0.000 HD 
ENDBRANCH  10  13
ENDBRANCH   6  10
ENDBRANCH   3   4
ENDBRANCH   2   3
TORSDOF 5
ENDMDL
MODEL       56
REMARK 921   NORMALIZED FREE ENERGY PREDICTED BY IDOCK:   -4.12 KCAL/MOL
REMARK 922        TOTAL FREE ENERGY PREDICTED BY IDOCK:   -5.88 KCAL/MOL
REMARK 923 INTER-LIGAND FREE ENERGY PREDICTED BY IDOCK:   -5.49 KCAL/MOL
REMARK 924 INTRA-LIGAND FREE ENERGY PREDICTED BY IDOCK:   -0.40 KCAL/MOL
REMARK 927      BINDING AFFINITY PREDICTED BY RF-SCORE:    0.00 PKD
ROOT
HETATM    1  C   UNL     1      -9.247  10.016  62.784  1.00  0.00    -0.313 C  
HETATM    2  C   UNL     1     -10.066  11.041  63.557  1.00  0.00    -0.428 C  
ENDROOT
BRANCH   2   3
HETATM    3  C   UNL     1      -9.813  10.911  65.059  1.00  0.00    -0.336 C  
BRANCH   3   4
HETATM    4  C   UNL     1     -10.847  11.629  65.931  1.00  0.00    -0.339 C  
HETATM    5  C   UNL     1     -10.329  12.824  66.715  1.00  0.00    -0.240 C  
HETATM    6  N   UNL     1     -11.493  13.667  66.871  1.00  0.00    -0.330 N  
HETATM    7  C   UNL     1     -12.294  13.541  65.753  1.00  0.00    -0.468 C  
HETATM    8  O   UNL     1     -13.175  14.305  65.384  1.00  0.00    -0.688 OA 
HETATM    9  C   UNL     1     -11.967  12.232  65.073  1.00  0.00    -0.413 C  
BRANCH   6  10
HETATM   10  C   UNL     1     -11.492  14.783  67.838  1.00  0.00    -0.342 C  
BRANCH  10  11
HETATM   11  C   UNL     1     -11.365  14.360  69.313  1.00  0.00    -0.319 C  
HETATM   12  C   UNL     1     -12.601  14.622  70.155  1.00  0.00    -0.333 C  
ENDBRANCH  10  11
BRANCH  10  13
HETATM   13  C   UNL     1     -10.683  16.088  67.564  1.00  0.00    -0.314 C  
HETATM   14  N   UNL     1     -10.197  16.312  66.313  1.00  0.00    -0.312 N  
HETATM   15  O   UNL     1     -10.523  16.953  68.426  1.00  0.00    -0.313 OA 
HETATM   16  H1  UNL     1      -9.669  17.166  66.134  1.00  0.00     0.000 HD 
HETATM   17  H2  UNL     1     -10.359  15.637  65.566  1.00  0.00     0.000 HD 
ENDBRANCH  10  13
ENDBRANCH   6  10
ENDBRANCH   3   4
ENDBRANCH   2   3
TORSDOF 5
ENDMDL
MODEL       57
REMARK 921   NORMALIZED FREE ENERGY PREDICTED BY IDOCK:   -4.11 KCAL/MOL
REMARK 922        TOTAL FREE ENERGY PREDICTED BY IDOCK:   -5.87 KCAL/MOL
REMARK 923 INTER-LIGAND FREE ENERGY PREDICTED BY IDOCK:   -6.05 KCAL/MOL
REMARK 924 INTRA-LIGAND FREE ENERGY PREDICTED BY IDOCK:    0.18 KCAL/MOL
REMARK 927      BINDING AFFINITY PREDICTED BY RF-SCORE:    0.00 PKD
ROOT
HETATM    1  C   UNL     1     -11.915  12.753  63.338  1.00  0.00    -0.613 C  
HETATM    2  C   UNL     1     -12.471  12.470  64.727  1.00  0.00    -0.532 C  
ENDROOT
BRANCH   2   3
HETATM    3  C   UNL     1     -11.447  12.831  65.802  1.00  0.00    -0.388 C  
BRANCH   3   4
HETATM    4  C   UNL     1     -12.006  13.702  66.931  1.00  0.00    -0.454 C  
HETATM    5  C   UNL     1     -12.002  13.066  68.312  1.00  0.00    -0.267 C  
HETATM    6  N   UNL     1     -11.908  14.195  69.211  1.00  0.00    -0.317 N  
HETATM    7  C   UNL     1     -11.145  15.182  68.619  1.00  0.00    -0.271 C  
HETATM    8  O   UNL     1     -10.596  16.125  69.171  1.00  0.00    -0.236 OA 
HETATM    9  C   UNL     1     -11.157  14.965  67.124  1.00  0.00    -0.332 C  
BRANCH   6  10
HETATM   10  C   UNL     1     -12.184  14.035  70.653  1.00  0.00    -0.372 C  
BRANCH  10  11
HETATM   11  C   UNL     1     -13.002  15.176  71.286  1.00  0.00    -0.478 C  
HETATM   12  C   UNL     1     -12.253  15.989  72.326  1.00  0.00    -0.604 C  
ENDBRANCH  10  11
BRANCH  10  13
HETATM   13  C   UNL     1     -12.605  12.655  71.247  1.00  0.00    -0.240 C  
HETATM   14  N   UNL     1     -11.992  11.528  70.794  1.00  0.00    -0.419 N  
HETATM   15  O   UNL     1     -13.429  12.558  72.156  1.00  0.00    -0.532 OA 
HETATM   16  H1  UNL     1     -12.268  10.627  71.182  1.00  0.00     0.000 HD 
HETATM   17  H2  UNL     1     -11.268  11.584  70.078  1.00  0.00     0.000 HD 
ENDBRANCH  10  13
ENDBRANCH   6  10
ENDBRANCH   3   4
ENDBRANCH   2   3
TORSDOF 5
ENDMDL
MODEL       58
REMARK 921   NORMALIZED FREE ENERGY PREDICTED BY IDOCK:   -4.11 KCAL/MOL
REMARK 922        TOTAL FREE ENERGY PREDICTED BY IDOCK:   -5.87 KCAL/MOL
REMARK 923 INTER-LIGAND FREE ENERGY PREDICTED BY IDOCK:   -5.71 KCAL/MOL
REMARK 924 INTRA-LIGAND FREE ENERGY PREDICTED BY IDOCK:   -0.16 KCAL/MOL
REMARK 927      BINDING AFFINITY PREDICTED BY RF-SCORE:    0.00 PKD
ROOT
HETATM    1  C   UNL     1     -12.409  11.977  63.669  1.00  0.00    -0.648 C  
HETATM    2  C   UNL     1     -11.340  13.057  63.773  1.00  0.00    -0.434 C  
ENDROOT
BRANCH   2   3
HETATM    3  C   UNL     1     -11.829  14.218  64.638  1.00  0.00    -0.459 C  
BRANCH   3   4
HETATM    4  C   UNL     1     -10.707  15.104  65.187  1.00  0.00    -0.442 C  
HETATM    5  C   UNL     1     -10.944  16.602  65.084  1.00  0.00    -0.151 C  
HETATM    6  N   UNL     1     -10.180  17.149  66.184  1.00  0.00    -0.341 N  
HETATM    7  C   UNL     1     -10.201  16.255  67.236  1.00  0.00    -0.279 C  
HETATM    8  O   UNL     1      -9.944  16.488  68.409  1.00  0.00    -0.233 OA 
HETATM    9  C   UNL     1     -10.517  14.882  66.693  1.00  0.00    -0.292 C  
BRANCH   6  10
HETATM   10  C   UNL     1      -9.894  18.596  66.256  1.00  0.00    -0.342 C  
BRANCH  10  11
HETATM   11  C   UNL     1     -10.865  19.404  67.137  1.00  0.00    -0.561 C  
HETATM   12  C   UNL     1     -10.360  19.686  68.540  1.00  0.00    -0.459 C  
ENDBRANCH  10  11
BRANCH  10  13
HETATM   13  C   UNL     1      -8.434  19.124  66.411  1.00  0.00    -0.318 C  
HETATM   14  N   UNL     1      -8.147  20.394  66.017  1.00  0.00    -0.541 N  
HETATM   15  O   UNL     1      -7.547  18.451  66.937  1.00  0.00    -0.208 OA 
HETATM   16  H1  UNL     1      -7.193  20.739  66.118  1.00  0.00     0.000 HD 
HETATM   17  H2  UNL     1      -8.875  20.992  65.626  1.00  0.00     0.000 HD 
ENDBRANCH  10  13
ENDBRANCH   6  10
ENDBRANCH   3   4
ENDBRANCH   2   3
TORSDOF 5
ENDMDL
MODEL       59
REMARK 921   NORMALIZED FREE ENERGY PREDICTED BY IDOCK:   -4.08 KCAL/MOL
REMARK 922        TOTAL FREE ENERGY PREDICTED BY IDOCK:   -5.83 KCAL/MOL
REMARK 923 INTER-LIGAND FREE ENERGY PREDICTED BY IDOCK:   -5.43 KCAL/MOL
REMARK 924 INTRA-LIGAND FREE ENERGY PREDICTED BY IDOCK:   -0.41 KCAL/MOL
REMARK 927      BINDING AFFINITY PREDICTED BY RF-SCORE:    0.00 PKD
ROOT
HETATM    1  C   UNL     1      -8.663   9.146  64.175  1.00  0.00    -0.170 C  
HETATM    2  C   UNL     1      -8.532  10.460  63.415  1.00  0.00    -0.174 C  
ENDROOT
BRANCH   2   3
HETATM    3  C   UNL     1      -9.909  11.052  63.121  1.00  0.00    -0.398 C  
BRANCH   3   4
HETATM    4  C   UNL     1     -10.733  11.371  64.372  1.00  0.00    -0.405 C  
HETATM    5  C   UNL     1     -10.074  12.312  65.369  1.00  0.00    -0.269 C  
HETATM    6  N   UNL     1     -11.190  12.956  66.025  1.00  0.00    -0.285 N  
HETATM    7  C   UNL     1     -12.222  13.104  65.119  1.00  0.00    -0.450 C  
HETATM    8  O   UNL     1     -13.180  13.859  65.205  1.00  0.00    -0.774 OA 
HETATM    9  C   UNL     1     -12.031  12.101  64.005  1.00  0.00    -0.533 C  
BRANCH   6  10
HETATM   10  C   UNL     1     -10.992  13.718  67.274  1.00  0.00    -0.292 C  
BRANCH  10  11
HETATM   11  C   UNL     1     -10.708  15.219  67.077  1.00  0.00    -0.313 C  
HETATM   12  C   UNL     1      -9.236  15.589  67.080  1.00  0.00    -0.228 C  
ENDBRANCH  10  11
BRANCH  10  13
HETATM   13  C   UNL     1     -11.907  13.485  68.516  1.00  0.00    -0.362 C  
HETATM   14  N   UNL     1     -12.609  14.534  69.024  1.00  0.00    -0.513 N  
HETATM   15  O   UNL     1     -12.062  12.370  69.015  1.00  0.00    -0.259 OA 
HETATM   16  H1  UNL     1     -13.206  14.381  69.836  1.00  0.00     0.000 HD 
HETATM   17  H2  UNL     1     -12.539  15.459  68.599  1.00  0.00     0.000 HD 
ENDBRANCH  10  13
ENDBRANCH   6  10
ENDBRANCH   3   4
ENDBRANCH   2   3
TORSDOF 5
ENDMDL
MODEL       60
REMARK 921   NORMALIZED FREE ENERGY PREDICTED BY IDOCK:   -4.07 KCAL/MOL
REMARK 922        TOTAL FREE ENERGY PREDICTED BY IDOCK:   -5.82 KCAL/MOL
REMARK 923 INTER-LIGAND FREE ENERGY PREDICTED BY IDOCK:   -5.38 KCAL/MOL
REMARK 924 INTRA-LIGAND FREE ENERGY PREDICTED BY IDOCK:   -0.44 KCAL/MOL
REMARK 927      BINDING AFFINITY PREDICTED BY RF-SCORE:    0.00 PKD
ROOT
HETATM    1  C   UNL     1      -8.086   7.934  69.030  1.00  0.00    -0.124 C  
HETATM    2  C   UNL     1      -8.640   9.275  68.568  1.00  0.00    -0.128 C  
ENDROOT
BRANCH   2   3
HETATM    3  C   UNL     1     -10.167   9.279  68.633  1.00  0.00    -0.220 C  
BRANCH   3   4
HETATM    4  C   UNL     1     -10.846   9.727  67.336  1.00  0.00    -0.265 C  
HETATM    5  C   UNL     1     -11.138  11.215  67.228  1.00  0.00    -0.302 C  
HETATM    6  N   UNL     1     -11.116  11.469  65.805  1.00  0.00    -0.255 N  
HETATM    7  C   UNL     1     -10.184  10.640  65.213  1.00  0.00    -0.282 C  
HETATM    8  O   UNL     1      -9.669  10.773  64.112  1.00  0.00    -0.254 OA 
HETATM    9  C   UNL     1      -9.948   9.457  66.123  1.00  0.00    -0.351 C  
BRANCH   6  10
HETATM   10  C   UNL     1     -11.655  12.730  65.256  1.00  0.00    -0.344 C  
BRANCH  10  11
HETATM   11  C   UNL     1     -10.810  13.981  65.560  1.00  0.00    -0.311 C  
HETATM   12  C   UNL     1     -11.394  14.896  66.621  1.00  0.00    -0.326 C  
ENDBRANCH  10  11
BRANCH  10  13
HETATM   13  C   UNL     1     -12.245  12.796  63.813  1.00  0.00    -0.489 C  
HETATM   14  N   UNL     1     -12.606  11.639  63.195  1.00  0.00    -0.909 N  
HETATM   15  O   UNL     1     -12.452  13.865  63.239  1.00  0.00    -0.817 OA 
HETATM   16  H1  UNL     1     -12.991  11.683  62.252  1.00  0.00     0.000 HD 
HETATM   17  H2  UNL     1     -12.494  10.742  63.668  1.00  0.00     0.000 HD 
ENDBRANCH  10  13
ENDBRANCH   6  10
ENDBRANCH   3   4
ENDBRANCH   2   3
TORSDOF 5
ENDMDL
MODEL       61
REMARK 921   NORMALIZED FREE ENERGY PREDICTED BY IDOCK:   -4.06 KCAL/MOL
REMARK 922        TOTAL FREE ENERGY PREDICTED BY IDOCK:   -5.80 KCAL/MOL
REMARK 923 INTER-LIGAND FREE ENERGY PREDICTED BY IDOCK:   -5.55 KCAL/MOL
REMARK 924 INTRA-LIGAND FREE ENERGY PREDICTED BY IDOCK:   -0.25 KCAL/MOL
REMARK 927      BINDING AFFINITY PREDICTED BY RF-SCORE:    0.00 PKD
ROOT
HETATM    1  C   UNL     1      -9.311  20.192  67.450  1.00  0.00    -0.513 C  
HETATM    2  C   UNL     1     -10.158  19.394  68.433  1.00  0.00    -0.538 C  
ENDROOT
BRANCH   2   3
HETATM    3  C   UNL     1      -9.772  17.916  68.401  1.00  0.00    -0.340 C  
BRANCH   3   4
HETATM    4  C   UNL     1     -10.968  16.959  68.399  1.00  0.00    -0.296 C  
HETATM    5  C   UNL     1     -10.842  15.754  67.479  1.00  0.00    -0.315 C  
HETATM    6  N   UNL     1     -11.665  14.748  68.113  1.00  0.00    -0.333 N  
HETATM    7  C   UNL     1     -11.596  14.907  69.483  1.00  0.00    -0.303 C  
HETATM    8  O   UNL     1     -11.891  14.085  70.338  1.00  0.00    -0.302 OA 
HETATM    9  C   UNL     1     -11.168  16.325  69.781  1.00  0.00    -0.314 C  
BRANCH   6  10
HETATM   10  C   UNL     1     -12.061  13.528  67.381  1.00  0.00    -0.318 C  
BRANCH  10  11
HETATM   11  C   UNL     1     -12.360  13.738  65.886  1.00  0.00    -0.516 C  
HETATM   12  C   UNL     1     -11.258  13.278  64.949  1.00  0.00    -0.338 C  
ENDBRANCH  10  11
BRANCH  10  13
HETATM   13  C   UNL     1     -11.324  12.172  67.614  1.00  0.00    -0.314 C  
HETATM   14  N   UNL     1     -10.002  12.187  67.931  1.00  0.00    -0.194 N  
HETATM   15  O   UNL     1     -11.915  11.092  67.582  1.00  0.00    -0.613 OA 
HETATM   16  H1  UNL     1      -9.521  11.300  68.083  1.00  0.00     0.000 HD 
HETATM   17  H2  UNL     1      -9.498  13.070  68.016  1.00  0.00     0.000 HD 
ENDBRANCH  10  13
ENDBRANCH   6  10
ENDBRANCH   3   4
ENDBRANCH   2   3
TORSDOF 5
ENDMDL
MODEL       62
REMARK 921   NORMALIZED FREE ENERGY PREDICTED BY IDOCK:   -4.06 KCAL/MOL
REMARK 922        TOTAL FREE ENERGY PREDICTED BY IDOCK:   -5.80 KCAL/MOL
REMARK 923 INTER-LIGAND FREE ENERGY PREDICTED BY IDOCK:   -5.37 KCAL/MOL
REMARK 924 INTRA-LIGAND FREE ENERGY PREDICTED BY IDOCK:   -0.42 KCAL/MOL
REMARK 927      BINDING AFFINITY PREDICTED BY RF-SCORE:    0.00 PKD
ROOT
HETATM    1  C   UNL     1     -12.676  12.000  63.313  1.00  0.00    -0.437 C  
HETATM    2  C   UNL     1     -11.281  11.962  63.923  1.00  0.00    -0.497 C  
ENDROOT
BRANCH   2   3
HETATM    3  C   UNL     1     -11.135  13.035  65.002  1.00  0.00    -0.319 C  
BRANCH   3   4
HETATM    4  C   UNL     1     -11.905  12.734  66.290  1.00  0.00    -0.485 C  
HETATM    5  C   UNL     1     -11.254  11.726  67.224  1.00  0.00    -0.305 C  
HETATM    6  N   UNL     1     -11.737  12.105  68.533  1.00  0.00    -0.315 N  
HETATM    7  C   UNL     1     -11.893  13.477  68.577  1.00  0.00    -0.362 C  
HETATM    8  O   UNL     1     -11.978  14.180  69.573  1.00  0.00    -0.301 OA 
HETATM    9  C   UNL     1     -12.032  13.989  67.163  1.00  0.00    -0.465 C  
BRANCH   6  10
HETATM   10  C   UNL     1     -11.586  11.194  69.686  1.00  0.00    -0.326 C  
BRANCH  10  11
HETATM   11  C   UNL     1     -12.903  10.813  70.386  1.00  0.00    -0.285 C  
HETATM   12  C   UNL     1     -13.195  11.595  71.653  1.00  0.00    -0.376 C  
ENDBRANCH  10  11
BRANCH  10  13
HETATM   13  C   UNL     1     -10.614   9.974  69.629  1.00  0.00    -0.252 C  
HETATM   14  N   UNL     1     -11.074   8.787  69.152  1.00  0.00    -0.426 N  
HETATM   15  O   UNL     1      -9.428  10.068  69.944  1.00  0.00    -0.225 OA 
HETATM   16  H1  UNL     1     -10.439   7.990  69.115  1.00  0.00     0.000 HD 
HETATM   17  H2  UNL     1     -12.040   8.694  68.835  1.00  0.00     0.000 HD 
ENDBRANCH  10  13
ENDBRANCH   6  10
ENDBRANCH   3   4
ENDBRANCH   2   3
TORSDOF 5
ENDMDL
MODEL       63
REMARK 921   NORMALIZED FREE ENERGY PREDICTED BY IDOCK:   -4.05 KCAL/MOL
REMARK 922        TOTAL FREE ENERGY PREDICTED BY IDOCK:   -5.79 KCAL/MOL
REMARK 923 INTER-LIGAND FREE ENERGY PREDICTED BY IDOCK:   -5.30 KCAL/MOL
REMARK 924 INTRA-LIGAND FREE ENERGY PREDICTED BY IDOCK:   -0.49 KCAL/MOL
REMARK 927      BINDING AFFINITY PREDICTED BY RF-SCORE:    0.00 PKD
ROOT
HETATM    1  C   UNL     1      -8.158  16.722  67.534  1.00  0.00    -0.188 C  
HETATM    2  C   UNL     1      -9.237  16.316  66.538  1.00  0.00    -0.299 C  
ENDROOT
BRANCH   2   3
HETATM    3  C   UNL     1     -10.560  16.052  67.255  1.00  0.00    -0.313 C  
BRANCH   3   4
HETATM    4  C   UNL     1     -11.327  14.838  66.724  1.00  0.00    -0.347 C  
HETATM    5  C   UNL     1     -10.509  13.851  65.905  1.00  0.00    -0.305 C  
HETATM    6  N   UNL     1     -11.188  12.590  66.106  1.00  0.00    -0.305 N  
HETATM    7  C   UNL     1     -11.713  12.558  67.383  1.00  0.00    -0.366 C  
HETATM    8  O   UNL     1     -12.070  11.572  68.011  1.00  0.00    -0.617 OA 
HETATM    9  C   UNL     1     -11.864  13.978  67.875  1.00  0.00    -0.411 C  
BRANCH   6  10
HETATM   10  C   UNL     1     -10.894  11.431  65.239  1.00  0.00    -0.233 C  
BRANCH  10  11
HETATM   11  C   UNL     1     -11.174  11.655  63.742  1.00  0.00    -0.498 C  
HETATM   12  C   UNL     1     -12.607  12.035  63.417  1.00  0.00    -0.592 C  
ENDBRANCH  10  11
BRANCH  10  13
HETATM   13  C   UNL     1      -9.603  10.578  65.441  1.00  0.00    -0.237 C  
HETATM   14  N   UNL     1      -8.421  11.048  64.960  1.00  0.00    -0.379 N  
HETATM   15  O   UNL     1      -9.608   9.523  66.077  1.00  0.00    -0.209 OA 
HETATM   16  H1  UNL     1      -7.578  10.490  65.092  1.00  0.00     0.000 HD 
HETATM   17  H2  UNL     1      -8.378  11.944  64.475  1.00  0.00     0.000 HD 
ENDBRANCH  10  13
ENDBRANCH   6  10
ENDBRANCH   3   4
ENDBRANCH   2   3
TORSDOF 5
ENDMDL
MODEL       64
REMARK 921   NORMALIZED FREE ENERGY PREDICTED BY IDOCK:   -4.05 KCAL/MOL
REMARK 922        TOTAL FREE ENERGY PREDICTED BY IDOCK:   -5.78 KCAL/MOL
REMARK 923 INTER-LIGAND FREE ENERGY PREDICTED BY IDOCK:   -5.34 KCAL/MOL
REMARK 924 INTRA-LIGAND FREE ENERGY PREDICTED BY IDOCK:   -0.45 KCAL/MOL
REMARK 927      BINDING AFFINITY PREDICTED BY RF-SCORE:    0.00 PKD
ROOT
HETATM    1  C   UNL     1      -7.662  19.466  68.299  1.00  0.00    -0.356 C  
HETATM    2  C   UNL     1      -8.041  18.002  68.119  1.00  0.00    -0.276 C  
ENDROOT
BRANCH   2   3
HETATM    3  C   UNL     1      -8.333  17.698  66.650  1.00  0.00    -0.288 C  
BRANCH   3   4
HETATM    4  C   UNL     1      -9.670  16.990  66.412  1.00  0.00    -0.310 C  
HETATM    5  C   UNL     1      -9.574  15.557  65.913  1.00  0.00    -0.348 C  
HETATM    6  N   UNL     1     -10.790  14.941  66.398  1.00  0.00    -0.320 N  
HETATM    7  C   UNL     1     -11.125  15.502  67.615  1.00  0.00    -0.311 C  
HETATM    8  O   UNL     1     -11.883  15.042  68.457  1.00  0.00    -0.331 OA 
HETATM    9  C   UNL     1     -10.461  16.855  67.719  1.00  0.00    -0.340 C  
BRANCH   6  10
HETATM   10  C   UNL     1     -11.233  13.634  65.873  1.00  0.00    -0.304 C  
BRANCH  10  11
HETATM   11  C   UNL     1     -10.897  13.384  64.391  1.00  0.00    -0.422 C  
HETATM   12  C   UNL     1     -12.021  12.759  63.585  1.00  0.00    -0.616 C  
ENDBRANCH  10  11
BRANCH  10  13
HETATM   13  C   UNL     1     -11.061  12.327  66.709  1.00  0.00    -0.296 C  
HETATM   14  N   UNL     1      -9.808  11.854  66.942  1.00  0.00    -0.200 N  
HETATM   15  O   UNL     1     -12.020  11.745  67.217  1.00  0.00    -0.618 OA 
HETATM   16  H1  UNL     1      -9.696  11.000  67.487  1.00  0.00     0.000 HD 
HETATM   17  H2  UNL     1      -8.992  12.346  66.576  1.00  0.00     0.000 HD 
ENDBRANCH  10  13
ENDBRANCH   6  10
ENDBRANCH   3   4
ENDBRANCH   2   3
TORSDOF 5
ENDMDL
MODEL       65
REMARK 921   NORMALIZED FREE ENERGY PREDICTED BY IDOCK:   -4.03 KCAL/MOL
REMARK 922        TOTAL FREE ENERGY PREDICTED BY IDOCK:   -5.76 KCAL/MOL
REMARK 923 INTER-LIGAND FREE ENERGY PREDICTED BY IDOCK:   -5.45 KCAL/MOL
REMARK 924 INTRA-LIGAND FREE ENERGY PREDICTED BY IDOCK:   -0.32 KCAL/MOL
REMARK 927      BINDING AFFINITY PREDICTED BY RF-SCORE:    0.00 PKD
ROOT
HETATM    1  C   UNL     1     -10.972  14.444  66.164  1.00  0.00    -0.320 C  
HETATM    2  C   UNL     1     -11.156  14.365  67.674  1.00  0.00    -0.311 C  
ENDROOT
BRANCH   2   3
HETATM    3  C   UNL     1     -10.671  13.018  68.207  1.00  0.00    -0.261 C  
BRANCH   3   4
HETATM    4  C   UNL     1     -11.767  12.173  68.861  1.00  0.00    -0.381 C  
HETATM    5  C   UNL     1     -11.310  10.850  69.455  1.00  0.00    -0.280 C  
HETATM    6  N   UNL     1     -12.258  10.602  70.518  1.00  0.00    -0.328 N  
HETATM    7  C   UNL     1     -12.640  11.808  71.072  1.00  0.00    -0.310 C  
HETATM    8  O   UNL     1     -13.166  11.988  72.160  1.00  0.00    -0.495 OA 
HETATM    9  C   UNL     1     -12.380  12.903  70.063  1.00  0.00    -0.199 C  
BRANCH   6  10
HETATM   10  C   UNL     1     -12.353   9.269  71.147  1.00  0.00    -0.293 C  
BRANCH  10  11
HETATM   11  C   UNL     1     -11.231   8.946  72.151  1.00  0.00    -0.362 C  
HETATM   12  C   UNL     1     -11.133   7.482  72.539  1.00  0.00    -0.371 C  
ENDBRANCH  10  11
BRANCH  10  13
HETATM   13  C   UNL     1     -13.721   8.706  71.643  1.00  0.00    -0.384 C  
HETATM   14  N   UNL     1     -14.360   7.769  70.891  1.00  0.00    -0.580 N  
HETATM   15  O   UNL     1     -14.211   9.035  72.723  1.00  0.00    -0.572 OA 
HETATM   16  H1  UNL     1     -15.254   7.402  71.216  1.00  0.00     0.000 HD 
HETATM   17  H2  UNL     1     -13.951   7.440  70.017  1.00  0.00     0.000 HD 
ENDBRANCH  10  13
ENDBRANCH   6  10
ENDBRANCH   3   4
ENDBRANCH   2   3
TORSDOF 5
ENDMDL
MODEL       66
REMARK 921   NORMALIZED FREE ENERGY PREDICTED BY IDOCK:   -4.01 KCAL/MOL
REMARK 922        TOTAL FREE ENERGY PREDICTED BY IDOCK:   -5.74 KCAL/MOL
REMARK 923 INTER-LIGAND FREE ENERGY PREDICTED BY IDOCK:   -5.23 KCAL/MOL
REMARK 924 INTRA-LIGAND FREE ENERGY PREDICTED BY IDOCK:   -0.51 KCAL/MOL
REMARK 927      BINDING AFFINITY PREDICTED BY RF-SCORE:    0.00 PKD
ROOT
HETATM    1  C   UNL     1     -10.607   7.687  67.046  1.00  0.00    -0.406 C  
HETATM    2  C   UNL     1     -10.039   8.919  67.737  1.00  0.00    -0.263 C  
ENDROOT
BRANCH   2   3
HETATM    3  C   UNL     1     -10.146  10.144  66.830  1.00  0.00    -0.277 C  
BRANCH   3   4
HETATM    4  C   UNL     1     -11.271  11.109  67.213  1.00  0.00    -0.347 C  
HETATM    5  C   UNL     1     -10.983  12.013  68.402  1.00  0.00    -0.237 C  
HETATM    6  N   UNL     1     -11.793  13.184  68.149  1.00  0.00    -0.352 N  
HETATM    7  C   UNL     1     -11.861  13.401  66.787  1.00  0.00    -0.403 C  
HETATM    8  O   UNL     1     -12.179  14.435  66.217  1.00  0.00    -0.412 OA 
HETATM    9  C   UNL     1     -11.555  12.102  66.079  1.00  0.00    -0.420 C  
BRANCH   6  10
HETATM   10  C   UNL     1     -12.040  14.174  69.217  1.00  0.00    -0.324 C  
BRANCH  10  11
HETATM   11  C   UNL     1     -12.384  13.571  70.591  1.00  0.00    -0.432 C  
HETATM   12  C   UNL     1     -13.416  14.353  71.383  1.00  0.00    -0.422 C  
ENDBRANCH  10  11
BRANCH  10  13
HETATM   13  C   UNL     1     -11.133  15.434  69.375  1.00  0.00    -0.282 C  
HETATM   14  N   UNL     1     -11.219  16.428  68.450  1.00  0.00    -0.361 N  
HETATM   15  O   UNL     1     -10.387  15.587  70.342  1.00  0.00    -0.293 OA 
HETATM   16  H1  UNL     1     -10.627  17.251  68.554  1.00  0.00     0.000 HD 
HETATM   17  H2  UNL     1     -11.867  16.352  67.666  1.00  0.00     0.000 HD 
ENDBRANCH  10  13
ENDBRANCH   6  10
ENDBRANCH   3   4
ENDBRANCH   2   3
TORSDOF 5
ENDMDL
MODEL       67
REMARK 921   NORMALIZED FREE ENERGY PREDICTED BY IDOCK:   -3.99 KCAL/MOL
REMARK 922        TOTAL FREE ENERGY PREDICTED BY IDOCK:   -5.71 KCAL/MOL
REMARK 923 INTER-LIGAND FREE ENERGY PREDICTED BY IDOCK:   -5.30 KCAL/MOL
REMARK 924 INTRA-LIGAND FREE ENERGY PREDICTED BY IDOCK:   -0.41 KCAL/MOL
REMARK 927      BINDING AFFINITY PREDICTED BY RF-SCORE:    0.00 PKD
ROOT
HETATM    1  C   UNL     1     -11.275   9.159  71.612  1.00  0.00    -0.447 C  
HETATM    2  C   UNL     1     -11.295  10.258  70.557  1.00  0.00    -0.422 C  
ENDROOT
BRANCH   2   3
HETATM    3  C   UNL     1     -10.408   9.883  69.371  1.00  0.00    -0.238 C  
BRANCH   3   4
HETATM    4  C   UNL     1     -11.028  10.194  68.005  1.00  0.00    -0.326 C  
HETATM    5  C   UNL     1     -10.930  11.643  67.556  1.00  0.00    -0.259 C  
HETATM    6  N   UNL     1     -10.931  11.558  66.112  1.00  0.00    -0.286 N  
HETATM    7  C   UNL     1     -10.283  10.400  65.728  1.00  0.00    -0.235 C  
HETATM    8  O   UNL     1      -9.820  10.142  64.627  1.00  0.00    -0.324 OA 
HETATM    9  C   UNL     1     -10.306   9.431  66.887  1.00  0.00    -0.308 C  
BRANCH   6  10
HETATM   10  C   UNL     1     -11.158  12.761  65.286  1.00  0.00    -0.287 C  
BRANCH  10  11
HETATM   11  C   UNL     1     -12.534  12.824  64.599  1.00  0.00    -0.525 C  
HETATM   12  C   UNL     1     -12.686  11.902  63.403  1.00  0.00    -0.496 C  
ENDBRANCH  10  11
BRANCH  10  13
HETATM   13  C   UNL     1     -10.719  14.175  65.780  1.00  0.00    -0.299 C  
HETATM   14  N   UNL     1      -9.414  14.537  65.665  1.00  0.00    -0.534 N  
HETATM   15  O   UNL     1     -11.527  14.996  66.214  1.00  0.00    -0.314 OA 
HETATM   16  H1  UNL     1      -9.128  15.461  65.988  1.00  0.00     0.000 HD 
HETATM   17  H2  UNL     1      -8.731  13.896  65.261  1.00  0.00     0.000 HD 
ENDBRANCH  10  13
ENDBRANCH   6  10
ENDBRANCH   3   4
ENDBRANCH   2   3
TORSDOF 5
ENDMDL
MODEL       68
REMARK 921   NORMALIZED FREE ENERGY PREDICTED BY IDOCK:   -3.99 KCAL/MOL
REMARK 922        TOTAL FREE ENERGY PREDICTED BY IDOCK:   -5.71 KCAL/MOL
REMARK 923 INTER-LIGAND FREE ENERGY PREDICTED BY IDOCK:   -5.23 KCAL/MOL
REMARK 924 INTRA-LIGAND FREE ENERGY PREDICTED BY IDOCK:   -0.47 KCAL/MOL
REMARK 927      BINDING AFFINITY PREDICTED BY RF-SCORE:    0.00 PKD
ROOT
HETATM    1  C   UNL     1      -9.621   9.135  66.256  1.00  0.00    -0.321 C  
HETATM    2  C   UNL     1     -10.128  10.567  66.132  1.00  0.00    -0.306 C  
ENDROOT
BRANCH   2   3
HETATM    3  C   UNL     1     -11.110  10.890  67.257  1.00  0.00    -0.350 C  
BRANCH   3   4
HETATM    4  C   UNL     1     -11.683  12.308  67.198  1.00  0.00    -0.396 C  
HETATM    5  C   UNL     1     -10.719  13.422  67.575  1.00  0.00    -0.254 C  
HETATM    6  N   UNL     1     -11.205  14.566  66.836  1.00  0.00    -0.326 N  
HETATM    7  C   UNL     1     -11.734  14.135  65.635  1.00  0.00    -0.357 C  
HETATM    8  O   UNL     1     -11.948  14.808  64.637  1.00  0.00    -0.434 OA 
HETATM    9  C   UNL     1     -12.099  12.675  65.768  1.00  0.00    -0.484 C  
BRANCH   6  10
HETATM   10  C   UNL     1     -10.733  15.928  67.158  1.00  0.00    -0.301 C  
BRANCH  10  11
HETATM   11  C   UNL     1     -10.490  16.190  68.655  1.00  0.00    -0.269 C  
HETATM   12  C   UNL     1     -10.370  17.657  69.028  1.00  0.00    -0.272 C  
ENDBRANCH  10  11
BRANCH  10  13
HETATM   13  C   UNL     1      -9.648  16.634  66.287  1.00  0.00    -0.299 C  
HETATM   14  N   UNL     1      -8.364  16.191  66.348  1.00  0.00    -0.312 N  
HETATM   15  O   UNL     1      -9.928  17.537  65.499  1.00  0.00    -0.552 OA 
HETATM   16  H1  UNL     1      -7.655  16.653  65.778  1.00  0.00     0.000 HD 
HETATM   17  H2  UNL     1      -8.113  15.409  66.953  1.00  0.00     0.000 HD 
ENDBRANCH  10  13
ENDBRANCH   6  10
ENDBRANCH   3   4
ENDBRANCH   2   3
TORSDOF 5
ENDMDL
MODEL       69
REMARK 921   NORMALIZED FREE ENERGY PREDICTED BY IDOCK:   -3.97 KCAL/MOL
REMARK 922        TOTAL FREE ENERGY PREDICTED BY IDOCK:   -5.69 KCAL/MOL
REMARK 923 INTER-LIGAND FREE ENERGY PREDICTED BY IDOCK:   -5.43 KCAL/MOL
REMARK 924 INTRA-LIGAND FREE ENERGY PREDICTED BY IDOCK:   -0.26 KCAL/MOL
REMARK 927      BINDING AFFINITY PREDICTED BY RF-SCORE:    0.00 PKD
ROOT
HETATM    1  C   UNL     1      -8.616  10.567  65.961  1.00  0.00    -0.166 C  
HETATM    2  C   UNL     1     -10.124  10.358  66.012  1.00  0.00    -0.307 C  
ENDROOT
BRANCH   2   3
HETATM    3  C   UNL     1     -10.604  10.249  67.458  1.00  0.00    -0.320 C  
BRANCH   3   4
HETATM    4  C   UNL     1     -11.654  11.293  67.849  1.00  0.00    -0.330 C  
HETATM    5  C   UNL     1     -11.467  11.931  69.217  1.00  0.00    -0.306 C  
HETATM    6  N   UNL     1     -12.075  13.236  69.075  1.00  0.00    -0.283 N  
HETATM    7  C   UNL     1     -11.882  13.686  67.784  1.00  0.00    -0.368 C  
HETATM    8  O   UNL     1     -11.971  14.836  67.381  1.00  0.00    -0.357 OA 
HETATM    9  C   UNL     1     -11.618  12.493  66.895  1.00  0.00    -0.436 C  
BRANCH   6  10
HETATM   10  C   UNL     1     -12.379  14.058  70.264  1.00  0.00    -0.358 C  
BRANCH  10  11
HETATM   11  C   UNL     1     -12.852  13.265  71.496  1.00  0.00    -0.419 C  
HETATM   12  C   UNL     1     -13.653  14.074  72.499  1.00  0.00    -0.670 C  
ENDBRANCH  10  11
BRANCH  10  13
HETATM   13  C   UNL     1     -11.453  15.240  70.687  1.00  0.00    -0.319 C  
HETATM   14  N   UNL     1     -10.106  15.099  70.561  1.00  0.00    -0.419 N  
HETATM   15  O   UNL     1     -11.903  16.319  71.072  1.00  0.00    -0.373 OA 
HETATM   16  H1  UNL     1      -9.500  15.871  70.838  1.00  0.00     0.000 HD 
HETATM   17  H2  UNL     1      -9.707  14.234  70.196  1.00  0.00     0.000 HD 
ENDBRANCH  10  13
ENDBRANCH   6  10
ENDBRANCH   3   4
ENDBRANCH   2   3
TORSDOF 5
ENDMDL
MODEL       70
REMARK 921   NORMALIZED FREE ENERGY PREDICTED BY IDOCK:   -3.95 KCAL/MOL
REMARK 922        TOTAL FREE ENERGY PREDICTED BY IDOCK:   -5.65 KCAL/MOL
REMARK 923 INTER-LIGAND FREE ENERGY PREDICTED BY IDOCK:   -5.18 KCAL/MOL
REMARK 924 INTRA-LIGAND FREE ENERGY PREDICTED BY IDOCK:   -0.47 KCAL/MOL
REMARK 927      BINDING AFFINITY PREDICTED BY RF-SCORE:    0.00 PKD
ROOT
HETATM    1  C   UNL     1      -8.944   9.289  68.549  1.00  0.00    -0.129 C  
HETATM    2  C   UNL     1      -7.756   9.419  67.604  1.00  0.00    -0.088 C  
ENDROOT
BRANCH   2   3
HETATM    3  C   UNL     1      -7.988  10.548  66.600  1.00  0.00    -0.125 C  
BRANCH   3   4
HETATM    4  C   UNL     1      -9.431  11.059  66.556  1.00  0.00    -0.211 C  
HETATM    5  C   UNL     1      -9.592  12.571  66.565  1.00  0.00    -0.242 C  
HETATM    6  N   UNL     1     -10.841  12.790  65.872  1.00  0.00    -0.265 N  
HETATM    7  C   UNL     1     -10.989  11.826  64.893  1.00  0.00    -0.300 C  
HETATM    8  O   UNL     1     -11.735  11.863  63.925  1.00  0.00    -0.403 OA 
HETATM    9  C   UNL     1     -10.123  10.641  65.253  1.00  0.00    -0.363 C  
BRANCH   6  10
HETATM   10  C   UNL     1     -11.517  14.102  65.931  1.00  0.00    -0.338 C  
BRANCH  10  11
HETATM   11  C   UNL     1     -11.241  14.913  67.210  1.00  0.00    -0.348 C  
HETATM   12  C   UNL     1     -11.952  14.400  68.450  1.00  0.00    -0.328 C  
ENDBRANCH  10  11
BRANCH  10  13
HETATM   13  C   UNL     1     -11.578  15.036  64.683  1.00  0.00    -0.386 C  
HETATM   14  N   UNL     1     -12.477  14.765  63.700  1.00  0.00    -1.051 N  
HETATM   15  O   UNL     1     -10.882  16.048  64.589  1.00  0.00    -0.608 OA 
HETATM   16  H1  UNL     1     -12.517  15.376  62.884  1.00  0.00     0.000 HD 
HETATM   17  H2  UNL     1     -13.103  13.962  63.776  1.00  0.00     0.000 HD 
ENDBRANCH  10  13
ENDBRANCH   6  10
ENDBRANCH   3   4
ENDBRANCH   2   3
TORSDOF 5
ENDMDL
MODEL       71
REMARK 921   NORMALIZED FREE ENERGY PREDICTED BY IDOCK:   -3.92 KCAL/MOL
REMARK 922        TOTAL FREE ENERGY PREDICTED BY IDOCK:   -5.62 KCAL/MOL
REMARK 923 INTER-LIGAND FREE ENERGY PREDICTED BY IDOCK:   -5.17 KCAL/MOL
REMARK 924 INTRA-LIGAND FREE ENERGY PREDICTED BY IDOCK:   -0.44 KCAL/MOL
REMARK 927      BINDING AFFINITY PREDICTED BY RF-SCORE:    0.00 PKD
ROOT
HETATM    1  C   UNL     1     -12.893  15.598  72.229  1.00  0.00    -0.523 C  
HETATM    2  C   UNL     1     -13.160  15.246  70.772  1.00  0.00    -0.468 C  
ENDROOT
BRANCH   2   3
HETATM    3  C   UNL     1     -11.986  15.673  69.891  1.00  0.00    -0.376 C  
BRANCH   3   4
HETATM    4  C   UNL     1     -11.302  14.515  69.158  1.00  0.00    -0.305 C  
HETATM    5  C   UNL     1     -11.591  13.128  69.708  1.00  0.00    -0.221 C  
HETATM    6  N   UNL     1     -11.442  12.262  68.559  1.00  0.00    -0.277 N  
HETATM    7  C   UNL     1     -11.855  12.940  67.428  1.00  0.00    -0.360 C  
HETATM    8  O   UNL     1     -12.165  12.457  66.349  1.00  0.00    -0.604 OA 
HETATM    9  C   UNL     1     -11.783  14.423  67.704  1.00  0.00    -0.421 C  
BRANCH   6  10
HETATM   10  C   UNL     1     -11.338  10.799  68.726  1.00  0.00    -0.288 C  
BRANCH  10  11
HETATM   11  C   UNL     1     -10.192  10.138  67.938  1.00  0.00    -0.217 C  
HETATM   12  C   UNL     1     -10.642   9.262  66.783  1.00  0.00    -0.207 C  
ENDBRANCH  10  11
BRANCH  10  13
HETATM   13  C   UNL     1     -11.506  10.131  70.126  1.00  0.00    -0.296 C  
HETATM   14  N   UNL     1     -10.398   9.883  70.875  1.00  0.00    -0.349 N  
HETATM   15  O   UNL     1     -12.613   9.879  70.603  1.00  0.00    -0.260 OA 
HETATM   16  H1  UNL     1     -10.508   9.447  71.790  1.00  0.00     0.000 HD 
HETATM   17  H2  UNL     1      -9.471  10.130  70.527  1.00  0.00     0.000 HD 
ENDBRANCH  10  13
ENDBRANCH   6  10
ENDBRANCH   3   4
ENDBRANCH   2   3
TORSDOF 5
ENDMDL
MODEL       72
REMARK 921   NORMALIZED FREE ENERGY PREDICTED BY IDOCK:   -3.90 KCAL/MOL
REMARK 922        TOTAL FREE ENERGY PREDICTED BY IDOCK:   -5.59 KCAL/MOL
REMARK 923 INTER-LIGAND FREE ENERGY PREDICTED BY IDOCK:   -5.23 KCAL/MOL
REMARK 924 INTRA-LIGAND FREE ENERGY PREDICTED BY IDOCK:   -0.37 KCAL/MOL
REMARK 927      BINDING AFFINITY PREDICTED BY RF-SCORE:    0.00 PKD
ROOT
HETATM    1  C   UNL     1     -13.952   8.478  71.798  1.00  0.00    -0.491 C  
HETATM    2  C   UNL     1     -13.204   9.777  72.068  1.00  0.00    -0.557 C  
ENDROOT
BRANCH   2   3
HETATM    3  C   UNL     1     -11.776   9.699  71.531  1.00  0.00    -0.472 C  
BRANCH   3   4
HETATM    4  C   UNL     1     -11.624  10.190  70.088  1.00  0.00    -0.350 C  
HETATM    5  C   UNL     1     -12.063  11.624  69.834  1.00  0.00    -0.301 C  
HETATM    6  N   UNL     1     -11.250  12.041  68.713  1.00  0.00    -0.243 N  
HETATM    7  C   UNL     1     -10.015  11.428  68.799  1.00  0.00    -0.177 C  
HETATM    8  O   UNL     1      -8.984  11.760  68.233  1.00  0.00    -0.171 OA 
HETATM    9  C   UNL     1     -10.151  10.194  69.661  1.00  0.00    -0.265 C  
BRANCH   6  10
HETATM   10  C   UNL     1     -11.580  13.266  67.957  1.00  0.00    -0.336 C  
BRANCH  10  11
HETATM   11  C   UNL     1     -10.949  14.557  68.510  1.00  0.00    -0.261 C  
HETATM   12  C   UNL     1     -11.672  15.151  69.705  1.00  0.00    -0.347 C  
ENDBRANCH  10  11
BRANCH  10  13
HETATM   13  C   UNL     1     -11.585  13.275  66.397  1.00  0.00    -0.347 C  
HETATM   14  N   UNL     1     -10.833  14.198  65.741  1.00  0.00    -0.290 N  
HETATM   15  O   UNL     1     -12.199  12.434  65.740  1.00  0.00    -0.620 OA 
HETATM   16  H1  UNL     1     -10.837  14.204  64.721  1.00  0.00     0.000 HD 
HETATM   17  H2  UNL     1     -10.273  14.875  66.260  1.00  0.00     0.000 HD 
ENDBRANCH  10  13
ENDBRANCH   6  10
ENDBRANCH   3   4
ENDBRANCH   2   3
TORSDOF 5
ENDMDL
MODEL       73
REMARK 921   NORMALIZED FREE ENERGY PREDICTED BY IDOCK:   -3.89 KCAL/MOL
REMARK 922        TOTAL FREE ENERGY PREDICTED BY IDOCK:   -5.58 KCAL/MOL
REMARK 923 INTER-LIGAND FREE ENERGY PREDICTED BY IDOCK:   -5.29 KCAL/MOL
REMARK 924 INTRA-LIGAND FREE ENERGY PREDICTED BY IDOCK:   -0.29 KCAL/MOL
REMARK 927      BINDING AFFINITY PREDICTED BY RF-SCORE:    0.00 PKD
ROOT
HETATM    1  C   UNL     1     -12.833  14.720  71.088  1.00  0.00    -0.406 C  
HETATM    2  C   UNL     1     -12.055  14.787  69.780  1.00  0.00    -0.364 C  
ENDROOT
BRANCH   2   3
HETATM    3  C   UNL     1     -12.009  13.415  69.109  1.00  0.00    -0.363 C  
BRANCH   3   4
HETATM    4  C   UNL     1     -10.871  13.253  68.096  1.00  0.00    -0.270 C  
HETATM    5  C   UNL     1     -10.911  11.981  67.264  1.00  0.00    -0.246 C  
HETATM    6  N   UNL     1     -10.240  12.350  66.037  1.00  0.00    -0.240 N  
HETATM    7  C   UNL     1     -10.509  13.675  65.757  1.00  0.00    -0.293 C  
HETATM    8  O   UNL     1     -10.385  14.244  64.682  1.00  0.00    -0.417 OA 
HETATM    9  C   UNL     1     -10.912  14.364  67.040  1.00  0.00    -0.304 C  
BRANCH   6  10
HETATM   10  C   UNL     1      -9.794  11.316  65.082  1.00  0.00    -0.252 C  
BRANCH  10  11
HETATM   11  C   UNL     1      -9.866   9.872  65.612  1.00  0.00    -0.368 C  
HETATM   12  C   UNL     1      -8.517   9.218  65.850  1.00  0.00    -0.141 C  
ENDBRANCH  10  11
BRANCH  10  13
HETATM   13  C   UNL     1     -10.202  11.376  63.577  1.00  0.00    -0.413 C  
HETATM   14  N   UNL     1     -11.522  11.443  63.255  1.00  0.00    -0.852 N  
HETATM   15  O   UNL     1      -9.367  11.428  62.674  1.00  0.00    -0.361 OA 
HETATM   16  H1  UNL     1     -11.788  11.482  62.271  1.00  0.00     0.000 HD 
HETATM   17  H2  UNL     1     -12.234  11.454  63.985  1.00  0.00     0.000 HD 
ENDBRANCH  10  13
ENDBRANCH   6  10
ENDBRANCH   3   4
ENDBRANCH   2   3
TORSDOF 5
ENDMDL
MODEL       74
REMARK 921   NORMALIZED FREE ENERGY PREDICTED BY IDOCK:   -3.88 KCAL/MOL
REMARK 922        TOTAL FREE ENERGY PREDICTED BY IDOCK:   -5.57 KCAL/MOL
REMARK 923 INTER-LIGAND FREE ENERGY PREDICTED BY IDOCK:   -5.34 KCAL/MOL
REMARK 924 INTRA-LIGAND FREE ENERGY PREDICTED BY IDOCK:   -0.23 KCAL/MOL
REMARK 927      BINDING AFFINITY PREDICTED BY RF-SCORE:    0.00 PKD
ROOT
HETATM    1  C   UNL     1     -12.354  12.194  63.640  1.00  0.00    -0.673 C  
HETATM    2  C   UNL     1     -11.274  12.163  64.714  1.00  0.00    -0.373 C  
ENDROOT
BRANCH   2   3
HETATM    3  C   UNL     1     -10.427  13.434  64.663  1.00  0.00    -0.428 C  
BRANCH   3   4
HETATM    4  C   UNL     1     -11.035  14.620  65.418  1.00  0.00    -0.358 C  
HETATM    5  C   UNL     1     -10.191  15.177  66.553  1.00  0.00    -0.276 C  
HETATM    6  N   UNL     1     -10.587  16.566  66.629  1.00  0.00    -0.262 N  
HETATM    7  C   UNL     1     -10.888  17.019  65.360  1.00  0.00    -0.073 C  
HETATM    8  O   UNL     1     -10.956  18.182  64.986  1.00  0.00    -0.726 OA 
HETATM    9  C   UNL     1     -11.216  15.828  64.490  1.00  0.00    -0.334 C  
BRANCH   6  10
HETATM   10  C   UNL     1     -10.228  17.389  67.802  1.00  0.00    -0.345 C  
BRANCH  10  11
HETATM   11  C   UNL     1     -10.437  16.701  69.163  1.00  0.00    -0.333 C  
HETATM   12  C   UNL     1     -11.752  15.957  69.300  1.00  0.00    -0.360 C  
ENDBRANCH  10  11
BRANCH  10  13
HETATM   13  C   UNL     1      -8.933  18.259  67.812  1.00  0.00    -0.267 C  
HETATM   14  N   UNL     1      -8.990  19.520  68.318  1.00  0.00    -0.329 N  
HETATM   15  O   UNL     1      -7.847  17.819  67.434  1.00  0.00    -0.203 OA 
HETATM   16  H1  UNL     1      -8.143  20.088  68.324  1.00  0.00     0.000 HD 
HETATM   17  H2  UNL     1      -9.865  19.892  68.686  1.00  0.00     0.000 HD 
ENDBRANCH  10  13
ENDBRANCH   6  10
ENDBRANCH   3   4
ENDBRANCH   2   3
TORSDOF 5
ENDMDL
MODEL       75
REMARK 921   NORMALIZED FREE ENERGY PREDICTED BY IDOCK:   -3.87 KCAL/MOL
REMARK 922        TOTAL FREE ENERGY PREDICTED BY IDOCK:   -5.56 KCAL/MOL
REMARK 923 INTER-LIGAND FREE ENERGY PREDICTED BY IDOCK:   -5.19 KCAL/MOL
REMARK 924 INTRA-LIGAND FREE ENERGY PREDICTED BY IDOCK:   -0.37 KCAL/MOL
REMARK 927      BINDING AFFINITY PREDICTED BY RF-SCORE:    0.00 PKD
ROOT
HETATM    1  C   UNL     1     -11.579  14.344  66.827  1.00  0.00    -0.399 C  
HETATM    2  C   UNL     1     -11.870  14.000  68.282  1.00  0.00    -0.406 C  
ENDROOT
BRANCH   2   3
HETATM    3  C   UNL     1     -10.877  12.960  68.799  1.00  0.00    -0.277 C  
BRANCH   3   4
HETATM    4  C   UNL     1     -11.511  11.611  69.150  1.00  0.00    -0.364 C  
HETATM    5  C   UNL     1     -10.555  10.557  69.686  1.00  0.00    -0.242 C  
HETATM    6  N   UNL     1     -11.391   9.726  70.523  1.00  0.00    -0.291 N  
HETATM    7  C   UNL     1     -12.363  10.511  71.111  1.00  0.00    -0.405 C  
HETATM    8  O   UNL     1     -13.037  10.241  72.094  1.00  0.00    -0.438 OA 
HETATM    9  C   UNL     1     -12.535  11.762  70.282  1.00  0.00    -0.237 C  
BRANCH   6  10
HETATM   10  C   UNL     1     -10.917   8.407  70.989  1.00  0.00    -0.246 C  
BRANCH  10  11
HETATM   11  C   UNL     1     -10.209   8.420  72.356  1.00  0.00    -0.399 C  
HETATM   12  C   UNL     1      -8.920   7.619  72.408  1.00  0.00    -0.187 C  
ENDBRANCH  10  11
BRANCH  10  13
HETATM   13  C   UNL     1     -11.800   7.130  70.833  1.00  0.00    -0.339 C  
HETATM   14  N   UNL     1     -11.825   6.488  69.635  1.00  0.00    -0.610 N  
HETATM   15  O   UNL     1     -12.427   6.649  71.777  1.00  0.00    -0.352 OA 
HETATM   16  H1  UNL     1     -12.402   5.653  69.533  1.00  0.00     0.000 HD 
HETATM   17  H2  UNL     1     -11.274   6.835  68.849  1.00  0.00     0.000 HD 
ENDBRANCH  10  13
ENDBRANCH   6  10
ENDBRANCH   3   4
ENDBRANCH   2   3
TORSDOF 5
ENDMDL
MODEL       76
REMARK 921   NORMALIZED FREE ENERGY PREDICTED BY IDOCK:   -3.86 KCAL/MOL
REMARK 922        TOTAL FREE ENERGY PREDICTED BY IDOCK:   -5.54 KCAL/MOL
REMARK 923 INTER-LIGAND FREE ENERGY PREDICTED BY IDOCK:   -5.37 KCAL/MOL
REMARK 924 INTRA-LIGAND FREE ENERGY PREDICTED BY IDOCK:   -0.17 KCAL/MOL
REMARK 927      BINDING AFFINITY PREDICTED BY RF-SCORE:    0.00 PKD
ROOT
HETATM    1  C   UNL     1     -10.774   7.096  66.978  1.00  0.00    -0.420 C  
HETATM    2  C   UNL     1     -10.138   8.471  66.818  1.00  0.00    -0.369 C  
ENDROOT
BRANCH   2   3
HETATM    3  C   UNL     1     -10.605   9.413  67.927  1.00  0.00    -0.293 C  
BRANCH   3   4
HETATM    4  C   UNL     1     -10.357  10.895  67.633  1.00  0.00    -0.232 C  
HETATM    5  C   UNL     1     -10.647  11.338  66.208  1.00  0.00    -0.263 C  
HETATM    6  N   UNL     1     -10.994  12.735  66.344  1.00  0.00    -0.271 N  
HETATM    7  C   UNL     1     -11.646  12.923  67.547  1.00  0.00    -0.356 C  
HETATM    8  O   UNL     1     -12.348  13.871  67.867  1.00  0.00    -0.245 OA 
HETATM    9  C   UNL     1     -11.284  11.785  68.472  1.00  0.00    -0.306 C  
BRANCH   6  10
HETATM   10  C   UNL     1     -11.047  13.618  65.161  1.00  0.00    -0.318 C  
BRANCH  10  11
HETATM   11  C   UNL     1     -12.353  13.532  64.349  1.00  0.00    -0.391 C  
HETATM   12  C   UNL     1     -12.640  12.164  63.757  1.00  0.00    -0.585 C  
ENDBRANCH  10  11
BRANCH  10  13
HETATM   13  C   UNL     1     -10.529  15.088  65.225  1.00  0.00    -0.403 C  
HETATM   14  N   UNL     1      -9.515  15.392  66.079  1.00  0.00    -0.330 N  
HETATM   15  O   UNL     1     -10.965  15.969  64.483  1.00  0.00    -0.592 OA 
HETATM   16  H1  UNL     1      -9.177  16.354  66.121  1.00  0.00     0.000 HD 
HETATM   17  H2  UNL     1      -9.099  14.671  66.668  1.00  0.00     0.000 HD 
ENDBRANCH  10  13
ENDBRANCH   6  10
ENDBRANCH   3   4
ENDBRANCH   2   3
TORSDOF 5
ENDMDL
MODEL       77
REMARK 921   NORMALIZED FREE ENERGY PREDICTED BY IDOCK:   -3.85 KCAL/MOL
REMARK 922        TOTAL FREE ENERGY PREDICTED BY IDOCK:   -5.53 KCAL/MOL
REMARK 923 INTER-LIGAND FREE ENERGY PREDICTED BY IDOCK:   -5.72 KCAL/MOL
REMARK 924 INTRA-LIGAND FREE ENERGY PREDICTED BY IDOCK:    0.20 KCAL/MOL
REMARK 927      BINDING AFFINITY PREDICTED BY RF-SCORE:    0.00 PKD
ROOT
HETATM    1  C   UNL     1     -13.868  14.652  72.069  1.00  0.00    -0.557 C  
HETATM    2  C   UNL     1     -12.515  14.527  71.379  1.00  0.00    -0.423 C  
ENDROOT
BRANCH   2   3
HETATM    3  C   UNL     1     -12.410  13.195  70.636  1.00  0.00    -0.405 C  
BRANCH   3   4
HETATM    4  C   UNL     1     -11.537  13.248  69.379  1.00  0.00    -0.364 C  
HETATM    5  C   UNL     1     -11.819  12.175  68.339  1.00  0.00    -0.303 C  
HETATM    6  N   UNL     1     -11.424  12.791  67.092  1.00  0.00    -0.318 N  
HETATM    7  C   UNL     1     -11.689  14.145  67.154  1.00  0.00    -0.403 C  
HETATM    8  O   UNL     1     -11.783  14.924  66.216  1.00  0.00    -0.297 OA 
HETATM    9  C   UNL     1     -11.764  14.554  68.606  1.00  0.00    -0.364 C  
BRANCH   6  10
HETATM   10  C   UNL     1     -11.250  11.978  65.871  1.00  0.00    -0.337 C  
BRANCH  10  11
HETATM   11  C   UNL     1     -11.480  12.736  64.551  1.00  0.00    -0.389 C  
HETATM   12  C   UNL     1     -12.373  12.017  63.556  1.00  0.00    -0.661 C  
ENDBRANCH  10  11
BRANCH  10  13
HETATM   13  C   UNL     1     -10.067  10.970  65.734  1.00  0.00    -0.252 C  
HETATM   14  N   UNL     1      -8.912  11.385  65.148  1.00  0.00    -0.393 N  
HETATM   15  O   UNL     1     -10.122   9.830  66.195  1.00  0.00    -0.257 OA 
HETATM   16  H1  UNL     1      -8.139  10.726  65.058  1.00  0.00     0.000 HD 
HETATM   17  H2  UNL     1      -8.820  12.341  64.803  1.00  0.00     0.000 HD 
ENDBRANCH  10  13
ENDBRANCH   6  10
ENDBRANCH   3   4
ENDBRANCH   2   3
TORSDOF 5
ENDMDL
MODEL       78
REMARK 921   NORMALIZED FREE ENERGY PREDICTED BY IDOCK:   -3.84 KCAL/MOL
REMARK 922        TOTAL FREE ENERGY PREDICTED BY IDOCK:   -5.52 KCAL/MOL
REMARK 923 INTER-LIGAND FREE ENERGY PREDICTED BY IDOCK:   -5.08 KCAL/MOL
REMARK 924 INTRA-LIGAND FREE ENERGY PREDICTED BY IDOCK:   -0.44 KCAL/MOL
REMARK 927      BINDING AFFINITY PREDICTED BY RF-SCORE:    0.00 PKD
ROOT
HETATM    1  C   UNL     1     -11.533  11.358  67.412  1.00  0.00    -0.328 C  
HETATM    2  C   UNL     1     -11.758  12.561  68.320  1.00  0.00    -0.390 C  
ENDROOT
BRANCH   2   3
HETATM    3  C   UNL     1     -11.709  12.143  69.789  1.00  0.00    -0.381 C  
BRANCH   3   4
HETATM    4  C   UNL     1     -12.071  10.675  70.034  1.00  0.00    -0.393 C  
HETATM    5  C   UNL     1     -10.957   9.812  70.606  1.00  0.00    -0.331 C  
HETATM    6  N   UNL     1     -11.660   8.782  71.338  1.00  0.00    -0.280 N  
HETATM    7  C   UNL     1     -12.815   9.317  71.873  1.00  0.00    -0.404 C  
HETATM    8  O   UNL     1     -13.489   8.861  72.786  1.00  0.00    -0.408 OA 
HETATM    9  C   UNL     1     -13.184  10.550  71.082  1.00  0.00    -0.358 C  
BRANCH   6  10
HETATM   10  C   UNL     1     -10.957   7.564  71.790  1.00  0.00    -0.234 C  
BRANCH  10  11
HETATM   11  C   UNL     1     -10.246   6.776  70.674  1.00  0.00    -0.216 C  
HETATM   12  C   UNL     1     -11.178   6.035  69.733  1.00  0.00    -0.440 C  
ENDBRANCH  10  11
BRANCH  10  13
HETATM   13  C   UNL     1     -10.107   7.561  73.099  1.00  0.00    -0.308 C  
HETATM   14  N   UNL     1      -8.966   8.299  73.145  1.00  0.00    -0.251 N  
HETATM   15  O   UNL     1     -10.469   6.962  74.112  1.00  0.00    -0.357 OA 
HETATM   16  H1  UNL     1      -8.411   8.296  74.001  1.00  0.00     0.000 HD 
HETATM   17  H2  UNL     1      -8.669   8.847  72.337  1.00  0.00     0.000 HD 
ENDBRANCH  10  13
ENDBRANCH   6  10
ENDBRANCH   3   4
ENDBRANCH   2   3
TORSDOF 5
ENDMDL
MODEL       79
REMARK 921   NORMALIZED FREE ENERGY PREDICTED BY IDOCK:   -3.83 KCAL/MOL
REMARK 922        TOTAL FREE ENERGY PREDICTED BY IDOCK:   -5.51 KCAL/MOL
REMARK 923 INTER-LIGAND FREE ENERGY PREDICTED BY IDOCK:   -5.13 KCAL/MOL
REMARK 924 INTRA-LIGAND FREE ENERGY PREDICTED BY IDOCK:   -0.37 KCAL/MOL
REMARK 927      BINDING AFFINITY PREDICTED BY RF-SCORE:    0.00 PKD
ROOT
HETATM    1  C   UNL     1     -12.849   7.291  71.486  1.00  0.00    -0.430 C  
HETATM    2  C   UNL     1     -12.063   8.595  71.438  1.00  0.00    -0.351 C  
ENDROOT
BRANCH   2   3
HETATM    3  C   UNL     1     -13.010   9.793  71.373  1.00  0.00    -0.490 C  
BRANCH   3   4
HETATM    4  C   UNL     1     -12.303  11.138  71.185  1.00  0.00    -0.451 C  
HETATM    5  C   UNL     1     -12.150  11.604  69.745  1.00  0.00    -0.289 C  
HETATM    6  N   UNL     1     -12.115  13.045  69.850  1.00  0.00    -0.304 N  
HETATM    7  C   UNL     1     -12.927  13.442  70.895  1.00  0.00    -0.123 C  
HETATM    8  O   UNL     1     -13.388  14.557  71.091  1.00  0.00    -0.356 OA 
HETATM    9  C   UNL     1     -13.099  12.275  71.838  1.00  0.00    -0.469 C  
BRANCH   6  10
HETATM   10  C   UNL     1     -11.669  13.873  68.711  1.00  0.00    -0.357 C  
BRANCH  10  11
HETATM   11  C   UNL     1     -10.509  14.836  69.025  1.00  0.00    -0.249 C  
HETATM   12  C   UNL     1     -10.932  16.268  69.298  1.00  0.00    -0.317 C  
ENDBRANCH  10  11
BRANCH  10  13
HETATM   13  C   UNL     1     -11.515  13.265  67.282  1.00  0.00    -0.338 C  
HETATM   14  N   UNL     1     -10.267  12.996  66.813  1.00  0.00    -0.243 N  
HETATM   15  O   UNL     1     -12.487  12.963  66.591  1.00  0.00    -0.367 OA 
HETATM   16  H1  UNL     1     -10.166  12.599  65.879  1.00  0.00     0.000 HD 
HETATM   17  H2  UNL     1      -9.445  13.188  67.385  1.00  0.00     0.000 HD 
ENDBRANCH  10  13
ENDBRANCH   6  10
ENDBRANCH   3   4
ENDBRANCH   2   3
TORSDOF 5
ENDMDL
MODEL       80
REMARK 921   NORMALIZED FREE ENERGY PREDICTED BY IDOCK:   -3.83 KCAL/MOL
REMARK 922        TOTAL FREE ENERGY PREDICTED BY IDOCK:   -5.51 KCAL/MOL
REMARK 923 INTER-LIGAND FREE ENERGY PREDICTED BY IDOCK:   -5.00 KCAL/MOL
REMARK 924 INTRA-LIGAND FREE ENERGY PREDICTED BY IDOCK:   -0.51 KCAL/MOL
REMARK 927      BINDING AFFINITY PREDICTED BY RF-SCORE:    0.00 PKD
ROOT
HETATM    1  C   UNL     1     -11.489  14.748  70.440  1.00  0.00    -0.303 C  
HETATM    2  C   UNL     1     -12.116  14.725  69.052  1.00  0.00    -0.256 C  
ENDROOT
BRANCH   2   3
HETATM    3  C   UNL     1     -11.170  15.340  68.022  1.00  0.00    -0.330 C  
BRANCH   3   4
HETATM    4  C   UNL     1     -10.980  14.489  66.763  1.00  0.00    -0.316 C  
HETATM    5  C   UNL     1     -10.454  13.082  66.994  1.00  0.00    -0.247 C  
HETATM    6  N   UNL     1     -10.982  12.328  65.879  1.00  0.00    -0.290 N  
HETATM    7  C   UNL     1     -12.221  12.834  65.539  1.00  0.00    -0.463 C  
HETATM    8  O   UNL     1     -13.089  12.283  64.877  1.00  0.00    -0.654 OA 
HETATM    9  C   UNL     1     -12.318  14.251  66.052  1.00  0.00    -0.416 C  
BRANCH   6  10
HETATM   10  C   UNL     1     -10.456  10.985  65.560  1.00  0.00    -0.238 C  
BRANCH  10  11
HETATM   11  C   UNL     1      -9.343  10.963  64.497  1.00  0.00    -0.256 C  
HETATM   12  C   UNL     1      -9.763  11.476  63.131  1.00  0.00    -0.412 C  
ENDBRANCH  10  11
BRANCH  10  13
HETATM   13  C   UNL     1     -10.170   9.941  66.685  1.00  0.00    -0.226 C  
HETATM   14  N   UNL     1     -11.152   9.652  67.580  1.00  0.00    -0.459 N  
HETATM   15  O   UNL     1      -9.107   9.325  66.750  1.00  0.00    -0.134 OA 
HETATM   16  H1  UNL     1     -10.965   8.970  68.315  1.00  0.00     0.000 HD 
HETATM   17  H2  UNL     1     -12.062  10.110  67.518  1.00  0.00     0.000 HD 
ENDBRANCH  10  13
ENDBRANCH   6  10
ENDBRANCH   3   4
ENDBRANCH   2   3
TORSDOF 5
ENDMDL
MODEL       81
REMARK 921   NORMALIZED FREE ENERGY PREDICTED BY IDOCK:   -3.82 KCAL/MOL
REMARK 922        TOTAL FREE ENERGY PREDICTED BY IDOCK:   -5.49 KCAL/MOL
REMARK 923 INTER-LIGAND FREE ENERGY PREDICTED BY IDOCK:   -5.10 KCAL/MOL
REMARK 924 INTRA-LIGAND FREE ENERGY PREDICTED BY IDOCK:   -0.39 KCAL/MOL
REMARK 927      BINDING AFFINITY PREDICTED BY RF-SCORE:    0.00 PKD
ROOT
HETATM    1  C   UNL     1     -13.980  14.340  72.317  1.00  0.00    -0.629 C  
HETATM    2  C   UNL     1     -13.147  13.380  71.478  1.00  0.00    -0.427 C  
ENDROOT
BRANCH   2   3
HETATM    3  C   UNL     1     -13.238  11.960  72.035  1.00  0.00    -0.461 C  
BRANCH   3   4
HETATM    4  C   UNL     1     -12.875  10.868  71.024  1.00  0.00    -0.472 C  
HETATM    5  C   UNL     1     -11.602  11.108  70.227  1.00  0.00    -0.296 C  
HETATM    6  N   UNL     1     -11.138   9.777  69.908  1.00  0.00    -0.249 N  
HETATM    7  C   UNL     1     -11.461   8.925  70.946  1.00  0.00    -0.288 C  
HETATM    8  O   UNL     1     -10.977   7.827  71.180  1.00  0.00    -0.234 OA 
HETATM    9  C   UNL     1     -12.600   9.534  71.730  1.00  0.00    -0.490 C  
BRANCH   6  10
HETATM   10  C   UNL     1     -10.096   9.567  68.882  1.00  0.00    -0.188 C  
BRANCH  10  11
HETATM   11  C   UNL     1     -10.630   9.317  67.460  1.00  0.00    -0.329 C  
HETATM   12  C   UNL     1     -10.330   7.936  66.906  1.00  0.00    -0.400 C  
ENDBRANCH  10  11
BRANCH  10  13
HETATM   13  C   UNL     1      -8.810  10.451  68.845  1.00  0.00    -0.161 C  
HETATM   14  N   UNL     1      -7.962  10.423  69.907  1.00  0.00    -0.349 N  
HETATM   15  O   UNL     1      -8.507  11.124  67.860  1.00  0.00    -0.124 OA 
HETATM   16  H1  UNL     1      -7.121  11.001  69.883  1.00  0.00     0.000 HD 
HETATM   17  H2  UNL     1      -8.161   9.834  70.716  1.00  0.00     0.000 HD 
ENDBRANCH  10  13
ENDBRANCH   6  10
ENDBRANCH   3   4
ENDBRANCH   2   3
TORSDOF 5
ENDMDL
MODEL       82
REMARK 921   NORMALIZED FREE ENERGY PREDICTED BY IDOCK:   -3.80 KCAL/MOL
REMARK 922        TOTAL FREE ENERGY PREDICTED BY IDOCK:   -5.47 KCAL/MOL
REMARK 923 INTER-LIGAND FREE ENERGY PREDICTED BY IDOCK:   -4.99 KCAL/MOL
REMARK 924 INTRA-LIGAND FREE ENERGY PREDICTED BY IDOCK:   -0.48 KCAL/MOL
REMARK 927      BINDING AFFINITY PREDICTED BY RF-SCORE:    0.00 PKD
ROOT
HETATM    1  C   UNL     1     -11.026  11.241  66.862  1.00  0.00    -0.348 C  
HETATM    2  C   UNL     1      -9.911  12.131  67.396  1.00  0.00    -0.193 C  
ENDROOT
BRANCH   2   3
HETATM    3  C   UNL     1      -9.552  13.213  66.378  1.00  0.00    -0.259 C  
BRANCH   3   4
HETATM    4  C   UNL     1     -10.121  14.596  66.709  1.00  0.00    -0.266 C  
HETATM    5  C   UNL     1      -9.094  15.659  67.069  1.00  0.00    -0.219 C  
HETATM    6  N   UNL     1      -9.729  16.898  66.679  1.00  0.00    -0.258 N  
HETATM    7  C   UNL     1     -10.510  16.673  65.562  1.00  0.00    -0.267 C  
HETATM    8  O   UNL     1     -10.937  17.508  64.778  1.00  0.00    -0.950 OA 
HETATM    9  C   UNL     1     -10.840  15.200  65.497  1.00  0.00    -0.373 C  
BRANCH   6  10
HETATM   10  C   UNL     1      -9.195  18.196  67.138  1.00  0.00    -0.256 C  
BRANCH  10  11
HETATM   11  C   UNL     1      -8.192  18.860  66.177  1.00  0.00    -0.222 C  
HETATM   12  C   UNL     1      -6.801  18.254  66.197  1.00  0.00    -0.291 C  
ENDBRANCH  10  11
BRANCH  10  13
HETATM   13  C   UNL     1     -10.122  19.264  67.797  1.00  0.00    -0.391 C  
HETATM   14  N   UNL     1     -11.157  19.772  67.076  1.00  0.00    -0.253 N  
HETATM   15  O   UNL     1      -9.986  19.615  68.969  1.00  0.00    -0.447 OA 
HETATM   16  H1  UNL     1     -11.763  20.470  67.507  1.00  0.00     0.000 HD 
HETATM   17  H2  UNL     1     -11.325  19.461  66.119  1.00  0.00     0.000 HD 
ENDBRANCH  10  13
ENDBRANCH   6  10
ENDBRANCH   3   4
ENDBRANCH   2   3
TORSDOF 5
ENDMDL
MODEL       83
REMARK 921   NORMALIZED FREE ENERGY PREDICTED BY IDOCK:   -3.80 KCAL/MOL
REMARK 922        TOTAL FREE ENERGY PREDICTED BY IDOCK:   -5.47 KCAL/MOL
REMARK 923 INTER-LIGAND FREE ENERGY PREDICTED BY IDOCK:   -4.98 KCAL/MOL
REMARK 924 INTRA-LIGAND FREE ENERGY PREDICTED BY IDOCK:   -0.49 KCAL/MOL
REMARK 927      BINDING AFFINITY PREDICTED BY RF-SCORE:    0.00 PKD
ROOT
HETATM    1  C   UNL     1     -14.081  14.547  71.984  1.00  0.00    -0.606 C  
HETATM    2  C   UNL     1     -12.982  13.588  71.544  1.00  0.00    -0.440 C  
ENDROOT
BRANCH   2   3
HETATM    3  C   UNL     1     -13.285  12.167  72.018  1.00  0.00    -0.496 C  
BRANCH   3   4
HETATM    4  C   UNL     1     -12.958  11.082  70.988  1.00  0.00    -0.369 C  
HETATM    5  C   UNL     1     -11.681  11.297  70.192  1.00  0.00    -0.343 C  
HETATM    6  N   UNL     1     -11.257   9.957  69.849  1.00  0.00    -0.251 N  
HETATM    7  C   UNL     1     -11.603   9.099  70.874  1.00  0.00    -0.291 C  
HETATM    8  O   UNL     1     -11.151   7.983  71.089  1.00  0.00    -0.243 OA 
HETATM    9  C   UNL     1     -12.722   9.729  71.671  1.00  0.00    -0.517 C  
BRANCH   6  10
HETATM   10  C   UNL     1     -10.225   9.734  68.817  1.00  0.00    -0.194 C  
BRANCH  10  11
HETATM   11  C   UNL     1      -8.776   9.740  69.340  1.00  0.00    -0.178 C  
HETATM   12  C   UNL     1      -7.903  10.844  68.772  1.00  0.00    -0.132 C  
ENDBRANCH  10  11
BRANCH  10  13
HETATM   13  C   UNL     1     -10.410   8.651  67.709  1.00  0.00    -0.242 C  
HETATM   14  N   UNL     1     -10.690   7.373  68.078  1.00  0.00    -0.400 N  
HETATM   15  O   UNL     1     -10.374   8.929  66.510  1.00  0.00    -0.276 OA 
HETATM   16  H1  UNL     1     -10.811   6.665  67.353  1.00  0.00     0.000 HD 
HETATM   17  H2  UNL     1     -10.778   7.125  69.064  1.00  0.00     0.000 HD 
ENDBRANCH  10  13
ENDBRANCH   6  10
ENDBRANCH   3   4
ENDBRANCH   2   3
TORSDOF 5
ENDMDL
MODEL       84
REMARK 921   NORMALIZED FREE ENERGY PREDICTED BY IDOCK:   -3.80 KCAL/MOL
REMARK 922        TOTAL FREE ENERGY PREDICTED BY IDOCK:   -5.46 KCAL/MOL
REMARK 923 INTER-LIGAND FREE ENERGY PREDICTED BY IDOCK:   -5.06 KCAL/MOL
REMARK 924 INTRA-LIGAND FREE ENERGY PREDICTED BY IDOCK:   -0.40 KCAL/MOL
REMARK 927      BINDING AFFINITY PREDICTED BY RF-SCORE:    0.00 PKD
ROOT
HETATM    1  C   UNL     1      -6.301  20.078  70.413  1.00  0.00    -0.323 C  
HETATM    2  C   UNL     1      -5.885  19.781  68.978  1.00  0.00    -0.272 C  
ENDROOT
BRANCH   2   3
HETATM    3  C   UNL     1      -6.991  20.182  68.003  1.00  0.00    -0.325 C  
BRANCH   3   4
HETATM    4  C   UNL     1      -7.602  19.007  67.234  1.00  0.00    -0.245 C  
HETATM    5  C   UNL     1      -8.371  18.000  68.077  1.00  0.00    -0.260 C  
HETATM    6  N   UNL     1      -9.343  17.451  67.158  1.00  0.00    -0.240 N  
HETATM    7  C   UNL     1      -9.729  18.435  66.268  1.00  0.00    -0.294 C  
HETATM    8  O   UNL     1     -10.730  18.447  65.566  1.00  0.00    -0.588 OA 
HETATM    9  C   UNL     1      -8.651  19.493  66.227  1.00  0.00    -0.382 C  
BRANCH   6  10
HETATM   10  C   UNL     1     -10.087  16.221  67.494  1.00  0.00    -0.258 C  
BRANCH  10  11
HETATM   11  C   UNL     1     -11.278  16.425  68.448  1.00  0.00    -0.324 C  
HETATM   12  C   UNL     1     -10.970  16.158  69.910  1.00  0.00    -0.362 C  
ENDBRANCH  10  11
BRANCH  10  13
HETATM   13  C   UNL     1     -10.425  15.158  66.403  1.00  0.00    -0.297 C  
HETATM   14  N   UNL     1      -9.422  14.668  65.626  1.00  0.00    -0.524 N  
HETATM   15  O   UNL     1     -11.560  14.702  66.264  1.00  0.00    -0.366 OA 
HETATM   16  H1  UNL     1      -9.644  13.974  64.913  1.00  0.00     0.000 HD 
HETATM   17  H2  UNL     1      -8.463  14.990  65.755  1.00  0.00     0.000 HD 
ENDBRANCH  10  13
ENDBRANCH   6  10
ENDBRANCH   3   4
ENDBRANCH   2   3
TORSDOF 5
ENDMDL
MODEL       85
REMARK 921   NORMALIZED FREE ENERGY PREDICTED BY IDOCK:   -3.80 KCAL/MOL
REMARK 922        TOTAL FREE ENERGY PREDICTED BY IDOCK:   -5.46 KCAL/MOL
REMARK 923 INTER-LIGAND FREE ENERGY PREDICTED BY IDOCK:   -5.13 KCAL/MOL
REMARK 924 INTRA-LIGAND FREE ENERGY PREDICTED BY IDOCK:   -0.33 KCAL/MOL
REMARK 927      BINDING AFFINITY PREDICTED BY RF-SCORE:    0.00 PKD
ROOT
HETATM    1  C   UNL     1     -10.228  19.630  66.412  1.00  0.00    -0.592 C  
HETATM    2  C   UNL     1     -10.494  18.333  67.167  1.00  0.00    -0.417 C  
ENDROOT
BRANCH   2   3
HETATM    3  C   UNL     1     -10.337  17.129  66.240  1.00  0.00    -0.315 C  
BRANCH   3   4
HETATM    4  C   UNL     1     -10.458  15.776  66.948  1.00  0.00    -0.315 C  
HETATM    5  C   UNL     1     -11.167  14.685  66.161  1.00  0.00    -0.341 C  
HETATM    6  N   UNL     1     -10.589  13.461  66.670  1.00  0.00    -0.280 N  
HETATM    7  C   UNL     1      -9.267  13.688  66.996  1.00  0.00    -0.250 C  
HETATM    8  O   UNL     1      -8.390  12.851  67.155  1.00  0.00    -0.184 OA 
HETATM    9  C   UNL     1      -9.075  15.170  67.219  1.00  0.00    -0.210 C  
BRANCH   6  10
HETATM   10  C   UNL     1     -11.220  12.156  66.388  1.00  0.00    -0.331 C  
BRANCH  10  11
HETATM   11  C   UNL     1     -10.674  11.428  65.146  1.00  0.00    -0.332 C  
HETATM   12  C   UNL     1     -11.237  11.921  63.826  1.00  0.00    -0.519 C  
ENDBRANCH  10  11
BRANCH  10  13
HETATM   13  C   UNL     1     -11.527  11.143  67.535  1.00  0.00    -0.216 C  
HETATM   14  N   UNL     1     -11.117   9.853  67.401  1.00  0.00    -0.345 N  
HETATM   15  O   UNL     1     -12.073  11.487  68.583  1.00  0.00    -0.483 OA 
HETATM   16  H1  UNL     1     -11.318   9.191  68.151  1.00  0.00     0.000 HD 
HETATM   17  H2  UNL     1     -10.616   9.552  66.565  1.00  0.00     0.000 HD 
ENDBRANCH  10  13
ENDBRANCH   6  10
ENDBRANCH   3   4
ENDBRANCH   2   3
TORSDOF 5
ENDMDL
MODEL       86
REMARK 921   NORMALIZED FREE ENERGY PREDICTED BY IDOCK:   -3.79 KCAL/MOL
REMARK 922        TOTAL FREE ENERGY PREDICTED BY IDOCK:   -5.45 KCAL/MOL
REMARK 923 INTER-LIGAND FREE ENERGY PREDICTED BY IDOCK:   -5.05 KCAL/MOL
REMARK 924 INTRA-LIGAND FREE ENERGY PREDICTED BY IDOCK:   -0.40 KCAL/MOL
REMARK 927      BINDING AFFINITY PREDICTED BY RF-SCORE:    0.00 PKD
ROOT
HETATM    1  C   UNL     1      -8.935   5.775  67.756  1.00  0.00    -0.107 C  
HETATM    2  C   UNL     1      -8.392   7.069  67.166  1.00  0.00    -0.121 C  
ENDROOT
BRANCH   2   3
HETATM    3  C   UNL     1      -9.482   7.805  66.386  1.00  0.00    -0.245 C  
BRANCH   3   4
HETATM    4  C   UNL     1      -9.574   9.300  66.703  1.00  0.00    -0.263 C  
HETATM    5  C   UNL     1     -10.057  10.183  65.563  1.00  0.00    -0.268 C  
HETATM    6  N   UNL     1     -10.679  11.304  66.233  1.00  0.00    -0.268 N  
HETATM    7  C   UNL     1     -11.264  10.861  67.404  1.00  0.00    -0.273 C  
HETATM    8  O   UNL     1     -12.123  11.429  68.062  1.00  0.00    -0.629 OA 
HETATM    9  C   UNL     1     -10.601   9.566  67.811  1.00  0.00    -0.318 C  
BRANCH   6  10
HETATM   10  C   UNL     1     -11.006  12.539  65.492  1.00  0.00    -0.287 C  
BRANCH  10  11
HETATM   11  C   UNL     1     -12.407  12.558  64.854  1.00  0.00    -0.539 C  
HETATM   12  C   UNL     1     -12.410  12.566  63.336  1.00  0.00    -0.577 C  
ENDBRANCH  10  11
BRANCH  10  13
HETATM   13  C   UNL     1     -10.634  13.944  66.060  1.00  0.00    -0.293 C  
HETATM   14  N   UNL     1      -9.460  14.517  65.683  1.00  0.00    -0.534 N  
HETATM   15  O   UNL     1     -11.398  14.578  66.788  1.00  0.00    -0.332 OA 
HETATM   16  H1  UNL     1      -9.218  15.436  66.054  1.00  0.00     0.000 HD 
HETATM   17  H2  UNL     1      -8.831  14.037  65.039  1.00  0.00     0.000 HD 
ENDBRANCH  10  13
ENDBRANCH   6  10
ENDBRANCH   3   4
ENDBRANCH   2   3
TORSDOF 5
ENDMDL
MODEL       87
REMARK 921   NORMALIZED FREE ENERGY PREDICTED BY IDOCK:   -3.78 KCAL/MOL
REMARK 922        TOTAL FREE ENERGY PREDICTED BY IDOCK:   -5.43 KCAL/MOL
REMARK 923 INTER-LIGAND FREE ENERGY PREDICTED BY IDOCK:   -5.48 KCAL/MOL
REMARK 924 INTRA-LIGAND FREE ENERGY PREDICTED BY IDOCK:    0.05 KCAL/MOL
REMARK 927      BINDING AFFINITY PREDICTED BY RF-SCORE:    0.00 PKD
ROOT
HETATM    1  C   UNL     1     -12.199  12.631  63.482  1.00  0.00    -0.638 C  
HETATM    2  C   UNL     1     -12.624  13.056  64.882  1.00  0.00    -0.490 C  
ENDROOT
BRANCH   2   3
HETATM    3  C   UNL     1     -11.815  12.308  65.940  1.00  0.00    -0.420 C  
BRANCH   3   4
HETATM    4  C   UNL     1     -11.075  13.222  66.922  1.00  0.00    -0.310 C  
HETATM    5  C   UNL     1     -10.582  14.540  66.347  1.00  0.00    -0.302 C  
HETATM    6  N   UNL     1     -10.564  15.429  67.487  1.00  0.00    -0.277 N  
HETATM    7  C   UNL     1     -11.599  15.093  68.338  1.00  0.00    -0.337 C  
HETATM    8  O   UNL     1     -12.086  15.786  69.220  1.00  0.00    -0.350 OA 
HETATM    9  C   UNL     1     -11.997  13.661  68.066  1.00  0.00    -0.385 C  
BRANCH   6  10
HETATM   10  C   UNL     1      -9.856  16.724  67.423  1.00  0.00    -0.252 C  
BRANCH  10  11
HETATM   11  C   UNL     1      -9.893  17.547  68.723  1.00  0.00    -0.326 C  
HETATM   12  C   UNL     1      -9.535  19.012  68.554  1.00  0.00    -0.436 C  
ENDBRANCH  10  11
BRANCH  10  13
HETATM   13  C   UNL     1      -8.466  16.850  66.725  1.00  0.00    -0.234 C  
HETATM   14  N   UNL     1      -7.429  16.098  67.182  1.00  0.00    -0.190 N  
HETATM   15  O   UNL     1      -8.293  17.562  65.736  1.00  0.00    -0.538 OA 
HETATM   16  H1  UNL     1      -6.521  16.181  66.726  1.00  0.00     0.000 HD 
HETATM   17  H2  UNL     1      -7.558  15.460  67.968  1.00  0.00     0.000 HD 
ENDBRANCH  10  13
ENDBRANCH   6  10
ENDBRANCH   3   4
ENDBRANCH   2   3
TORSDOF 5
ENDMDL
MODEL       88
REMARK 921   NORMALIZED FREE ENERGY PREDICTED BY IDOCK:   -3.77 KCAL/MOL
REMARK 922        TOTAL FREE ENERGY PREDICTED BY IDOCK:   -5.42 KCAL/MOL
REMARK 923 INTER-LIGAND FREE ENERGY PREDICTED BY IDOCK:   -5.08 KCAL/MOL
REMARK 924 INTRA-LIGAND FREE ENERGY PREDICTED BY IDOCK:   -0.34 KCAL/MOL
REMARK 927      BINDING AFFINITY PREDICTED BY RF-SCORE:    0.00 PKD
ROOT
HETATM    1  C   UNL     1      -9.357  20.692  67.347  1.00  0.00    -0.475 C  
HETATM    2  C   UNL     1      -9.146  19.188  67.228  1.00  0.00    -0.334 C  
ENDROOT
BRANCH   2   3
HETATM    3  C   UNL     1      -9.816  18.456  68.390  1.00  0.00    -0.396 C  
BRANCH   3   4
HETATM    4  C   UNL     1      -9.795  16.930  68.263  1.00  0.00    -0.266 C  
HETATM    5  C   UNL     1     -10.508  16.170  69.370  1.00  0.00    -0.283 C  
HETATM    6  N   UNL     1     -10.928  14.942  68.731  1.00  0.00    -0.243 N  
HETATM    7  C   UNL     1     -11.234  15.204  67.410  1.00  0.00    -0.323 C  
HETATM    8  O   UNL     1     -11.902  14.512  66.655  1.00  0.00    -0.393 OA 
HETATM    9  C   UNL     1     -10.528  16.473  66.996  1.00  0.00    -0.289 C  
BRANCH   6  10
HETATM   10  C   UNL     1     -11.387  13.793  69.537  1.00  0.00    -0.224 C  
BRANCH  10  11
HETATM   11  C   UNL     1     -12.754  13.985  70.218  1.00  0.00    -0.270 C  
HETATM   12  C   UNL     1     -12.692  14.142  71.727  1.00  0.00    -0.420 C  
ENDBRANCH  10  11
BRANCH  10  13
HETATM   13  C   UNL     1     -11.226  12.329  69.020  1.00  0.00    -0.265 C  
HETATM   14  N   UNL     1     -10.045  11.685  69.224  1.00  0.00    -0.409 N  
HETATM   15  O   UNL     1     -12.153  11.716  68.490  1.00  0.00    -0.491 OA 
HETATM   16  H1  UNL     1      -9.940  10.728  68.886  1.00  0.00     0.000 HD 
HETATM   17  H2  UNL     1      -9.277  12.150  69.707  1.00  0.00     0.000 HD 
ENDBRANCH  10  13
ENDBRANCH   6  10
ENDBRANCH   3   4
ENDBRANCH   2   3
TORSDOF 5
ENDMDL
MODEL       89
REMARK 921   NORMALIZED FREE ENERGY PREDICTED BY IDOCK:   -3.77 KCAL/MOL
REMARK 922        TOTAL FREE ENERGY PREDICTED BY IDOCK:   -5.42 KCAL/MOL
REMARK 923 INTER-LIGAND FREE ENERGY PREDICTED BY IDOCK:   -5.01 KCAL/MOL
REMARK 924 INTRA-LIGAND FREE ENERGY PREDICTED BY IDOCK:   -0.41 KCAL/MOL
REMARK 927      BINDING AFFINITY PREDICTED BY RF-SCORE:    0.00 PKD
ROOT
HETATM    1  C   UNL     1     -10.912  15.371  65.066  1.00  0.00    -0.450 C  
HETATM    2  C   UNL     1     -11.723  14.081  65.083  1.00  0.00    -0.353 C  
ENDROOT
BRANCH   2   3
HETATM    3  C   UNL     1     -12.229  13.782  66.493  1.00  0.00    -0.475 C  
BRANCH   3   4
HETATM    4  C   UNL     1     -11.294  12.891  67.317  1.00  0.00    -0.356 C  
HETATM    5  C   UNL     1     -11.871  12.363  68.621  1.00  0.00    -0.302 C  
HETATM    6  N   UNL     1     -11.161  11.121  68.834  1.00  0.00    -0.231 N  
HETATM    7  C   UNL     1     -10.893  10.539  67.611  1.00  0.00    -0.300 C  
HETATM    8  O   UNL     1     -10.598   9.371  67.396  1.00  0.00    -0.265 OA 
HETATM    9  C   UNL     1     -10.935  11.612  66.549  1.00  0.00    -0.349 C  
BRANCH   6  10
HETATM   10  C   UNL     1     -11.204  10.444  70.146  1.00  0.00    -0.321 C  
BRANCH  10  11
HETATM   11  C   UNL     1     -12.617  10.104  70.653  1.00  0.00    -0.353 C  
HETATM   12  C   UNL     1     -13.093  10.952  71.818  1.00  0.00    -0.564 C  
ENDBRANCH  10  11
BRANCH  10  13
HETATM   13  C   UNL     1     -10.198   9.306  70.502  1.00  0.00    -0.251 C  
HETATM   14  N   UNL     1     -10.595   8.012  70.374  1.00  0.00    -0.220 N  
HETATM   15  O   UNL     1      -9.036   9.540  70.834  1.00  0.00    -0.218 OA 
HETATM   16  H1  UNL     1      -9.937   7.268  70.606  1.00  0.00     0.000 HD 
HETATM   17  H2  UNL     1     -11.536   7.788  70.050  1.00  0.00     0.000 HD 
ENDBRANCH  10  13
ENDBRANCH   6  10
ENDBRANCH   3   4
ENDBRANCH   2   3
TORSDOF 5
ENDMDL
MODEL       90
REMARK 921   NORMALIZED FREE ENERGY PREDICTED BY IDOCK:   -3.77 KCAL/MOL
REMARK 922        TOTAL FREE ENERGY PREDICTED BY IDOCK:   -5.42 KCAL/MOL
REMARK 923 INTER-LIGAND FREE ENERGY PREDICTED BY IDOCK:   -5.31 KCAL/MOL
REMARK 924 INTRA-LIGAND FREE ENERGY PREDICTED BY IDOCK:   -0.11 KCAL/MOL
REMARK 927      BINDING AFFINITY PREDICTED BY RF-SCORE:    0.00 PKD
ROOT
HETATM    1  C   UNL     1      -8.632   9.146  69.547  1.00  0.00    -0.138 C  
HETATM    2  C   UNL     1      -9.185   9.965  68.388  1.00  0.00    -0.130 C  
ENDROOT
BRANCH   2   3
HETATM    3  C   UNL     1      -8.850  11.446  68.567  1.00  0.00    -0.151 C  
BRANCH   3   4
HETATM    4  C   UNL     1      -8.770  12.231  67.255  1.00  0.00    -0.188 C  
HETATM    5  C   UNL     1     -10.009  12.166  66.375  1.00  0.00    -0.225 C  
HETATM    6  N   UNL     1      -9.976  13.411  65.640  1.00  0.00    -0.268 N  
HETATM    7  C   UNL     1      -9.434  14.395  66.443  1.00  0.00    -0.285 C  
HETATM    8  O   UNL     1      -9.527  15.605  66.295  1.00  0.00    -0.266 OA 
HETATM    9  C   UNL     1      -8.609  13.733  67.522  1.00  0.00    -0.194 C  
BRANCH   6  10
HETATM   10  C   UNL     1     -10.834  13.608  64.454  1.00  0.00    -0.361 C  
BRANCH  10  11
HETATM   11  C   UNL     1     -10.887  12.410  63.488  1.00  0.00    -0.487 C  
HETATM   12  C   UNL     1     -12.260  11.780  63.338  1.00  0.00    -0.461 C  
ENDBRANCH  10  11
BRANCH  10  13
HETATM   13  C   UNL     1     -12.234  14.287  64.573  1.00  0.00    -0.455 C  
HETATM   14  N   UNL     1     -12.530  15.335  63.758  1.00  0.00    -0.948 N  
HETATM   15  O   UNL     1     -13.102  13.866  65.338  1.00  0.00    -0.752 OA 
HETATM   16  H1  UNL     1     -13.444  15.778  63.837  1.00  0.00     0.000 HD 
HETATM   17  H2  UNL     1     -11.848  15.672  63.079  1.00  0.00     0.000 HD 
ENDBRANCH  10  13
ENDBRANCH   6  10
ENDBRANCH   3   4
ENDBRANCH   2   3
TORSDOF 5
ENDMDL
MODEL       91
REMARK 921   NORMALIZED FREE ENERGY PREDICTED BY IDOCK:   -3.76 KCAL/MOL
REMARK 922        TOTAL FREE ENERGY PREDICTED BY IDOCK:   -5.41 KCAL/MOL
REMARK 923 INTER-LIGAND FREE ENERGY PREDICTED BY IDOCK:   -4.97 KCAL/MOL
REMARK 924 INTRA-LIGAND FREE ENERGY PREDICTED BY IDOCK:   -0.44 KCAL/MOL
REMARK 927      BINDING AFFINITY PREDICTED BY RF-SCORE:    0.00 PKD
ROOT
HETATM    1  C   UNL     1      -7.333  11.211  69.295  1.00  0.00    -0.097 C  
HETATM    2  C   UNL     1      -7.571   9.872  69.980  1.00  0.00    -0.179 C  
ENDROOT
BRANCH   2   3
HETATM    3  C   UNL     1      -8.284   8.904  69.037  1.00  0.00    -0.116 C  
BRANCH   3   4
HETATM    4  C   UNL     1      -9.812   8.984  69.097  1.00  0.00    -0.175 C  
HETATM    5  C   UNL     1     -10.386   9.641  70.342  1.00  0.00    -0.291 C  
HETATM    6  N   UNL     1     -11.648  10.187  69.894  1.00  0.00    -0.245 N  
HETATM    7  C   UNL     1     -11.523  10.593  68.580  1.00  0.00    -0.265 C  
HETATM    8  O   UNL     1     -12.250  11.364  67.971  1.00  0.00    -0.607 OA 
HETATM    9  C   UNL     1     -10.363   9.852  67.958  1.00  0.00    -0.244 C  
BRANCH   6  10
HETATM   10  C   UNL     1     -12.661  10.642  70.868  1.00  0.00    -0.407 C  
BRANCH  10  11
HETATM   11  C   UNL     1     -12.879   9.695  72.063  1.00  0.00    -0.497 C  
HETATM   12  C   UNL     1     -14.012   8.701  71.883  1.00  0.00    -0.501 C  
ENDBRANCH  10  11
BRANCH  10  13
HETATM   13  C   UNL     1     -12.734  12.133  71.321  1.00  0.00    -0.261 C  
HETATM   14  N   UNL     1     -12.027  13.067  70.631  1.00  0.00    -0.528 N  
HETATM   15  O   UNL     1     -13.461  12.501  72.245  1.00  0.00    -0.556 OA 
HETATM   16  H1  UNL     1     -12.075  14.041  70.927  1.00  0.00     0.000 HD 
HETATM   17  H2  UNL     1     -11.457  12.797  69.829  1.00  0.00     0.000 HD 
ENDBRANCH  10  13
ENDBRANCH   6  10
ENDBRANCH   3   4
ENDBRANCH   2   3
TORSDOF 5
ENDMDL
MODEL       92
REMARK 921   NORMALIZED FREE ENERGY PREDICTED BY IDOCK:   -3.76 KCAL/MOL
REMARK 922        TOTAL FREE ENERGY PREDICTED BY IDOCK:   -5.41 KCAL/MOL
REMARK 923 INTER-LIGAND FREE ENERGY PREDICTED BY IDOCK:   -5.03 KCAL/MOL
REMARK 924 INTRA-LIGAND FREE ENERGY PREDICTED BY IDOCK:   -0.38 KCAL/MOL
REMARK 927      BINDING AFFINITY PREDICTED BY RF-SCORE:    0.00 PKD
ROOT
HETATM    1  C   UNL     1      -9.349  16.524  68.925  1.00  0.00    -0.256 C  
HETATM    2  C   UNL     1     -10.172  15.264  68.692  1.00  0.00    -0.223 C  
ENDROOT
BRANCH   2   3
HETATM    3  C   UNL     1     -11.659  15.545  68.904  1.00  0.00    -0.384 C  
BRANCH   3   4
HETATM    4  C   UNL     1     -12.463  14.331  69.380  1.00  0.00    -0.112 C  
HETATM    5  C   UNL     1     -11.672  13.041  69.536  1.00  0.00    -0.317 C  
HETATM    6  N   UNL     1     -12.393  12.317  70.560  1.00  0.00    -0.306 N  
HETATM    7  C   UNL     1     -12.926  13.218  71.460  1.00  0.00    -0.337 C  
HETATM    8  O   UNL     1     -13.320  12.986  72.594  1.00  0.00    -0.463 OA 
HETATM    9  C   UNL     1     -13.034  14.565  70.784  1.00  0.00    -0.403 C  
BRANCH   6  10
HETATM   10  C   UNL     1     -12.132  10.882  70.792  1.00  0.00    -0.368 C  
BRANCH  10  11
HETATM   11  C   UNL     1     -13.393  10.016  70.969  1.00  0.00    -0.334 C  
HETATM   12  C   UNL     1     -13.429   9.207  72.253  1.00  0.00    -0.546 C  
ENDBRANCH  10  11
BRANCH  10  13
HETATM   13  C   UNL     1     -11.042  10.117  69.979  1.00  0.00    -0.308 C  
HETATM   14  N   UNL     1     -11.358   9.632  68.748  1.00  0.00    -0.473 N  
HETATM   15  O   UNL     1      -9.888   9.992  70.388  1.00  0.00    -0.199 OA 
HETATM   16  H1  UNL     1     -10.646   9.131  68.217  1.00  0.00     0.000 HD 
HETATM   17  H2  UNL     1     -12.293   9.766  68.362  1.00  0.00     0.000 HD 
ENDBRANCH  10  13
ENDBRANCH   6  10
ENDBRANCH   3   4
ENDBRANCH   2   3
TORSDOF 5
ENDMDL
MODEL       93
REMARK 921   NORMALIZED FREE ENERGY PREDICTED BY IDOCK:   -3.75 KCAL/MOL
REMARK 922        TOTAL FREE ENERGY PREDICTED BY IDOCK:   -5.40 KCAL/MOL
REMARK 923 INTER-LIGAND FREE ENERGY PREDICTED BY IDOCK:   -5.17 KCAL/MOL
REMARK 924 INTRA-LIGAND FREE ENERGY PREDICTED BY IDOCK:   -0.23 KCAL/MOL
REMARK 927      BINDING AFFINITY PREDICTED BY RF-SCORE:    0.00 PKD
ROOT
HETATM    1  C   UNL     1     -10.450  15.609  69.548  1.00  0.00    -0.270 C  
HETATM    2  C   UNL     1     -11.800  14.985  69.875  1.00  0.00    -0.362 C  
ENDROOT
BRANCH   2   3
HETATM    3  C   UNL     1     -12.057  13.763  68.993  1.00  0.00    -0.359 C  
BRANCH   3   4
HETATM    4  C   UNL     1     -11.303  12.505  69.434  1.00  0.00    -0.275 C  
HETATM    5  C   UNL     1     -12.089  11.542  70.309  1.00  0.00    -0.359 C  
HETATM    6  N   UNL     1     -11.492  10.255  70.029  1.00  0.00    -0.278 N  
HETATM    7  C   UNL     1     -11.088  10.223  68.709  1.00  0.00    -0.228 C  
HETATM    8  O   UNL     1     -10.837   9.233  68.036  1.00  0.00    -0.203 OA 
HETATM    9  C   UNL     1     -10.915  11.644  68.225  1.00  0.00    -0.273 C  
BRANCH   6  10
HETATM   10  C   UNL     1     -11.760   9.094  70.902  1.00  0.00    -0.284 C  
BRANCH  10  11
HETATM   11  C   UNL     1     -10.674   8.813  71.956  1.00  0.00    -0.417 C  
HETATM   12  C   UNL     1     -10.951   7.614  72.845  1.00  0.00    -0.456 C  
ENDBRANCH  10  11
BRANCH  10  13
HETATM   13  C   UNL     1     -13.183   8.836  71.488  1.00  0.00    -0.314 C  
HETATM   14  N   UNL     1     -13.940   7.835  70.963  1.00  0.00    -0.633 N  
HETATM   15  O   UNL     1     -13.618   9.467  72.451  1.00  0.00    -0.457 OA 
HETATM   16  H1  UNL     1     -14.870   7.667  71.347  1.00  0.00     0.000 HD 
HETATM   17  H2  UNL     1     -13.584   7.262  70.198  1.00  0.00     0.000 HD 
ENDBRANCH  10  13
ENDBRANCH   6  10
ENDBRANCH   3   4
ENDBRANCH   2   3
TORSDOF 5
ENDMDL
MODEL       94
REMARK 921   NORMALIZED FREE ENERGY PREDICTED BY IDOCK:   -3.74 KCAL/MOL
REMARK 922        TOTAL FREE ENERGY PREDICTED BY IDOCK:   -5.39 KCAL/MOL
REMARK 923 INTER-LIGAND FREE ENERGY PREDICTED BY IDOCK:   -4.95 KCAL/MOL
REMARK 924 INTRA-LIGAND FREE ENERGY PREDICTED BY IDOCK:   -0.44 KCAL/MOL
REMARK 927      BINDING AFFINITY PREDICTED BY RF-SCORE:    0.00 PKD
ROOT
HETATM    1  C   UNL     1      -9.815  20.557  67.486  1.00  0.00    -0.534 C  
HETATM    2  C   UNL     1      -9.767  19.530  68.610  1.00  0.00    -0.514 C  
ENDROOT
BRANCH   2   3
HETATM    3  C   UNL     1      -8.885  18.345  68.220  1.00  0.00    -0.323 C  
BRANCH   3   4
HETATM    4  C   UNL     1      -9.450  16.983  68.632  1.00  0.00    -0.274 C  
HETATM    5  C   UNL     1     -10.215  16.236  67.551  1.00  0.00    -0.270 C  
HETATM    6  N   UNL     1     -10.044  14.844  67.906  1.00  0.00    -0.226 N  
HETATM    7  C   UNL     1      -8.798  14.674  68.477  1.00  0.00    -0.182 C  
HETATM    8  O   UNL     1      -8.184  13.625  68.614  1.00  0.00    -0.138 OA 
HETATM    9  C   UNL     1      -8.325  16.009  69.002  1.00  0.00    -0.243 C  
BRANCH   6  10
HETATM   10  C   UNL     1     -10.885  13.800  67.287  1.00  0.00    -0.285 C  
BRANCH  10  11
HETATM   11  C   UNL     1     -11.985  13.229  68.201  1.00  0.00    -0.340 C  
HETATM   12  C   UNL     1     -12.150  13.957  69.522  1.00  0.00    -0.393 C  
ENDBRANCH  10  11
BRANCH  10  13
HETATM   13  C   UNL     1     -11.400  13.941  65.821  1.00  0.00    -0.307 C  
HETATM   14  N   UNL     1     -12.740  13.988  65.595  1.00  0.00    -0.543 N  
HETATM   15  O   UNL     1     -10.632  14.074  64.868  1.00  0.00    -0.379 OA 
HETATM   16  H1  UNL     1     -13.076  14.080  64.636  1.00  0.00     0.000 HD 
HETATM   17  H2  UNL     1     -13.399  13.932  66.371  1.00  0.00     0.000 HD 
ENDBRANCH  10  13
ENDBRANCH   6  10
ENDBRANCH   3   4
ENDBRANCH   2   3
TORSDOF 5
ENDMDL
MODEL       95
REMARK 921   NORMALIZED FREE ENERGY PREDICTED BY IDOCK:   -3.73 KCAL/MOL
REMARK 922        TOTAL FREE ENERGY PREDICTED BY IDOCK:   -5.37 KCAL/MOL
REMARK 923 INTER-LIGAND FREE ENERGY PREDICTED BY IDOCK:   -4.95 KCAL/MOL
REMARK 924 INTRA-LIGAND FREE ENERGY PREDICTED BY IDOCK:   -0.42 KCAL/MOL
REMARK 927      BINDING AFFINITY PREDICTED BY RF-SCORE:    0.00 PKD
ROOT
HETATM    1  C   UNL     1     -14.346   8.179  71.815  1.00  0.00    -0.582 C  
HETATM    2  C   UNL     1     -13.525   9.424  71.506  1.00  0.00    -0.445 C  
ENDROOT
BRANCH   2   3
HETATM    3  C   UNL     1     -12.065   9.055  71.245  1.00  0.00    -0.375 C  
BRANCH   3   4
HETATM    4  C   UNL     1     -11.238  10.182  70.619  1.00  0.00    -0.418 C  
HETATM    5  C   UNL     1     -10.768   9.938  69.194  1.00  0.00    -0.224 C  
HETATM    6  N   UNL     1     -10.649  11.267  68.636  1.00  0.00    -0.193 N  
HETATM    7  C   UNL     1     -11.622  12.077  69.189  1.00  0.00    -0.312 C  
HETATM    8  O   UNL     1     -12.030  13.144  68.754  1.00  0.00    -0.318 OA 
HETATM    9  C   UNL     1     -12.064  11.469  70.500  1.00  0.00    -0.472 C  
BRANCH   6  10
HETATM   10  C   UNL     1      -9.926  11.490  67.368  1.00  0.00    -0.190 C  
BRANCH  10  11
HETATM   11  C   UNL     1     -10.806  11.443  66.105  1.00  0.00    -0.310 C  
HETATM   12  C   UNL     1     -10.231  10.624  64.964  1.00  0.00    -0.380 C  
ENDBRANCH  10  11
BRANCH  10  13
HETATM   13  C   UNL     1      -8.836  12.600  67.244  1.00  0.00    -0.196 C  
HETATM   14  N   UNL     1      -7.544  12.233  67.033  1.00  0.00    -0.326 N  
HETATM   15  O   UNL     1      -9.117  13.798  67.267  1.00  0.00    -0.211 OA 
HETATM   16  H1  UNL     1      -6.832  12.958  66.952  1.00  0.00     0.000 HD 
HETATM   17  H2  UNL     1      -7.290  11.247  66.958  1.00  0.00     0.000 HD 
ENDBRANCH  10  13
ENDBRANCH   6  10
ENDBRANCH   3   4
ENDBRANCH   2   3
TORSDOF 5
ENDMDL
MODEL       96
REMARK 921   NORMALIZED FREE ENERGY PREDICTED BY IDOCK:   -3.71 KCAL/MOL
REMARK 922        TOTAL FREE ENERGY PREDICTED BY IDOCK:   -5.35 KCAL/MOL
REMARK 923 INTER-LIGAND FREE ENERGY PREDICTED BY IDOCK:   -4.91 KCAL/MOL
REMARK 924 INTRA-LIGAND FREE ENERGY PREDICTED BY IDOCK:   -0.45 KCAL/MOL
REMARK 927      BINDING AFFINITY PREDICTED BY RF-SCORE:    0.00 PKD
ROOT
HETATM    1  C   UNL     1     -10.957   6.341  68.793  1.00  0.00    -0.424 C  
HETATM    2  C   UNL     1     -10.522   7.760  69.136  1.00  0.00    -0.219 C  
ENDROOT
BRANCH   2   3
HETATM    3  C   UNL     1     -10.620   8.665  67.909  1.00  0.00    -0.223 C  
BRANCH   3   4
HETATM    4  C   UNL     1     -10.421  10.153  68.212  1.00  0.00    -0.244 C  
HETATM    5  C   UNL     1     -11.101  11.115  67.250  1.00  0.00    -0.302 C  
HETATM    6  N   UNL     1     -11.346  12.291  68.055  1.00  0.00    -0.270 N  
HETATM    7  C   UNL     1     -11.612  11.903  69.353  1.00  0.00    -0.325 C  
HETATM    8  O   UNL     1     -12.158  12.562  70.226  1.00  0.00    -0.349 OA 
HETATM    9  C   UNL     1     -11.032  10.524  69.569  1.00  0.00    -0.312 C  
BRANCH   6  10
HETATM   10  C   UNL     1     -11.715  13.574  67.422  1.00  0.00    -0.380 C  
BRANCH  10  11
HETATM   11  C   UNL     1     -10.980  14.806  67.981  1.00  0.00    -0.276 C  
HETATM   12  C   UNL     1      -9.498  14.595  68.237  1.00  0.00    -0.211 C  
ENDBRANCH  10  11
BRANCH  10  13
HETATM   13  C   UNL     1     -11.896  13.689  65.876  1.00  0.00    -0.378 C  
HETATM   14  N   UNL     1     -13.149  13.619  65.352  1.00  0.00    -0.678 N  
HETATM   15  O   UNL     1     -10.948  13.904  65.121  1.00  0.00    -0.319 OA 
HETATM   16  H1  UNL     1     -13.266  13.694  64.342  1.00  0.00     0.000 HD 
HETATM   17  H2  UNL     1     -13.959  13.493  65.960  1.00  0.00     0.000 HD 
ENDBRANCH  10  13
ENDBRANCH   6  10
ENDBRANCH   3   4
ENDBRANCH   2   3
TORSDOF 5
ENDMDL
MODEL       97
REMARK 921   NORMALIZED FREE ENERGY PREDICTED BY IDOCK:   -3.71 KCAL/MOL
REMARK 922        TOTAL FREE ENERGY PREDICTED BY IDOCK:   -5.35 KCAL/MOL
REMARK 923 INTER-LIGAND FREE ENERGY PREDICTED BY IDOCK:   -5.00 KCAL/MOL
REMARK 924 INTRA-LIGAND FREE ENERGY PREDICTED BY IDOCK:   -0.35 KCAL/MOL
REMARK 927      BINDING AFFINITY PREDICTED BY RF-SCORE:    0.00 PKD
ROOT
HETATM    1  C   UNL     1     -10.342   7.641  70.514  1.00  0.00    -0.211 C  
HETATM    2  C   UNL     1     -10.246   8.970  69.776  1.00  0.00    -0.214 C  
ENDROOT
BRANCH   2   3
HETATM    3  C   UNL     1     -10.519   8.779  68.285  1.00  0.00    -0.236 C  
BRANCH   3   4
HETATM    4  C   UNL     1      -9.979   9.907  67.401  1.00  0.00    -0.235 C  
HETATM    5  C   UNL     1     -10.758  10.170  66.122  1.00  0.00     0.062 C  
HETATM    6  N   UNL     1     -10.520  11.571  65.855  1.00  0.00    -0.248 N  
HETATM    7  C   UNL     1     -10.409  12.247  67.054  1.00  0.00    -0.219 C  
HETATM    8  O   UNL     1     -10.518  13.451  67.237  1.00  0.00    -0.246 OA 
HETATM    9  C   UNL     1     -10.038  11.255  68.131  1.00  0.00    -0.195 C  
BRANCH   6  10
HETATM   10  C   UNL     1     -10.848  12.153  64.537  1.00  0.00    -0.312 C  
BRANCH  10  11
HETATM   11  C   UNL     1     -10.502  11.259  63.332  1.00  0.00    -0.424 C  
HETATM   12  C   UNL     1      -9.022  10.965  63.167  1.00  0.00    -0.226 C  
ENDBRANCH  10  11
BRANCH  10  13
HETATM   13  C   UNL     1     -12.191  12.910  64.300  1.00  0.00    -0.410 C  
HETATM   14  N   UNL     1     -12.344  13.640  63.163  1.00  0.00    -1.076 N  
HETATM   15  O   UNL     1     -13.141  12.817  65.078  1.00  0.00    -0.811 OA 
HETATM   16  H1  UNL     1     -13.222  14.135  63.008  1.00  0.00     0.000 HD 
HETATM   17  H2  UNL     1     -11.592  13.692  62.475  1.00  0.00     0.000 HD 
ENDBRANCH  10  13
ENDBRANCH   6  10
ENDBRANCH   3   4
ENDBRANCH   2   3
TORSDOF 5
ENDMDL
MODEL       98
REMARK 921   NORMALIZED FREE ENERGY PREDICTED BY IDOCK:   -3.69 KCAL/MOL
REMARK 922        TOTAL FREE ENERGY PREDICTED BY IDOCK:   -5.33 KCAL/MOL
REMARK 923 INTER-LIGAND FREE ENERGY PREDICTED BY IDOCK:   -5.04 KCAL/MOL
REMARK 924 INTRA-LIGAND FREE ENERGY PREDICTED BY IDOCK:   -0.29 KCAL/MOL
REMARK 927      BINDING AFFINITY PREDICTED BY RF-SCORE:    0.00 PKD
ROOT
HETATM    1  C   UNL     1      -9.006  17.114  68.935  1.00  0.00    -0.189 C  
HETATM    2  C   UNL     1      -9.683  15.866  69.485  1.00  0.00    -0.255 C  
ENDROOT
BRANCH   2   3
HETATM    3  C   UNL     1     -11.183  16.099  69.658  1.00  0.00    -0.331 C  
BRANCH   3   4
HETATM    4  C   UNL     1     -12.028  14.825  69.565  1.00  0.00    -0.351 C  
HETATM    5  C   UNL     1     -11.249  13.534  69.371  1.00  0.00    -0.187 C  
HETATM    6  N   UNL     1     -12.097  12.525  69.967  1.00  0.00    -0.301 N  
HETATM    7  C   UNL     1     -12.766  13.077  71.042  1.00  0.00    -0.262 C  
HETATM    8  O   UNL     1     -13.313  12.480  71.958  1.00  0.00    -0.502 OA 
HETATM    9  C   UNL     1     -12.797  14.577  70.869  1.00  0.00    -0.425 C  
BRANCH   6  10
HETATM   10  C   UNL     1     -11.850  11.090  69.719  1.00  0.00    -0.347 C  
BRANCH  10  11
HETATM   11  C   UNL     1     -10.577  10.784  68.910  1.00  0.00    -0.246 C  
HETATM   12  C   UNL     1     -10.828  10.191  67.535  1.00  0.00    -0.349 C  
ENDBRANCH  10  11
BRANCH  10  13
HETATM   13  C   UNL     1     -12.064  10.028  70.841  1.00  0.00    -0.355 C  
HETATM   14  N   UNL     1     -13.311   9.523  71.042  1.00  0.00    -0.571 N  
HETATM   15  O   UNL     1     -11.130   9.585  71.510  1.00  0.00    -0.367 OA 
HETATM   16  H1  UNL     1     -13.451   8.829  71.775  1.00  0.00     0.000 HD 
HETATM   17  H2  UNL     1     -14.095   9.834  70.467  1.00  0.00     0.000 HD 
ENDBRANCH  10  13
ENDBRANCH   6  10
ENDBRANCH   3   4
ENDBRANCH   2   3
TORSDOF 5
ENDMDL
MODEL       99
REMARK 921   NORMALIZED FREE ENERGY PREDICTED BY IDOCK:   -3.68 KCAL/MOL
REMARK 922        TOTAL FREE ENERGY PREDICTED BY IDOCK:   -5.31 KCAL/MOL
REMARK 923 INTER-LIGAND FREE ENERGY PREDICTED BY IDOCK:   -4.81 KCAL/MOL
REMARK 924 INTRA-LIGAND FREE ENERGY PREDICTED BY IDOCK:   -0.49 KCAL/MOL
REMARK 927      BINDING AFFINITY PREDICTED BY RF-SCORE:    0.00 PKD
ROOT
HETATM    1  C   UNL     1     -11.671   6.708  72.250  1.00  0.00    -0.305 C  
HETATM    2  C   UNL     1     -11.047   8.089  72.408  1.00  0.00    -0.416 C  
ENDROOT
BRANCH   2   3
HETATM    3  C   UNL     1     -11.936   9.157  71.771  1.00  0.00    -0.449 C  
BRANCH   3   4
HETATM    4  C   UNL     1     -11.197  10.091  70.807  1.00  0.00    -0.428 C  
HETATM    5  C   UNL     1     -10.387   9.403  69.719  1.00  0.00    -0.223 C  
HETATM    6  N   UNL     1     -10.377  10.362  68.637  1.00  0.00    -0.174 N  
HETATM    7  C   UNL     1     -11.573  11.054  68.637  1.00  0.00    -0.316 C  
HETATM    8  O   UNL     1     -12.052  11.702  67.717  1.00  0.00    -0.613 OA 
HETATM    9  C   UNL     1     -12.184  10.957  70.015  1.00  0.00    -0.422 C  
BRANCH   6  10
HETATM   10  C   UNL     1      -9.440  10.212  67.506  1.00  0.00    -0.152 C  
BRANCH  10  11
HETATM   11  C   UNL     1      -9.915   9.256  66.396  1.00  0.00    -0.356 C  
HETATM   12  C   UNL     1      -9.414   7.830  66.534  1.00  0.00    -0.262 C  
ENDBRANCH  10  11
BRANCH  10  13
HETATM   13  C   UNL     1      -8.704  11.446  66.898  1.00  0.00    -0.165 C  
HETATM   14  N   UNL     1      -9.262  12.090  65.838  1.00  0.00    -0.392 N  
HETATM   15  O   UNL     1      -7.666  11.894  67.385  1.00  0.00    -0.139 OA 
HETATM   16  H1  UNL     1      -8.780  12.896  65.441  1.00  0.00     0.000 HD 
HETATM   17  H2  UNL     1     -10.148  11.772  65.446  1.00  0.00     0.000 HD 
ENDBRANCH  10  13
ENDBRANCH   6  10
ENDBRANCH   3   4
ENDBRANCH   2   3
TORSDOF 5
ENDMDL
MODEL      100
REMARK 921   NORMALIZED FREE ENERGY PREDICTED BY IDOCK:   -3.68 KCAL/MOL
REMARK 922        TOTAL FREE ENERGY PREDICTED BY IDOCK:   -5.30 KCAL/MOL
REMARK 923 INTER-LIGAND FREE ENERGY PREDICTED BY IDOCK:   -5.10 KCAL/MOL
REMARK 924 INTRA-LIGAND FREE ENERGY PREDICTED BY IDOCK:   -0.21 KCAL/MOL
REMARK 927      BINDING AFFINITY PREDICTED BY RF-SCORE:    0.00 PKD
ROOT
HETATM    1  C   UNL     1     -14.044   8.949  72.195  1.00  0.00    -0.497 C  
HETATM    2  C   UNL     1     -12.940   9.976  71.978  1.00  0.00    -0.514 C  
ENDROOT
BRANCH   2   3
HETATM    3  C   UNL     1     -11.614   9.284  71.668  1.00  0.00    -0.463 C  
BRANCH   3   4
HETATM    4  C   UNL     1     -10.891   9.841  70.438  1.00  0.00    -0.370 C  
HETATM    5  C   UNL     1     -10.659   8.850  69.309  1.00  0.00    -0.207 C  
HETATM    6  N   UNL     1     -10.621   9.679  68.124  1.00  0.00    -0.223 N  
HETATM    7  C   UNL     1     -11.486  10.743  68.291  1.00  0.00    -0.280 C  
HETATM    8  O   UNL     1     -11.951  11.462  67.417  1.00  0.00    -0.606 OA 
HETATM    9  C   UNL     1     -11.715  10.949  69.770  1.00  0.00    -0.413 C  
BRANCH   6  10
HETATM   10  C   UNL     1     -10.111   9.144  66.846  1.00  0.00    -0.258 C  
BRANCH  10  11
HETATM   11  C   UNL     1      -8.865   9.863  66.295  1.00  0.00    -0.160 C  
HETATM   12  C   UNL     1      -9.074  10.555  64.960  1.00  0.00    -0.231 C  
ENDBRANCH  10  11
BRANCH  10  13
HETATM   13  C   UNL     1     -10.023   7.607  66.591  1.00  0.00    -0.214 C  
HETATM   14  N   UNL     1      -8.935   7.107  65.946  1.00  0.00    -0.322 N  
HETATM   15  O   UNL     1     -10.876   6.825  67.009  1.00  0.00    -0.340 OA 
HETATM   16  H1  UNL     1      -8.878   6.103  65.780  1.00  0.00     0.000 HD 
HETATM   17  H2  UNL     1      -8.187   7.727  65.634  1.00  0.00     0.000 HD 
ENDBRANCH  10  13
ENDBRANCH   6  10
ENDBRANCH   3   4
ENDBRANCH   2   3
TORSDOF 5
ENDMDL
MODEL      101
REMARK 921   NORMALIZED FREE ENERGY PREDICTED BY IDOCK:   -3.64 KCAL/MOL
REMARK 922        TOTAL FREE ENERGY PREDICTED BY IDOCK:   -5.25 KCAL/MOL
REMARK 923 INTER-LIGAND FREE ENERGY PREDICTED BY IDOCK:   -5.12 KCAL/MOL
REMARK 924 INTRA-LIGAND FREE ENERGY PREDICTED BY IDOCK:   -0.14 KCAL/MOL
REMARK 927      BINDING AFFINITY PREDICTED BY RF-SCORE:    0.00 PKD
ROOT
HETATM    1  C   UNL     1     -10.043   9.962  66.262  1.00  0.00    -0.311 C  
HETATM    2  C   UNL     1      -9.114  10.745  67.181  1.00  0.00    -0.153 C  
ENDROOT
BRANCH   2   3
HETATM    3  C   UNL     1      -9.913  11.469  68.264  1.00  0.00    -0.205 C  
BRANCH   3   4
HETATM    4  C   UNL     1     -11.033  10.627  68.882  1.00  0.00    -0.296 C  
HETATM    5  C   UNL     1     -10.583   9.545  69.850  1.00  0.00    -0.241 C  
HETATM    6  N   UNL     1     -11.710   9.389  70.742  1.00  0.00    -0.283 N  
HETATM    7  C   UNL     1     -12.327  10.613  70.908  1.00  0.00    -0.401 C  
HETATM    8  O   UNL     1     -13.095  10.939  71.802  1.00  0.00    -0.464 OA 
HETATM    9  C   UNL     1     -11.967  11.495  69.735  1.00  0.00    -0.415 C  
BRANCH   6  10
HETATM   10  C   UNL     1     -11.803   8.221  71.642  1.00  0.00    -0.299 C  
BRANCH  10  11
HETATM   11  C   UNL     1     -12.321   6.932  70.977  1.00  0.00    -0.401 C  
HETATM   12  C   UNL     1     -11.315   6.237  70.078  1.00  0.00    -0.486 C  
ENDBRANCH  10  11
BRANCH  10  13
HETATM   13  C   UNL     1     -10.673   7.900  72.669  1.00  0.00    -0.347 C  
HETATM   14  N   UNL     1     -10.885   6.933  73.601  1.00  0.00    -0.537 N  
HETATM   15  O   UNL     1      -9.573   8.450  72.624  1.00  0.00    -0.277 OA 
HETATM   16  H1  UNL     1     -10.147   6.723  74.272  1.00  0.00     0.000 HD 
HETATM   17  H2  UNL     1     -11.769   6.424  73.628  1.00  0.00     0.000 HD 
ENDBRANCH  10  13
ENDBRANCH   6  10
ENDBRANCH   3   4
ENDBRANCH   2   3
TORSDOF 5
ENDMDL
MODEL      102
REMARK 921   NORMALIZED FREE ENERGY PREDICTED BY IDOCK:   -3.61 KCAL/MOL
REMARK 922        TOTAL FREE ENERGY PREDICTED BY IDOCK:   -5.22 KCAL/MOL
REMARK 923 INTER-LIGAND FREE ENERGY PREDICTED BY IDOCK:   -4.67 KCAL/MOL
REMARK 924 INTRA-LIGAND FREE ENERGY PREDICTED BY IDOCK:   -0.56 KCAL/MOL
REMARK 927      BINDING AFFINITY PREDICTED BY RF-SCORE:    0.00 PKD
ROOT
HETATM    1  C   UNL     1     -14.210   7.620  71.482  1.00  0.00    -0.564 C  
HETATM    2  C   UNL     1     -14.205   8.818  72.423  1.00  0.00    -0.464 C  
ENDROOT
BRANCH   2   3
HETATM    3  C   UNL     1     -13.063   9.773  72.073  1.00  0.00    -0.546 C  
BRANCH   3   4
HETATM    4  C   UNL     1     -12.017   9.175  71.128  1.00  0.00    -0.374 C  
HETATM    5  C   UNL     1     -11.659  10.027  69.921  1.00  0.00    -0.175 C  
HETATM    6  N   UNL     1     -10.301   9.637  69.613  1.00  0.00    -0.211 N  
HETATM    7  C   UNL     1      -9.642   9.333  70.788  1.00  0.00    -0.275 C  
HETATM    8  O   UNL     1      -8.434   9.269  70.962  1.00  0.00    -0.248 OA 
HETATM    9  C   UNL     1     -10.671   8.995  71.841  1.00  0.00    -0.401 C  
BRANCH   6  10
HETATM   10  C   UNL     1      -9.686  10.006  68.322  1.00  0.00    -0.141 C  
BRANCH  10  11
HETATM   11  C   UNL     1     -10.381   9.416  67.082  1.00  0.00    -0.326 C  
HETATM   12  C   UNL     1     -10.536   7.906  67.103  1.00  0.00    -0.414 C  
ENDBRANCH  10  11
BRANCH  10  13
HETATM   13  C   UNL     1      -9.201  11.464  68.045  1.00  0.00    -0.171 C  
HETATM   14  N   UNL     1      -9.972  12.279  67.277  1.00  0.00    -0.203 N  
HETATM   15  O   UNL     1      -8.175  11.919  68.551  1.00  0.00    -0.154 OA 
HETATM   16  H1  UNL     1      -9.655  13.232  67.096  1.00  0.00     0.000 HD 
HETATM   17  H2  UNL     1     -10.853  11.945  66.888  1.00  0.00     0.000 HD 
ENDBRANCH  10  13
ENDBRANCH   6  10
ENDBRANCH   3   4
ENDBRANCH   2   3
TORSDOF 5
ENDMDL
MODEL      103
REMARK 921   NORMALIZED FREE ENERGY PREDICTED BY IDOCK:   -3.60 KCAL/MOL
REMARK 922        TOTAL FREE ENERGY PREDICTED BY IDOCK:   -5.21 KCAL/MOL
REMARK 923 INTER-LIGAND FREE ENERGY PREDICTED BY IDOCK:   -4.79 KCAL/MOL
REMARK 924 INTRA-LIGAND FREE ENERGY PREDICTED BY IDOCK:   -0.42 KCAL/MOL
REMARK 927      BINDING AFFINITY PREDICTED BY RF-SCORE:    0.00 PKD
ROOT
HETATM    1  C   UNL     1     -11.171  14.308  66.768  1.00  0.00    -0.337 C  
HETATM    2  C   UNL     1     -11.879  12.977  66.982  1.00  0.00    -0.437 C  
ENDROOT
BRANCH   2   3
HETATM    3  C   UNL     1     -11.906  12.614  68.466  1.00  0.00    -0.342 C  
BRANCH   3   4
HETATM    4  C   UNL     1     -10.971  11.461  68.844  1.00  0.00    -0.276 C  
HETATM    5  C   UNL     1     -11.471  10.548  69.953  1.00  0.00    -0.310 C  
HETATM    6  N   UNL     1     -10.839   9.279  69.667  1.00  0.00    -0.231 N  
HETATM    7  C   UNL     1     -10.720   9.133  68.299  1.00  0.00    -0.122 C  
HETATM    8  O   UNL     1     -10.532   8.095  67.680  1.00  0.00    -0.234 OA 
HETATM    9  C   UNL     1     -10.774  10.502  67.664  1.00  0.00    -0.324 C  
BRANCH   6  10
HETATM   10  C   UNL     1     -10.818   8.203  70.679  1.00  0.00    -0.233 C  
BRANCH  10  11
HETATM   11  C   UNL     1     -10.664   8.685  72.133  1.00  0.00    -0.417 C  
HETATM   12  C   UNL     1      -9.472   8.101  72.870  1.00  0.00    -0.345 C  
ENDBRANCH  10  11
BRANCH  10  13
HETATM   13  C   UNL     1     -11.804   6.997  70.595  1.00  0.00    -0.330 C  
HETATM   14  N   UNL     1     -13.077   7.155  71.044  1.00  0.00    -0.556 N  
HETATM   15  O   UNL     1     -11.485   5.926  70.078  1.00  0.00    -0.300 OA 
HETATM   16  H1  UNL     1     -13.722   6.366  70.990  1.00  0.00     0.000 HD 
HETATM   17  H2  UNL     1     -13.384   8.048  71.430  1.00  0.00     0.000 HD 
ENDBRANCH  10  13
ENDBRANCH   6  10
ENDBRANCH   3   4
ENDBRANCH   2   3
TORSDOF 5
ENDMDL
MODEL      104
REMARK 921   NORMALIZED FREE ENERGY PREDICTED BY IDOCK:   -3.59 KCAL/MOL
REMARK 922        TOTAL FREE ENERGY PREDICTED BY IDOCK:   -5.19 KCAL/MOL
REMARK 923 INTER-LIGAND FREE ENERGY PREDICTED BY IDOCK:   -4.86 KCAL/MOL
REMARK 924 INTRA-LIGAND FREE ENERGY PREDICTED BY IDOCK:   -0.33 KCAL/MOL
REMARK 927      BINDING AFFINITY PREDICTED BY RF-SCORE:    0.00 PKD
ROOT
HETATM    1  C   UNL     1     -12.304  13.539  63.598  1.00  0.00    -0.377 C  
HETATM    2  C   UNL     1     -12.481  12.245  64.381  1.00  0.00    -0.484 C  
ENDROOT
BRANCH   2   3
HETATM    3  C   UNL     1     -11.135  11.739  64.898  1.00  0.00    -0.345 C  
BRANCH   3   4
HETATM    4  C   UNL     1     -10.662  12.426  66.182  1.00  0.00    -0.292 C  
HETATM    5  C   UNL     1      -9.892  13.723  65.987  1.00  0.00    -0.282 C  
HETATM    6  N   UNL     1     -10.152  14.465  67.201  1.00  0.00    -0.251 N  
HETATM    7  C   UNL     1     -11.429  14.177  67.641  1.00  0.00    -0.338 C  
HETATM    8  O   UNL     1     -12.103  14.824  68.430  1.00  0.00    -0.272 OA 
HETATM    9  C   UNL     1     -11.852  12.853  67.050  1.00  0.00    -0.437 C  
BRANCH   6  10
HETATM   10  C   UNL     1      -9.343  15.651  67.547  1.00  0.00    -0.206 C  
BRANCH  10  11
HETATM   11  C   UNL     1      -9.807  16.965  66.892  1.00  0.00    -0.278 C  
HETATM   12  C   UNL     1     -10.626  17.867  67.797  1.00  0.00    -0.399 C  
ENDBRANCH  10  11
BRANCH  10  13
HETATM   13  C   UNL     1      -8.860  15.901  69.010  1.00  0.00    -0.243 C  
HETATM   14  N   UNL     1      -9.510  15.284  70.032  1.00  0.00    -0.427 N  
HETATM   15  O   UNL     1      -7.870  16.588  69.264  1.00  0.00    -0.229 OA 
HETATM   16  H1  UNL     1      -9.194  15.447  70.988  1.00  0.00     0.000 HD 
HETATM   17  H2  UNL     1     -10.301  14.667  69.847  1.00  0.00     0.000 HD 
ENDBRANCH  10  13
ENDBRANCH   6  10
ENDBRANCH   3   4
ENDBRANCH   2   3
TORSDOF 5
ENDMDL
MODEL      105
REMARK 921   NORMALIZED FREE ENERGY PREDICTED BY IDOCK:   -3.59 KCAL/MOL
REMARK 922        TOTAL FREE ENERGY PREDICTED BY IDOCK:   -5.19 KCAL/MOL
REMARK 923 INTER-LIGAND FREE ENERGY PREDICTED BY IDOCK:   -4.80 KCAL/MOL
REMARK 924 INTRA-LIGAND FREE ENERGY PREDICTED BY IDOCK:   -0.39 KCAL/MOL
REMARK 927      BINDING AFFINITY PREDICTED BY RF-SCORE:    0.00 PKD
ROOT
HETATM    1  C   UNL     1     -11.553  13.734  65.537  1.00  0.00    -0.335 C  
HETATM    2  C   UNL     1     -11.996  12.360  66.022  1.00  0.00    -0.419 C  
ENDROOT
BRANCH   2   3
HETATM    3  C   UNL     1     -10.807  11.576  66.577  1.00  0.00    -0.335 C  
BRANCH   3   4
HETATM    4  C   UNL     1     -10.744  11.536  68.106  1.00  0.00    -0.242 C  
HETATM    5  C   UNL     1     -11.729  10.594  68.780  1.00  0.00    -0.188 C  
HETATM    6  N   UNL     1     -11.071  10.231  70.015  1.00  0.00    -0.289 N  
HETATM    7  C   UNL     1      -9.707  10.184  69.802  1.00  0.00    -0.196 C  
HETATM    8  O   UNL     1      -8.868   9.627  70.497  1.00  0.00    -0.225 OA 
HETATM    9  C   UNL     1      -9.382  11.021  68.588  1.00  0.00    -0.196 C  
BRANCH   6  10
HETATM   10  C   UNL     1     -11.820   9.571  71.103  1.00  0.00    -0.358 C  
BRANCH  10  11
HETATM   11  C   UNL     1     -13.168  10.229  71.451  1.00  0.00    -0.464 C  
HETATM   12  C   UNL     1     -13.064  11.662  71.939  1.00  0.00    -0.490 C  
ENDBRANCH  10  11
BRANCH  10  13
HETATM   13  C   UNL     1     -11.924   8.016  71.185  1.00  0.00    -0.277 C  
HETATM   14  N   UNL     1     -12.669   7.457  72.176  1.00  0.00    -0.502 N  
HETATM   15  O   UNL     1     -11.405   7.280  70.346  1.00  0.00    -0.281 OA 
HETATM   16  H1  UNL     1     -12.737   6.441  72.230  1.00  0.00     0.000 HD 
HETATM   17  H2  UNL     1     -13.154   8.045  72.855  1.00  0.00     0.000 HD 
ENDBRANCH  10  13
ENDBRANCH   6  10
ENDBRANCH   3   4
ENDBRANCH   2   3
TORSDOF 5
ENDMDL
MODEL      106
REMARK 921   NORMALIZED FREE ENERGY PREDICTED BY IDOCK:   -3.59 KCAL/MOL
REMARK 922        TOTAL FREE ENERGY PREDICTED BY IDOCK:   -5.19 KCAL/MOL
REMARK 923 INTER-LIGAND FREE ENERGY PREDICTED BY IDOCK:   -4.74 KCAL/MOL
REMARK 924 INTRA-LIGAND FREE ENERGY PREDICTED BY IDOCK:   -0.45 KCAL/MOL
REMARK 927      BINDING AFFINITY PREDICTED BY RF-SCORE:    0.00 PKD
ROOT
HETATM    1  C   UNL     1      -6.185  14.104  70.127  1.00  0.00    -0.151 C  
HETATM    2  C   UNL     1      -7.020  15.292  69.666  1.00  0.00    -0.188 C  
ENDROOT
BRANCH   2   3
HETATM    3  C   UNL     1      -6.555  15.776  68.293  1.00  0.00    -0.124 C  
BRANCH   3   4
HETATM    4  C   UNL     1      -7.516  15.432  67.151  1.00  0.00    -0.224 C  
HETATM    5  C   UNL     1      -8.819  14.767  67.568  1.00  0.00    -0.190 C  
HETATM    6  N   UNL     1      -9.751  15.153  66.532  1.00  0.00    -0.255 N  
HETATM    7  C   UNL     1      -9.433  16.422  66.089  1.00  0.00    -0.329 C  
HETATM    8  O   UNL     1     -10.152  17.190  65.467  1.00  0.00    -0.576 OA 
HETATM    9  C   UNL     1      -7.986  16.699  66.426  1.00  0.00    -0.360 C  
BRANCH   6  10
HETATM   10  C   UNL     1     -11.052  14.467  66.395  1.00  0.00    -0.331 C  
BRANCH  10  11
HETATM   11  C   UNL     1     -11.238  13.693  65.077  1.00  0.00    -0.329 C  
HETATM   12  C   UNL     1     -12.199  14.338  64.095  1.00  0.00    -0.410 C  
ENDBRANCH  10  11
BRANCH  10  13
HETATM   13  C   UNL     1     -11.685  13.690  67.590  1.00  0.00    -0.363 C  
HETATM   14  N   UNL     1     -12.225  14.394  68.621  1.00  0.00    -0.575 N  
HETATM   15  O   UNL     1     -11.769  12.462  67.602  1.00  0.00    -0.337 OA 
HETATM   16  H1  UNL     1     -12.639  13.886  69.402  1.00  0.00     0.000 HD 
HETATM   17  H2  UNL     1     -12.217  15.414  68.614  1.00  0.00     0.000 HD 
ENDBRANCH  10  13
ENDBRANCH   6  10
ENDBRANCH   3   4
ENDBRANCH   2   3
TORSDOF 5
ENDMDL
MODEL      107
REMARK 921   NORMALIZED FREE ENERGY PREDICTED BY IDOCK:   -3.57 KCAL/MOL
REMARK 922        TOTAL FREE ENERGY PREDICTED BY IDOCK:   -5.17 KCAL/MOL
REMARK 923 INTER-LIGAND FREE ENERGY PREDICTED BY IDOCK:   -4.87 KCAL/MOL
REMARK 924 INTRA-LIGAND FREE ENERGY PREDICTED BY IDOCK:   -0.30 KCAL/MOL
REMARK 927      BINDING AFFINITY PREDICTED BY RF-SCORE:    0.00 PKD
ROOT
HETATM    1  C   UNL     1      -9.180   7.088  69.853  1.00  0.00    -0.144 C  
HETATM    2  C   UNL     1      -9.410   8.504  69.340  1.00  0.00    -0.154 C  
ENDROOT
BRANCH   2   3
HETATM    3  C   UNL     1     -10.869   8.917  69.535  1.00  0.00    -0.163 C  
BRANCH   3   4
HETATM    4  C   UNL     1     -11.054  10.157  70.415  1.00  0.00    -0.393 C  
HETATM    5  C   UNL     1     -11.421  11.435  69.679  1.00  0.00    -0.309 C  
HETATM    6  N   UNL     1     -12.161  12.198  70.659  1.00  0.00    -0.364 N  
HETATM    7  C   UNL     1     -12.873  11.330  71.463  1.00  0.00    -0.414 C  
HETATM    8  O   UNL     1     -13.828  11.597  72.177  1.00  0.00    -0.083 OA 
HETATM    9  C   UNL     1     -12.221   9.968  71.393  1.00  0.00    -0.510 C  
BRANCH   6  10
HETATM   10  C   UNL     1     -12.436  13.634  70.446  1.00  0.00    -0.294 C  
BRANCH  10  11
HETATM   11  C   UNL     1     -12.429  14.490  71.725  1.00  0.00    -0.420 C  
HETATM   12  C   UNL     1     -13.359  15.689  71.688  1.00  0.00    -0.543 C  
ENDBRANCH  10  11
BRANCH  10  13
HETATM   13  C   UNL     1     -11.795  14.411  69.254  1.00  0.00    -0.325 C  
HETATM   14  N   UNL     1     -12.510  14.566  68.108  1.00  0.00    -0.505 N  
HETATM   15  O   UNL     1     -10.687  14.942  69.340  1.00  0.00    -0.245 OA 
HETATM   16  H1  UNL     1     -12.090  15.074  67.329  1.00  0.00     0.000 HD 
HETATM   17  H2  UNL     1     -13.451  14.182  68.028  1.00  0.00     0.000 HD 
ENDBRANCH  10  13
ENDBRANCH   6  10
ENDBRANCH   3   4
ENDBRANCH   2   3
TORSDOF 5
ENDMDL
MODEL      108
REMARK 921   NORMALIZED FREE ENERGY PREDICTED BY IDOCK:   -3.57 KCAL/MOL
REMARK 922        TOTAL FREE ENERGY PREDICTED BY IDOCK:   -5.16 KCAL/MOL
REMARK 923 INTER-LIGAND FREE ENERGY PREDICTED BY IDOCK:   -4.72 KCAL/MOL
REMARK 924 INTRA-LIGAND FREE ENERGY PREDICTED BY IDOCK:   -0.44 KCAL/MOL
REMARK 927      BINDING AFFINITY PREDICTED BY RF-SCORE:    0.00 PKD
ROOT
HETATM    1  C   UNL     1     -11.039   6.009  72.787  1.00  0.00    -0.305 C  
HETATM    2  C   UNL     1     -10.904   7.464  73.218  1.00  0.00    -0.417 C  
ENDROOT
BRANCH   2   3
HETATM    3  C   UNL     1     -11.863   8.352  72.425  1.00  0.00    -0.452 C  
BRANCH   3   4
HETATM    4  C   UNL     1     -11.167   9.322  71.466  1.00  0.00    -0.457 C  
HETATM    5  C   UNL     1     -10.443   8.680  70.294  1.00  0.00    -0.210 C  
HETATM    6  N   UNL     1     -10.481   9.696  69.265  1.00  0.00    -0.208 N  
HETATM    7  C   UNL     1     -11.659  10.407  69.378  1.00  0.00    -0.202 C  
HETATM    8  O   UNL     1     -12.181  11.113  68.527  1.00  0.00    -0.600 OA 
HETATM    9  C   UNL     1     -12.184  10.247  70.786  1.00  0.00    -0.447 C  
BRANCH   6  10
HETATM   10  C   UNL     1      -9.621   9.590  68.069  1.00  0.00    -0.137 C  
BRANCH  10  11
HETATM   11  C   UNL     1      -8.124   9.388  68.365  1.00  0.00    -0.109 C  
HETATM   12  C   UNL     1      -7.405  10.629  68.863  1.00  0.00    -0.099 C  
ENDBRANCH  10  11
BRANCH  10  13
HETATM   13  C   UNL     1     -10.061   8.750  66.830  1.00  0.00    -0.278 C  
HETATM   14  N   UNL     1      -9.695   9.167  65.588  1.00  0.00    -0.447 N  
HETATM   15  O   UNL     1     -10.674   7.688  66.943  1.00  0.00    -0.351 OA 
HETATM   16  H1  UNL     1      -9.983   8.617  64.779  1.00  0.00     0.000 HD 
HETATM   17  H2  UNL     1      -9.142  10.016  65.468  1.00  0.00     0.000 HD 
ENDBRANCH  10  13
ENDBRANCH   6  10
ENDBRANCH   3   4
ENDBRANCH   2   3
TORSDOF 5
ENDMDL
MODEL      109
REMARK 921   NORMALIZED FREE ENERGY PREDICTED BY IDOCK:   -3.55 KCAL/MOL
REMARK 922        TOTAL FREE ENERGY PREDICTED BY IDOCK:   -5.14 KCAL/MOL
REMARK 923 INTER-LIGAND FREE ENERGY PREDICTED BY IDOCK:   -4.84 KCAL/MOL
REMARK 924 INTRA-LIGAND FREE ENERGY PREDICTED BY IDOCK:   -0.30 KCAL/MOL
REMARK 927      BINDING AFFINITY PREDICTED BY RF-SCORE:    0.00 PKD
ROOT
HETATM    1  C   UNL     1     -10.266   3.114  74.487  1.00  0.00    -0.216 C  
HETATM    2  C   UNL     1     -10.680   3.623  73.112  1.00  0.00    -0.268 C  
ENDROOT
BRANCH   2   3
HETATM    3  C   UNL     1     -11.401   4.965  73.230  1.00  0.00    -0.408 C  
BRANCH   3   4
HETATM    4  C   UNL     1     -10.899   6.031  72.253  1.00  0.00    -0.289 C  
HETATM    5  C   UNL     1     -11.767   7.274  72.134  1.00  0.00    -0.285 C  
HETATM    6  N   UNL     1     -10.834   8.313  71.757  1.00  0.00    -0.249 N  
HETATM    7  C   UNL     1      -9.614   8.061  72.353  1.00  0.00    -0.232 C  
HETATM    8  O   UNL     1      -8.697   8.852  72.523  1.00  0.00    -0.391 OA 
HETATM    9  C   UNL     1      -9.543   6.593  72.700  1.00  0.00    -0.156 C  
BRANCH   6  10
HETATM   10  C   UNL     1     -11.318   9.610  71.243  1.00  0.00    -0.388 C  
BRANCH  10  11
HETATM   11  C   UNL     1     -10.798   9.986  69.844  1.00  0.00    -0.328 C  
HETATM   12  C   UNL     1     -10.530   8.804  68.930  1.00  0.00    -0.217 C  
ENDBRANCH  10  11
BRANCH  10  13
HETATM   13  C   UNL     1     -12.807  10.043  71.416  1.00  0.00    -0.417 C  
HETATM   14  N   UNL     1     -13.773   9.364  70.742  1.00  0.00    -0.536 N  
HETATM   15  O   UNL     1     -13.143  10.938  72.192  1.00  0.00    -0.463 OA 
HETATM   16  H1  UNL     1     -14.747   9.647  70.855  1.00  0.00     0.000 HD 
HETATM   17  H2  UNL     1     -13.529   8.583  70.132  1.00  0.00     0.000 HD 
ENDBRANCH  10  13
ENDBRANCH   6  10
ENDBRANCH   3   4
ENDBRANCH   2   3
TORSDOF 5
ENDMDL
MODEL      110
REMARK 921   NORMALIZED FREE ENERGY PREDICTED BY IDOCK:   -3.55 KCAL/MOL
REMARK 922        TOTAL FREE ENERGY PREDICTED BY IDOCK:   -5.14 KCAL/MOL
REMARK 923 INTER-LIGAND FREE ENERGY PREDICTED BY IDOCK:   -4.79 KCAL/MOL
REMARK 924 INTRA-LIGAND FREE ENERGY PREDICTED BY IDOCK:   -0.36 KCAL/MOL
REMARK 927      BINDING AFFINITY PREDICTED BY RF-SCORE:    0.00 PKD
ROOT
HETATM    1  C   UNL     1     -13.582  15.019  72.136  1.00  0.00    -0.530 C  
HETATM    2  C   UNL     1     -12.320  14.972  71.286  1.00  0.00    -0.387 C  
ENDROOT
BRANCH   2   3
HETATM    3  C   UNL     1     -12.457  13.932  70.175  1.00  0.00    -0.355 C  
BRANCH   3   4
HETATM    4  C   UNL     1     -11.743  14.310  68.873  1.00  0.00    -0.363 C  
HETATM    5  C   UNL     1     -11.587  15.801  68.620  1.00  0.00    -0.386 C  
HETATM    6  N   UNL     1     -10.397  15.890  67.804  1.00  0.00    -0.271 N  
HETATM    7  C   UNL     1      -9.517  14.894  68.179  1.00  0.00    -0.202 C  
HETATM    8  O   UNL     1      -8.318  14.840  67.947  1.00  0.00    -0.136 OA 
HETATM    9  C   UNL     1     -10.297  13.801  68.871  1.00  0.00    -0.146 C  
BRANCH   6  10
HETATM   10  C   UNL     1     -10.068  17.137  67.084  1.00  0.00    -0.295 C  
BRANCH  10  11
HETATM   11  C   UNL     1     -10.677  17.249  65.674  1.00  0.00    -0.123 C  
HETATM   12  C   UNL     1     -11.027  15.921  65.029  1.00  0.00    -0.426 C  
ENDBRANCH  10  11
BRANCH  10  13
HETATM   13  C   UNL     1     -10.089  18.518  67.809  1.00  0.00    -0.364 C  
HETATM   14  N   UNL     1     -10.177  19.652  67.064  1.00  0.00    -0.406 N  
HETATM   15  O   UNL     1     -10.091  18.613  69.036  1.00  0.00    -0.394 OA 
HETATM   16  H1  UNL     1     -10.191  20.555  67.538  1.00  0.00     0.000 HD 
HETATM   17  H2  UNL     1     -10.230  19.602  66.046  1.00  0.00     0.000 HD 
ENDBRANCH  10  13
ENDBRANCH   6  10
ENDBRANCH   3   4
ENDBRANCH   2   3
TORSDOF 5
ENDMDL
MODEL      111
REMARK 921   NORMALIZED FREE ENERGY PREDICTED BY IDOCK:   -3.54 KCAL/MOL
REMARK 922        TOTAL FREE ENERGY PREDICTED BY IDOCK:   -5.13 KCAL/MOL
REMARK 923 INTER-LIGAND FREE ENERGY PREDICTED BY IDOCK:   -4.82 KCAL/MOL
REMARK 924 INTRA-LIGAND FREE ENERGY PREDICTED BY IDOCK:   -0.31 KCAL/MOL
REMARK 927      BINDING AFFINITY PREDICTED BY RF-SCORE:    0.00 PKD
ROOT
HETATM    1  C   UNL     1      -9.040   9.815  64.810  1.00  0.00    -0.290 C  
HETATM    2  C   UNL     1      -9.491   9.215  66.136  1.00  0.00    -0.309 C  
ENDROOT
BRANCH   2   3
HETATM    3  C   UNL     1      -9.944  10.313  67.097  1.00  0.00    -0.243 C  
BRANCH   3   4
HETATM    4  C   UNL     1     -11.064   9.886  68.050  1.00  0.00    -0.220 C  
HETATM    5  C   UNL     1     -10.638   8.990  69.203  1.00  0.00    -0.203 C  
HETATM    6  N   UNL     1     -11.603   9.280  70.241  1.00  0.00    -0.177 N  
HETATM    7  C   UNL     1     -11.969  10.609  70.157  1.00  0.00    -0.334 C  
HETATM    8  O   UNL     1     -12.505  11.284  71.024  1.00  0.00    -0.382 OA 
HETATM    9  C   UNL     1     -11.677  11.100  68.759  1.00  0.00    -0.394 C  
BRANCH   6  10
HETATM   10  C   UNL     1     -11.731   8.398  71.418  1.00  0.00    -0.287 C  
BRANCH  10  11
HETATM   11  C   UNL     1     -10.662   8.613  72.506  1.00  0.00    -0.214 C  
HETATM   12  C   UNL     1      -9.256   8.213  72.098  1.00  0.00    -0.258 C  
ENDBRANCH  10  11
BRANCH  10  13
HETATM   13  C   UNL     1     -13.123   8.103  72.059  1.00  0.00    -0.293 C  
HETATM   14  N   UNL     1     -13.581   8.920  73.044  1.00  0.00    -0.844 N  
HETATM   15  O   UNL     1     -13.847   7.191  71.658  1.00  0.00    -0.375 OA 
HETATM   16  H1  UNL     1     -14.491   8.726  73.463  1.00  0.00     0.000 HD 
HETATM   17  H2  UNL     1     -13.025   9.714  73.360  1.00  0.00     0.000 HD 
ENDBRANCH  10  13
ENDBRANCH   6  10
ENDBRANCH   3   4
ENDBRANCH   2   3
TORSDOF 5
ENDMDL
MODEL      112
REMARK 921   NORMALIZED FREE ENERGY PREDICTED BY IDOCK:   -3.53 KCAL/MOL
REMARK 922        TOTAL FREE ENERGY PREDICTED BY IDOCK:   -5.11 KCAL/MOL
REMARK 923 INTER-LIGAND FREE ENERGY PREDICTED BY IDOCK:   -4.80 KCAL/MOL
REMARK 924 INTRA-LIGAND FREE ENERGY PREDICTED BY IDOCK:   -0.31 KCAL/MOL
REMARK 927      BINDING AFFINITY PREDICTED BY RF-SCORE:    0.00 PKD
ROOT
HETATM    1  C   UNL     1      -6.266   9.452  63.978  1.00  0.00    -0.092 C  
HETATM    2  C   UNL     1      -7.751   9.437  63.640  1.00  0.00    -0.123 C  
ENDROOT
BRANCH   2   3
HETATM    3  C   UNL     1      -8.580   9.068  64.869  1.00  0.00    -0.206 C  
BRANCH   3   4
HETATM    4  C   UNL     1      -9.746  10.021  65.145  1.00  0.00    -0.380 C  
HETATM    5  C   UNL     1      -9.430  11.200  66.052  1.00  0.00    -0.208 C  
HETATM    6  N   UNL     1     -10.364  12.221  65.630  1.00  0.00    -0.251 N  
HETATM    7  C   UNL     1     -10.580  12.100  64.271  1.00  0.00    -0.345 C  
HETATM    8  O   UNL     1     -11.043  12.945  63.518  1.00  0.00    -0.398 OA 
HETATM    9  C   UNL     1     -10.226  10.693  63.852  1.00  0.00    -0.306 C  
BRANCH   6  10
HETATM   10  C   UNL     1     -10.597  13.419  66.461  1.00  0.00    -0.287 C  
BRANCH  10  11
HETATM   11  C   UNL     1      -9.646  14.597  66.177  1.00  0.00    -0.336 C  
HETATM   12  C   UNL     1     -10.255  15.716  65.352  1.00  0.00    -0.401 C  
ENDBRANCH  10  11
BRANCH  10  13
HETATM   13  C   UNL     1     -12.041  13.930  66.756  1.00  0.00    -0.439 C  
HETATM   14  N   UNL     1     -12.303  14.511  67.957  1.00  0.00    -0.594 N  
HETATM   15  O   UNL     1     -12.937  13.882  65.912  1.00  0.00    -0.436 OA 
HETATM   16  H1  UNL     1     -13.247  14.844  68.149  1.00  0.00     0.000 HD 
HETATM   17  H2  UNL     1     -11.566  14.611  68.656  1.00  0.00     0.000 HD 
ENDBRANCH  10  13
ENDBRANCH   6  10
ENDBRANCH   3   4
ENDBRANCH   2   3
TORSDOF 5
ENDMDL
MODEL      113
REMARK 921   NORMALIZED FREE ENERGY PREDICTED BY IDOCK:   -3.52 KCAL/MOL
REMARK 922        TOTAL FREE ENERGY PREDICTED BY IDOCK:   -5.11 KCAL/MOL
REMARK 923 INTER-LIGAND FREE ENERGY PREDICTED BY IDOCK:   -4.58 KCAL/MOL
REMARK 924 INTRA-LIGAND FREE ENERGY PREDICTED BY IDOCK:   -0.52 KCAL/MOL
REMARK 927      BINDING AFFINITY PREDICTED BY RF-SCORE:    0.00 PKD
ROOT
HETATM    1  C   UNL     1      -8.949   8.452  66.041  1.00  0.00    -0.228 C  
HETATM    2  C   UNL     1     -10.053   9.411  66.466  1.00  0.00    -0.332 C  
ENDROOT
BRANCH   2   3
HETATM    3  C   UNL     1      -9.461  10.660  67.117  1.00  0.00    -0.177 C  
BRANCH   3   4
HETATM    4  C   UNL     1      -9.779  10.797  68.609  1.00  0.00    -0.187 C  
HETATM    5  C   UNL     1     -11.009  10.044  69.090  1.00  0.00    -0.220 C  
HETATM    6  N   UNL     1     -10.723   9.766  70.480  1.00  0.00    -0.297 N  
HETATM    7  C   UNL     1      -9.366   9.558  70.628  1.00  0.00    -0.199 C  
HETATM    8  O   UNL     1      -8.800   9.008  71.562  1.00  0.00    -0.289 OA 
HETATM    9  C   UNL     1      -8.651  10.210  69.468  1.00  0.00    -0.177 C  
BRANCH   6  10
HETATM   10  C   UNL     1     -11.793   9.318  71.395  1.00  0.00    -0.358 C  
BRANCH  10  11
HETATM   11  C   UNL     1     -13.117  10.093  71.269  1.00  0.00    -0.490 C  
HETATM   12  C   UNL     1     -13.037  11.553  71.679  1.00  0.00    -0.478 C  
ENDBRANCH  10  11
BRANCH  10  13
HETATM   13  C   UNL     1     -12.059   7.801  71.645  1.00  0.00    -0.304 C  
HETATM   14  N   UNL     1     -12.618   7.058  70.653  1.00  0.00    -0.593 N  
HETATM   15  O   UNL     1     -11.723   7.242  72.689  1.00  0.00    -0.253 OA 
HETATM   16  H1  UNL     1     -12.792   6.067  70.817  1.00  0.00     0.000 HD 
HETATM   17  H2  UNL     1     -12.859   7.485  69.758  1.00  0.00     0.000 HD 
ENDBRANCH  10  13
ENDBRANCH   6  10
ENDBRANCH   3   4
ENDBRANCH   2   3
TORSDOF 5
ENDMDL
MODEL      114
REMARK 921   NORMALIZED FREE ENERGY PREDICTED BY IDOCK:   -3.49 KCAL/MOL
REMARK 922        TOTAL FREE ENERGY PREDICTED BY IDOCK:   -5.07 KCAL/MOL
REMARK 923 INTER-LIGAND FREE ENERGY PREDICTED BY IDOCK:   -4.65 KCAL/MOL
REMARK 924 INTRA-LIGAND FREE ENERGY PREDICTED BY IDOCK:   -0.42 KCAL/MOL
REMARK 927      BINDING AFFINITY PREDICTED BY RF-SCORE:    0.00 PKD
ROOT
HETATM    1  C   UNL     1     -11.390  13.855  64.632  1.00  0.00    -0.380 C  
HETATM    2  C   UNL     1     -12.339  13.726  65.817  1.00  0.00    -0.523 C  
ENDROOT
BRANCH   2   3
HETATM    3  C   UNL     1     -11.585  13.266  67.064  1.00  0.00    -0.404 C  
BRANCH   3   4
HETATM    4  C   UNL     1     -11.784  11.787  67.404  1.00  0.00    -0.304 C  
HETATM    5  C   UNL     1     -10.704  10.845  66.895  1.00  0.00    -0.264 C  
HETATM    6  N   UNL     1     -10.726   9.751  67.840  1.00  0.00    -0.259 N  
HETATM    7  C   UNL     1     -11.044  10.242  69.091  1.00  0.00    -0.235 C  
HETATM    8  O   UNL     1     -10.858   9.696  70.169  1.00  0.00    -0.241 OA 
HETATM    9  C   UNL     1     -11.757  11.562  68.921  1.00  0.00    -0.403 C  
BRANCH   6  10
HETATM   10  C   UNL     1     -10.040   8.478  67.536  1.00  0.00    -0.221 C  
BRANCH  10  11
HETATM   11  C   UNL     1      -8.550   8.440  67.919  1.00  0.00    -0.131 C  
HETATM   12  C   UNL     1      -7.707   7.491  67.085  1.00  0.00    -0.112 C  
ENDBRANCH  10  11
BRANCH  10  13
HETATM   13  C   UNL     1     -10.723   7.105  67.822  1.00  0.00    -0.212 C  
HETATM   14  N   UNL     1     -11.524   6.556  66.870  1.00  0.00    -0.780 N  
HETATM   15  O   UNL     1     -10.511   6.471  68.856  1.00  0.00    -0.179 OA 
HETATM   16  H1  UNL     1     -11.970   5.658  67.057  1.00  0.00     0.000 HD 
HETATM   17  H2  UNL     1     -11.676   7.034  65.981  1.00  0.00     0.000 HD 
ENDBRANCH  10  13
ENDBRANCH   6  10
ENDBRANCH   3   4
ENDBRANCH   2   3
TORSDOF 5
ENDMDL
MODEL      115
REMARK 921   NORMALIZED FREE ENERGY PREDICTED BY IDOCK:   -3.47 KCAL/MOL
REMARK 922        TOTAL FREE ENERGY PREDICTED BY IDOCK:   -5.04 KCAL/MOL
REMARK 923 INTER-LIGAND FREE ENERGY PREDICTED BY IDOCK:   -4.63 KCAL/MOL
REMARK 924 INTRA-LIGAND FREE ENERGY PREDICTED BY IDOCK:   -0.41 KCAL/MOL
REMARK 927      BINDING AFFINITY PREDICTED BY RF-SCORE:    0.00 PKD
ROOT
HETATM    1  C   UNL     1     -14.124   7.858  71.351  1.00  0.00    -0.429 C  
HETATM    2  C   UNL     1     -14.074   8.995  72.364  1.00  0.00    -0.478 C  
ENDROOT
BRANCH   2   3
HETATM    3  C   UNL     1     -12.836   9.862  72.140  1.00  0.00    -0.435 C  
BRANCH   3   4
HETATM    4  C   UNL     1     -12.458  10.043  70.667  1.00  0.00    -0.321 C  
HETATM    5  C   UNL     1     -12.147  11.469  70.240  1.00  0.00    -0.359 C  
HETATM    6  N   UNL     1     -11.229  11.306  69.134  1.00  0.00    -0.250 N  
HETATM    7  C   UNL     1     -10.446  10.191  69.359  1.00  0.00    -0.233 C  
HETATM    8  O   UNL     1      -9.381   9.916  68.826  1.00  0.00    -0.147 OA 
HETATM    9  C   UNL     1     -11.166   9.288  70.333  1.00  0.00    -0.290 C  
BRANCH   6  10
HETATM   10  C   UNL     1     -10.922  12.439  68.237  1.00  0.00    -0.236 C  
BRANCH  10  11
HETATM   11  C   UNL     1     -12.150  13.225  67.744  1.00  0.00    -0.281 C  
HETATM   12  C   UNL     1     -12.078  13.665  66.293  1.00  0.00    -0.477 C  
ENDBRANCH  10  11
BRANCH  10  13
HETATM   13  C   UNL     1      -9.728  13.400  68.530  1.00  0.00    -0.156 C  
HETATM   14  N   UNL     1      -8.464  12.899  68.531  1.00  0.00    -0.322 N  
HETATM   15  O   UNL     1      -9.888  14.609  68.698  1.00  0.00    -0.214 OA 
HETATM   16  H1  UNL     1      -7.684  13.528  68.723  1.00  0.00     0.000 HD 
HETATM   17  H2  UNL     1      -8.297  11.910  68.344  1.00  0.00     0.000 HD 
ENDBRANCH  10  13
ENDBRANCH   6  10
ENDBRANCH   3   4
ENDBRANCH   2   3
TORSDOF 5
ENDMDL
MODEL      116
REMARK 921   NORMALIZED FREE ENERGY PREDICTED BY IDOCK:   -3.46 KCAL/MOL
REMARK 922        TOTAL FREE ENERGY PREDICTED BY IDOCK:   -5.03 KCAL/MOL
REMARK 923 INTER-LIGAND FREE ENERGY PREDICTED BY IDOCK:   -4.47 KCAL/MOL
REMARK 924 INTRA-LIGAND FREE ENERGY PREDICTED BY IDOCK:   -0.56 KCAL/MOL
REMARK 927      BINDING AFFINITY PREDICTED BY RF-SCORE:    0.00 PKD
ROOT
HETATM    1  C   UNL     1      -6.808  16.145  67.860  1.00  0.00    -0.153 C  
HETATM    2  C   UNL     1      -8.016  16.548  67.023  1.00  0.00    -0.239 C  
ENDROOT
BRANCH   2   3
HETATM    3  C   UNL     1      -9.215  16.854  67.919  1.00  0.00    -0.234 C  
BRANCH   3   4
HETATM    4  C   UNL     1     -10.462  16.025  67.599  1.00  0.00    -0.292 C  
HETATM    5  C   UNL     1     -10.201  14.608  67.113  1.00  0.00    -0.256 C  
HETATM    6  N   UNL     1     -11.381  13.880  67.522  1.00  0.00    -0.303 N  
HETATM    7  C   UNL     1     -11.844  14.404  68.713  1.00  0.00    -0.325 C  
HETATM    8  O   UNL     1     -12.607  13.873  69.507  1.00  0.00    -0.210 OA 
HETATM    9  C   UNL     1     -11.318  15.813  68.854  1.00  0.00    -0.356 C  
BRANCH   6  10
HETATM   10  C   UNL     1     -11.666  12.538  66.975  1.00  0.00    -0.367 C  
BRANCH  10  11
HETATM   11  C   UNL     1     -11.375  12.378  65.471  1.00  0.00    -0.387 C  
HETATM   12  C   UNL     1     -12.449  12.939  64.557  1.00  0.00    -0.468 C  
ENDBRANCH  10  11
BRANCH  10  13
HETATM   13  C   UNL     1     -11.272  11.246  67.757  1.00  0.00    -0.291 C  
HETATM   14  N   UNL     1     -11.882  10.983  68.943  1.00  0.00    -0.371 N  
HETATM   15  O   UNL     1     -10.473  10.426  67.305  1.00  0.00    -0.221 OA 
HETATM   16  H1  UNL     1     -11.625  10.138  69.454  1.00  0.00     0.000 HD 
HETATM   17  H2  UNL     1     -12.587  11.619  69.317  1.00  0.00     0.000 HD 
ENDBRANCH  10  13
ENDBRANCH   6  10
ENDBRANCH   3   4
ENDBRANCH   2   3
TORSDOF 5
ENDMDL
MODEL      117
REMARK 921   NORMALIZED FREE ENERGY PREDICTED BY IDOCK:   -3.46 KCAL/MOL
REMARK 922        TOTAL FREE ENERGY PREDICTED BY IDOCK:   -5.03 KCAL/MOL
REMARK 923 INTER-LIGAND FREE ENERGY PREDICTED BY IDOCK:   -4.78 KCAL/MOL
REMARK 924 INTRA-LIGAND FREE ENERGY PREDICTED BY IDOCK:   -0.25 KCAL/MOL
REMARK 927      BINDING AFFINITY PREDICTED BY RF-SCORE:    0.00 PKD
ROOT
HETATM    1  C   UNL     1     -10.806  12.369  65.332  1.00  0.00    -0.320 C  
HETATM    2  C   UNL     1     -11.904  12.615  66.360  1.00  0.00    -0.466 C  
ENDROOT
BRANCH   2   3
HETATM    3  C   UNL     1     -11.354  12.479  67.779  1.00  0.00    -0.351 C  
BRANCH   3   4
HETATM    4  C   UNL     1     -11.719  11.161  68.466  1.00  0.00    -0.368 C  
HETATM    5  C   UNL     1     -10.924   9.944  68.017  1.00  0.00    -0.213 C  
HETATM    6  N   UNL     1     -10.938   9.076  69.173  1.00  0.00    -0.078 N  
HETATM    7  C   UNL     1     -10.923   9.849  70.318  1.00  0.00    -0.309 C  
HETATM    8  O   UNL     1     -10.622   9.491  71.447  1.00  0.00    -0.336 OA 
HETATM    9  C   UNL     1     -11.434  11.228  69.972  1.00  0.00    -0.359 C  
BRANCH   6  10
HETATM   10  C   UNL     1     -10.539   7.659  69.056  1.00  0.00    -0.174 C  
BRANCH  10  11
HETATM   11  C   UNL     1     -11.259   6.702  70.024  1.00  0.00    -0.425 C  
HETATM   12  C   UNL     1     -10.340   5.766  70.788  1.00  0.00    -0.301 C  
ENDBRANCH  10  11
BRANCH  10  13
HETATM   13  C   UNL     1     -10.338   6.989  67.661  1.00  0.00    -0.211 C  
HETATM   14  N   UNL     1     -11.396   6.376  67.066  1.00  0.00    -0.730 N  
HETATM   15  O   UNL     1      -9.269   7.051  67.054  1.00  0.00    -0.136 OA 
HETATM   16  H1  UNL     1     -11.264   5.938  66.154  1.00  0.00     0.000 HD 
HETATM   17  H2  UNL     1     -12.308   6.355  67.523  1.00  0.00     0.000 HD 
ENDBRANCH  10  13
ENDBRANCH   6  10
ENDBRANCH   3   4
ENDBRANCH   2   3
TORSDOF 5
ENDMDL
MODEL      118
REMARK 921   NORMALIZED FREE ENERGY PREDICTED BY IDOCK:   -3.45 KCAL/MOL
REMARK 922        TOTAL FREE ENERGY PREDICTED BY IDOCK:   -5.02 KCAL/MOL
REMARK 923 INTER-LIGAND FREE ENERGY PREDICTED BY IDOCK:   -4.51 KCAL/MOL
REMARK 924 INTRA-LIGAND FREE ENERGY PREDICTED BY IDOCK:   -0.51 KCAL/MOL
REMARK 927      BINDING AFFINITY PREDICTED BY RF-SCORE:    0.00 PKD
ROOT
HETATM    1  C   UNL     1     -11.630  15.153  71.625  1.00  0.00    -0.463 C  
HETATM    2  C   UNL     1     -12.161  15.539  70.251  1.00  0.00    -0.432 C  
ENDROOT
BRANCH   2   3
HETATM    3  C   UNL     1     -11.015  15.683  69.250  1.00  0.00    -0.267 C  
BRANCH   3   4
HETATM    4  C   UNL     1     -11.180  14.835  67.985  1.00  0.00    -0.311 C  
HETATM    5  C   UNL     1      -9.921  14.138  67.494  1.00  0.00    -0.236 C  
HETATM    6  N   UNL     1     -10.420  12.970  66.804  1.00  0.00    -0.258 N  
HETATM    7  C   UNL     1     -11.565  12.526  67.438  1.00  0.00    -0.370 C  
HETATM    8  O   UNL     1     -12.080  11.421  67.345  1.00  0.00    -0.533 OA 
HETATM    9  C   UNL     1     -12.153  13.674  68.223  1.00  0.00    -0.306 C  
BRANCH   6  10
HETATM   10  C   UNL     1      -9.539  12.185  65.916  1.00  0.00    -0.214 C  
BRANCH  10  11
HETATM   11  C   UNL     1      -8.720  11.089  66.622  1.00  0.00    -0.160 C  
HETATM   12  C   UNL     1      -7.215  11.234  66.481  1.00  0.00    -0.096 C  
ENDBRANCH  10  11
BRANCH  10  13
HETATM   13  C   UNL     1     -10.029  11.697  64.517  1.00  0.00    -0.253 C  
HETATM   14  N   UNL     1     -10.596  10.465  64.410  1.00  0.00    -0.236 N  
HETATM   15  O   UNL     1      -9.976  12.414  63.518  1.00  0.00    -0.374 OA 
HETATM   16  H1  UNL     1     -10.915  10.146  63.496  1.00  0.00     0.000 HD 
HETATM   17  H2  UNL     1     -10.700   9.869  65.232  1.00  0.00     0.000 HD 
ENDBRANCH  10  13
ENDBRANCH   6  10
ENDBRANCH   3   4
ENDBRANCH   2   3
TORSDOF 5
ENDMDL
MODEL      119
REMARK 921   NORMALIZED FREE ENERGY PREDICTED BY IDOCK:   -3.44 KCAL/MOL
REMARK 922        TOTAL FREE ENERGY PREDICTED BY IDOCK:   -5.00 KCAL/MOL
REMARK 923 INTER-LIGAND FREE ENERGY PREDICTED BY IDOCK:   -4.46 KCAL/MOL
REMARK 924 INTRA-LIGAND FREE ENERGY PREDICTED BY IDOCK:   -0.54 KCAL/MOL
REMARK 927      BINDING AFFINITY PREDICTED BY RF-SCORE:    0.00 PKD
ROOT
HETATM    1  C   UNL     1      -5.311  19.923  63.697  1.00  0.00    -0.275 C  
HETATM    2  C   UNL     1      -6.650  20.245  64.349  1.00  0.00    -0.165 C  
ENDROOT
BRANCH   2   3
HETATM    3  C   UNL     1      -6.490  20.396  65.861  1.00  0.00    -0.255 C  
BRANCH   3   4
HETATM    4  C   UNL     1      -7.194  19.306  66.676  1.00  0.00    -0.228 C  
HETATM    5  C   UNL     1      -8.518  18.816  66.110  1.00  0.00    -0.162 C  
HETATM    6  N   UNL     1      -8.618  17.457  66.594  1.00  0.00    -0.242 N  
HETATM    7  C   UNL     1      -7.353  16.907  66.659  1.00  0.00    -0.263 C  
HETATM    8  O   UNL     1      -7.064  15.721  66.718  1.00  0.00    -0.202 OA 
HETATM    9  C   UNL     1      -6.345  18.030  66.736  1.00  0.00    -0.213 C  
BRANCH   6  10
HETATM   10  C   UNL     1      -9.899  16.726  66.525  1.00  0.00    -0.290 C  
BRANCH  10  11
HETATM   11  C   UNL     1     -10.989  17.240  67.482  1.00  0.00    -0.102 C  
HETATM   12  C   UNL     1     -10.647  17.115  68.956  1.00  0.00    -0.282 C  
ENDBRANCH  10  11
BRANCH  10  13
HETATM   13  C   UNL     1     -10.516  16.304  65.155  1.00  0.00    -0.227 C  
HETATM   14  N   UNL     1     -10.316  15.037  64.704  1.00  0.00    -0.463 N  
HETATM   15  O   UNL     1     -11.232  17.062  64.500  1.00  0.00    -1.091 OA 
HETATM   16  H1  UNL     1     -10.719  14.762  63.809  1.00  0.00     0.000 HD 
HETATM   17  H2  UNL     1      -9.770  14.372  65.252  1.00  0.00     0.000 HD 
ENDBRANCH  10  13
ENDBRANCH   6  10
ENDBRANCH   3   4
ENDBRANCH   2   3
TORSDOF 5
ENDMDL
MODEL      120
REMARK 921   NORMALIZED FREE ENERGY PREDICTED BY IDOCK:   -3.44 KCAL/MOL
REMARK 922        TOTAL FREE ENERGY PREDICTED BY IDOCK:   -5.00 KCAL/MOL
REMARK 923 INTER-LIGAND FREE ENERGY PREDICTED BY IDOCK:   -4.41 KCAL/MOL
REMARK 924 INTRA-LIGAND FREE ENERGY PREDICTED BY IDOCK:   -0.58 KCAL/MOL
REMARK 927      BINDING AFFINITY PREDICTED BY RF-SCORE:    0.00 PKD
ROOT
HETATM    1  C   UNL     1      -8.783   8.490  65.563  1.00  0.00    -0.208 C  
HETATM    2  C   UNL     1      -9.607   8.254  66.822  1.00  0.00    -0.288 C  
ENDROOT
BRANCH   2   3
HETATM    3  C   UNL     1      -9.025   9.032  68.001  1.00  0.00    -0.133 C  
BRANCH   3   4
HETATM    4  C   UNL     1      -9.800  10.306  68.352  1.00  0.00    -0.168 C  
HETATM    5  C   UNL     1      -9.106  11.613  68.005  1.00  0.00    -0.177 C  
HETATM    6  N   UNL     1     -10.197  12.537  67.788  1.00  0.00    -0.212 N  
HETATM    7  C   UNL     1     -11.264  11.853  67.238  1.00  0.00    -0.317 C  
HETATM    8  O   UNL     1     -12.219  12.330  66.643  1.00  0.00    -0.574 OA 
HETATM    9  C   UNL     1     -11.113  10.386  67.565  1.00  0.00    -0.336 C  
BRANCH   6  10
HETATM   10  C   UNL     1      -9.952  13.992  67.729  1.00  0.00    -0.236 C  
BRANCH  10  11
HETATM   11  C   UNL     1      -9.676  14.544  66.319  1.00  0.00    -0.330 C  
HETATM   12  C   UNL     1      -8.912  15.856  66.292  1.00  0.00    -0.381 C  
ENDBRANCH  10  11
BRANCH  10  13
HETATM   13  C   UNL     1     -10.819  14.991  68.557  1.00  0.00    -0.250 C  
HETATM   14  N   UNL     1     -12.150  15.085  68.292  1.00  0.00    -0.567 N  
HETATM   15  O   UNL     1     -10.350  15.652  69.483  1.00  0.00    -0.237 OA 
HETATM   16  H1  UNL     1     -12.716  15.738  68.833  1.00  0.00     0.000 HD 
HETATM   17  H2  UNL     1     -12.575  14.510  67.564  1.00  0.00     0.000 HD 
ENDBRANCH  10  13
ENDBRANCH   6  10
ENDBRANCH   3   4
ENDBRANCH   2   3
TORSDOF 5
ENDMDL
MODEL      121
REMARK 921   NORMALIZED FREE ENERGY PREDICTED BY IDOCK:   -3.44 KCAL/MOL
REMARK 922        TOTAL FREE ENERGY PREDICTED BY IDOCK:   -5.00 KCAL/MOL
REMARK 923 INTER-LIGAND FREE ENERGY PREDICTED BY IDOCK:   -4.57 KCAL/MOL
REMARK 924 INTRA-LIGAND FREE ENERGY PREDICTED BY IDOCK:   -0.43 KCAL/MOL
REMARK 927      BINDING AFFINITY PREDICTED BY RF-SCORE:    0.00 PKD
ROOT
HETATM    1  C   UNL     1     -11.284   5.597  72.372  1.00  0.00    -0.336 C  
HETATM    2  C   UNL     1     -10.564   6.529  71.406  1.00  0.00    -0.266 C  
ENDROOT
BRANCH   2   3
HETATM    3  C   UNL     1      -9.807   7.616  72.169  1.00  0.00    -0.226 C  
BRANCH   3   4
HETATM    4  C   UNL     1     -10.075   9.036  71.663  1.00  0.00    -0.405 C  
HETATM    5  C   UNL     1      -9.738   9.287  70.202  1.00  0.00    -0.218 C  
HETATM    6  N   UNL     1     -10.640  10.349  69.816  1.00  0.00    -0.260 N  
HETATM    7  C   UNL     1     -11.829  10.202  70.503  1.00  0.00    -0.321 C  
HETATM    8  O   UNL     1     -12.911  10.700  70.224  1.00  0.00    -0.302 OA 
HETATM    9  C   UNL     1     -11.569   9.376  71.741  1.00  0.00    -0.433 C  
BRANCH   6  10
HETATM   10  C   UNL     1     -10.429  11.098  68.561  1.00  0.00    -0.191 C  
BRANCH  10  11
HETATM   11  C   UNL     1     -10.751  10.311  67.276  1.00  0.00    -0.323 C  
HETATM   12  C   UNL     1      -9.873  10.657  66.087  1.00  0.00    -0.268 C  
ENDBRANCH  10  11
BRANCH  10  13
HETATM   13  C   UNL     1     -10.873  12.588  68.425  1.00  0.00    -0.243 C  
HETATM   14  N   UNL     1     -10.080  13.561  68.947  1.00  0.00    -0.425 N  
HETATM   15  O   UNL     1     -11.885  12.915  67.805  1.00  0.00    -0.349 OA 
HETATM   16  H1  UNL     1     -10.370  14.535  68.859  1.00  0.00     0.000 HD 
HETATM   17  H2  UNL     1      -9.208  13.322  69.421  1.00  0.00     0.000 HD 
ENDBRANCH  10  13
ENDBRANCH   6  10
ENDBRANCH   3   4
ENDBRANCH   2   3
TORSDOF 5
ENDMDL
MODEL      122
REMARK 921   NORMALIZED FREE ENERGY PREDICTED BY IDOCK:   -3.43 KCAL/MOL
REMARK 922        TOTAL FREE ENERGY PREDICTED BY IDOCK:   -4.99 KCAL/MOL
REMARK 923 INTER-LIGAND FREE ENERGY PREDICTED BY IDOCK:   -4.49 KCAL/MOL
REMARK 924 INTRA-LIGAND FREE ENERGY PREDICTED BY IDOCK:   -0.51 KCAL/MOL
REMARK 927      BINDING AFFINITY PREDICTED BY RF-SCORE:    0.00 PKD
ROOT
HETATM    1  C   UNL     1     -10.679   3.104  73.874  1.00  0.00    -0.286 C  
HETATM    2  C   UNL     1     -10.431   4.505  74.417  1.00  0.00    -0.318 C  
ENDROOT
BRANCH   2   3
HETATM    3  C   UNL     1      -9.828   5.403  73.338  1.00  0.00    -0.173 C  
BRANCH   3   4
HETATM    4  C   UNL     1     -10.864   6.055  72.418  1.00  0.00    -0.288 C  
HETATM    5  C   UNL     1     -10.645   7.532  72.126  1.00  0.00    -0.221 C  
HETATM    6  N   UNL     1     -11.249   7.720  70.826  1.00  0.00    -0.269 N  
HETATM    7  C   UNL     1     -11.081   6.571  70.079  1.00  0.00    -0.363 C  
HETATM    8  O   UNL     1     -11.172   6.458  68.865  1.00  0.00    -0.343 OA 
HETATM    9  C   UNL     1     -10.842   5.416  71.023  1.00  0.00    -0.189 C  
BRANCH   6  10
HETATM   10  C   UNL     1     -11.524   9.078  70.313  1.00  0.00    -0.124 C  
BRANCH  10  11
HETATM   11  C   UNL     1     -11.852  10.124  71.394  1.00  0.00    -0.414 C  
HETATM   12  C   UNL     1     -13.269  10.050  71.935  1.00  0.00    -0.557 C  
ENDBRANCH  10  11
BRANCH  10  13
HETATM   13  C   UNL     1     -10.654   9.705  69.180  1.00  0.00    -0.220 C  
HETATM   14  N   UNL     1     -11.004   9.489  67.884  1.00  0.00    -0.503 N  
HETATM   15  O   UNL     1      -9.696  10.440  69.422  1.00  0.00    -0.217 OA 
HETATM   16  H1  UNL     1     -10.435   9.899  67.144  1.00  0.00     0.000 HD 
HETATM   17  H2  UNL     1     -11.824   8.926  67.655  1.00  0.00     0.000 HD 
ENDBRANCH  10  13
ENDBRANCH   6  10
ENDBRANCH   3   4
ENDBRANCH   2   3
TORSDOF 5
ENDMDL
MODEL      123
REMARK 921   NORMALIZED FREE ENERGY PREDICTED BY IDOCK:   -3.43 KCAL/MOL
REMARK 922        TOTAL FREE ENERGY PREDICTED BY IDOCK:   -4.99 KCAL/MOL
REMARK 923 INTER-LIGAND FREE ENERGY PREDICTED BY IDOCK:   -4.42 KCAL/MOL
REMARK 924 INTRA-LIGAND FREE ENERGY PREDICTED BY IDOCK:   -0.56 KCAL/MOL
REMARK 927      BINDING AFFINITY PREDICTED BY RF-SCORE:    0.00 PKD
ROOT
HETATM    1  C   UNL     1     -12.140  13.332  63.431  1.00  0.00    -0.508 C  
HETATM    2  C   UNL     1     -12.262  12.480  64.688  1.00  0.00    -0.524 C  
ENDROOT
BRANCH   2   3
HETATM    3  C   UNL     1     -12.302  13.362  65.935  1.00  0.00    -0.493 C  
BRANCH   3   4
HETATM    4  C   UNL     1     -11.407  12.870  67.077  1.00  0.00    -0.355 C  
HETATM    5  C   UNL     1     -11.378  11.364  67.285  1.00  0.00    -0.275 C  
HETATM    6  N   UNL     1     -10.075  11.120  67.864  1.00  0.00    -0.173 N  
HETATM    7  C   UNL     1      -9.172  12.023  67.337  1.00  0.00    -0.180 C  
HETATM    8  O   UNL     1      -7.952  11.937  67.341  1.00  0.00    -0.144 OA 
HETATM    9  C   UNL     1      -9.937  13.216  66.812  1.00  0.00    -0.250 C  
BRANCH   6  10
HETATM   10  C   UNL     1      -9.763   9.825  68.500  1.00  0.00    -0.154 C  
BRANCH  10  11
HETATM   11  C   UNL     1      -9.228   8.746  67.540  1.00  0.00    -0.154 C  
HETATM   12  C   UNL     1     -10.297   7.865  66.920  1.00  0.00    -0.400 C  
ENDBRANCH  10  11
BRANCH  10  13
HETATM   13  C   UNL     1      -9.031   9.756  69.876  1.00  0.00    -0.229 C  
HETATM   14  N   UNL     1      -7.840  10.396  70.022  1.00  0.00    -0.345 N  
HETATM   15  O   UNL     1      -9.527   9.194  70.853  1.00  0.00    -0.240 OA 
HETATM   16  H1  UNL     1      -7.363  10.350  70.922  1.00  0.00     0.000 HD 
HETATM   17  H2  UNL     1      -7.431  10.913  69.244  1.00  0.00     0.000 HD 
ENDBRANCH  10  13
ENDBRANCH   6  10
ENDBRANCH   3   4
ENDBRANCH   2   3
TORSDOF 5
ENDMDL
MODEL      124
REMARK 921   NORMALIZED FREE ENERGY PREDICTED BY IDOCK:   -3.41 KCAL/MOL
REMARK 922        TOTAL FREE ENERGY PREDICTED BY IDOCK:   -4.96 KCAL/MOL
REMARK 923 INTER-LIGAND FREE ENERGY PREDICTED BY IDOCK:   -4.91 KCAL/MOL
REMARK 924 INTRA-LIGAND FREE ENERGY PREDICTED BY IDOCK:   -0.06 KCAL/MOL
REMARK 927      BINDING AFFINITY PREDICTED BY RF-SCORE:    0.00 PKD
ROOT
HETATM    1  C   UNL     1     -11.950  12.785  63.264  1.00  0.00    -0.522 C  
HETATM    2  C   UNL     1     -12.017  13.011  64.769  1.00  0.00    -0.443 C  
ENDROOT
BRANCH   2   3
HETATM    3  C   UNL     1     -10.919  12.222  65.481  1.00  0.00    -0.337 C  
BRANCH   3   4
HETATM    4  C   UNL     1     -10.570  12.755  66.874  1.00  0.00    -0.257 C  
HETATM    5  C   UNL     1     -10.779  14.248  67.076  1.00  0.00    -0.290 C  
HETATM    6  N   UNL     1     -11.043  14.370  68.493  1.00  0.00    -0.243 N  
HETATM    7  C   UNL     1     -11.727  13.250  68.923  1.00  0.00    -0.327 C  
HETATM    8  O   UNL     1     -12.380  13.130  69.949  1.00  0.00    -0.241 OA 
HETATM    9  C   UNL     1     -11.470  12.127  67.945  1.00  0.00    -0.392 C  
BRANCH   6  10
HETATM   10  C   UNL     1     -10.999  15.689  69.156  1.00  0.00    -0.259 C  
BRANCH  10  11
HETATM   11  C   UNL     1     -10.690  15.644  70.664  1.00  0.00    -0.242 C  
HETATM   12  C   UNL     1     -11.895  15.854  71.563  1.00  0.00    -0.536 C  
ENDBRANCH  10  11
BRANCH  10  13
HETATM   13  C   UNL     1     -10.297  16.909  68.483  1.00  0.00    -0.336 C  
HETATM   14  N   UNL     1     -11.025  17.721  67.670  1.00  0.00    -0.212 N  
HETATM   15  O   UNL     1      -9.123  17.197  68.712  1.00  0.00    -0.270 OA 
HETATM   16  H1  UNL     1     -10.566  18.518  67.229  1.00  0.00     0.000 HD 
HETATM   17  H2  UNL     1     -12.014  17.536  67.502  1.00  0.00     0.000 HD 
ENDBRANCH  10  13
ENDBRANCH   6  10
ENDBRANCH   3   4
ENDBRANCH   2   3
TORSDOF 5
ENDMDL
MODEL      125
REMARK 921   NORMALIZED FREE ENERGY PREDICTED BY IDOCK:   -3.40 KCAL/MOL
REMARK 922        TOTAL FREE ENERGY PREDICTED BY IDOCK:   -4.95 KCAL/MOL
REMARK 923 INTER-LIGAND FREE ENERGY PREDICTED BY IDOCK:   -4.48 KCAL/MOL
REMARK 924 INTRA-LIGAND FREE ENERGY PREDICTED BY IDOCK:   -0.47 KCAL/MOL
REMARK 927      BINDING AFFINITY PREDICTED BY RF-SCORE:    0.00 PKD
ROOT
HETATM    1  C   UNL     1     -13.360  11.990  71.991  1.00  0.00    -0.447 C  
HETATM    2  C   UNL     1     -12.965  10.703  71.280  1.00  0.00    -0.513 C  
ENDROOT
BRANCH   2   3
HETATM    3  C   UNL     1     -13.343   9.484  72.121  1.00  0.00    -0.545 C  
BRANCH   3   4
HETATM    4  C   UNL     1     -12.268   8.395  72.162  1.00  0.00    -0.434 C  
HETATM    5  C   UNL     1     -12.374   7.327  71.084  1.00  0.00    -0.345 C  
HETATM    6  N   UNL     1     -11.010   6.881  70.904  1.00  0.00    -0.244 N  
HETATM    7  C   UNL     1     -10.157   7.949  71.101  1.00  0.00    -0.184 C  
HETATM    8  O   UNL     1      -8.992   8.041  70.741  1.00  0.00    -0.140 OA 
HETATM    9  C   UNL     1     -10.873   8.989  71.930  1.00  0.00    -0.413 C  
BRANCH   6  10
HETATM   10  C   UNL     1     -10.716   5.637  70.166  1.00  0.00    -0.305 C  
BRANCH  10  11
HETATM   11  C   UNL     1     -10.613   5.800  68.638  1.00  0.00    -0.305 C  
HETATM   12  C   UNL     1      -9.195   5.809  68.098  1.00  0.00    -0.110 C  
ENDBRANCH  10  11
BRANCH  10  13
HETATM   13  C   UNL     1      -9.654   4.619  70.688  1.00  0.00    -0.191 C  
HETATM   14  N   UNL     1      -8.631   5.073  71.460  1.00  0.00    -0.122 N  
HETATM   15  O   UNL     1      -9.747   3.410  70.475  1.00  0.00    -0.177 OA 
HETATM   16  H1  UNL     1      -7.937   4.408  71.801  1.00  0.00     0.000 HD 
HETATM   17  H2  UNL     1      -8.559   6.063  71.696  1.00  0.00     0.000 HD 
ENDBRANCH  10  13
ENDBRANCH   6  10
ENDBRANCH   3   4
ENDBRANCH   2   3
TORSDOF 5
ENDMDL
MODEL      126
REMARK 921   NORMALIZED FREE ENERGY PREDICTED BY IDOCK:   -3.38 KCAL/MOL
REMARK 922        TOTAL FREE ENERGY PREDICTED BY IDOCK:   -4.93 KCAL/MOL
REMARK 923 INTER-LIGAND FREE ENERGY PREDICTED BY IDOCK:   -4.97 KCAL/MOL
REMARK 924 INTRA-LIGAND FREE ENERGY PREDICTED BY IDOCK:    0.05 KCAL/MOL
REMARK 927      BINDING AFFINITY PREDICTED BY RF-SCORE:    0.00 PKD
ROOT
HETATM    1  C   UNL     1      -9.127   8.731  70.961  1.00  0.00    -0.272 C  
HETATM    2  C   UNL     1      -9.518   9.196  69.564  1.00  0.00    -0.170 C  
ENDROOT
BRANCH   2   3
HETATM    3  C   UNL     1      -8.736  10.450  69.175  1.00  0.00    -0.173 C  
BRANCH   3   4
HETATM    4  C   UNL     1      -8.968  10.909  67.733  1.00  0.00    -0.139 C  
HETATM    5  C   UNL     1     -10.423  11.003  67.300  1.00  0.00    -0.231 C  
HETATM    6  N   UNL     1     -10.413  12.022  66.274  1.00  0.00    -0.232 N  
HETATM    7  C   UNL     1      -9.452  12.964  66.583  1.00  0.00    -0.255 C  
HETATM    8  O   UNL     1      -9.361  14.101  66.141  1.00  0.00    -0.237 OA 
HETATM    9  C   UNL     1      -8.445  12.334  67.517  1.00  0.00    -0.172 C  
BRANCH   6  10
HETATM   10  C   UNL     1     -11.574  12.202  65.379  1.00  0.00    -0.330 C  
BRANCH  10  11
HETATM   11  C   UNL     1     -12.371  13.499  65.608  1.00  0.00    -0.522 C  
HETATM   12  C   UNL     1     -12.216  14.539  64.513  1.00  0.00    -0.483 C  
ENDBRANCH  10  11
BRANCH  10  13
HETATM   13  C   UNL     1     -11.481  11.869  63.858  1.00  0.00    -0.426 C  
HETATM   14  N   UNL     1     -12.626  11.627  63.165  1.00  0.00    -0.909 N  
HETATM   15  O   UNL     1     -10.410  11.880  63.250  1.00  0.00    -0.424 OA 
HETATM   16  H1  UNL     1     -12.564  11.409  62.171  1.00  0.00     0.000 HD 
HETATM   17  H2  UNL     1     -13.532  11.662  63.632  1.00  0.00     0.000 HD 
ENDBRANCH  10  13
ENDBRANCH   6  10
ENDBRANCH   3   4
ENDBRANCH   2   3
TORSDOF 5
ENDMDL
MODEL      127
REMARK 921   NORMALIZED FREE ENERGY PREDICTED BY IDOCK:   -3.38 KCAL/MOL
REMARK 922        TOTAL FREE ENERGY PREDICTED BY IDOCK:   -4.92 KCAL/MOL
REMARK 923 INTER-LIGAND FREE ENERGY PREDICTED BY IDOCK:   -4.39 KCAL/MOL
REMARK 924 INTRA-LIGAND FREE ENERGY PREDICTED BY IDOCK:   -0.52 KCAL/MOL
REMARK 927      BINDING AFFINITY PREDICTED BY RF-SCORE:    0.00 PKD
ROOT
HETATM    1  C   UNL     1     -13.212  12.273  72.048  1.00  0.00    -0.508 C  
HETATM    2  C   UNL     1     -13.091  11.075  71.115  1.00  0.00    -0.326 C  
ENDROOT
BRANCH   2   3
HETATM    3  C   UNL     1     -13.079   9.771  71.911  1.00  0.00    -0.544 C  
BRANCH   3   4
HETATM    4  C   UNL     1     -11.872   8.874  71.623  1.00  0.00    -0.415 C  
HETATM    5  C   UNL     1     -11.943   8.072  70.333  1.00  0.00     0.171 C  
HETATM    6  N   UNL     1     -10.557   7.887  69.964  1.00  0.00    -0.239 N  
HETATM    7  C   UNL     1      -9.835   8.999  70.352  1.00  0.00    -0.202 C  
HETATM    8  O   UNL     1      -8.733   9.343  69.948  1.00  0.00    -0.160 OA 
HETATM    9  C   UNL     1     -10.596   9.707  71.448  1.00  0.00    -0.185 C  
BRANCH   6  10
HETATM   10  C   UNL     1     -10.176   6.899  68.935  1.00  0.00    -0.177 C  
BRANCH  10  11
HETATM   11  C   UNL     1     -10.386   5.429  69.341  1.00  0.00    -0.339 C  
HETATM   12  C   UNL     1      -9.377   4.900  70.345  1.00  0.00    -0.213 C  
ENDBRANCH  10  11
BRANCH  10  13
HETATM   13  C   UNL     1     -10.539   7.116  67.433  1.00  0.00    -0.302 C  
HETATM   14  N   UNL     1     -11.408   6.259  66.834  1.00  0.00    -0.703 N  
HETATM   15  O   UNL     1     -10.112   8.075  66.789  1.00  0.00    -0.253 OA 
HETATM   16  H1  UNL     1     -11.645   6.401  65.852  1.00  0.00     0.000 HD 
HETATM   17  H2  UNL     1     -11.818   5.486  67.358  1.00  0.00     0.000 HD 
ENDBRANCH  10  13
ENDBRANCH   6  10
ENDBRANCH   3   4
ENDBRANCH   2   3
TORSDOF 5
ENDMDL
MODEL      128
REMARK 921   NORMALIZED FREE ENERGY PREDICTED BY IDOCK:   -3.37 KCAL/MOL
REMARK 922        TOTAL FREE ENERGY PREDICTED BY IDOCK:   -4.91 KCAL/MOL
REMARK 923 INTER-LIGAND FREE ENERGY PREDICTED BY IDOCK:   -4.40 KCAL/MOL
REMARK 924 INTRA-LIGAND FREE ENERGY PREDICTED BY IDOCK:   -0.50 KCAL/MOL
REMARK 927      BINDING AFFINITY PREDICTED BY RF-SCORE:    0.00 PKD
ROOT
HETATM    1  C   UNL     1     -10.233   4.699  66.241  1.00  0.00    -0.306 C  
HETATM    2  C   UNL     1      -9.372   5.955  66.183  1.00  0.00    -0.150 C  
ENDROOT
BRANCH   2   3
HETATM    3  C   UNL     1      -9.077   6.471  67.591  1.00  0.00    -0.112 C  
BRANCH   3   4
HETATM    4  C   UNL     1     -10.276   7.132  68.278  1.00  0.00    -0.210 C  
HETATM    5  C   UNL     1     -10.553   6.670  69.700  1.00  0.00    -0.234 C  
HETATM    6  N   UNL     1     -11.195   7.812  70.314  1.00  0.00    -0.243 N  
HETATM    7  C   UNL     1     -10.666   8.969  69.778  1.00  0.00    -0.225 C  
HETATM    8  O   UNL     1     -10.724  10.096  70.249  1.00  0.00    -0.284 OA 
HETATM    9  C   UNL     1     -10.056   8.641  68.436  1.00  0.00    -0.217 C  
BRANCH   6  10
HETATM   10  C   UNL     1     -11.902   7.675  71.604  1.00  0.00    -0.291 C  
BRANCH  10  11
HETATM   11  C   UNL     1     -11.003   7.789  72.849  1.00  0.00    -0.467 C  
HETATM   12  C   UNL     1     -10.499   6.463  73.388  1.00  0.00    -0.283 C  
ENDBRANCH  10  11
BRANCH  10  13
HETATM   13  C   UNL     1     -13.279   8.368  71.848  1.00  0.00    -0.357 C  
HETATM   14  N   UNL     1     -13.302   9.609  72.402  1.00  0.00    -0.594 N  
HETATM   15  O   UNL     1     -14.341   7.853  71.498  1.00  0.00    -0.429 OA 
HETATM   16  H1  UNL     1     -14.202  10.062  72.561  1.00  0.00     0.000 HD 
HETATM   17  H2  UNL     1     -12.434  10.082  72.654  1.00  0.00     0.000 HD 
ENDBRANCH  10  13
ENDBRANCH   6  10
ENDBRANCH   3   4
ENDBRANCH   2   3
TORSDOF 5
ENDMDL
MODEL      129
REMARK 921   NORMALIZED FREE ENERGY PREDICTED BY IDOCK:   -3.36 KCAL/MOL
REMARK 922        TOTAL FREE ENERGY PREDICTED BY IDOCK:   -4.90 KCAL/MOL
REMARK 923 INTER-LIGAND FREE ENERGY PREDICTED BY IDOCK:   -4.37 KCAL/MOL
REMARK 924 INTRA-LIGAND FREE ENERGY PREDICTED BY IDOCK:   -0.53 KCAL/MOL
REMARK 927      BINDING AFFINITY PREDICTED BY RF-SCORE:    0.00 PKD
ROOT
HETATM    1  C   UNL     1      -9.353  12.455  66.381  1.00  0.00    -0.219 C  
HETATM    2  C   UNL     1     -10.638  11.674  66.140  1.00  0.00    -0.306 C  
ENDROOT
BRANCH   2   3
HETATM    3  C   UNL     1     -11.374  11.430  67.457  1.00  0.00    -0.362 C  
BRANCH   3   4
HETATM    4  C   UNL     1     -10.675  10.433  68.387  1.00  0.00    -0.263 C  
HETATM    5  C   UNL     1     -11.470  10.012  69.613  1.00  0.00    -0.155 C  
HETATM    6  N   UNL     1     -10.969   8.688  69.911  1.00  0.00    -0.210 N  
HETATM    7  C   UNL     1     -10.640   8.054  68.729  1.00  0.00    -0.118 C  
HETATM    8  O   UNL     1     -10.487   6.854  68.552  1.00  0.00    -0.183 OA 
HETATM    9  C   UNL     1     -10.407   9.105  67.669  1.00  0.00    -0.314 C  
BRANCH   6  10
HETATM   10  C   UNL     1     -11.261   8.047  71.209  1.00  0.00    -0.256 C  
BRANCH  10  11
HETATM   11  C   UNL     1     -10.315   8.449  72.356  1.00  0.00    -0.399 C  
HETATM   12  C   UNL     1      -8.850   8.532  71.967  1.00  0.00    -0.286 C  
ENDBRANCH  10  11
BRANCH  10  13
HETATM   13  C   UNL     1     -12.725   7.896  71.725  1.00  0.00    -0.329 C  
HETATM   14  N   UNL     1     -13.174   8.741  72.692  1.00  0.00    -0.638 N  
HETATM   15  O   UNL     1     -13.508   7.078  71.242  1.00  0.00    -0.333 OA 
HETATM   16  H1  UNL     1     -14.131   8.642  73.029  1.00  0.00     0.000 HD 
HETATM   17  H2  UNL     1     -12.563   9.463  73.074  1.00  0.00     0.000 HD 
ENDBRANCH  10  13
ENDBRANCH   6  10
ENDBRANCH   3   4
ENDBRANCH   2   3
TORSDOF 5
ENDMDL
MODEL      130
REMARK 921   NORMALIZED FREE ENERGY PREDICTED BY IDOCK:   -3.36 KCAL/MOL
REMARK 922        TOTAL FREE ENERGY PREDICTED BY IDOCK:   -4.89 KCAL/MOL
REMARK 923 INTER-LIGAND FREE ENERGY PREDICTED BY IDOCK:   -4.48 KCAL/MOL
REMARK 924 INTRA-LIGAND FREE ENERGY PREDICTED BY IDOCK:   -0.41 KCAL/MOL
REMARK 927      BINDING AFFINITY PREDICTED BY RF-SCORE:    0.00 PKD
ROOT
HETATM    1  C   UNL     1     -13.398   9.804  71.911  1.00  0.00    -0.530 C  
HETATM    2  C   UNL     1     -12.303  10.535  71.144  1.00  0.00    -0.510 C  
ENDROOT
BRANCH   2   3
HETATM    3  C   UNL     1     -11.032   9.689  71.083  1.00  0.00    -0.430 C  
BRANCH   3   4
HETATM    4  C   UNL     1     -10.329   9.718  69.723  1.00  0.00    -0.274 C  
HETATM    5  C   UNL     1     -10.753  10.839  68.787  1.00  0.00    -0.208 C  
HETATM    6  N   UNL     1      -9.585  11.065  67.966  1.00  0.00    -0.165 N  
HETATM    7  C   UNL     1      -8.451  10.839  68.723  1.00  0.00    -0.148 C  
HETATM    8  O   UNL     1      -7.314  11.218  68.482  1.00  0.00    -0.092 OA 
HETATM    9  C   UNL     1      -8.821   9.951  69.888  1.00  0.00    -0.222 C  
BRANCH   6  10
HETATM   10  C   UNL     1      -9.677  11.863  66.727  1.00  0.00    -0.204 C  
BRANCH  10  11
HETATM   11  C   UNL     1     -10.665  11.317  65.679  1.00  0.00    -0.279 C  
HETATM   12  C   UNL     1     -10.025  10.493  64.577  1.00  0.00    -0.413 C  
ENDBRANCH  10  11
BRANCH  10  13
HETATM   13  C   UNL     1      -9.720  13.422  66.771  1.00  0.00    -0.262 C  
HETATM   14  N   UNL     1      -9.672  14.116  65.603  1.00  0.00    -0.523 N  
HETATM   15  O   UNL     1      -9.860  14.043  67.825  1.00  0.00    -0.223 OA 
HETATM   16  H1  UNL     1      -9.700  15.135  65.632  1.00  0.00     0.000 HD 
HETATM   17  H2  UNL     1      -9.609  13.625  64.710  1.00  0.00     0.000 HD 
ENDBRANCH  10  13
ENDBRANCH   6  10
ENDBRANCH   3   4
ENDBRANCH   2   3
TORSDOF 5
ENDMDL
MODEL      131
REMARK 921   NORMALIZED FREE ENERGY PREDICTED BY IDOCK:   -3.35 KCAL/MOL
REMARK 922        TOTAL FREE ENERGY PREDICTED BY IDOCK:   -4.88 KCAL/MOL
REMARK 923 INTER-LIGAND FREE ENERGY PREDICTED BY IDOCK:   -4.41 KCAL/MOL
REMARK 924 INTRA-LIGAND FREE ENERGY PREDICTED BY IDOCK:   -0.46 KCAL/MOL
REMARK 927      BINDING AFFINITY PREDICTED BY RF-SCORE:    0.00 PKD
ROOT
HETATM    1  C   UNL     1      -9.109   6.356  68.899  1.00  0.00    -0.129 C  
HETATM    2  C   UNL     1      -8.836   7.771  68.404  1.00  0.00    -0.130 C  
ENDROOT
BRANCH   2   3
HETATM    3  C   UNL     1      -9.997   8.699  68.761  1.00  0.00    -0.194 C  
BRANCH   3   4
HETATM    4  C   UNL     1     -10.695   9.321  67.548  1.00  0.00    -0.272 C  
HETATM    5  C   UNL     1     -10.769  10.840  67.541  1.00  0.00    -0.264 C  
HETATM    6  N   UNL     1     -10.814  11.177  66.135  1.00  0.00    -0.227 N  
HETATM    7  C   UNL     1     -10.060  10.261  65.428  1.00  0.00    -0.284 C  
HETATM    8  O   UNL     1      -9.613  10.387  64.297  1.00  0.00    -0.269 OA 
HETATM    9  C   UNL     1      -9.937   9.001  66.253  1.00  0.00    -0.352 C  
BRANCH   6  10
HETATM   10  C   UNL     1     -11.197  12.534  65.698  1.00  0.00    -0.317 C  
BRANCH  10  11
HETATM   11  C   UNL     1     -12.414  12.590  64.756  1.00  0.00    -0.532 C  
HETATM   12  C   UNL     1     -12.200  13.405  63.494  1.00  0.00    -0.468 C  
ENDBRANCH  10  11
BRANCH  10  13
HETATM   13  C   UNL     1     -11.214  13.731  66.699  1.00  0.00    -0.318 C  
HETATM   14  N   UNL     1     -10.091  14.483  66.846  1.00  0.00    -0.254 N  
HETATM   15  O   UNL     1     -12.231  14.056  67.313  1.00  0.00    -0.405 OA 
HETATM   16  H1  UNL     1     -10.102  15.265  67.501  1.00  0.00     0.000 HD 
HETATM   17  H2  UNL     1      -9.249  14.268  66.311  1.00  0.00     0.000 HD 
ENDBRANCH  10  13
ENDBRANCH   6  10
ENDBRANCH   3   4
ENDBRANCH   2   3
TORSDOF 5
ENDMDL
MODEL      132
REMARK 921   NORMALIZED FREE ENERGY PREDICTED BY IDOCK:   -3.33 KCAL/MOL
REMARK 922        TOTAL FREE ENERGY PREDICTED BY IDOCK:   -4.86 KCAL/MOL
REMARK 923 INTER-LIGAND FREE ENERGY PREDICTED BY IDOCK:   -4.53 KCAL/MOL
REMARK 924 INTRA-LIGAND FREE ENERGY PREDICTED BY IDOCK:   -0.33 KCAL/MOL
REMARK 927      BINDING AFFINITY PREDICTED BY RF-SCORE:    0.00 PKD
ROOT
HETATM    1  C   UNL     1     -13.419  14.928  72.826  1.00  0.00    -0.566 C  
HETATM    2  C   UNL     1     -13.148  15.275  71.368  1.00  0.00    -0.529 C  
ENDROOT
BRANCH   2   3
HETATM    3  C   UNL     1     -11.826  16.030  71.231  1.00  0.00    -0.502 C  
BRANCH   3   4
HETATM    4  C   UNL     1     -10.897  15.471  70.149  1.00  0.00    -0.346 C  
HETATM    5  C   UNL     1     -11.139  14.021  69.762  1.00  0.00    -0.047 C  
HETATM    6  N   UNL     1     -10.684  13.949  68.391  1.00  0.00    -0.249 N  
HETATM    7  C   UNL     1     -10.943  15.153  67.767  1.00  0.00    -0.306 C  
HETATM    8  O   UNL     1     -10.990  15.367  66.564  1.00  0.00    -0.315 OA 
HETATM    9  C   UNL     1     -11.080  16.222  68.825  1.00  0.00    -0.355 C  
BRANCH   6  10
HETATM   10  C   UNL     1     -10.461  12.642  67.739  1.00  0.00    -0.221 C  
BRANCH  10  11
HETATM   11  C   UNL     1      -9.229  12.582  66.817  1.00  0.00    -0.217 C  
HETATM   12  C   UNL     1      -9.461  11.868  65.498  1.00  0.00    -0.152 C  
ENDBRANCH  10  11
BRANCH  10  13
HETATM   13  C   UNL     1     -10.630  11.306  68.527  1.00  0.00    -0.199 C  
HETATM   14  N   UNL     1      -9.520  10.658  68.970  1.00  0.00    -0.221 N  
HETATM   15  O   UNL     1     -11.738  10.853  68.815  1.00  0.00    -0.298 OA 
HETATM   16  H1  UNL     1      -9.631   9.784  69.485  1.00  0.00     0.000 HD 
HETATM   17  H2  UNL     1      -8.591  11.038  68.790  1.00  0.00     0.000 HD 
ENDBRANCH  10  13
ENDBRANCH   6  10
ENDBRANCH   3   4
ENDBRANCH   2   3
TORSDOF 5
ENDMDL
MODEL      133
REMARK 921   NORMALIZED FREE ENERGY PREDICTED BY IDOCK:   -3.31 KCAL/MOL
REMARK 922        TOTAL FREE ENERGY PREDICTED BY IDOCK:   -4.83 KCAL/MOL
REMARK 923 INTER-LIGAND FREE ENERGY PREDICTED BY IDOCK:   -4.33 KCAL/MOL
REMARK 924 INTRA-LIGAND FREE ENERGY PREDICTED BY IDOCK:   -0.50 KCAL/MOL
REMARK 927      BINDING AFFINITY PREDICTED BY RF-SCORE:    0.00 PKD
ROOT
HETATM    1  C   UNL     1     -10.833   6.116  68.961  1.00  0.00    -0.416 C  
HETATM    2  C   UNL     1     -10.754   7.623  68.759  1.00  0.00    -0.106 C  
ENDROOT
BRANCH   2   3
HETATM    3  C   UNL     1     -10.045   7.954  67.446  1.00  0.00    -0.292 C  
BRANCH   3   4
HETATM    4  C   UNL     1     -10.426   9.314  66.856  1.00  0.00    -0.284 C  
HETATM    5  C   UNL     1     -11.190  10.243  67.787  1.00  0.00    -0.190 C  
HETATM    6  N   UNL     1     -10.843  11.566  67.315  1.00  0.00    -0.241 N  
HETATM    7  C   UNL     1      -9.545  11.551  66.845  1.00  0.00    -0.187 C  
HETATM    8  O   UNL     1      -8.813  12.514  66.663  1.00  0.00    -0.207 OA 
HETATM    9  C   UNL     1      -9.177  10.128  66.495  1.00  0.00    -0.182 C  
BRANCH   6  10
HETATM   10  C   UNL     1     -11.614  12.747  67.753  1.00  0.00    -0.353 C  
BRANCH  10  11
HETATM   11  C   UNL     1     -11.239  13.283  69.148  1.00  0.00    -0.305 C  
HETATM   12  C   UNL     1     -12.124  12.782  70.275  1.00  0.00    -0.373 C  
ENDBRANCH  10  11
BRANCH  10  13
HETATM   13  C   UNL     1     -11.920  13.921  66.772  1.00  0.00    -0.438 C  
HETATM   14  N   UNL     1     -11.056  14.970  66.710  1.00  0.00    -0.328 N  
HETATM   15  O   UNL     1     -12.884  13.900  66.007  1.00  0.00    -0.430 OA 
HETATM   16  H1  UNL     1     -11.257  15.737  66.069  1.00  0.00     0.000 HD 
HETATM   17  H2  UNL     1     -10.221  14.990  67.295  1.00  0.00     0.000 HD 
ENDBRANCH  10  13
ENDBRANCH   6  10
ENDBRANCH   3   4
ENDBRANCH   2   3
TORSDOF 5
ENDMDL
MODEL      134
REMARK 921   NORMALIZED FREE ENERGY PREDICTED BY IDOCK:   -3.30 KCAL/MOL
REMARK 922        TOTAL FREE ENERGY PREDICTED BY IDOCK:   -4.83 KCAL/MOL
REMARK 923 INTER-LIGAND FREE ENERGY PREDICTED BY IDOCK:   -4.38 KCAL/MOL
REMARK 924 INTRA-LIGAND FREE ENERGY PREDICTED BY IDOCK:   -0.45 KCAL/MOL
REMARK 927      BINDING AFFINITY PREDICTED BY RF-SCORE:    0.00 PKD
ROOT
HETATM    1  C   UNL     1     -13.638  13.291  72.286  1.00  0.00    -0.703 C  
HETATM    2  C   UNL     1     -13.374  11.822  71.981  1.00  0.00    -0.417 C  
ENDROOT
BRANCH   2   3
HETATM    3  C   UNL     1     -12.458  11.679  70.767  1.00  0.00    -0.425 C  
BRANCH   3   4
HETATM    4  C   UNL     1     -12.034  10.238  70.470  1.00  0.00    -0.415 C  
HETATM    5  C   UNL     1     -10.538   9.971  70.517  1.00  0.00    -0.246 C  
HETATM    6  N   UNL     1     -10.447   8.574  70.877  1.00  0.00    -0.197 N  
HETATM    7  C   UNL     1     -11.495   8.257  71.720  1.00  0.00    -0.293 C  
HETATM    8  O   UNL     1     -11.580   7.289  72.462  1.00  0.00    -0.282 OA 
HETATM    9  C   UNL     1     -12.596   9.271  71.519  1.00  0.00    -0.430 C  
BRANCH   6  10
HETATM   10  C   UNL     1      -9.175   7.839  70.731  1.00  0.00    -0.157 C  
BRANCH  10  11
HETATM   11  C   UNL     1      -8.504   7.975  69.351  1.00  0.00    -0.132 C  
HETATM   12  C   UNL     1      -8.656   6.762  68.452  1.00  0.00    -0.125 C  
ENDBRANCH  10  11
BRANCH  10  13
HETATM   13  C   UNL     1      -8.107   7.836  71.869  1.00  0.00    -0.104 C  
HETATM   14  N   UNL     1      -7.590   6.649  72.284  1.00  0.00    -0.094 N  
HETATM   15  O   UNL     1      -7.672   8.878  72.360  1.00  0.00    -0.360 OA 
HETATM   16  H1  UNL     1      -6.892   6.648  73.028  1.00  0.00     0.000 HD 
HETATM   17  H2  UNL     1      -7.894   5.773  71.858  1.00  0.00     0.000 HD 
ENDBRANCH  10  13
ENDBRANCH   6  10
ENDBRANCH   3   4
ENDBRANCH   2   3
TORSDOF 5
ENDMDL
MODEL      135
REMARK 921   NORMALIZED FREE ENERGY PREDICTED BY IDOCK:   -3.30 KCAL/MOL
REMARK 922        TOTAL FREE ENERGY PREDICTED BY IDOCK:   -4.82 KCAL/MOL
REMARK 923 INTER-LIGAND FREE ENERGY PREDICTED BY IDOCK:   -4.34 KCAL/MOL
REMARK 924 INTRA-LIGAND FREE ENERGY PREDICTED BY IDOCK:   -0.48 KCAL/MOL
REMARK 927      BINDING AFFINITY PREDICTED BY RF-SCORE:    0.00 PKD
ROOT
HETATM    1  C   UNL     1     -11.802  12.646  65.561  1.00  0.00    -0.479 C  
HETATM    2  C   UNL     1     -10.750  13.690  65.212  1.00  0.00    -0.340 C  
ENDROOT
BRANCH   2   3
HETATM    3  C   UNL     1     -10.136  14.282  66.480  1.00  0.00    -0.283 C  
BRANCH   3   4
HETATM    4  C   UNL     1      -9.025  15.303  66.218  1.00  0.00    -0.314 C  
HETATM    5  C   UNL     1      -9.473  16.754  66.130  1.00  0.00    -0.264 C  
HETATM    6  N   UNL     1      -8.310  17.501  66.553  1.00  0.00    -0.257 N  
HETATM    7  C   UNL     1      -7.630  16.775  67.511  1.00  0.00    -0.158 C  
HETATM    8  O   UNL     1      -6.803  17.193  68.308  1.00  0.00    -0.166 OA 
HETATM    9  C   UNL     1      -8.010  15.319  67.368  1.00  0.00    -0.211 C  
BRANCH   6  10
HETATM   10  C   UNL     1      -8.224  18.957  66.320  1.00  0.00    -0.268 C  
BRANCH  10  11
HETATM   11  C   UNL     1      -8.767  19.829  67.466  1.00  0.00    -0.388 C  
HETATM   12  C   UNL     1     -10.156  20.394  67.228  1.00  0.00    -0.504 C  
ENDBRANCH  10  11
BRANCH  10  13
HETATM   13  C   UNL     1      -6.950  19.600  65.689  1.00  0.00    -0.302 C  
HETATM   14  N   UNL     1      -5.781  19.563  66.383  1.00  0.00    -0.164 N  
HETATM   15  O   UNL     1      -6.954  20.085  64.557  1.00  0.00    -0.241 OA 
HETATM   16  H1  UNL     1      -4.949  19.984  65.970  1.00  0.00     0.000 HD 
HETATM   17  H2  UNL     1      -5.737  19.121  67.301  1.00  0.00     0.000 HD 
ENDBRANCH  10  13
ENDBRANCH   6  10
ENDBRANCH   3   4
ENDBRANCH   2   3
TORSDOF 5
ENDMDL
MODEL      136
REMARK 921   NORMALIZED FREE ENERGY PREDICTED BY IDOCK:   -3.30 KCAL/MOL
REMARK 922        TOTAL FREE ENERGY PREDICTED BY IDOCK:   -4.82 KCAL/MOL
REMARK 923 INTER-LIGAND FREE ENERGY PREDICTED BY IDOCK:   -4.46 KCAL/MOL
REMARK 924 INTRA-LIGAND FREE ENERGY PREDICTED BY IDOCK:   -0.36 KCAL/MOL
REMARK 927      BINDING AFFINITY PREDICTED BY RF-SCORE:    0.00 PKD
ROOT
HETATM    1  C   UNL     1      -9.635   6.187  70.543  1.00  0.00    -0.192 C  
HETATM    2  C   UNL     1     -10.649   7.322  70.594  1.00  0.00    -0.240 C  
ENDROOT
BRANCH   2   3
HETATM    3  C   UNL     1     -10.509   8.225  69.370  1.00  0.00    -0.224 C  
BRANCH   3   4
HETATM    4  C   UNL     1     -10.359   9.712  69.704  1.00  0.00    -0.245 C  
HETATM    5  C   UNL     1     -10.492  10.666  68.527  1.00  0.00    -0.191 C  
HETATM    6  N   UNL     1     -10.979  11.889  69.126  1.00  0.00    -0.224 N  
HETATM    7  C   UNL     1     -11.802  11.573  70.189  1.00  0.00    -0.356 C  
HETATM    8  O   UNL     1     -12.624  12.300  70.730  1.00  0.00    -0.303 OA 
HETATM    9  C   UNL     1     -11.467  10.176  70.658  1.00  0.00    -0.432 C  
BRANCH   6  10
HETATM   10  C   UNL     1     -10.952  13.160  68.375  1.00  0.00    -0.262 C  
BRANCH  10  11
HETATM   11  C   UNL     1     -12.119  13.354  67.390  1.00  0.00    -0.338 C  
HETATM   12  C   UNL     1     -11.868  12.807  65.996  1.00  0.00    -0.495 C  
ENDBRANCH  10  11
BRANCH  10  13
HETATM   13  C   UNL     1     -10.587  14.505  69.076  1.00  0.00    -0.247 C  
HETATM   14  N   UNL     1      -9.300  14.723  69.455  1.00  0.00    -0.425 N  
HETATM   15  O   UNL     1     -11.414  15.402  69.240  1.00  0.00    -0.288 OA 
HETATM   16  H1  UNL     1      -9.062  15.602  69.914  1.00  0.00     0.000 HD 
HETATM   17  H2  UNL     1      -8.582  14.018  69.284  1.00  0.00     0.000 HD 
ENDBRANCH  10  13
ENDBRANCH   6  10
ENDBRANCH   3   4
ENDBRANCH   2   3
TORSDOF 5
ENDMDL
MODEL      137
REMARK 921   NORMALIZED FREE ENERGY PREDICTED BY IDOCK:   -3.30 KCAL/MOL
REMARK 922        TOTAL FREE ENERGY PREDICTED BY IDOCK:   -4.82 KCAL/MOL
REMARK 923 INTER-LIGAND FREE ENERGY PREDICTED BY IDOCK:   -4.23 KCAL/MOL
REMARK 924 INTRA-LIGAND FREE ENERGY PREDICTED BY IDOCK:   -0.58 KCAL/MOL
REMARK 927      BINDING AFFINITY PREDICTED BY RF-SCORE:    0.00 PKD
ROOT
HETATM    1  C   UNL     1     -12.536  12.308  64.080  1.00  0.00    -0.556 C  
HETATM    2  C   UNL     1     -12.477  12.898  65.483  1.00  0.00    -0.462 C  
ENDROOT
BRANCH   2   3
HETATM    3  C   UNL     1     -11.038  12.930  65.995  1.00  0.00    -0.308 C  
BRANCH   3   4
HETATM    4  C   UNL     1     -10.868  12.381  67.414  1.00  0.00    -0.273 C  
HETATM    5  C   UNL     1     -11.284  10.932  67.611  1.00  0.00    -0.309 C  
HETATM    6  N   UNL     1     -10.457  10.480  68.708  1.00  0.00    -0.184 N  
HETATM    7  C   UNL     1      -9.232  11.114  68.639  1.00  0.00    -0.171 C  
HETATM    8  O   UNL     1      -8.191  10.775  69.185  1.00  0.00    -0.154 OA 
HETATM    9  C   UNL     1      -9.392  12.381  67.831  1.00  0.00    -0.195 C  
BRANCH   6  10
HETATM   10  C   UNL     1     -10.763   9.220  69.415  1.00  0.00    -0.208 C  
BRANCH  10  11
HETATM   11  C   UNL     1     -10.299   7.943  68.690  1.00  0.00    -0.224 C  
HETATM   12  C   UNL     1     -11.108   6.701  69.018  1.00  0.00    -0.318 C  
ENDBRANCH  10  11
BRANCH  10  13
HETATM   13  C   UNL     1     -10.560   9.088  70.956  1.00  0.00    -0.271 C  
HETATM   14  N   UNL     1      -9.322   8.792  71.435  1.00  0.00    -0.234 N  
HETATM   15  O   UNL     1     -11.470   9.305  71.757  1.00  0.00    -0.366 OA 
HETATM   16  H1  UNL     1      -9.190   8.706  72.442  1.00  0.00     0.000 HD 
HETATM   17  H2  UNL     1      -8.538   8.658  70.796  1.00  0.00     0.000 HD 
ENDBRANCH  10  13
ENDBRANCH   6  10
ENDBRANCH   3   4
ENDBRANCH   2   3
TORSDOF 5
ENDMDL
MODEL      138
REMARK 921   NORMALIZED FREE ENERGY PREDICTED BY IDOCK:   -3.28 KCAL/MOL
REMARK 922        TOTAL FREE ENERGY PREDICTED BY IDOCK:   -4.79 KCAL/MOL
REMARK 923 INTER-LIGAND FREE ENERGY PREDICTED BY IDOCK:   -4.39 KCAL/MOL
REMARK 924 INTRA-LIGAND FREE ENERGY PREDICTED BY IDOCK:   -0.40 KCAL/MOL
REMARK 927      BINDING AFFINITY PREDICTED BY RF-SCORE:    0.00 PKD
ROOT
HETATM    1  C   UNL     1     -11.574   8.336  72.496  1.00  0.00    -0.454 C  
HETATM    2  C   UNL     1     -10.984   8.894  71.207  1.00  0.00    -0.363 C  
ENDROOT
BRANCH   2   3
HETATM    3  C   UNL     1     -11.942   9.898  70.566  1.00  0.00    -0.320 C  
BRANCH   3   4
HETATM    4  C   UNL     1     -11.265  11.182  70.077  1.00  0.00    -0.261 C  
HETATM    5  C   UNL     1     -10.665  11.116  68.681  1.00  0.00    -0.198 C  
HETATM    6  N   UNL     1     -10.722  12.485  68.216  1.00  0.00    -0.220 N  
HETATM    7  C   UNL     1     -11.848  13.092  68.738  1.00  0.00    -0.317 C  
HETATM    8  O   UNL     1     -12.391  14.111  68.338  1.00  0.00    -0.237 OA 
HETATM    9  C   UNL     1     -12.276  12.331  69.971  1.00  0.00    -0.267 C  
BRANCH   6  10
HETATM   10  C   UNL     1      -9.959  12.908  67.025  1.00  0.00    -0.244 C  
BRANCH  10  11
HETATM   11  C   UNL     1      -8.438  12.687  67.119  1.00  0.00    -0.186 C  
HETATM   12  C   UNL     1      -7.734  13.565  68.137  1.00  0.00    -0.139 C  
ENDBRANCH  10  11
BRANCH  10  13
HETATM   13  C   UNL     1     -10.476  12.604  65.584  1.00  0.00    -0.275 C  
HETATM   14  N   UNL     1     -10.056  13.387  64.555  1.00  0.00    -0.634 N  
HETATM   15  O   UNL     1     -11.202  11.641  65.340  1.00  0.00    -0.279 OA 
HETATM   16  H1  UNL     1     -10.395  13.188  63.614  1.00  0.00     0.000 HD 
HETATM   17  H2  UNL     1      -9.413  14.161  64.721  1.00  0.00     0.000 HD 
ENDBRANCH  10  13
ENDBRANCH   6  10
ENDBRANCH   3   4
ENDBRANCH   2   3
TORSDOF 5
ENDMDL
MODEL      139
REMARK 921   NORMALIZED FREE ENERGY PREDICTED BY IDOCK:   -3.27 KCAL/MOL
REMARK 922        TOTAL FREE ENERGY PREDICTED BY IDOCK:   -4.78 KCAL/MOL
REMARK 923 INTER-LIGAND FREE ENERGY PREDICTED BY IDOCK:   -4.74 KCAL/MOL
REMARK 924 INTRA-LIGAND FREE ENERGY PREDICTED BY IDOCK:   -0.04 KCAL/MOL
REMARK 927      BINDING AFFINITY PREDICTED BY RF-SCORE:    0.00 PKD
ROOT
HETATM    1  C   UNL     1     -12.177  12.137  63.692  1.00  0.00    -0.663 C  
HETATM    2  C   UNL     1     -12.039  12.907  64.999  1.00  0.00    -0.480 C  
ENDROOT
BRANCH   2   3
HETATM    3  C   UNL     1     -11.096  12.179  65.956  1.00  0.00    -0.354 C  
BRANCH   3   4
HETATM    4  C   UNL     1     -11.786  11.608  67.199  1.00  0.00    -0.215 C  
HETATM    5  C   UNL     1     -11.052  10.471  67.892  1.00  0.00    -0.304 C  
HETATM    6  N   UNL     1     -11.476  10.575  69.270  1.00  0.00    -0.261 N  
HETATM    7  C   UNL     1     -11.674  11.906  69.582  1.00  0.00    -0.343 C  
HETATM    8  O   UNL     1     -11.728  12.404  70.697  1.00  0.00    -0.095 OA 
HETATM    9  C   UNL     1     -11.906  12.669  68.299  1.00  0.00    -0.354 C  
BRANCH   6  10
HETATM   10  C   UNL     1     -11.233   9.470  70.219  1.00  0.00    -0.261 C  
BRANCH  10  11
HETATM   11  C   UNL     1      -9.855   9.500  70.907  1.00  0.00    -0.279 C  
HETATM   12  C   UNL     1      -8.764  10.187  70.107  1.00  0.00     0.090 C  
ENDBRANCH  10  11
BRANCH  10  13
HETATM   13  C   UNL     1     -12.340   9.000  71.214  1.00  0.00    -0.302 C  
HETATM   14  N   UNL     1     -13.645   9.117  70.849  1.00  0.00    -0.559 N  
HETATM   15  O   UNL     1     -12.069   8.470  72.291  1.00  0.00    -0.358 OA 
HETATM   16  H1  UNL     1     -14.368   8.810  71.500  1.00  0.00     0.000 HD 
HETATM   17  H2  UNL     1     -13.897   9.505  69.940  1.00  0.00     0.000 HD 
ENDBRANCH  10  13
ENDBRANCH   6  10
ENDBRANCH   3   4
ENDBRANCH   2   3
TORSDOF 5
ENDMDL
MODEL      140
REMARK 921   NORMALIZED FREE ENERGY PREDICTED BY IDOCK:   -3.27 KCAL/MOL
REMARK 922        TOTAL FREE ENERGY PREDICTED BY IDOCK:   -4.77 KCAL/MOL
REMARK 923 INTER-LIGAND FREE ENERGY PREDICTED BY IDOCK:   -4.37 KCAL/MOL
REMARK 924 INTRA-LIGAND FREE ENERGY PREDICTED BY IDOCK:   -0.40 KCAL/MOL
REMARK 927      BINDING AFFINITY PREDICTED BY RF-SCORE:    0.00 PKD
ROOT
HETATM    1  C   UNL     1     -10.370   4.902  66.258  1.00  0.00    -0.336 C  
HETATM    2  C   UNL     1     -10.911   6.125  66.987  1.00  0.00    -0.414 C  
ENDROOT
BRANCH   2   3
HETATM    3  C   UNL     1     -10.708   5.987  68.495  1.00  0.00    -0.354 C  
BRANCH   3   4
HETATM    4  C   UNL     1     -10.185   7.257  69.174  1.00  0.00    -0.197 C  
HETATM    5  C   UNL     1     -10.282   8.530  68.348  1.00  0.00    -0.203 C  
HETATM    6  N   UNL     1     -10.391   9.577  69.339  1.00  0.00    -0.204 N  
HETATM    7  C   UNL     1     -11.091   9.097  70.428  1.00  0.00    -0.253 C  
HETATM    8  O   UNL     1     -11.641   9.753  71.302  1.00  0.00    -0.345 OA 
HETATM    9  C   UNL     1     -11.005   7.589  70.427  1.00  0.00    -0.264 C  
BRANCH   6  10
HETATM   10  C   UNL     1     -10.198  10.993  68.964  1.00  0.00    -0.200 C  
BRANCH  10  11
HETATM   11  C   UNL     1      -9.118  11.237  67.894  1.00  0.00    -0.150 C  
HETATM   12  C   UNL     1      -8.056  12.248  68.287  1.00  0.00    -0.166 C  
ENDBRANCH  10  11
BRANCH  10  13
HETATM   13  C   UNL     1     -11.416  11.945  68.751  1.00  0.00    -0.290 C  
HETATM   14  N   UNL     1     -11.622  12.958  69.634  1.00  0.00    -0.431 N  
HETATM   15  O   UNL     1     -12.160  11.847  67.775  1.00  0.00    -0.564 OA 
HETATM   16  H1  UNL     1     -12.418  13.580  69.495  1.00  0.00     0.000 HD 
HETATM   17  H2  UNL     1     -10.991  13.095  70.424  1.00  0.00     0.000 HD 
ENDBRANCH  10  13
ENDBRANCH   6  10
ENDBRANCH   3   4
ENDBRANCH   2   3
TORSDOF 5
ENDMDL
MODEL      141
REMARK 921   NORMALIZED FREE ENERGY PREDICTED BY IDOCK:   -3.26 KCAL/MOL
REMARK 922        TOTAL FREE ENERGY PREDICTED BY IDOCK:   -4.77 KCAL/MOL
REMARK 923 INTER-LIGAND FREE ENERGY PREDICTED BY IDOCK:   -4.24 KCAL/MOL
REMARK 924 INTRA-LIGAND FREE ENERGY PREDICTED BY IDOCK:   -0.53 KCAL/MOL
REMARK 927      BINDING AFFINITY PREDICTED BY RF-SCORE:    0.00 PKD
ROOT
HETATM    1  C   UNL     1      -8.925  12.469  66.915  1.00  0.00    -0.212 C  
HETATM    2  C   UNL     1     -10.214  12.158  66.166  1.00  0.00    -0.254 C  
ENDROOT
BRANCH   2   3
HETATM    3  C   UNL     1     -11.160  11.334  67.039  1.00  0.00    -0.356 C  
BRANCH   3   4
HETATM    4  C   UNL     1     -10.449  10.448  68.065  1.00  0.00    -0.232 C  
HETATM    5  C   UNL     1     -10.998  10.513  69.482  1.00  0.00    -0.264 C  
HETATM    6  N   UNL     1     -10.680   9.216  70.036  1.00  0.00    -0.226 N  
HETATM    7  C   UNL     1     -10.750   8.268  69.034  1.00  0.00    -0.079 C  
HETATM    8  O   UNL     1     -10.853   7.057  69.167  1.00  0.00    -0.226 OA 
HETATM    9  C   UNL     1     -10.591   8.964  67.702  1.00  0.00    -0.292 C  
BRANCH   6  10
HETATM   10  C   UNL     1     -10.768   8.975  71.490  1.00  0.00    -0.351 C  
BRANCH  10  11
HETATM   11  C   UNL     1     -12.174   8.610  72.001  1.00  0.00    -0.439 C  
HETATM   12  C   UNL     1     -13.131   9.783  72.110  1.00  0.00    -0.513 C  
ENDBRANCH  10  11
BRANCH  10  13
HETATM   13  C   UNL     1      -9.675   8.154  72.241  1.00  0.00    -0.254 C  
HETATM   14  N   UNL     1      -9.728   6.796  72.203  1.00  0.00    -0.150 N  
HETATM   15  O   UNL     1      -8.729   8.695  72.815  1.00  0.00    -0.387 OA 
HETATM   16  H1  UNL     1      -9.013   6.260  72.695  1.00  0.00     0.000 HD 
HETATM   17  H2  UNL     1     -10.472   6.320  71.692  1.00  0.00     0.000 HD 
ENDBRANCH  10  13
ENDBRANCH   6  10
ENDBRANCH   3   4
ENDBRANCH   2   3
TORSDOF 5
ENDMDL
MODEL      142
REMARK 921   NORMALIZED FREE ENERGY PREDICTED BY IDOCK:   -3.24 KCAL/MOL
REMARK 922        TOTAL FREE ENERGY PREDICTED BY IDOCK:   -4.74 KCAL/MOL
REMARK 923 INTER-LIGAND FREE ENERGY PREDICTED BY IDOCK:   -4.37 KCAL/MOL
REMARK 924 INTRA-LIGAND FREE ENERGY PREDICTED BY IDOCK:   -0.37 KCAL/MOL
REMARK 927      BINDING AFFINITY PREDICTED BY RF-SCORE:    0.00 PKD
ROOT
HETATM    1  C   UNL     1     -14.203   7.663  71.446  1.00  0.00    -0.514 C  
HETATM    2  C   UNL     1     -14.202   8.852  72.398  1.00  0.00    -0.452 C  
ENDROOT
BRANCH   2   3
HETATM    3  C   UNL     1     -13.163   9.887  71.967  1.00  0.00    -0.555 C  
BRANCH   3   4
HETATM    4  C   UNL     1     -12.235   9.410  70.846  1.00  0.00    -0.297 C  
HETATM    5  C   UNL     1     -12.088  10.360  69.668  1.00  0.00    -0.097 C  
HETATM    6  N   UNL     1     -10.772  10.065  69.147  1.00  0.00    -0.210 N  
HETATM    7  C   UNL     1      -9.941   9.716  70.194  1.00  0.00    -0.261 C  
HETATM    8  O   UNL     1      -8.719   9.704  70.196  1.00  0.00    -0.211 OA 
HETATM    9  C   UNL     1     -10.796   9.253  71.351  1.00  0.00    -0.434 C  
BRANCH   6  10
HETATM   10  C   UNL     1     -10.361  10.553  67.816  1.00  0.00    -0.212 C  
BRANCH  10  11
HETATM   11  C   UNL     1      -9.554  11.864  67.828  1.00  0.00    -0.190 C  
HETATM   12  C   UNL     1     -10.299  13.059  68.394  1.00  0.00    -0.257 C  
ENDBRANCH  10  11
BRANCH  10  13
HETATM   13  C   UNL     1      -9.813   9.574  66.731  1.00  0.00    -0.216 C  
HETATM   14  N   UNL     1     -10.085   9.823  65.421  1.00  0.00    -0.333 N  
HETATM   15  O   UNL     1      -9.090   8.620  67.016  1.00  0.00    -0.132 OA 
HETATM   16  H1  UNL     1      -9.726   9.184  64.713  1.00  0.00     0.000 HD 
HETATM   17  H2  UNL     1     -10.638  10.637  65.152  1.00  0.00     0.000 HD 
ENDBRANCH  10  13
ENDBRANCH   6  10
ENDBRANCH   3   4
ENDBRANCH   2   3
TORSDOF 5
ENDMDL
MODEL      143
REMARK 921   NORMALIZED FREE ENERGY PREDICTED BY IDOCK:   -3.22 KCAL/MOL
REMARK 922        TOTAL FREE ENERGY PREDICTED BY IDOCK:   -4.71 KCAL/MOL
REMARK 923 INTER-LIGAND FREE ENERGY PREDICTED BY IDOCK:   -4.45 KCAL/MOL
REMARK 924 INTRA-LIGAND FREE ENERGY PREDICTED BY IDOCK:   -0.27 KCAL/MOL
REMARK 927      BINDING AFFINITY PREDICTED BY RF-SCORE:    0.00 PKD
ROOT
HETATM    1  C   UNL     1      -8.830   7.118  67.550  1.00  0.00    -0.119 C  
HETATM    2  C   UNL     1     -10.222   7.558  67.115  1.00  0.00    -0.350 C  
ENDROOT
BRANCH   2   3
HETATM    3  C   UNL     1     -10.623   8.853  67.820  1.00  0.00    -0.266 C  
BRANCH   3   4
HETATM    4  C   UNL     1     -10.535  10.100  66.935  1.00  0.00    -0.286 C  
HETATM    5  C   UNL     1     -11.405  11.271  67.364  1.00  0.00    -0.276 C  
HETATM    6  N   UNL     1     -10.695  12.429  66.867  1.00  0.00    -0.236 N  
HETATM    7  C   UNL     1      -9.337  12.184  66.925  1.00  0.00    -0.203 C  
HETATM    8  O   UNL     1      -8.435  13.008  66.891  1.00  0.00    -0.173 OA 
HETATM    9  C   UNL     1      -9.119  10.689  66.954  1.00  0.00    -0.168 C  
BRANCH   6  10
HETATM   10  C   UNL     1     -11.355  13.748  66.804  1.00  0.00    -0.330 C  
BRANCH  10  11
HETATM   11  C   UNL     1     -12.528  13.838  65.811  1.00  0.00    -0.527 C  
HETATM   12  C   UNL     1     -12.130  13.724  64.351  1.00  0.00    -0.474 C  
ENDBRANCH  10  11
BRANCH  10  13
HETATM   13  C   UNL     1     -11.662  14.560  68.101  1.00  0.00    -0.337 C  
HETATM   14  N   UNL     1     -12.089  13.897  69.208  1.00  0.00    -0.349 N  
HETATM   15  O   UNL     1     -11.471  15.774  68.173  1.00  0.00    -0.352 OA 
HETATM   16  H1  UNL     1     -12.290  14.428  70.055  1.00  0.00     0.000 HD 
HETATM   17  H2  UNL     1     -12.206  12.883  69.193  1.00  0.00     0.000 HD 
ENDBRANCH  10  13
ENDBRANCH   6  10
ENDBRANCH   3   4
ENDBRANCH   2   3
TORSDOF 5
ENDMDL
MODEL      144
REMARK 921   NORMALIZED FREE ENERGY PREDICTED BY IDOCK:   -3.21 KCAL/MOL
REMARK 922        TOTAL FREE ENERGY PREDICTED BY IDOCK:   -4.71 KCAL/MOL
REMARK 923 INTER-LIGAND FREE ENERGY PREDICTED BY IDOCK:   -5.02 KCAL/MOL
REMARK 924 INTRA-LIGAND FREE ENERGY PREDICTED BY IDOCK:    0.31 KCAL/MOL
REMARK 927      BINDING AFFINITY PREDICTED BY RF-SCORE:    0.00 PKD
ROOT
HETATM    1  C   UNL     1      -8.229   5.136  71.758  1.00  0.00    -0.117 C  
HETATM    2  C   UNL     1      -8.224   6.525  72.384  1.00  0.00    -0.105 C  
ENDROOT
BRANCH   2   3
HETATM    3  C   UNL     1      -8.506   7.593  71.328  1.00  0.00    -0.118 C  
BRANCH   3   4
HETATM    4  C   UNL     1      -9.515   8.657  71.770  1.00  0.00    -0.354 C  
HETATM    5  C   UNL     1     -10.133   9.480  70.651  1.00  0.00    -0.286 C  
HETATM    6  N   UNL     1     -11.424   9.866  71.177  1.00  0.00    -0.375 N  
HETATM    7  C   UNL     1     -11.902   8.853  71.986  1.00  0.00    -0.368 C  
HETATM    8  O   UNL     1     -13.057   8.677  72.346  1.00  0.00    -0.373 OA 
HETATM    9  C   UNL     1     -10.733   8.014  72.445  1.00  0.00    -0.386 C  
BRANCH   6  10
HETATM   10  C   UNL     1     -12.216  10.928  70.526  1.00  0.00    -0.367 C  
BRANCH  10  11
HETATM   11  C   UNL     1     -12.877  11.927  71.494  1.00  0.00    -0.421 C  
HETATM   12  C   UNL     1     -12.718  13.385  71.103  1.00  0.00    -0.411 C  
ENDBRANCH  10  11
BRANCH  10  13
HETATM   13  C   UNL     1     -11.696  11.656  69.248  1.00  0.00    -0.331 C  
HETATM   14  N   UNL     1     -10.560  12.400  69.329  1.00  0.00    -0.432 N  
HETATM   15  O   UNL     1     -12.245  11.528  68.153  1.00  0.00    -0.576 OA 
HETATM   16  H1  UNL     1     -10.221  12.875  68.493  1.00  0.00     0.000 HD 
HETATM   17  H2  UNL     1     -10.056  12.481  70.212  1.00  0.00     0.000 HD 
ENDBRANCH  10  13
ENDBRANCH   6  10
ENDBRANCH   3   4
ENDBRANCH   2   3
TORSDOF 5
ENDMDL
MODEL      145
REMARK 921   NORMALIZED FREE ENERGY PREDICTED BY IDOCK:   -3.21 KCAL/MOL
REMARK 922        TOTAL FREE ENERGY PREDICTED BY IDOCK:   -4.70 KCAL/MOL
REMARK 923 INTER-LIGAND FREE ENERGY PREDICTED BY IDOCK:   -4.22 KCAL/MOL
REMARK 924 INTRA-LIGAND FREE ENERGY PREDICTED BY IDOCK:   -0.48 KCAL/MOL
REMARK 927      BINDING AFFINITY PREDICTED BY RF-SCORE:    0.00 PKD
ROOT
HETATM    1  C   UNL     1      -9.889  11.234  63.243  1.00  0.00    -0.418 C  
HETATM    2  C   UNL     1     -10.588  11.068  64.585  1.00  0.00    -0.369 C  
ENDROOT
BRANCH   2   3
HETATM    3  C   UNL     1      -9.836  10.070  65.465  1.00  0.00    -0.373 C  
BRANCH   3   4
HETATM    4  C   UNL     1     -10.391   9.948  66.887  1.00  0.00    -0.300 C  
HETATM    5  C   UNL     1     -10.522   8.531  67.421  1.00  0.00    -0.280 C  
HETATM    6  N   UNL     1     -10.393   8.687  68.853  1.00  0.00    -0.211 N  
HETATM    7  C   UNL     1      -9.518   9.723  69.116  1.00  0.00    -0.188 C  
HETATM    8  O   UNL     1      -8.930   9.945  70.165  1.00  0.00    -0.216 OA 
HETATM    9  C   UNL     1      -9.457  10.620  67.902  1.00  0.00    -0.168 C  
BRANCH   6  10
HETATM   10  C   UNL     1     -10.768   7.590  69.768  1.00  0.00    -0.242 C  
BRANCH  10  11
HETATM   11  C   UNL     1      -9.647   6.573  70.051  1.00  0.00    -0.169 C  
HETATM   12  C   UNL     1      -9.896   5.185  69.488  1.00  0.00    -0.278 C  
ENDBRANCH  10  11
BRANCH  10  13
HETATM   13  C   UNL     1     -11.608   7.862  71.054  1.00  0.00    -0.282 C  
HETATM   14  N   UNL     1     -11.147   8.761  71.964  1.00  0.00    -0.363 N  
HETATM   15  O   UNL     1     -12.706   7.337  71.242  1.00  0.00    -0.362 OA 
HETATM   16  H1  UNL     1     -11.696   8.939  72.805  1.00  0.00     0.000 HD 
HETATM   17  H2  UNL     1     -10.265   9.250  71.809  1.00  0.00     0.000 HD 
ENDBRANCH  10  13
ENDBRANCH   6  10
ENDBRANCH   3   4
ENDBRANCH   2   3
TORSDOF 5
ENDMDL
MODEL      146
REMARK 921   NORMALIZED FREE ENERGY PREDICTED BY IDOCK:   -3.21 KCAL/MOL
REMARK 922        TOTAL FREE ENERGY PREDICTED BY IDOCK:   -4.70 KCAL/MOL
REMARK 923 INTER-LIGAND FREE ENERGY PREDICTED BY IDOCK:   -4.89 KCAL/MOL
REMARK 924 INTRA-LIGAND FREE ENERGY PREDICTED BY IDOCK:    0.19 KCAL/MOL
REMARK 927      BINDING AFFINITY PREDICTED BY RF-SCORE:    0.00 PKD
ROOT
HETATM    1  C   UNL     1     -10.647   2.592  73.718  1.00  0.00    -0.249 C  
HETATM    2  C   UNL     1     -10.851   4.102  73.720  1.00  0.00    -0.341 C  
ENDROOT
BRANCH   2   3
HETATM    3  C   UNL     1     -10.202   4.735  72.490  1.00  0.00    -0.245 C  
BRANCH   3   4
HETATM    4  C   UNL     1     -11.098   5.737  71.757  1.00  0.00    -0.301 C  
HETATM    5  C   UNL     1     -10.993   7.179  72.228  1.00  0.00    -0.243 C  
HETATM    6  N   UNL     1     -11.341   7.952  71.056  1.00  0.00    -0.271 N  
HETATM    7  C   UNL     1     -10.898   7.287  69.930  1.00  0.00    -0.247 C  
HETATM    8  O   UNL     1     -10.730   7.755  68.813  1.00  0.00    -0.170 OA 
HETATM    9  C   UNL     1     -10.725   5.826  70.272  1.00  0.00    -0.380 C  
BRANCH   6  10
HETATM   10  C   UNL     1     -11.658   9.390  71.169  1.00  0.00    -0.345 C  
BRANCH  10  11
HETATM   11  C   UNL     1     -10.883  10.300  70.199  1.00  0.00    -0.362 C  
HETATM   12  C   UNL     1     -11.719  10.882  69.074  1.00  0.00    -0.391 C  
ENDBRANCH  10  11
BRANCH  10  13
HETATM   13  C   UNL     1     -13.129   9.882  71.337  1.00  0.00    -0.407 C  
HETATM   14  N   UNL     1     -14.144   9.073  70.933  1.00  0.00    -0.520 N  
HETATM   15  O   UNL     1     -13.402  10.952  71.881  1.00  0.00    -0.421 OA 
HETATM   16  H1  UNL     1     -15.106   9.395  71.042  1.00  0.00     0.000 HD 
HETATM   17  H2  UNL     1     -13.948   8.158  70.526  1.00  0.00     0.000 HD 
ENDBRANCH  10  13
ENDBRANCH   6  10
ENDBRANCH   3   4
ENDBRANCH   2   3
TORSDOF 5
ENDMDL
MODEL      147
REMARK 921   NORMALIZED FREE ENERGY PREDICTED BY IDOCK:   -3.20 KCAL/MOL
REMARK 922        TOTAL FREE ENERGY PREDICTED BY IDOCK:   -4.70 KCAL/MOL
REMARK 923 INTER-LIGAND FREE ENERGY PREDICTED BY IDOCK:   -4.27 KCAL/MOL
REMARK 924 INTRA-LIGAND FREE ENERGY PREDICTED BY IDOCK:   -0.42 KCAL/MOL
REMARK 927      BINDING AFFINITY PREDICTED BY RF-SCORE:    0.00 PKD
ROOT
HETATM    1  C   UNL     1      -5.768  19.087  64.984  1.00  0.00    -0.280 C  
HETATM    2  C   UNL     1      -7.067  18.953  65.768  1.00  0.00    -0.274 C  
ENDROOT
BRANCH   2   3
HETATM    3  C   UNL     1      -6.799  18.388  67.162  1.00  0.00    -0.207 C  
BRANCH   3   4
HETATM    4  C   UNL     1      -7.825  17.348  67.621  1.00  0.00    -0.199 C  
HETATM    5  C   UNL     1      -9.032  17.170  66.713  1.00  0.00    -0.241 C  
HETATM    6  N   UNL     1      -9.438  15.801  66.942  1.00  0.00    -0.221 N  
HETATM    7  C   UNL     1      -8.317  15.034  67.191  1.00  0.00    -0.217 C  
HETATM    8  O   UNL     1      -8.224  13.817  67.121  1.00  0.00    -0.173 OA 
HETATM    9  C   UNL     1      -7.207  15.944  67.660  1.00  0.00    -0.182 C  
BRANCH   6  10
HETATM   10  C   UNL     1     -10.757  15.320  66.484  1.00  0.00    -0.311 C  
BRANCH  10  11
HETATM   11  C   UNL     1     -10.853  15.036  64.973  1.00  0.00    -0.439 C  
HETATM   12  C   UNL     1     -12.231  15.254  64.375  1.00  0.00    -0.222 C  
ENDBRANCH  10  11
BRANCH  10  13
HETATM   13  C   UNL     1     -11.558  14.258  67.300  1.00  0.00    -0.377 C  
HETATM   14  N   UNL     1     -12.288  14.666  68.373  1.00  0.00    -0.606 N  
HETATM   15  O   UNL     1     -11.601  13.074  66.967  1.00  0.00    -0.321 OA 
HETATM   16  H1  UNL     1     -12.811  13.971  68.906  1.00  0.00     0.000 HD 
HETATM   17  H2  UNL     1     -12.312  15.650  68.640  1.00  0.00     0.000 HD 
ENDBRANCH  10  13
ENDBRANCH   6  10
ENDBRANCH   3   4
ENDBRANCH   2   3
TORSDOF 5
ENDMDL
MODEL      148
REMARK 921   NORMALIZED FREE ENERGY PREDICTED BY IDOCK:   -3.20 KCAL/MOL
REMARK 922        TOTAL FREE ENERGY PREDICTED BY IDOCK:   -4.69 KCAL/MOL
REMARK 923 INTER-LIGAND FREE ENERGY PREDICTED BY IDOCK:   -4.24 KCAL/MOL
REMARK 924 INTRA-LIGAND FREE ENERGY PREDICTED BY IDOCK:   -0.46 KCAL/MOL
REMARK 927      BINDING AFFINITY PREDICTED BY RF-SCORE:    0.00 PKD
ROOT
HETATM    1  C   UNL     1      -8.306   8.668  64.982  1.00  0.00    -0.181 C  
HETATM    2  C   UNL     1      -7.972   9.041  66.421  1.00  0.00    -0.103 C  
ENDROOT
BRANCH   2   3
HETATM    3  C   UNL     1      -7.596  10.519  66.521  1.00  0.00    -0.128 C  
BRANCH   3   4
HETATM    4  C   UNL     1      -8.542  11.346  67.396  1.00  0.00    -0.142 C  
HETATM    5  C   UNL     1      -9.127  12.586  66.738  1.00  0.00    -0.214 C  
HETATM    6  N   UNL     1     -10.389  12.775  67.419  1.00  0.00    -0.221 N  
HETATM    7  C   UNL     1     -10.912  11.540  67.751  1.00  0.00    -0.236 C  
HETATM    8  O   UNL     1     -12.071  11.281  68.042  1.00  0.00    -0.638 OA 
HETATM    9  C   UNL     1      -9.784  10.535  67.783  1.00  0.00    -0.180 C  
BRANCH   6  10
HETATM   10  C   UNL     1     -11.131  14.045  67.292  1.00  0.00    -0.302 C  
BRANCH  10  11
HETATM   11  C   UNL     1     -12.211  14.057  66.195  1.00  0.00    -0.494 C  
HETATM   12  C   UNL     1     -11.743  14.590  64.853  1.00  0.00    -0.402 C  
ENDBRANCH  10  11
BRANCH  10  13
HETATM   13  C   UNL     1     -11.613  14.829  68.553  1.00  0.00    -0.321 C  
HETATM   14  N   UNL     1     -11.841  14.145  69.706  1.00  0.00    -0.302 N  
HETATM   15  O   UNL     1     -11.733  16.054  68.556  1.00  0.00    -0.375 OA 
HETATM   16  H1  UNL     1     -12.155  14.658  70.530  1.00  0.00     0.000 HD 
HETATM   17  H2  UNL     1     -11.699  13.136  69.748  1.00  0.00     0.000 HD 
ENDBRANCH  10  13
ENDBRANCH   6  10
ENDBRANCH   3   4
ENDBRANCH   2   3
TORSDOF 5
ENDMDL
MODEL      149
REMARK 921   NORMALIZED FREE ENERGY PREDICTED BY IDOCK:   -3.20 KCAL/MOL
REMARK 922        TOTAL FREE ENERGY PREDICTED BY IDOCK:   -4.69 KCAL/MOL
REMARK 923 INTER-LIGAND FREE ENERGY PREDICTED BY IDOCK:   -4.29 KCAL/MOL
REMARK 924 INTRA-LIGAND FREE ENERGY PREDICTED BY IDOCK:   -0.40 KCAL/MOL
REMARK 927      BINDING AFFINITY PREDICTED BY RF-SCORE:    0.00 PKD
ROOT
HETATM    1  C   UNL     1      -9.606  17.552  68.182  1.00  0.00    -0.294 C  
HETATM    2  C   UNL     1      -9.623  16.032  68.282  1.00  0.00    -0.210 C  
ENDROOT
BRANCH   2   3
HETATM    3  C   UNL     1      -8.943  15.405  67.066  1.00  0.00    -0.253 C  
BRANCH   3   4
HETATM    4  C   UNL     1      -9.120  13.887  66.965  1.00  0.00    -0.259 C  
HETATM    5  C   UNL     1      -9.483  13.181  68.262  1.00  0.00    -0.210 C  
HETATM    6  N   UNL     1     -10.218  12.014  67.826  1.00  0.00    -0.198 N  
HETATM    7  C   UNL     1     -10.931  12.330  66.686  1.00  0.00    -0.278 C  
HETATM    8  O   UNL     1     -11.884  11.723  66.218  1.00  0.00    -0.501 OA 
HETATM    9  C   UNL     1     -10.286  13.530  66.034  1.00  0.00    -0.303 C  
BRANCH   6  10
HETATM   10  C   UNL     1     -10.487  10.901  68.759  1.00  0.00    -0.200 C  
BRANCH  10  11
HETATM   11  C   UNL     1     -11.853  10.965  69.465  1.00  0.00    -0.404 C  
HETATM   12  C   UNL     1     -11.837  10.513  70.914  1.00  0.00    -0.455 C  
ENDBRANCH  10  11
BRANCH  10  13
HETATM   13  C   UNL     1     -10.123   9.430  68.387  1.00  0.00    -0.185 C  
HETATM   14  N   UNL     1     -11.051   8.660  67.759  1.00  0.00    -0.408 N  
HETATM   15  O   UNL     1      -9.002   8.963  68.588  1.00  0.00    -0.137 OA 
HETATM   16  H1  UNL     1     -10.813   7.699  67.516  1.00  0.00     0.000 HD 
HETATM   17  H2  UNL     1     -11.972   9.038  67.533  1.00  0.00     0.000 HD 
ENDBRANCH  10  13
ENDBRANCH   6  10
ENDBRANCH   3   4
ENDBRANCH   2   3
TORSDOF 5
ENDMDL
MODEL      150
REMARK 921   NORMALIZED FREE ENERGY PREDICTED BY IDOCK:   -3.20 KCAL/MOL
REMARK 922        TOTAL FREE ENERGY PREDICTED BY IDOCK:   -4.69 KCAL/MOL
REMARK 923 INTER-LIGAND FREE ENERGY PREDICTED BY IDOCK:   -4.34 KCAL/MOL
REMARK 924 INTRA-LIGAND FREE ENERGY PREDICTED BY IDOCK:   -0.35 KCAL/MOL
REMARK 927      BINDING AFFINITY PREDICTED BY RF-SCORE:    0.00 PKD
ROOT
HETATM    1  C   UNL     1     -10.109   7.339  69.867  1.00  0.00    -0.196 C  
HETATM    2  C   UNL     1      -9.613   8.742  69.541  1.00  0.00    -0.167 C  
ENDROOT
BRANCH   2   3
HETATM    3  C   UNL     1     -10.705   9.776  69.814  1.00  0.00    -0.283 C  
BRANCH   3   4
HETATM    4  C   UNL     1     -11.311  10.392  68.550  1.00  0.00    -0.283 C  
HETATM    5  C   UNL     1     -11.114  11.891  68.391  1.00  0.00    -0.244 C  
HETATM    6  N   UNL     1     -11.133  12.092  66.959  1.00  0.00    -0.280 N  
HETATM    7  C   UNL     1     -10.574  10.990  66.341  1.00  0.00    -0.251 C  
HETATM    8  O   UNL     1     -10.140  10.922  65.200  1.00  0.00    -0.256 OA 
HETATM    9  C   UNL     1     -10.657   9.816  67.288  1.00  0.00    -0.320 C  
BRANCH   6  10
HETATM   10  C   UNL     1     -11.279  13.447  66.390  1.00  0.00    -0.304 C  
BRANCH  10  11
HETATM   11  C   UNL     1      -9.953  14.160  66.070  1.00  0.00    -0.340 C  
HETATM   12  C   UNL     1     -10.061  15.669  65.946  1.00  0.00    -0.378 C  
ENDBRANCH  10  11
BRANCH  10  13
HETATM   13  C   UNL     1     -12.352  13.753  65.298  1.00  0.00    -0.464 C  
HETATM   14  N   UNL     1     -13.601  14.123  65.688  1.00  0.00    -0.134 N  
HETATM   15  O   UNL     1     -12.087  13.732  64.096  1.00  0.00    -0.441 OA 
HETATM   16  H1  UNL     1     -14.302  14.322  64.975  1.00  0.00     0.000 HD 
HETATM   17  H2  UNL     1     -13.834  14.199  66.678  1.00  0.00     0.000 HD 
ENDBRANCH  10  13
ENDBRANCH   6  10
ENDBRANCH   3   4
ENDBRANCH   2   3
TORSDOF 5
ENDMDL
MODEL      151
REMARK 921   NORMALIZED FREE ENERGY PREDICTED BY IDOCK:   -3.18 KCAL/MOL
REMARK 922        TOTAL FREE ENERGY PREDICTED BY IDOCK:   -4.66 KCAL/MOL
REMARK 923 INTER-LIGAND FREE ENERGY PREDICTED BY IDOCK:   -4.18 KCAL/MOL
REMARK 924 INTRA-LIGAND FREE ENERGY PREDICTED BY IDOCK:   -0.48 KCAL/MOL
REMARK 927      BINDING AFFINITY PREDICTED BY RF-SCORE:    0.00 PKD
ROOT
HETATM    1  C   UNL     1     -10.264   5.369  74.533  1.00  0.00    -0.293 C  
HETATM    2  C   UNL     1     -10.951   4.729  73.333  1.00  0.00    -0.396 C  
ENDROOT
BRANCH   2   3
HETATM    3  C   UNL     1     -11.639   5.792  72.476  1.00  0.00    -0.321 C  
BRANCH   3   4
HETATM    4  C   UNL     1     -11.130   5.856  71.033  1.00  0.00    -0.315 C  
HETATM    5  C   UNL     1     -11.114   7.241  70.404  1.00  0.00    -0.268 C  
HETATM    6  N   UNL     1     -10.050   7.165  69.428  1.00  0.00    -0.172 N  
HETATM    7  C   UNL     1      -9.060   6.328  69.904  1.00  0.00    -0.144 C  
HETATM    8  O   UNL     1      -7.901   6.261  69.521  1.00  0.00    -0.097 OA 
HETATM    9  C   UNL     1      -9.663   5.416  70.947  1.00  0.00    -0.237 C  
BRANCH   6  10
HETATM   10  C   UNL     1      -9.908   8.201  68.386  1.00  0.00    -0.171 C  
BRANCH  10  11
HETATM   11  C   UNL     1     -10.368   7.773  66.980  1.00  0.00    -0.405 C  
HETATM   12  C   UNL     1     -10.983   6.387  66.912  1.00  0.00    -0.413 C  
ENDBRANCH  10  11
BRANCH  10  13
HETATM   13  C   UNL     1     -10.293   9.687  68.667  1.00  0.00    -0.203 C  
HETATM   14  N   UNL     1     -11.397  10.207  68.066  1.00  0.00    -0.523 N  
HETATM   15  O   UNL     1      -9.667  10.386  69.463  1.00  0.00    -0.219 OA 
HETATM   16  H1  UNL     1     -11.648  11.178  68.249  1.00  0.00     0.000 HD 
HETATM   17  H2  UNL     1     -11.965   9.634  67.441  1.00  0.00     0.000 HD 
ENDBRANCH  10  13
ENDBRANCH   6  10
ENDBRANCH   3   4
ENDBRANCH   2   3
TORSDOF 5
ENDMDL
MODEL      152
REMARK 921   NORMALIZED FREE ENERGY PREDICTED BY IDOCK:   -3.17 KCAL/MOL
REMARK 922        TOTAL FREE ENERGY PREDICTED BY IDOCK:   -4.65 KCAL/MOL
REMARK 923 INTER-LIGAND FREE ENERGY PREDICTED BY IDOCK:   -4.18 KCAL/MOL
REMARK 924 INTRA-LIGAND FREE ENERGY PREDICTED BY IDOCK:   -0.47 KCAL/MOL
REMARK 927      BINDING AFFINITY PREDICTED BY RF-SCORE:    0.00 PKD
ROOT
HETATM    1  C   UNL     1      -6.447  15.925  69.534  1.00  0.00    -0.186 C  
HETATM    2  C   UNL     1      -7.885  16.312  69.215  1.00  0.00    -0.179 C  
ENDROOT
BRANCH   2   3
HETATM    3  C   UNL     1      -7.989  16.877  67.798  1.00  0.00    -0.188 C  
BRANCH   3   4
HETATM    4  C   UNL     1      -8.302  15.826  66.729  1.00  0.00    -0.309 C  
HETATM    5  C   UNL     1      -8.930  14.539  67.238  1.00  0.00    -0.210 C  
HETATM    6  N   UNL     1      -9.704  14.063  66.112  1.00  0.00    -0.295 N  
HETATM    7  C   UNL     1     -10.196  15.147  65.413  1.00  0.00    -0.372 C  
HETATM    8  O   UNL     1     -11.121  15.154  64.614  1.00  0.00    -0.375 OA 
HETATM    9  C   UNL     1      -9.340  16.351  65.729  1.00  0.00    -0.152 C  
BRANCH   6  10
HETATM   10  C   UNL     1     -10.225  12.681  66.086  1.00  0.00    -0.258 C  
BRANCH  10  11
HETATM   11  C   UNL     1      -9.409  11.667  66.908  1.00  0.00    -0.195 C  
HETATM   12  C   UNL     1      -8.271  11.008  66.150  1.00  0.00    -0.155 C  
ENDBRANCH  10  11
BRANCH  10  13
HETATM   13  C   UNL     1     -11.753  12.392  66.205  1.00  0.00    -0.395 C  
HETATM   14  N   UNL     1     -12.541  12.548  65.108  1.00  0.00    -0.414 N  
HETATM   15  O   UNL     1     -12.259  11.966  67.244  1.00  0.00    -0.495 OA 
HETATM   16  H1  UNL     1     -13.540  12.359  65.186  1.00  0.00     0.000 HD 
HETATM   17  H2  UNL     1     -12.139  12.849  64.220  1.00  0.00     0.000 HD 
ENDBRANCH  10  13
ENDBRANCH   6  10
ENDBRANCH   3   4
ENDBRANCH   2   3
TORSDOF 5
ENDMDL
MODEL      153
REMARK 921   NORMALIZED FREE ENERGY PREDICTED BY IDOCK:   -3.16 KCAL/MOL
REMARK 922        TOTAL FREE ENERGY PREDICTED BY IDOCK:   -4.64 KCAL/MOL
REMARK 923 INTER-LIGAND FREE ENERGY PREDICTED BY IDOCK:   -4.68 KCAL/MOL
REMARK 924 INTRA-LIGAND FREE ENERGY PREDICTED BY IDOCK:    0.04 KCAL/MOL
REMARK 927      BINDING AFFINITY PREDICTED BY RF-SCORE:    0.00 PKD
ROOT
HETATM    1  C   UNL     1      -5.126  18.407  65.125  1.00  0.00    -0.204 C  
HETATM    2  C   UNL     1      -5.583  19.696  64.453  1.00  0.00    -0.279 C  
ENDROOT
BRANCH   2   3
HETATM    3  C   UNL     1      -5.404  20.886  65.393  1.00  0.00    -0.238 C  
BRANCH   3   4
HETATM    4  C   UNL     1      -6.488  21.001  66.469  1.00  0.00    -0.334 C  
HETATM    5  C   UNL     1      -7.631  20.005  66.358  1.00  0.00    -0.295 C  
HETATM    6  N   UNL     1      -8.090  19.851  67.720  1.00  0.00    -0.292 N  
HETATM    7  C   UNL     1      -7.010  19.965  68.575  1.00  0.00    -0.304 C  
HETATM    8  O   UNL     1      -6.945  19.593  69.738  1.00  0.00    -0.298 OA 
HETATM    9  C   UNL     1      -5.912  20.720  67.863  1.00  0.00    -0.341 C  
BRANCH   6  10
HETATM   10  C   UNL     1      -9.385  19.204  68.011  1.00  0.00    -0.324 C  
BRANCH  10  11
HETATM   11  C   UNL     1     -10.609  19.900  67.389  1.00  0.00    -0.505 C  
HETATM   12  C   UNL     1     -10.836  19.588  65.921  1.00  0.00    -0.426 C  
ENDBRANCH  10  11
BRANCH  10  13
HETATM   13  C   UNL     1      -9.543  17.653  67.959  1.00  0.00    -0.289 C  
HETATM   14  N   UNL     1     -10.608  17.078  68.579  1.00  0.00    -0.359 N  
HETATM   15  O   UNL     1      -8.769  16.937  67.323  1.00  0.00    -0.189 OA 
HETATM   16  H1  UNL     1     -10.711  16.064  68.544  1.00  0.00     0.000 HD 
HETATM   17  H2  UNL     1     -11.295  17.652  69.070  1.00  0.00     0.000 HD 
ENDBRANCH  10  13
ENDBRANCH   6  10
ENDBRANCH   3   4
ENDBRANCH   2   3
TORSDOF 5
ENDMDL
MODEL      154
REMARK 921   NORMALIZED FREE ENERGY PREDICTED BY IDOCK:   -3.16 KCAL/MOL
REMARK 922        TOTAL FREE ENERGY PREDICTED BY IDOCK:   -4.64 KCAL/MOL
REMARK 923 INTER-LIGAND FREE ENERGY PREDICTED BY IDOCK:   -4.35 KCAL/MOL
REMARK 924 INTRA-LIGAND FREE ENERGY PREDICTED BY IDOCK:   -0.29 KCAL/MOL
REMARK 927      BINDING AFFINITY PREDICTED BY RF-SCORE:    0.00 PKD
ROOT
HETATM    1  C   UNL     1      -9.827  10.352  65.085  1.00  0.00    -0.378 C  
HETATM    2  C   UNL     1      -8.774  10.861  66.060  1.00  0.00    -0.192 C  
ENDROOT
BRANCH   2   3
HETATM    3  C   UNL     1      -8.557   9.856  67.191  1.00  0.00    -0.125 C  
BRANCH   3   4
HETATM    4  C   UNL     1      -9.347  10.168  68.465  1.00  0.00    -0.151 C  
HETATM    5  C   UNL     1     -10.594   9.325  68.686  1.00  0.00    -0.187 C  
HETATM    6  N   UNL     1     -10.746   9.304  70.124  1.00  0.00    -0.223 N  
HETATM    7  C   UNL     1      -9.495   9.320  70.710  1.00  0.00    -0.271 C  
HETATM    8  O   UNL     1      -9.212   9.004  71.856  1.00  0.00    -0.353 OA 
HETATM    9  C   UNL     1      -8.507   9.886  69.717  1.00  0.00    -0.206 C  
BRANCH   6  10
HETATM   10  C   UNL     1     -12.008   8.848  70.742  1.00  0.00    -0.148 C  
BRANCH  10  11
HETATM   11  C   UNL     1     -12.008   7.380  71.204  1.00  0.00    -0.351 C  
HETATM   12  C   UNL     1     -11.630   6.378  70.128  1.00  0.00    -0.449 C  
ENDBRANCH  10  11
BRANCH  10  13
HETATM   13  C   UNL     1     -12.783   9.749  71.753  1.00  0.00    -0.426 C  
HETATM   14  N   UNL     1     -12.786  11.096  71.568  1.00  0.00    -0.440 N  
HETATM   15  O   UNL     1     -13.444   9.275  72.677  1.00  0.00    -0.444 OA 
HETATM   16  H1  UNL     1     -13.293  11.684  72.229  1.00  0.00     0.000 HD 
HETATM   17  H2  UNL     1     -12.289  11.512  70.780  1.00  0.00     0.000 HD 
ENDBRANCH  10  13
ENDBRANCH   6  10
ENDBRANCH   3   4
ENDBRANCH   2   3
TORSDOF 5
ENDMDL
MODEL      155
REMARK 921   NORMALIZED FREE ENERGY PREDICTED BY IDOCK:   -3.14 KCAL/MOL
REMARK 922        TOTAL FREE ENERGY PREDICTED BY IDOCK:   -4.62 KCAL/MOL
REMARK 923 INTER-LIGAND FREE ENERGY PREDICTED BY IDOCK:   -4.10 KCAL/MOL
REMARK 924 INTRA-LIGAND FREE ENERGY PREDICTED BY IDOCK:   -0.51 KCAL/MOL
REMARK 927      BINDING AFFINITY PREDICTED BY RF-SCORE:    0.00 PKD
ROOT
HETATM    1  C   UNL     1     -13.152  10.499  71.679  1.00  0.00    -0.551 C  
HETATM    2  C   UNL     1     -13.383   9.205  72.450  1.00  0.00    -0.527 C  
ENDROOT
BRANCH   2   3
HETATM    3  C   UNL     1     -13.517   8.023  71.491  1.00  0.00    -0.327 C  
BRANCH   3   4
HETATM    4  C   UNL     1     -12.404   6.980  71.626  1.00  0.00    -0.407 C  
HETATM    5  C   UNL     1     -11.718   6.579  70.329  1.00  0.00    -0.366 C  
HETATM    6  N   UNL     1     -10.392   6.184  70.748  1.00  0.00    -0.204 N  
HETATM    7  C   UNL     1     -10.008   6.960  71.824  1.00  0.00    -0.173 C  
HETATM    8  O   UNL     1      -8.872   7.135  72.242  1.00  0.00    -0.128 OA 
HETATM    9  C   UNL     1     -11.249   7.514  72.483  1.00  0.00    -0.381 C  
BRANCH   6  10
HETATM   10  C   UNL     1      -9.505   5.436  69.834  1.00  0.00    -0.159 C  
BRANCH  10  11
HETATM   11  C   UNL     1      -9.575   3.904  69.974  1.00  0.00    -0.269 C  
HETATM   12  C   UNL     1      -9.911   3.412  71.369  1.00  0.00    -0.204 C  
ENDBRANCH  10  11
BRANCH  10  13
HETATM   13  C   UNL     1      -9.353   5.851  68.337  1.00  0.00    -0.120 C  
HETATM   14  N   UNL     1     -10.024   5.146  67.387  1.00  0.00    -0.170 N  
HETATM   15  O   UNL     1      -8.696   6.833  67.994  1.00  0.00    -0.119 OA 
HETATM   16  H1  UNL     1      -9.925   5.417  66.409  1.00  0.00     0.000 HD 
HETATM   17  H2  UNL     1     -10.618   4.359  67.648  1.00  0.00     0.000 HD 
ENDBRANCH  10  13
ENDBRANCH   6  10
ENDBRANCH   3   4
ENDBRANCH   2   3
TORSDOF 5
ENDMDL
MODEL      156
REMARK 921   NORMALIZED FREE ENERGY PREDICTED BY IDOCK:   -3.14 KCAL/MOL
REMARK 922        TOTAL FREE ENERGY PREDICTED BY IDOCK:   -4.62 KCAL/MOL
REMARK 923 INTER-LIGAND FREE ENERGY PREDICTED BY IDOCK:   -4.21 KCAL/MOL
REMARK 924 INTRA-LIGAND FREE ENERGY PREDICTED BY IDOCK:   -0.40 KCAL/MOL
REMARK 927      BINDING AFFINITY PREDICTED BY RF-SCORE:    0.00 PKD
ROOT
HETATM    1  C   UNL     1      -5.218  18.460  65.649  1.00  0.00    -0.199 C  
HETATM    2  C   UNL     1      -6.593  18.063  66.171  1.00  0.00    -0.293 C  
ENDROOT
BRANCH   2   3
HETATM    3  C   UNL     1      -6.467  17.016  67.277  1.00  0.00    -0.194 C  
BRANCH   3   4
HETATM    4  C   UNL     1      -7.585  15.969  67.276  1.00  0.00    -0.227 C  
HETATM    5  C   UNL     1      -8.391  15.869  68.562  1.00  0.00    -0.182 C  
HETATM    6  N   UNL     1      -9.683  15.391  68.123  1.00  0.00    -0.210 N  
HETATM    7  C   UNL     1      -9.954  15.907  66.871  1.00  0.00    -0.249 C  
HETATM    8  O   UNL     1     -11.044  15.985  66.323  1.00  0.00    -0.144 OA 
HETATM    9  C   UNL     1      -8.648  16.300  66.221  1.00  0.00    -0.374 C  
BRANCH   6  10
HETATM   10  C   UNL     1     -10.663  14.867  69.096  1.00  0.00    -0.252 C  
BRANCH  10  11
HETATM   11  C   UNL     1     -11.694  15.898  69.594  1.00  0.00    -0.322 C  
HETATM   12  C   UNL     1     -11.951  15.862  71.089  1.00  0.00    -0.472 C  
ENDBRANCH  10  11
BRANCH  10  13
HETATM   13  C   UNL     1     -11.327  13.469  68.901  1.00  0.00    -0.289 C  
HETATM   14  N   UNL     1     -11.041  12.475  69.786  1.00  0.00    -0.471 N  
HETATM   15  O   UNL     1     -12.148  13.252  68.011  1.00  0.00    -0.332 OA 
HETATM   16  H1  UNL     1     -11.475  11.561  69.658  1.00  0.00     0.000 HD 
HETATM   17  H2  UNL     1     -10.403  12.642  70.564  1.00  0.00     0.000 HD 
ENDBRANCH  10  13
ENDBRANCH   6  10
ENDBRANCH   3   4
ENDBRANCH   2   3
TORSDOF 5
ENDMDL
MODEL      157
REMARK 921   NORMALIZED FREE ENERGY PREDICTED BY IDOCK:   -3.14 KCAL/MOL
REMARK 922        TOTAL FREE ENERGY PREDICTED BY IDOCK:   -4.62 KCAL/MOL
REMARK 923 INTER-LIGAND FREE ENERGY PREDICTED BY IDOCK:   -4.36 KCAL/MOL
REMARK 924 INTRA-LIGAND FREE ENERGY PREDICTED BY IDOCK:   -0.26 KCAL/MOL
REMARK 927      BINDING AFFINITY PREDICTED BY RF-SCORE:    0.00 PKD
ROOT
HETATM    1  C   UNL     1      -8.002   7.948  63.091  1.00  0.00    -0.130 C  
HETATM    2  C   UNL     1      -8.235   8.437  64.515  1.00  0.00    -0.149 C  
ENDROOT
BRANCH   2   3
HETATM    3  C   UNL     1      -9.230   9.597  64.530  1.00  0.00    -0.277 C  
BRANCH   3   4
HETATM    4  C   UNL     1      -9.321  10.325  65.874  1.00  0.00    -0.226 C  
HETATM    5  C   UNL     1      -9.539  11.827  65.794  1.00  0.00    -0.233 C  
HETATM    6  N   UNL     1     -10.232  12.142  67.024  1.00  0.00    -0.207 N  
HETATM    7  C   UNL     1     -11.048  11.082  67.366  1.00  0.00    -0.305 C  
HETATM    8  O   UNL     1     -11.993  11.097  68.140  1.00  0.00    -0.615 OA 
HETATM    9  C   UNL     1     -10.529   9.838  66.683  1.00  0.00    -0.233 C  
BRANCH   6  10
HETATM   10  C   UNL     1     -10.359  13.541  67.480  1.00  0.00    -0.237 C  
BRANCH  10  11
HETATM   11  C   UNL     1      -9.207  14.469  67.051  1.00  0.00    -0.253 C  
HETATM   12  C   UNL     1      -9.552  15.425  65.924  1.00  0.00    -0.386 C  
ENDBRANCH  10  11
BRANCH  10  13
HETATM   13  C   UNL     1     -11.727  14.290  67.418  1.00  0.00    -0.394 C  
HETATM   14  N   UNL     1     -12.673  13.860  66.541  1.00  0.00    -0.420 N  
HETATM   15  O   UNL     1     -12.000  15.217  68.180  1.00  0.00    -0.290 OA 
HETATM   16  H1  UNL     1     -13.567  14.350  66.500  1.00  0.00     0.000 HD 
HETATM   17  H2  UNL     1     -12.493  13.061  65.933  1.00  0.00     0.000 HD 
ENDBRANCH  10  13
ENDBRANCH   6  10
ENDBRANCH   3   4
ENDBRANCH   2   3
TORSDOF 5
ENDMDL
MODEL      158
REMARK 921   NORMALIZED FREE ENERGY PREDICTED BY IDOCK:   -3.14 KCAL/MOL
REMARK 922        TOTAL FREE ENERGY PREDICTED BY IDOCK:   -4.61 KCAL/MOL
REMARK 923 INTER-LIGAND FREE ENERGY PREDICTED BY IDOCK:   -4.11 KCAL/MOL
REMARK 924 INTRA-LIGAND FREE ENERGY PREDICTED BY IDOCK:   -0.51 KCAL/MOL
REMARK 927      BINDING AFFINITY PREDICTED BY RF-SCORE:    0.00 PKD
ROOT
HETATM    1  C   UNL     1     -12.055  13.021  63.567  1.00  0.00    -0.617 C  
HETATM    2  C   UNL     1     -12.770  12.655  64.861  1.00  0.00    -0.450 C  
ENDROOT
BRANCH   2   3
HETATM    3  C   UNL     1     -12.594  13.758  65.905  1.00  0.00    -0.494 C  
BRANCH   3   4
HETATM    4  C   UNL     1     -11.774  13.336  67.127  1.00  0.00    -0.425 C  
HETATM    5  C   UNL     1     -10.392  12.777  66.830  1.00  0.00    -0.240 C  
HETATM    6  N   UNL     1      -9.629  13.091  68.018  1.00  0.00    -0.219 N  
HETATM    7  C   UNL     1     -10.076  14.290  68.537  1.00  0.00    -0.246 C  
HETATM    8  O   UNL     1      -9.492  15.018  69.326  1.00  0.00    -0.211 OA 
HETATM    9  C   UNL     1     -11.479  14.538  68.033  1.00  0.00    -0.345 C  
BRANCH   6  10
HETATM   10  C   UNL     1      -8.320  12.453  68.263  1.00  0.00    -0.169 C  
BRANCH  10  11
HETATM   11  C   UNL     1      -8.347  10.914  68.296  1.00  0.00    -0.129 C  
HETATM   12  C   UNL     1      -7.708  10.296  69.526  1.00  0.00    -0.167 C  
ENDBRANCH  10  11
BRANCH  10  13
HETATM   13  C   UNL     1      -7.025  12.971  67.564  1.00  0.00    -0.151 C  
HETATM   14  N   UNL     1      -6.499  14.164  67.951  1.00  0.00    -0.152 N  
HETATM   15  O   UNL     1      -6.428  12.306  66.717  1.00  0.00    -0.092 OA 
HETATM   16  H1  UNL     1      -5.653  14.502  67.494  1.00  0.00     0.000 HD 
HETATM   17  H2  UNL     1      -6.944  14.712  68.687  1.00  0.00     0.000 HD 
ENDBRANCH  10  13
ENDBRANCH   6  10
ENDBRANCH   3   4
ENDBRANCH   2   3
TORSDOF 5
ENDMDL
MODEL      159
REMARK 921   NORMALIZED FREE ENERGY PREDICTED BY IDOCK:   -3.11 KCAL/MOL
REMARK 922        TOTAL FREE ENERGY PREDICTED BY IDOCK:   -4.57 KCAL/MOL
REMARK 923 INTER-LIGAND FREE ENERGY PREDICTED BY IDOCK:   -4.35 KCAL/MOL
REMARK 924 INTRA-LIGAND FREE ENERGY PREDICTED BY IDOCK:   -0.22 KCAL/MOL
REMARK 927      BINDING AFFINITY PREDICTED BY RF-SCORE:    0.00 PKD
ROOT
HETATM    1  C   UNL     1      -7.278   8.021  67.877  1.00  0.00    -0.091 C  
HETATM    2  C   UNL     1      -7.325   8.964  66.681  1.00  0.00    -0.085 C  
ENDROOT
BRANCH   2   3
HETATM    3  C   UNL     1      -8.151   8.357  65.549  1.00  0.00    -0.129 C  
BRANCH   3   4
HETATM    4  C   UNL     1      -9.379   9.183  65.158  1.00  0.00    -0.180 C  
HETATM    5  C   UNL     1      -9.754  10.298  66.123  1.00  0.00    -0.211 C  
HETATM    6  N   UNL     1     -10.414  11.273  65.285  1.00  0.00    -0.279 N  
HETATM    7  C   UNL     1      -9.833  11.259  64.032  1.00  0.00    -0.291 C  
HETATM    8  O   UNL     1      -9.902  12.127  63.174  1.00  0.00    -0.398 OA 
HETATM    9  C   UNL     1      -9.145   9.928  63.838  1.00  0.00    -0.298 C  
BRANCH   6  10
HETATM   10  C   UNL     1     -11.203  12.369  65.882  1.00  0.00    -0.336 C  
BRANCH  10  11
HETATM   11  C   UNL     1     -12.436  12.798  65.065  1.00  0.00    -0.572 C  
HETATM   12  C   UNL     1     -12.949  14.192  65.380  1.00  0.00    -0.300 C  
ENDBRANCH  10  11
BRANCH  10  13
HETATM   13  C   UNL     1     -11.512  12.402  67.411  1.00  0.00    -0.352 C  
HETATM   14  N   UNL     1     -11.017  13.423  68.161  1.00  0.00    -0.246 N  
HETATM   15  O   UNL     1     -12.240  11.569  67.950  1.00  0.00    -0.586 OA 
HETATM   16  H1  UNL     1     -11.219  13.444  69.161  1.00  0.00     0.000 HD 
HETATM   17  H2  UNL     1     -10.453  14.157  67.732  1.00  0.00     0.000 HD 
ENDBRANCH  10  13
ENDBRANCH   6  10
ENDBRANCH   3   4
ENDBRANCH   2   3
TORSDOF 5
ENDMDL
MODEL      160
REMARK 921   NORMALIZED FREE ENERGY PREDICTED BY IDOCK:   -3.10 KCAL/MOL
REMARK 922        TOTAL FREE ENERGY PREDICTED BY IDOCK:   -4.57 KCAL/MOL
REMARK 923 INTER-LIGAND FREE ENERGY PREDICTED BY IDOCK:   -4.23 KCAL/MOL
REMARK 924 INTRA-LIGAND FREE ENERGY PREDICTED BY IDOCK:   -0.34 KCAL/MOL
REMARK 927      BINDING AFFINITY PREDICTED BY RF-SCORE:    0.00 PKD
ROOT
HETATM    1  C   UNL     1     -12.860  11.981  71.260  1.00  0.00    -0.364 C  
HETATM    2  C   UNL     1     -12.508  10.655  70.597  1.00  0.00    -0.462 C  
ENDROOT
BRANCH   2   3
HETATM    3  C   UNL     1     -12.970   9.482  71.461  1.00  0.00    -0.471 C  
BRANCH   3   4
HETATM    4  C   UNL     1     -11.836   8.764  72.198  1.00  0.00    -0.436 C  
HETATM    5  C   UNL     1     -11.909   7.245  72.195  1.00  0.00    -0.286 C  
HETATM    6  N   UNL     1     -10.528   6.832  72.306  1.00  0.00    -0.205 N  
HETATM    7  C   UNL     1      -9.730   7.745  71.644  1.00  0.00    -0.163 C  
HETATM    8  O   UNL     1      -8.581   7.580  71.260  1.00  0.00    -0.119 OA 
HETATM    9  C   UNL     1     -10.482   9.050  71.537  1.00  0.00    -0.410 C  
BRANCH   6  10
HETATM   10  C   UNL     1     -10.184   5.436  72.645  1.00  0.00    -0.185 C  
BRANCH  10  11
HETATM   11  C   UNL     1     -11.302   4.648  73.353  1.00  0.00    -0.394 C  
HETATM   12  C   UNL     1     -10.920   3.236  73.757  1.00  0.00    -0.310 C  
ENDBRANCH  10  11
BRANCH  10  13
HETATM   13  C   UNL     1      -9.415   4.526  71.638  1.00  0.00    -0.151 C  
HETATM   14  N   UNL     1      -8.073   4.365  71.787  1.00  0.00    -0.095 N  
HETATM   15  O   UNL     1      -9.993   3.899  70.750  1.00  0.00    -0.179 OA 
HETATM   16  H1  UNL     1      -7.571   3.770  71.128  1.00  0.00     0.000 HD 
HETATM   17  H2  UNL     1      -7.576   4.831  72.546  1.00  0.00     0.000 HD 
ENDBRANCH  10  13
ENDBRANCH   6  10
ENDBRANCH   3   4
ENDBRANCH   2   3
TORSDOF 5
ENDMDL
MODEL      161
REMARK 921   NORMALIZED FREE ENERGY PREDICTED BY IDOCK:   -3.10 KCAL/MOL
REMARK 922        TOTAL FREE ENERGY PREDICTED BY IDOCK:   -4.57 KCAL/MOL
REMARK 923 INTER-LIGAND FREE ENERGY PREDICTED BY IDOCK:   -4.09 KCAL/MOL
REMARK 924 INTRA-LIGAND FREE ENERGY PREDICTED BY IDOCK:   -0.48 KCAL/MOL
REMARK 927      BINDING AFFINITY PREDICTED BY RF-SCORE:    0.00 PKD
ROOT
HETATM    1  C   UNL     1      -9.647  17.951  68.487  1.00  0.00    -0.327 C  
HETATM    2  C   UNL     1      -9.427  16.448  68.365  1.00  0.00    -0.220 C  
ENDROOT
BRANCH   2   3
HETATM    3  C   UNL     1      -8.419  16.140  67.259  1.00  0.00    -0.203 C  
BRANCH   3   4
HETATM    4  C   UNL     1      -8.684  14.825  66.521  1.00  0.00    -0.160 C  
HETATM    5  C   UNL     1      -9.135  13.663  67.392  1.00  0.00    -0.222 C  
HETATM    6  N   UNL     1      -9.923  12.845  66.497  1.00  0.00    -0.253 N  
HETATM    7  C   UNL     1     -10.574  13.663  65.594  1.00  0.00    -0.293 C  
HETATM    8  O   UNL     1     -11.544  13.380  64.906  1.00  0.00    -0.313 OA 
HETATM    9  C   UNL     1      -9.835  14.978  65.518  1.00  0.00    -0.352 C  
BRANCH   6  10
HETATM   10  C   UNL     1     -10.292  11.463  66.866  1.00  0.00    -0.227 C  
BRANCH  10  11
HETATM   11  C   UNL     1     -11.565  11.341  67.724  1.00  0.00    -0.307 C  
HETATM   12  C   UNL     1     -11.317  11.312  69.221  1.00  0.00    -0.354 C  
ENDBRANCH  10  11
BRANCH  10  13
HETATM   13  C   UNL     1     -10.207  10.300  65.829  1.00  0.00    -0.219 C  
HETATM   14  N   UNL     1     -10.219  10.598  64.502  1.00  0.00    -0.349 N  
HETATM   15  O   UNL     1     -10.067   9.127  66.173  1.00  0.00    -0.290 OA 
HETATM   16  H1  UNL     1     -10.164   9.838  63.825  1.00  0.00     0.000 HD 
HETATM   17  H2  UNL     1     -10.282  11.567  64.189  1.00  0.00     0.000 HD 
ENDBRANCH  10  13
ENDBRANCH   6  10
ENDBRANCH   3   4
ENDBRANCH   2   3
TORSDOF 5
ENDMDL
MODEL      162
REMARK 921   NORMALIZED FREE ENERGY PREDICTED BY IDOCK:   -3.10 KCAL/MOL
REMARK 922        TOTAL FREE ENERGY PREDICTED BY IDOCK:   -4.56 KCAL/MOL
REMARK 923 INTER-LIGAND FREE ENERGY PREDICTED BY IDOCK:   -4.22 KCAL/MOL
REMARK 924 INTRA-LIGAND FREE ENERGY PREDICTED BY IDOCK:   -0.34 KCAL/MOL
REMARK 927      BINDING AFFINITY PREDICTED BY RF-SCORE:    0.00 PKD
ROOT
HETATM    1  C   UNL     1     -10.056   6.370  74.307  1.00  0.00    -0.365 C  
HETATM    2  C   UNL     1     -10.800   6.349  72.978  1.00  0.00    -0.287 C  
ENDROOT
BRANCH   2   3
HETATM    3  C   UNL     1     -11.655   7.606  72.820  1.00  0.00    -0.334 C  
BRANCH   3   4
HETATM    4  C   UNL     1     -11.776   8.102  71.377  1.00  0.00    -0.321 C  
HETATM    5  C   UNL     1     -10.966   9.343  71.039  1.00  0.00    -0.338 C  
HETATM    6  N   UNL     1     -10.702   9.209  69.623  1.00  0.00    -0.230 N  
HETATM    7  C   UNL     1     -10.559   7.870  69.316  1.00  0.00    -0.188 C  
HETATM    8  O   UNL     1     -10.037   7.392  68.320  1.00  0.00    -0.165 OA 
HETATM    9  C   UNL     1     -11.244   7.056  70.389  1.00  0.00    -0.339 C  
BRANCH   6  10
HETATM   10  C   UNL     1     -10.203  10.356  68.838  1.00  0.00    -0.205 C  
BRANCH  10  11
HETATM   11  C   UNL     1      -8.703  10.302  68.496  1.00  0.00    -0.130 C  
HETATM   12  C   UNL     1      -7.778  10.393  69.696  1.00  0.00    -0.152 C  
ENDBRANCH  10  11
BRANCH  10  13
HETATM   13  C   UNL     1     -11.024  10.935  67.644  1.00  0.00    -0.293 C  
HETATM   14  N   UNL     1     -10.540  10.793  66.381  1.00  0.00    -0.232 N  
HETATM   15  O   UNL     1     -12.126  11.461  67.801  1.00  0.00    -0.637 OA 
HETATM   16  H1  UNL     1     -11.077  11.172  65.601  1.00  0.00     0.000 HD 
HETATM   17  H2  UNL     1      -9.654  10.315  66.216  1.00  0.00     0.000 HD 
ENDBRANCH  10  13
ENDBRANCH   6  10
ENDBRANCH   3   4
ENDBRANCH   2   3
TORSDOF 5
ENDMDL
MODEL      163
REMARK 921   NORMALIZED FREE ENERGY PREDICTED BY IDOCK:   -3.07 KCAL/MOL
REMARK 922        TOTAL FREE ENERGY PREDICTED BY IDOCK:   -4.52 KCAL/MOL
REMARK 923 INTER-LIGAND FREE ENERGY PREDICTED BY IDOCK:   -4.06 KCAL/MOL
REMARK 924 INTRA-LIGAND FREE ENERGY PREDICTED BY IDOCK:   -0.46 KCAL/MOL
REMARK 927      BINDING AFFINITY PREDICTED BY RF-SCORE:    0.00 PKD
ROOT
HETATM    1  C   UNL     1     -11.968  12.343  63.705  1.00  0.00    -0.626 C  
HETATM    2  C   UNL     1     -10.948  12.039  64.794  1.00  0.00    -0.361 C  
ENDROOT
BRANCH   2   3
HETATM    3  C   UNL     1     -11.556  12.260  66.179  1.00  0.00    -0.450 C  
BRANCH   3   4
HETATM    4  C   UNL     1     -10.706  11.713  67.329  1.00  0.00    -0.281 C  
HETATM    5  C   UNL     1     -11.320  10.563  68.111  1.00  0.00    -0.254 C  
HETATM    6  N   UNL     1     -10.175   9.833  68.609  1.00  0.00    -0.183 N  
HETATM    7  C   UNL     1      -9.153   9.913  67.684  1.00  0.00    -0.131 C  
HETATM    8  O   UNL     1      -8.171   9.189  67.603  1.00  0.00    -0.108 OA 
HETATM    9  C   UNL     1      -9.391  11.120  66.808  1.00  0.00    -0.193 C  
BRANCH   6  10
HETATM   10  C   UNL     1     -10.332   8.819  69.671  1.00  0.00    -0.213 C  
BRANCH  10  11
HETATM   11  C   UNL     1     -10.890   9.358  71.001  1.00  0.00    -0.406 C  
HETATM   12  C   UNL     1     -10.214   8.802  72.242  1.00  0.00    -0.310 C  
ENDBRANCH  10  11
BRANCH  10  13
HETATM   13  C   UNL     1     -10.910   7.404  69.359  1.00  0.00    -0.171 C  
HETATM   14  N   UNL     1     -10.262   6.611  68.464  1.00  0.00    -0.160 N  
HETATM   15  O   UNL     1     -11.898   6.958  69.941  1.00  0.00    -0.212 OA 
HETATM   16  H1  UNL     1     -10.641   5.686  68.260  1.00  0.00     0.000 HD 
HETATM   17  H2  UNL     1      -9.411   6.935  68.004  1.00  0.00     0.000 HD 
ENDBRANCH  10  13
ENDBRANCH   6  10
ENDBRANCH   3   4
ENDBRANCH   2   3
TORSDOF 5
ENDMDL
MODEL      164
REMARK 921   NORMALIZED FREE ENERGY PREDICTED BY IDOCK:   -3.05 KCAL/MOL
REMARK 922        TOTAL FREE ENERGY PREDICTED BY IDOCK:   -4.50 KCAL/MOL
REMARK 923 INTER-LIGAND FREE ENERGY PREDICTED BY IDOCK:   -4.32 KCAL/MOL
REMARK 924 INTRA-LIGAND FREE ENERGY PREDICTED BY IDOCK:   -0.18 KCAL/MOL
REMARK 927      BINDING AFFINITY PREDICTED BY RF-SCORE:    0.00 PKD
ROOT
HETATM    1  C   UNL     1     -10.295   7.731  70.736  1.00  0.00    -0.206 C  
HETATM    2  C   UNL     1     -10.167   9.215  70.419  1.00  0.00    -0.268 C  
ENDROOT
BRANCH   2   3
HETATM    3  C   UNL     1     -11.507   9.925  70.611  1.00  0.00    -0.411 C  
BRANCH   3   4
HETATM    4  C   UNL     1     -11.932  10.789  69.420  1.00  0.00    -0.353 C  
HETATM    5  C   UNL     1     -11.312  12.176  69.362  1.00  0.00    -0.245 C  
HETATM    6  N   UNL     1     -11.298  12.489  67.950  1.00  0.00    -0.270 N  
HETATM    7  C   UNL     1     -11.093  11.327  67.232  1.00  0.00    -0.305 C  
HETATM    8  O   UNL     1     -10.719  11.231  66.073  1.00  0.00    -0.267 OA 
HETATM    9  C   UNL     1     -11.496  10.154  68.094  1.00  0.00    -0.036 C  
BRANCH   6  10
HETATM   10  C   UNL     1     -11.056  13.871  67.487  1.00  0.00    -0.286 C  
BRANCH  10  11
HETATM   11  C   UNL     1     -11.545  14.970  68.448  1.00  0.00    -0.352 C  
HETATM   12  C   UNL     1     -10.930  16.337  68.209  1.00  0.00    -0.348 C  
ENDBRANCH  10  11
BRANCH  10  13
HETATM   13  C   UNL     1      -9.702  14.275  66.824  1.00  0.00    -0.275 C  
HETATM   14  N   UNL     1      -9.702  14.698  65.532  1.00  0.00    -0.511 N  
HETATM   15  O   UNL     1      -8.643  14.283  67.451  1.00  0.00    -0.188 OA 
HETATM   16  H1  UNL     1      -8.817  14.962  65.099  1.00  0.00     0.000 HD 
HETATM   17  H2  UNL     1     -10.573  14.751  65.003  1.00  0.00     0.000 HD 
ENDBRANCH  10  13
ENDBRANCH   6  10
ENDBRANCH   3   4
ENDBRANCH   2   3
TORSDOF 5
ENDMDL
MODEL      165
REMARK 921   NORMALIZED FREE ENERGY PREDICTED BY IDOCK:   -3.05 KCAL/MOL
REMARK 922        TOTAL FREE ENERGY PREDICTED BY IDOCK:   -4.50 KCAL/MOL
REMARK 923 INTER-LIGAND FREE ENERGY PREDICTED BY IDOCK:   -4.05 KCAL/MOL
REMARK 924 INTRA-LIGAND FREE ENERGY PREDICTED BY IDOCK:   -0.45 KCAL/MOL
REMARK 927      BINDING AFFINITY PREDICTED BY RF-SCORE:    0.00 PKD
ROOT
HETATM    1  C   UNL     1     -11.029  11.701  64.317  1.00  0.00    -0.418 C  
HETATM    2  C   UNL     1     -10.110  12.242  65.405  1.00  0.00    -0.292 C  
ENDROOT
BRANCH   2   3
HETATM    3  C   UNL     1     -10.900  12.543  66.678  1.00  0.00    -0.277 C  
BRANCH   3   4
HETATM    4  C   UNL     1     -11.315  11.296  67.464  1.00  0.00    -0.360 C  
HETATM    5  C   UNL     1     -10.197  10.314  67.775  1.00  0.00    -0.187 C  
HETATM    6  N   UNL     1     -10.633   9.667  68.993  1.00  0.00    -0.215 N  
HETATM    7  C   UNL     1     -11.339  10.575  69.758  1.00  0.00    -0.300 C  
HETATM    8  O   UNL     1     -11.588  10.500  70.952  1.00  0.00    -0.338 OA 
HETATM    9  C   UNL     1     -11.846  11.673  68.853  1.00  0.00    -0.392 C  
BRANCH   6  10
HETATM   10  C   UNL     1      -9.980   8.430  69.465  1.00  0.00    -0.190 C  
BRANCH  10  11
HETATM   11  C   UNL     1      -9.836   7.328  68.400  1.00  0.00    -0.161 C  
HETATM   12  C   UNL     1     -11.024   6.389  68.296  1.00  0.00    -0.396 C  
ENDBRANCH  10  11
BRANCH  10  13
HETATM   13  C   UNL     1      -8.720   8.482  70.384  1.00  0.00    -0.149 C  
HETATM   14  N   UNL     1      -8.014   7.339  70.600  1.00  0.00    -0.098 N  
HETATM   15  O   UNL     1      -8.307   9.535  70.869  1.00  0.00    -0.280 OA 
HETATM   16  H1  UNL     1      -7.191   7.374  71.200  1.00  0.00     0.000 HD 
HETATM   17  H2  UNL     1      -8.304   6.461  70.168  1.00  0.00     0.000 HD 
ENDBRANCH  10  13
ENDBRANCH   6  10
ENDBRANCH   3   4
ENDBRANCH   2   3
TORSDOF 5
ENDMDL
MODEL      166
REMARK 921   NORMALIZED FREE ENERGY PREDICTED BY IDOCK:   -3.05 KCAL/MOL
REMARK 922        TOTAL FREE ENERGY PREDICTED BY IDOCK:   -4.50 KCAL/MOL
REMARK 923 INTER-LIGAND FREE ENERGY PREDICTED BY IDOCK:   -3.97 KCAL/MOL
REMARK 924 INTRA-LIGAND FREE ENERGY PREDICTED BY IDOCK:   -0.52 KCAL/MOL
REMARK 927      BINDING AFFINITY PREDICTED BY RF-SCORE:    0.00 PKD
ROOT
HETATM    1  C   UNL     1     -10.173   3.633  74.325  1.00  0.00    -0.234 C  
HETATM    2  C   UNL     1     -10.829   3.834  72.965  1.00  0.00    -0.214 C  
ENDROOT
BRANCH   2   3
HETATM    3  C   UNL     1     -11.639   5.129  72.944  1.00  0.00    -0.282 C  
BRANCH   3   4
HETATM    4  C   UNL     1     -10.939   6.292  72.235  1.00  0.00    -0.297 C  
HETATM    5  C   UNL     1     -10.812   6.159  70.725  1.00  0.00    -0.288 C  
HETATM    6  N   UNL     1     -10.778   7.528  70.260  1.00  0.00    -0.234 N  
HETATM    7  C   UNL     1     -11.574   8.303  71.080  1.00  0.00    -0.279 C  
HETATM    8  O   UNL     1     -12.034   9.409  70.834  1.00  0.00    -0.288 OA 
HETATM    9  C   UNL     1     -11.727   7.597  72.407  1.00  0.00    -0.366 C  
BRANCH   6  10
HETATM   10  C   UNL     1     -10.354   7.845  68.881  1.00  0.00    -0.213 C  
BRANCH  10  11
HETATM   11  C   UNL     1      -9.126   8.767  68.778  1.00  0.00    -0.138 C  
HETATM   12  C   UNL     1      -8.065   8.528  69.837  1.00  0.00    -0.118 C  
ENDBRANCH  10  11
BRANCH  10  13
HETATM   13  C   UNL     1     -10.317   6.745  67.774  1.00  0.00    -0.198 C  
HETATM   14  N   UNL     1     -11.469   6.421  67.128  1.00  0.00    -0.708 N  
HETATM   15  O   UNL     1      -9.268   6.205  67.424  1.00  0.00    -0.114 OA 
HETATM   16  H1  UNL     1     -11.445   5.703  66.406  1.00  0.00     0.000 HD 
HETATM   17  H2  UNL     1     -12.345   6.890  67.363  1.00  0.00     0.000 HD 
ENDBRANCH  10  13
ENDBRANCH   6  10
ENDBRANCH   3   4
ENDBRANCH   2   3
TORSDOF 5
ENDMDL
MODEL      167
REMARK 921   NORMALIZED FREE ENERGY PREDICTED BY IDOCK:   -3.03 KCAL/MOL
REMARK 922        TOTAL FREE ENERGY PREDICTED BY IDOCK:   -4.47 KCAL/MOL
REMARK 923 INTER-LIGAND FREE ENERGY PREDICTED BY IDOCK:   -4.07 KCAL/MOL
REMARK 924 INTRA-LIGAND FREE ENERGY PREDICTED BY IDOCK:   -0.39 KCAL/MOL
REMARK 927      BINDING AFFINITY PREDICTED BY RF-SCORE:    0.00 PKD
ROOT
HETATM    1  C   UNL     1     -11.538   2.041  73.354  1.00  0.00    -0.252 C  
HETATM    2  C   UNL     1     -10.736   3.329  73.222  1.00  0.00    -0.288 C  
ENDROOT
BRANCH   2   3
HETATM    3  C   UNL     1      -9.867   3.297  71.965  1.00  0.00    -0.240 C  
BRANCH   3   4
HETATM    4  C   UNL     1      -9.802   4.632  71.217  1.00  0.00    -0.261 C  
HETATM    5  C   UNL     1      -9.888   4.540  69.702  1.00  0.00    -0.218 C  
HETATM    6  N   UNL     1     -10.465   5.807  69.311  1.00  0.00    -0.258 N  
HETATM    7  C   UNL     1     -11.349   6.220  70.288  1.00  0.00    -0.388 C  
HETATM    8  O   UNL     1     -12.236   7.054  70.178  1.00  0.00    -0.117 OA 
HETATM    9  C   UNL     1     -10.993   5.527  71.582  1.00  0.00    -0.238 C  
BRANCH   6  10
HETATM   10  C   UNL     1     -10.435   6.246  67.901  1.00  0.00    -0.230 C  
BRANCH  10  11
HETATM   11  C   UNL     1      -9.644   7.542  67.645  1.00  0.00    -0.171 C  
HETATM   12  C   UNL     1     -10.366   8.563  66.786  1.00  0.00    -0.346 C  
ENDBRANCH  10  11
BRANCH  10  13
HETATM   13  C   UNL     1     -10.218   5.224  66.741  1.00  0.00    -0.249 C  
HETATM   14  N   UNL     1     -11.284   4.853  65.983  1.00  0.00    -0.704 N  
HETATM   15  O   UNL     1      -9.103   4.792  66.451  1.00  0.00    -0.114 OA 
HETATM   16  H1  UNL     1     -11.142   4.186  65.225  1.00  0.00     0.000 HD 
HETATM   17  H2  UNL     1     -12.211   5.236  66.168  1.00  0.00     0.000 HD 
ENDBRANCH  10  13
ENDBRANCH   6  10
ENDBRANCH   3   4
ENDBRANCH   2   3
TORSDOF 5
ENDMDL
MODEL      168
REMARK 921   NORMALIZED FREE ENERGY PREDICTED BY IDOCK:   -3.02 KCAL/MOL
REMARK 922        TOTAL FREE ENERGY PREDICTED BY IDOCK:   -4.46 KCAL/MOL
REMARK 923 INTER-LIGAND FREE ENERGY PREDICTED BY IDOCK:   -4.02 KCAL/MOL
REMARK 924 INTRA-LIGAND FREE ENERGY PREDICTED BY IDOCK:   -0.44 KCAL/MOL
REMARK 927      BINDING AFFINITY PREDICTED BY RF-SCORE:    0.00 PKD
ROOT
HETATM    1  C   UNL     1     -10.957   6.244  66.863  1.00  0.00    -0.404 C  
HETATM    2  C   UNL     1      -9.551   6.249  67.449  1.00  0.00    -0.129 C  
ENDROOT
BRANCH   2   3
HETATM    3  C   UNL     1      -9.331   5.022  68.333  1.00  0.00    -0.163 C  
BRANCH   3   4
HETATM    4  C   UNL     1      -9.137   5.348  69.817  1.00  0.00    -0.157 C  
HETATM    5  C   UNL     1      -9.720   6.675  70.279  1.00  0.00    -0.171 C  
HETATM    6  N   UNL     1     -10.016   6.454  71.677  1.00  0.00    -0.175 N  
HETATM    7  C   UNL     1     -10.395   5.137  71.855  1.00  0.00    -0.212 C  
HETATM    8  O   UNL     1     -11.002   4.665  72.805  1.00  0.00    -0.208 OA 
HETATM    9  C   UNL     1      -9.854   4.323  70.704  1.00  0.00    -0.265 C  
BRANCH   6  10
HETATM   10  C   UNL     1     -10.313   7.590  72.573  1.00  0.00    -0.240 C  
BRANCH  10  11
HETATM   11  C   UNL     1      -9.074   8.337  73.101  1.00  0.00    -0.305 C  
HETATM   12  C   UNL     1      -8.417   7.696  74.309  1.00  0.00    -0.282 C  
ENDBRANCH  10  11
BRANCH  10  13
HETATM   13  C   UNL     1     -11.470   8.587  72.257  1.00  0.00    -0.375 C  
HETATM   14  N   UNL     1     -12.742   8.249  72.599  1.00  0.00    -0.607 N  
HETATM   15  O   UNL     1     -11.262   9.697  71.766  1.00  0.00    -0.323 OA 
HETATM   16  H1  UNL     1     -13.499   8.902  72.392  1.00  0.00     0.000 HD 
HETATM   17  H2  UNL     1     -12.938   7.358  73.055  1.00  0.00     0.000 HD 
ENDBRANCH  10  13
ENDBRANCH   6  10
ENDBRANCH   3   4
ENDBRANCH   2   3
TORSDOF 5
ENDMDL
MODEL      169
REMARK 921   NORMALIZED FREE ENERGY PREDICTED BY IDOCK:   -3.02 KCAL/MOL
REMARK 922        TOTAL FREE ENERGY PREDICTED BY IDOCK:   -4.46 KCAL/MOL
REMARK 923 INTER-LIGAND FREE ENERGY PREDICTED BY IDOCK:   -4.12 KCAL/MOL
REMARK 924 INTRA-LIGAND FREE ENERGY PREDICTED BY IDOCK:   -0.34 KCAL/MOL
REMARK 927      BINDING AFFINITY PREDICTED BY RF-SCORE:    0.00 PKD
ROOT
HETATM    1  C   UNL     1      -8.931   9.773  64.096  1.00  0.00    -0.276 C  
HETATM    2  C   UNL     1     -10.140  10.453  64.726  1.00  0.00    -0.387 C  
ENDROOT
BRANCH   2   3
HETATM    3  C   UNL     1     -10.209  11.922  64.310  1.00  0.00    -0.346 C  
BRANCH   3   4
HETATM    4  C   UNL     1     -10.592  12.876  65.445  1.00  0.00    -0.308 C  
HETATM    5  C   UNL     1     -11.525  12.300  66.499  1.00  0.00    -0.381 C  
HETATM    6  N   UNL     1     -11.201  13.048  67.693  1.00  0.00    -0.266 N  
HETATM    7  C   UNL     1      -9.854  13.353  67.683  1.00  0.00    -0.226 C  
HETATM    8  O   UNL     1      -9.165  13.689  68.635  1.00  0.00    -0.154 OA 
HETATM    9  C   UNL     1      -9.358  13.288  66.258  1.00  0.00    -0.134 C  
BRANCH   6  10
HETATM   10  C   UNL     1     -12.092  13.011  68.871  1.00  0.00    -0.168 C  
BRANCH  10  11
HETATM   11  C   UNL     1     -12.351  11.605  69.442  1.00  0.00    -0.131 C  
HETATM   12  C   UNL     1     -11.100  10.777  69.674  1.00  0.00    -0.339 C  
ENDBRANCH  10  11
BRANCH  10  13
HETATM   13  C   UNL     1     -11.959  14.060  70.018  1.00  0.00    -0.339 C  
HETATM   14  N   UNL     1     -11.668  15.350  69.701  1.00  0.00    -0.315 N  
HETATM   15  O   UNL     1     -12.169  13.771  71.196  1.00  0.00    -0.349 OA 
HETATM   16  H1  UNL     1     -11.581  16.035  70.451  1.00  0.00     0.000 HD 
HETATM   17  H2  UNL     1     -11.539  15.628  68.728  1.00  0.00     0.000 HD 
ENDBRANCH  10  13
ENDBRANCH   6  10
ENDBRANCH   3   4
ENDBRANCH   2   3
TORSDOF 5
ENDMDL
MODEL      170
REMARK 921   NORMALIZED FREE ENERGY PREDICTED BY IDOCK:   -3.02 KCAL/MOL
REMARK 922        TOTAL FREE ENERGY PREDICTED BY IDOCK:   -4.46 KCAL/MOL
REMARK 923 INTER-LIGAND FREE ENERGY PREDICTED BY IDOCK:   -3.96 KCAL/MOL
REMARK 924 INTRA-LIGAND FREE ENERGY PREDICTED BY IDOCK:   -0.50 KCAL/MOL
REMARK 927      BINDING AFFINITY PREDICTED BY RF-SCORE:    0.00 PKD
ROOT
HETATM    1  C   UNL     1      -5.398  13.804  70.018  1.00  0.00    -0.098 C  
HETATM    2  C   UNL     1      -5.574  14.976  69.061  1.00  0.00    -0.097 C  
ENDROOT
BRANCH   2   3
HETATM    3  C   UNL     1      -6.191  14.509  67.744  1.00  0.00    -0.152 C  
BRANCH   3   4
HETATM    4  C   UNL     1      -7.601  13.928  67.886  1.00  0.00    -0.158 C  
HETATM    5  C   UNL     1      -8.670  14.584  67.026  1.00  0.00    -0.234 C  
HETATM    6  N   UNL     1      -9.638  13.530  66.814  1.00  0.00    -0.260 N  
HETATM    7  C   UNL     1      -8.977  12.319  66.748  1.00  0.00    -0.209 C  
HETATM    8  O   UNL     1      -9.400  11.271  66.281  1.00  0.00    -0.194 OA 
HETATM    9  C   UNL     1      -7.641  12.462  67.437  1.00  0.00    -0.160 C  
BRANCH   6  10
HETATM   10  C   UNL     1     -10.982  13.836  66.285  1.00  0.00    -0.297 C  
BRANCH  10  11
HETATM   11  C   UNL     1     -11.883  14.645  67.236  1.00  0.00    -0.375 C  
HETATM   12  C   UNL     1     -12.143  13.982  68.576  1.00  0.00    -0.329 C  
ENDBRANCH  10  11
BRANCH  10  13
HETATM   13  C   UNL     1     -11.183  14.293  64.807  1.00  0.00    -0.385 C  
HETATM   14  N   UNL     1     -11.234  15.624  64.530  1.00  0.00    -0.714 N  
HETATM   15  O   UNL     1     -11.235  13.491  63.875  1.00  0.00    -0.300 OA 
HETATM   16  H1  UNL     1     -11.366  15.922  63.564  1.00  0.00     0.000 HD 
HETATM   17  H2  UNL     1     -11.142  16.313  65.277  1.00  0.00     0.000 HD 
ENDBRANCH  10  13
ENDBRANCH   6  10
ENDBRANCH   3   4
ENDBRANCH   2   3
TORSDOF 5
ENDMDL
MODEL      171
REMARK 921   NORMALIZED FREE ENERGY PREDICTED BY IDOCK:   -3.02 KCAL/MOL
REMARK 922        TOTAL FREE ENERGY PREDICTED BY IDOCK:   -4.46 KCAL/MOL
REMARK 923 INTER-LIGAND FREE ENERGY PREDICTED BY IDOCK:   -4.18 KCAL/MOL
REMARK 924 INTRA-LIGAND FREE ENERGY PREDICTED BY IDOCK:   -0.27 KCAL/MOL
REMARK 927      BINDING AFFINITY PREDICTED BY RF-SCORE:    0.00 PKD
ROOT
HETATM    1  C   UNL     1      -8.461   7.471  65.820  1.00  0.00    -0.151 C  
HETATM    2  C   UNL     1      -9.001   8.573  66.723  1.00  0.00    -0.173 C  
ENDROOT
BRANCH   2   3
HETATM    3  C   UNL     1     -10.067   9.392  65.996  1.00  0.00    -0.302 C  
BRANCH   3   4
HETATM    4  C   UNL     1      -9.665  10.845  65.731  1.00  0.00    -0.270 C  
HETATM    5  C   UNL     1     -10.735  11.886  66.021  1.00  0.00    -0.285 C  
HETATM    6  N   UNL     1      -9.980  13.075  66.350  1.00  0.00    -0.271 N  
HETATM    7  C   UNL     1      -8.815  12.707  66.993  1.00  0.00    -0.212 C  
HETATM    8  O   UNL     1      -8.095  13.415  67.682  1.00  0.00    -0.148 OA 
HETATM    9  C   UNL     1      -8.506  11.270  66.641  1.00  0.00    -0.168 C  
BRANCH   6  10
HETATM   10  C   UNL     1     -10.639  14.396  66.397  1.00  0.00    -0.297 C  
BRANCH  10  11
HETATM   11  C   UNL     1     -11.266  14.757  67.756  1.00  0.00    -0.323 C  
HETATM   12  C   UNL     1     -10.435  15.702  68.605  1.00  0.00    -0.231 C  
ENDBRANCH  10  11
BRANCH  10  13
HETATM   13  C   UNL     1      -9.984  15.649  65.737  1.00  0.00    -0.359 C  
HETATM   14  N   UNL     1      -8.683  15.935  66.013  1.00  0.00    -0.315 N  
HETATM   15  O   UNL     1     -10.588  16.352  64.927  1.00  0.00    -0.677 OA 
HETATM   16  H1  UNL     1      -8.256  16.755  65.581  1.00  0.00     0.000 HD 
HETATM   17  H2  UNL     1      -8.143  15.340  66.641  1.00  0.00     0.000 HD 
ENDBRANCH  10  13
ENDBRANCH   6  10
ENDBRANCH   3   4
ENDBRANCH   2   3
TORSDOF 5
ENDMDL
MODEL      172
REMARK 921   NORMALIZED FREE ENERGY PREDICTED BY IDOCK:   -3.01 KCAL/MOL
REMARK 922        TOTAL FREE ENERGY PREDICTED BY IDOCK:   -4.45 KCAL/MOL
REMARK 923 INTER-LIGAND FREE ENERGY PREDICTED BY IDOCK:   -4.35 KCAL/MOL
REMARK 924 INTRA-LIGAND FREE ENERGY PREDICTED BY IDOCK:   -0.10 KCAL/MOL
REMARK 927      BINDING AFFINITY PREDICTED BY RF-SCORE:    0.00 PKD
ROOT
HETATM    1  C   UNL     1     -11.554  13.032  67.059  1.00  0.00    -0.413 C  
HETATM    2  C   UNL     1     -12.089  13.520  68.399  1.00  0.00    -0.293 C  
ENDROOT
BRANCH   2   3
HETATM    3  C   UNL     1     -11.494  12.705  69.546  1.00  0.00    -0.294 C  
BRANCH   3   4
HETATM    4  C   UNL     1     -11.912  11.231  69.548  1.00  0.00    -0.421 C  
HETATM    5  C   UNL     1     -10.814  10.238  69.894  1.00  0.00    -0.302 C  
HETATM    6  N   UNL     1     -11.528   9.121  70.472  1.00  0.00    -0.255 N  
HETATM    7  C   UNL     1     -12.628   9.596  71.158  1.00  0.00    -0.322 C  
HETATM    8  O   UNL     1     -13.276   9.009  72.013  1.00  0.00    -0.365 OA 
HETATM    9  C   UNL     1     -12.977  10.963  70.619  1.00  0.00    -0.266 C  
BRANCH   6  10
HETATM   10  C   UNL     1     -10.861   7.817  70.661  1.00  0.00    -0.237 C  
BRANCH  10  11
HETATM   11  C   UNL     1     -11.814   6.632  70.904  1.00  0.00    -0.434 C  
HETATM   12  C   UNL     1     -11.440   5.751  72.082  1.00  0.00    -0.295 C  
ENDBRANCH  10  11
BRANCH  10  13
HETATM   13  C   UNL     1      -9.658   7.387  69.764  1.00  0.00    -0.163 C  
HETATM   14  N   UNL     1      -9.857   7.230  68.428  1.00  0.00    -0.152 N  
HETATM   15  O   UNL     1      -8.522   7.246  70.216  1.00  0.00    -0.134 OA 
HETATM   16  H1  UNL     1      -9.071   6.949  67.842  1.00  0.00     0.000 HD 
HETATM   17  H2  UNL     1     -10.777   7.391  68.017  1.00  0.00     0.000 HD 
ENDBRANCH  10  13
ENDBRANCH   6  10
ENDBRANCH   3   4
ENDBRANCH   2   3
TORSDOF 5
ENDMDL
MODEL      173
REMARK 921   NORMALIZED FREE ENERGY PREDICTED BY IDOCK:   -3.00 KCAL/MOL
REMARK 922        TOTAL FREE ENERGY PREDICTED BY IDOCK:   -4.43 KCAL/MOL
REMARK 923 INTER-LIGAND FREE ENERGY PREDICTED BY IDOCK:   -3.95 KCAL/MOL
REMARK 924 INTRA-LIGAND FREE ENERGY PREDICTED BY IDOCK:   -0.48 KCAL/MOL
REMARK 927      BINDING AFFINITY PREDICTED BY RF-SCORE:    0.00 PKD
ROOT
HETATM    1  C   UNL     1      -6.659   8.433  73.186  1.00  0.00    -0.113 C  
HETATM    2  C   UNL     1      -6.501   7.561  71.947  1.00  0.00    -0.042 C  
ENDROOT
BRANCH   2   3
HETATM    3  C   UNL     1      -7.031   8.284  70.709  1.00  0.00    -0.043 C  
BRANCH   3   4
HETATM    4  C   UNL     1      -8.541   8.141  70.501  1.00  0.00    -0.130 C  
HETATM    5  C   UNL     1      -9.362   9.393  70.772  1.00  0.00    -0.226 C  
HETATM    6  N   UNL     1     -10.518   9.240  69.916  1.00  0.00    -0.215 N  
HETATM    7  C   UNL     1     -10.140   8.584  68.761  1.00  0.00    -0.196 C  
HETATM    8  O   UNL     1     -10.744   8.551  67.698  1.00  0.00    -0.219 OA 
HETATM    9  C   UNL     1      -8.868   7.818  69.038  1.00  0.00    -0.138 C  
BRANCH   6  10
HETATM   10  C   UNL     1     -11.711  10.090  70.102  1.00  0.00    -0.215 C  
BRANCH  10  11
HETATM   11  C   UNL     1     -12.219  10.183  71.553  1.00  0.00    -0.473 C  
HETATM   12  C   UNL     1     -12.878   8.919  72.074  1.00  0.00    -0.456 C  
ENDBRANCH  10  11
BRANCH  10  13
HETATM   13  C   UNL     1     -11.843  11.466  69.379  1.00  0.00    -0.351 C  
HETATM   14  N   UNL     1     -11.535  12.602  70.062  1.00  0.00    -0.529 N  
HETATM   15  O   UNL     1     -12.157  11.554  68.192  1.00  0.00    -0.604 OA 
HETATM   16  H1  UNL     1     -11.622  13.501  69.588  1.00  0.00     0.000 HD 
HETATM   17  H2  UNL     1     -11.222  12.555  71.031  1.00  0.00     0.000 HD 
ENDBRANCH  10  13
ENDBRANCH   6  10
ENDBRANCH   3   4
ENDBRANCH   2   3
TORSDOF 5
ENDMDL
MODEL      174
REMARK 921   NORMALIZED FREE ENERGY PREDICTED BY IDOCK:   -3.00 KCAL/MOL
REMARK 922        TOTAL FREE ENERGY PREDICTED BY IDOCK:   -4.43 KCAL/MOL
REMARK 923 INTER-LIGAND FREE ENERGY PREDICTED BY IDOCK:   -3.99 KCAL/MOL
REMARK 924 INTRA-LIGAND FREE ENERGY PREDICTED BY IDOCK:   -0.43 KCAL/MOL
REMARK 927      BINDING AFFINITY PREDICTED BY RF-SCORE:    0.00 PKD
ROOT
HETATM    1  C   UNL     1     -11.091   9.033  70.528  1.00  0.00    -0.297 C  
HETATM    2  C   UNL     1     -11.223  10.541  70.362  1.00  0.00    -0.378 C  
ENDROOT
BRANCH   2   3
HETATM    3  C   UNL     1     -11.978  10.878  69.077  1.00  0.00    -0.322 C  
BRANCH   3   4
HETATM    4  C   UNL     1     -11.192  11.763  68.105  1.00  0.00    -0.320 C  
HETATM    5  C   UNL     1     -11.339  13.261  68.316  1.00  0.00    -0.300 C  
HETATM    6  N   UNL     1     -10.096  13.804  67.813  1.00  0.00    -0.240 N  
HETATM    7  C   UNL     1      -9.078  12.906  68.063  1.00  0.00    -0.211 C  
HETATM    8  O   UNL     1      -7.876  13.133  68.071  1.00  0.00    -0.122 OA 
HETATM    9  C   UNL     1      -9.682  11.534  68.250  1.00  0.00    -0.198 C  
BRANCH   6  10
HETATM   10  C   UNL     1      -9.957  15.251  67.553  1.00  0.00    -0.226 C  
BRANCH  10  11
HETATM   11  C   UNL     1     -10.929  15.815  66.500  1.00  0.00    -0.165 C  
HETATM   12  C   UNL     1     -10.569  15.482  65.064  1.00  0.00    -0.435 C  
ENDBRANCH  10  11
BRANCH  10  13
HETATM   13  C   UNL     1      -9.753  16.266  68.720  1.00  0.00    -0.240 C  
HETATM   14  N   UNL     1      -9.005  17.381  68.500  1.00  0.00    -0.272 N  
HETATM   15  O   UNL     1     -10.298  16.123  69.814  1.00  0.00    -0.269 OA 
HETATM   16  H1  UNL     1      -8.871  18.044  69.264  1.00  0.00     0.000 HD 
HETATM   17  H2  UNL     1      -8.583  17.551  67.587  1.00  0.00     0.000 HD 
ENDBRANCH  10  13
ENDBRANCH   6  10
ENDBRANCH   3   4
ENDBRANCH   2   3
TORSDOF 5
ENDMDL
MODEL      175
REMARK 921   NORMALIZED FREE ENERGY PREDICTED BY IDOCK:   -2.99 KCAL/MOL
REMARK 922        TOTAL FREE ENERGY PREDICTED BY IDOCK:   -4.42 KCAL/MOL
REMARK 923 INTER-LIGAND FREE ENERGY PREDICTED BY IDOCK:   -3.99 KCAL/MOL
REMARK 924 INTRA-LIGAND FREE ENERGY PREDICTED BY IDOCK:   -0.42 KCAL/MOL
REMARK 927      BINDING AFFINITY PREDICTED BY RF-SCORE:    0.00 PKD
ROOT
HETATM    1  C   UNL     1      -9.047   8.055  66.211  1.00  0.00    -0.232 C  
HETATM    2  C   UNL     1     -10.445   8.123  66.815  1.00  0.00    -0.316 C  
ENDROOT
BRANCH   2   3
HETATM    3  C   UNL     1     -10.684   9.483  67.469  1.00  0.00    -0.311 C  
BRANCH   3   4
HETATM    4  C   UNL     1     -10.557   9.473  68.995  1.00  0.00    -0.238 C  
HETATM    5  C   UNL     1     -10.579   8.100  69.647  1.00  0.00    -0.223 C  
HETATM    6  N   UNL     1      -9.810   8.280  70.858  1.00  0.00    -0.179 N  
HETATM    7  C   UNL     1      -8.810   9.203  70.625  1.00  0.00    -0.232 C  
HETATM    8  O   UNL     1      -7.797   9.379  71.286  1.00  0.00    -0.335 OA 
HETATM    9  C   UNL     1      -9.206  10.049  69.438  1.00  0.00    -0.229 C  
BRANCH   6  10
HETATM   10  C   UNL     1      -9.847   7.266  71.931  1.00  0.00    -0.162 C  
BRANCH  10  11
HETATM   11  C   UNL     1      -9.805   7.836  73.361  1.00  0.00    -0.346 C  
HETATM   12  C   UNL     1      -8.665   7.315  74.216  1.00  0.00    -0.250 C  
ENDBRANCH  10  11
BRANCH  10  13
HETATM   13  C   UNL     1     -10.807   6.039  71.851  1.00  0.00    -0.254 C  
HETATM   14  N   UNL     1     -12.081   6.167  72.310  1.00  0.00    -0.478 N  
HETATM   15  O   UNL     1     -10.469   4.976  71.329  1.00  0.00    -0.208 OA 
HETATM   16  H1  UNL     1     -12.708   5.365  72.257  1.00  0.00     0.000 HD 
HETATM   17  H2  UNL     1     -12.404   7.053  72.700  1.00  0.00     0.000 HD 
ENDBRANCH  10  13
ENDBRANCH   6  10
ENDBRANCH   3   4
ENDBRANCH   2   3
TORSDOF 5
ENDMDL
MODEL      176
REMARK 921   NORMALIZED FREE ENERGY PREDICTED BY IDOCK:   -2.99 KCAL/MOL
REMARK 922        TOTAL FREE ENERGY PREDICTED BY IDOCK:   -4.42 KCAL/MOL
REMARK 923 INTER-LIGAND FREE ENERGY PREDICTED BY IDOCK:   -3.96 KCAL/MOL
REMARK 924 INTRA-LIGAND FREE ENERGY PREDICTED BY IDOCK:   -0.46 KCAL/MOL
REMARK 927      BINDING AFFINITY PREDICTED BY RF-SCORE:    0.00 PKD
ROOT
HETATM    1  C   UNL     1     -12.927  15.592  72.258  1.00  0.00    -0.504 C  
HETATM    2  C   UNL     1     -13.272  15.243  70.816  1.00  0.00    -0.442 C  
ENDROOT
BRANCH   2   3
HETATM    3  C   UNL     1     -12.099  15.558  69.890  1.00  0.00    -0.378 C  
BRANCH   3   4
HETATM    4  C   UNL     1     -11.759  14.433  68.907  1.00  0.00    -0.357 C  
HETATM    5  C   UNL     1     -10.282  14.096  68.781  1.00  0.00    -0.215 C  
HETATM    6  N   UNL     1     -10.277  12.701  68.400  1.00  0.00    -0.234 N  
HETATM    7  C   UNL     1     -11.347  12.066  68.998  1.00  0.00    -0.275 C  
HETATM    8  O   UNL     1     -11.495  10.864  69.165  1.00  0.00    -0.254 OA 
HETATM    9  C   UNL     1     -12.385  13.106  69.353  1.00  0.00    -0.053 C  
BRANCH   6  10
HETATM   10  C   UNL     1      -9.049  12.067  67.878  1.00  0.00    -0.183 C  
BRANCH  10  11
HETATM   11  C   UNL     1      -9.148  11.564  66.426  1.00  0.00    -0.206 C  
HETATM   12  C   UNL     1     -10.434  11.939  65.714  1.00  0.00    -0.295 C  
ENDBRANCH  10  11
BRANCH  10  13
HETATM   13  C   UNL     1      -7.642  12.679  68.159  1.00  0.00    -0.132 C  
HETATM   14  N   UNL     1      -7.112  13.552  67.261  1.00  0.00    -0.333 N  
HETATM   15  O   UNL     1      -7.023  12.447  69.198  1.00  0.00    -0.097 OA 
HETATM   16  H1  UNL     1      -6.192  13.952  67.445  1.00  0.00     0.000 HD 
HETATM   17  H2  UNL     1      -7.626  13.803  66.417  1.00  0.00     0.000 HD 
ENDBRANCH  10  13
ENDBRANCH   6  10
ENDBRANCH   3   4
ENDBRANCH   2   3
TORSDOF 5
ENDMDL
MODEL      177
REMARK 921   NORMALIZED FREE ENERGY PREDICTED BY IDOCK:   -2.98 KCAL/MOL
REMARK 922        TOTAL FREE ENERGY PREDICTED BY IDOCK:   -4.41 KCAL/MOL
REMARK 923 INTER-LIGAND FREE ENERGY PREDICTED BY IDOCK:   -3.84 KCAL/MOL
REMARK 924 INTRA-LIGAND FREE ENERGY PREDICTED BY IDOCK:   -0.57 KCAL/MOL
REMARK 927      BINDING AFFINITY PREDICTED BY RF-SCORE:    0.00 PKD
ROOT
HETATM    1  C   UNL     1     -10.902   5.798  73.326  1.00  0.00    -0.306 C  
HETATM    2  C   UNL     1     -10.197   6.937  72.601  1.00  0.00    -0.210 C  
ENDROOT
BRANCH   2   3
HETATM    3  C   UNL     1     -11.081   8.183  72.569  1.00  0.00    -0.446 C  
BRANCH   3   4
HETATM    4  C   UNL     1     -11.506   8.611  71.161  1.00  0.00    -0.332 C  
HETATM    5  C   UNL     1     -10.915   9.922  70.667  1.00  0.00    -0.337 C  
HETATM    6  N   UNL     1     -10.886   9.768  69.229  1.00  0.00    -0.223 N  
HETATM    7  C   UNL     1     -10.645   8.443  68.923  1.00  0.00    -0.140 C  
HETATM    8  O   UNL     1     -10.250   7.990  67.858  1.00  0.00    -0.192 OA 
HETATM    9  C   UNL     1     -11.035   7.596  70.111  1.00  0.00    -0.255 C  
BRANCH   6  10
HETATM   10  C   UNL     1     -10.667  10.934  68.350  1.00  0.00    -0.203 C  
BRANCH  10  11
HETATM   11  C   UNL     1     -11.298  12.247  68.849  1.00  0.00    -0.337 C  
HETATM   12  C   UNL     1     -11.820  13.155  67.750  1.00  0.00    -0.392 C  
ENDBRANCH  10  11
BRANCH  10  13
HETATM   13  C   UNL     1      -9.277  11.201  67.694  1.00  0.00    -0.151 C  
HETATM   14  N   UNL     1      -8.932  10.509  66.575  1.00  0.00    -0.154 N  
HETATM   15  O   UNL     1      -8.507  12.063  68.119  1.00  0.00    -0.157 OA 
HETATM   16  H1  UNL     1      -8.024  10.683  66.147  1.00  0.00     0.000 HD 
HETATM   17  H2  UNL     1      -9.573   9.825  66.171  1.00  0.00     0.000 HD 
ENDBRANCH  10  13
ENDBRANCH   6  10
ENDBRANCH   3   4
ENDBRANCH   2   3
TORSDOF 5
ENDMDL
MODEL      178
REMARK 921   NORMALIZED FREE ENERGY PREDICTED BY IDOCK:   -2.98 KCAL/MOL
REMARK 922        TOTAL FREE ENERGY PREDICTED BY IDOCK:   -4.41 KCAL/MOL
REMARK 923 INTER-LIGAND FREE ENERGY PREDICTED BY IDOCK:   -4.06 KCAL/MOL
REMARK 924 INTRA-LIGAND FREE ENERGY PREDICTED BY IDOCK:   -0.35 KCAL/MOL
REMARK 927      BINDING AFFINITY PREDICTED BY RF-SCORE:    0.00 PKD
ROOT
HETATM    1  C   UNL     1     -10.229   4.713  66.253  1.00  0.00    -0.306 C  
HETATM    2  C   UNL     1      -9.330   5.923  66.032  1.00  0.00    -0.117 C  
ENDROOT
BRANCH   2   3
HETATM    3  C   UNL     1      -8.933   6.550  67.368  1.00  0.00    -0.110 C  
BRANCH   3   4
HETATM    4  C   UNL     1     -10.052   7.353  68.038  1.00  0.00    -0.216 C  
HETATM    5  C   UNL     1     -10.207   7.140  69.535  1.00  0.00    -0.195 C  
HETATM    6  N   UNL     1     -10.770   8.387  70.005  1.00  0.00    -0.236 N  
HETATM    7  C   UNL     1     -10.271   9.423  69.241  1.00  0.00    -0.202 C  
HETATM    8  O   UNL     1     -10.265  10.613  69.522  1.00  0.00    -0.218 OA 
HETATM    9  C   UNL     1      -9.792   8.860  67.923  1.00  0.00    -0.205 C  
BRANCH   6  10
HETATM   10  C   UNL     1     -11.358   8.486  71.356  1.00  0.00    -0.271 C  
BRANCH  10  11
HETATM   11  C   UNL     1     -12.769   9.101  71.403  1.00  0.00    -0.383 C  
HETATM   12  C   UNL     1     -12.800  10.595  71.668  1.00  0.00    -0.570 C  
ENDBRANCH  10  11
BRANCH  10  13
HETATM   13  C   UNL     1     -11.227   7.318  72.382  1.00  0.00    -0.281 C  
HETATM   14  N   UNL     1     -12.220   6.392  72.457  1.00  0.00    -0.532 N  
HETATM   15  O   UNL     1     -10.225   7.173  73.083  1.00  0.00    -0.217 OA 
HETATM   16  H1  UNL     1     -12.133   5.629  73.128  1.00  0.00     0.000 HD 
HETATM   17  H2  UNL     1     -13.038   6.459  71.851  1.00  0.00     0.000 HD 
ENDBRANCH  10  13
ENDBRANCH   6  10
ENDBRANCH   3   4
ENDBRANCH   2   3
TORSDOF 5
ENDMDL
MODEL      179
REMARK 921   NORMALIZED FREE ENERGY PREDICTED BY IDOCK:   -2.98 KCAL/MOL
REMARK 922        TOTAL FREE ENERGY PREDICTED BY IDOCK:   -4.40 KCAL/MOL
REMARK 923 INTER-LIGAND FREE ENERGY PREDICTED BY IDOCK:   -4.02 KCAL/MOL
REMARK 924 INTRA-LIGAND FREE ENERGY PREDICTED BY IDOCK:   -0.38 KCAL/MOL
REMARK 927      BINDING AFFINITY PREDICTED BY RF-SCORE:    0.00 PKD
ROOT
HETATM    1  C   UNL     1     -12.125  12.429  63.690  1.00  0.00    -0.648 C  
HETATM    2  C   UNL     1     -10.777  11.768  63.948  1.00  0.00    -0.457 C  
ENDROOT
BRANCH   2   3
HETATM    3  C   UNL     1     -10.155  12.298  65.240  1.00  0.00    -0.295 C  
BRANCH   3   4
HETATM    4  C   UNL     1      -9.604  11.207  66.162  1.00  0.00    -0.239 C  
HETATM    5  C   UNL     1     -10.103  11.247  67.598  1.00  0.00    -0.179 C  
HETATM    6  N   UNL     1     -10.025   9.870  68.030  1.00  0.00    -0.147 N  
HETATM    7  C   UNL     1     -10.293   9.044  66.955  1.00  0.00    -0.269 C  
HETATM    8  O   UNL     1     -10.620   7.867  66.991  1.00  0.00    -0.337 OA 
HETATM    9  C   UNL     1     -10.031   9.814  65.682  1.00  0.00    -0.352 C  
BRANCH   6  10
HETATM   10  C   UNL     1     -10.128   9.522  69.461  1.00  0.00    -0.206 C  
BRANCH  10  11
HETATM   11  C   UNL     1     -11.558   9.232  69.955  1.00  0.00     0.076 C  
HETATM   12  C   UNL     1     -11.991  10.054  71.155  1.00  0.00    -0.484 C  
ENDBRANCH  10  11
BRANCH  10  13
HETATM   13  C   UNL     1      -9.103   8.557  70.135  1.00  0.00    -0.152 C  
HETATM   14  N   UNL     1      -8.584   8.890  71.347  1.00  0.00    -0.195 N  
HETATM   15  O   UNL     1      -8.796   7.475  69.634  1.00  0.00    -0.140 OA 
HETATM   16  H1  UNL     1      -7.913   8.260  71.786  1.00  0.00     0.000 HD 
HETATM   17  H2  UNL     1      -8.860   9.756  71.809  1.00  0.00     0.000 HD 
ENDBRANCH  10  13
ENDBRANCH   6  10
ENDBRANCH   3   4
ENDBRANCH   2   3
TORSDOF 5
ENDMDL
MODEL      180
REMARK 921   NORMALIZED FREE ENERGY PREDICTED BY IDOCK:   -2.98 KCAL/MOL
REMARK 922        TOTAL FREE ENERGY PREDICTED BY IDOCK:   -4.40 KCAL/MOL
REMARK 923 INTER-LIGAND FREE ENERGY PREDICTED BY IDOCK:   -3.87 KCAL/MOL
REMARK 924 INTRA-LIGAND FREE ENERGY PREDICTED BY IDOCK:   -0.53 KCAL/MOL
REMARK 927      BINDING AFFINITY PREDICTED BY RF-SCORE:    0.00 PKD
ROOT
HETATM    1  C   UNL     1      -9.114   8.926  65.767  1.00  0.00    -0.276 C  
HETATM    2  C   UNL     1      -9.880   9.164  67.062  1.00  0.00    -0.267 C  
ENDROOT
BRANCH   2   3
HETATM    3  C   UNL     1      -8.960   9.753  68.131  1.00  0.00    -0.119 C  
BRANCH   3   4
HETATM    4  C   UNL     1      -8.974   8.988  69.457  1.00  0.00    -0.147 C  
HETATM    5  C   UNL     1     -10.325   8.901  70.150  1.00  0.00    -0.206 C  
HETATM    6  N   UNL     1     -10.246   7.672  70.909  1.00  0.00    -0.199 N  
HETATM    7  C   UNL     1      -9.476   6.761  70.213  1.00  0.00    -0.162 C  
HETATM    8  O   UNL     1      -9.440   5.549  70.372  1.00  0.00    -0.154 OA 
HETATM    9  C   UNL     1      -8.592   7.517  69.249  1.00  0.00    -0.136 C  
BRANCH   6  10
HETATM   10  C   UNL     1     -11.235   7.373  71.964  1.00  0.00    -0.251 C  
BRANCH  10  11
HETATM   11  C   UNL     1     -10.704   7.500  73.403  1.00  0.00    -0.387 C  
HETATM   12  C   UNL     1      -9.282   8.019  73.508  1.00  0.00    -0.312 C  
ENDBRANCH  10  11
BRANCH  10  13
HETATM   13  C   UNL     1     -12.703   7.893  71.866  1.00  0.00    -0.316 C  
HETATM   14  N   UNL     1     -13.540   7.336  70.950  1.00  0.00    -0.547 N  
HETATM   15  O   UNL     1     -13.147   8.748  72.632  1.00  0.00    -0.391 OA 
HETATM   16  H1  UNL     1     -14.499   7.676  70.886  1.00  0.00     0.000 HD 
HETATM   17  H2  UNL     1     -13.214   6.589  70.336  1.00  0.00     0.000 HD 
ENDBRANCH  10  13
ENDBRANCH   6  10
ENDBRANCH   3   4
ENDBRANCH   2   3
TORSDOF 5
ENDMDL
MODEL      181
REMARK 921   NORMALIZED FREE ENERGY PREDICTED BY IDOCK:   -2.96 KCAL/MOL
REMARK 922        TOTAL FREE ENERGY PREDICTED BY IDOCK:   -4.38 KCAL/MOL
REMARK 923 INTER-LIGAND FREE ENERGY PREDICTED BY IDOCK:   -4.15 KCAL/MOL
REMARK 924 INTRA-LIGAND FREE ENERGY PREDICTED BY IDOCK:   -0.23 KCAL/MOL
REMARK 927      BINDING AFFINITY PREDICTED BY RF-SCORE:    0.00 PKD
ROOT
HETATM    1  C   UNL     1     -10.274  20.024  68.333  1.00  0.00    -0.510 C  
HETATM    2  C   UNL     1      -9.737  19.898  66.913  1.00  0.00    -0.532 C  
ENDROOT
BRANCH   2   3
HETATM    3  C   UNL     1      -9.868  18.460  66.413  1.00  0.00    -0.369 C  
BRANCH   3   4
HETATM    4  C   UNL     1      -9.584  17.399  67.481  1.00  0.00    -0.257 C  
HETATM    5  C   UNL     1     -10.128  16.010  67.186  1.00  0.00    -0.270 C  
HETATM    6  N   UNL     1      -9.225  15.129  67.893  1.00  0.00    -0.183 N  
HETATM    7  C   UNL     1      -7.956  15.675  67.875  1.00  0.00    -0.142 C  
HETATM    8  O   UNL     1      -6.899  15.097  68.086  1.00  0.00    -0.109 OA 
HETATM    9  C   UNL     1      -8.076  17.161  67.632  1.00  0.00    -0.187 C  
BRANCH   6  10
HETATM   10  C   UNL     1      -9.576  13.712  68.117  1.00  0.00    -0.221 C  
BRANCH  10  11
HETATM   11  C   UNL     1     -11.075  13.388  67.980  1.00  0.00    -0.281 C  
HETATM   12  C   UNL     1     -11.898  13.664  69.225  1.00  0.00    -0.395 C  
ENDBRANCH  10  11
BRANCH  10  13
HETATM   13  C   UNL     1      -8.703  12.560  67.529  1.00  0.00    -0.182 C  
HETATM   14  N   UNL     1      -8.906  12.172  66.242  1.00  0.00    -0.387 N  
HETATM   15  O   UNL     1      -7.796  12.033  68.173  1.00  0.00    -0.127 OA 
HETATM   16  H1  UNL     1      -8.335  11.419  65.858  1.00  0.00     0.000 HD 
HETATM   17  H2  UNL     1      -9.616  12.627  65.668  1.00  0.00     0.000 HD 
ENDBRANCH  10  13
ENDBRANCH   6  10
ENDBRANCH   3   4
ENDBRANCH   2   3
TORSDOF 5
ENDMDL
MODEL      182
REMARK 921   NORMALIZED FREE ENERGY PREDICTED BY IDOCK:   -2.94 KCAL/MOL
REMARK 922        TOTAL FREE ENERGY PREDICTED BY IDOCK:   -4.36 KCAL/MOL
REMARK 923 INTER-LIGAND FREE ENERGY PREDICTED BY IDOCK:   -4.43 KCAL/MOL
REMARK 924 INTRA-LIGAND FREE ENERGY PREDICTED BY IDOCK:    0.08 KCAL/MOL
REMARK 927      BINDING AFFINITY PREDICTED BY RF-SCORE:    0.00 PKD
ROOT
HETATM    1  C   UNL     1     -10.452   7.213  73.358  1.00  0.00    -0.410 C  
HETATM    2  C   UNL     1     -11.339   8.058  72.453  1.00  0.00    -0.443 C  
ENDROOT
BRANCH   2   3
HETATM    3  C   UNL     1     -11.091   7.718  70.984  1.00  0.00    -0.273 C  
BRANCH   3   4
HETATM    4  C   UNL     1     -10.581   8.895  70.148  1.00  0.00    -0.243 C  
HETATM    5  C   UNL     1     -10.395   8.614  68.665  1.00  0.00    -0.193 C  
HETATM    6  N   UNL     1     -10.582   9.906  68.043  1.00  0.00    -0.226 N  
HETATM    7  C   UNL     1     -11.518  10.622  68.763  1.00  0.00    -0.262 C  
HETATM    8  O   UNL     1     -12.153  11.596  68.386  1.00  0.00    -0.522 OA 
HETATM    9  C   UNL     1     -11.583  10.055  70.162  1.00  0.00    -0.320 C  
BRANCH   6  10
HETATM   10  C   UNL     1     -10.183  10.131  66.639  1.00  0.00    -0.224 C  
BRANCH  10  11
HETATM   11  C   UNL     1      -9.813  11.586  66.297  1.00  0.00    -0.245 C  
HETATM   12  C   UNL     1     -10.703  12.235  65.253  1.00  0.00    -0.329 C  
ENDBRANCH  10  11
BRANCH  10  13
HETATM   13  C   UNL     1      -9.244   9.130  65.895  1.00  0.00    -0.227 C  
HETATM   14  N   UNL     1      -9.658   7.847  65.718  1.00  0.00    -0.394 N  
HETATM   15  O   UNL     1      -8.169   9.480  65.409  1.00  0.00    -0.119 OA 
HETATM   16  H1  UNL     1      -9.044   7.193  65.232  1.00  0.00     0.000 HD 
HETATM   17  H2  UNL     1     -10.567   7.542  66.065  1.00  0.00     0.000 HD 
ENDBRANCH  10  13
ENDBRANCH   6  10
ENDBRANCH   3   4
ENDBRANCH   2   3
TORSDOF 5
ENDMDL
MODEL      183
REMARK 921   NORMALIZED FREE ENERGY PREDICTED BY IDOCK:   -2.94 KCAL/MOL
REMARK 922        TOTAL FREE ENERGY PREDICTED BY IDOCK:   -4.35 KCAL/MOL
REMARK 923 INTER-LIGAND FREE ENERGY PREDICTED BY IDOCK:   -4.07 KCAL/MOL
REMARK 924 INTRA-LIGAND FREE ENERGY PREDICTED BY IDOCK:   -0.28 KCAL/MOL
REMARK 927      BINDING AFFINITY PREDICTED BY RF-SCORE:    0.00 PKD
ROOT
HETATM    1  C   UNL     1     -12.006  14.238  64.886  1.00  0.00    -0.430 C  
HETATM    2  C   UNL     1     -12.242  12.899  65.573  1.00  0.00    -0.527 C  
ENDROOT
BRANCH   2   3
HETATM    3  C   UNL     1     -11.824  12.965  67.041  1.00  0.00    -0.437 C  
BRANCH   3   4
HETATM    4  C   UNL     1     -10.699  11.996  67.414  1.00  0.00    -0.266 C  
HETATM    5  C   UNL     1     -11.012  10.520  67.221  1.00  0.00    -0.260 C  
HETATM    6  N   UNL     1      -9.719   9.921  66.977  1.00  0.00    -0.174 N  
HETATM    7  C   UNL     1      -8.928  10.820  66.290  1.00  0.00    -0.170 C  
HETATM    8  O   UNL     1      -7.915  10.576  65.650  1.00  0.00    -0.157 OA 
HETATM    9  C   UNL     1      -9.468  12.212  66.524  1.00  0.00    -0.235 C  
BRANCH   6  10
HETATM   10  C   UNL     1      -9.543   8.456  67.043  1.00  0.00    -0.190 C  
BRANCH  10  11
HETATM   11  C   UNL     1     -10.853   7.649  67.091  1.00  0.00    -0.258 C  
HETATM   12  C   UNL     1     -10.881   6.550  68.138  1.00  0.00    -0.370 C  
ENDBRANCH  10  11
BRANCH  10  13
HETATM   13  C   UNL     1      -8.476   7.731  66.166  1.00  0.00    -0.138 C  
HETATM   14  N   UNL     1      -8.646   7.695  64.817  1.00  0.00    -0.376 N  
HETATM   15  O   UNL     1      -7.454   7.244  66.649  1.00  0.00    -0.085 OA 
HETATM   16  H1  UNL     1      -7.948   7.220  64.244  1.00  0.00     0.000 HD 
HETATM   17  H2  UNL     1      -9.458   8.135  64.385  1.00  0.00     0.000 HD 
ENDBRANCH  10  13
ENDBRANCH   6  10
ENDBRANCH   3   4
ENDBRANCH   2   3
TORSDOF 5
ENDMDL
MODEL      184
REMARK 921   NORMALIZED FREE ENERGY PREDICTED BY IDOCK:   -2.91 KCAL/MOL
REMARK 922        TOTAL FREE ENERGY PREDICTED BY IDOCK:   -4.31 KCAL/MOL
REMARK 923 INTER-LIGAND FREE ENERGY PREDICTED BY IDOCK:   -3.86 KCAL/MOL
REMARK 924 INTRA-LIGAND FREE ENERGY PREDICTED BY IDOCK:   -0.46 KCAL/MOL
REMARK 927      BINDING AFFINITY PREDICTED BY RF-SCORE:    0.00 PKD
ROOT
HETATM    1  C   UNL     1     -11.086   1.800  73.185  1.00  0.00    -0.260 C  
HETATM    2  C   UNL     1     -10.209   3.023  73.422  1.00  0.00    -0.205 C  
ENDROOT
BRANCH   2   3
HETATM    3  C   UNL     1      -9.366   3.329  72.184  1.00  0.00    -0.181 C  
BRANCH   3   4
HETATM    4  C   UNL     1      -9.486   4.772  71.688  1.00  0.00    -0.206 C  
HETATM    5  C   UNL     1      -9.396   4.958  70.181  1.00  0.00    -0.154 C  
HETATM    6  N   UNL     1     -10.167   6.156  69.934  1.00  0.00    -0.180 N  
HETATM    7  C   UNL     1     -11.211   6.215  70.837  1.00  0.00    -0.299 C  
HETATM    8  O   UNL     1     -12.227   6.888  70.749  1.00  0.00    -0.381 OA 
HETATM    9  C   UNL     1     -10.860   5.360  72.032  1.00  0.00    -0.266 C  
BRANCH   6  10
HETATM   10  C   UNL     1     -10.078   6.855  68.636  1.00  0.00    -0.162 C  
BRANCH  10  11
HETATM   11  C   UNL     1     -10.955   6.259  67.519  1.00  0.00    -0.444 C  
HETATM   12  C   UNL     1     -10.202   5.415  66.507  1.00  0.00    -0.287 C  
ENDBRANCH  10  11
BRANCH  10  13
HETATM   13  C   UNL     1     -10.062   8.413  68.557  1.00  0.00    -0.197 C  
HETATM   14  N   UNL     1     -10.824   9.033  67.616  1.00  0.00    -0.481 N  
HETATM   15  O   UNL     1      -9.431   9.102  69.358  1.00  0.00    -0.154 OA 
HETATM   16  H1  UNL     1     -10.812  10.051  67.565  1.00  0.00     0.000 HD 
HETATM   17  H2  UNL     1     -11.397   8.488  66.972  1.00  0.00     0.000 HD 
ENDBRANCH  10  13
ENDBRANCH   6  10
ENDBRANCH   3   4
ENDBRANCH   2   3
TORSDOF 5
ENDMDL
MODEL      185
REMARK 921   NORMALIZED FREE ENERGY PREDICTED BY IDOCK:   -2.88 KCAL/MOL
REMARK 922        TOTAL FREE ENERGY PREDICTED BY IDOCK:   -4.27 KCAL/MOL
REMARK 923 INTER-LIGAND FREE ENERGY PREDICTED BY IDOCK:   -4.24 KCAL/MOL
REMARK 924 INTRA-LIGAND FREE ENERGY PREDICTED BY IDOCK:   -0.03 KCAL/MOL
REMARK 927      BINDING AFFINITY PREDICTED BY RF-SCORE:    0.00 PKD
ROOT
HETATM    1  C   UNL     1      -6.210   9.330  65.573  1.00  0.00    -0.064 C  
HETATM    2  C   UNL     1      -7.642   9.170  65.079  1.00  0.00    -0.106 C  
ENDROOT
BRANCH   2   3
HETATM    3  C   UNL     1      -8.620   9.176  66.254  1.00  0.00    -0.137 C  
BRANCH   3   4
HETATM    4  C   UNL     1      -9.890   9.994  66.005  1.00  0.00    -0.321 C  
HETATM    5  C   UNL     1      -9.955  11.337  66.716  1.00  0.00    -0.206 C  
HETATM    6  N   UNL     1     -10.803  12.139  65.863  1.00  0.00    -0.268 N  
HETATM    7  C   UNL     1     -10.596  11.771  64.548  1.00  0.00    -0.313 C  
HETATM    8  O   UNL     1     -10.883  12.412  63.546  1.00  0.00    -0.437 OA 
HETATM    9  C   UNL     1     -10.019  10.375  64.525  1.00  0.00    -0.401 C  
BRANCH   6  10
HETATM   10  C   UNL     1     -11.369  13.414  66.347  1.00  0.00    -0.313 C  
BRANCH  10  11
HETATM   11  C   UNL     1     -11.984  13.354  67.757  1.00  0.00    -0.363 C  
HETATM   12  C   UNL     1     -10.978  13.448  68.890  1.00  0.00    -0.284 C  
ENDBRANCH  10  11
BRANCH  10  13
HETATM   13  C   UNL     1     -10.623  14.766  66.124  1.00  0.00    -0.311 C  
HETATM   14  N   UNL     1      -9.680  14.845  65.147  1.00  0.00    -0.401 N  
HETATM   15  O   UNL     1     -10.903  15.781  66.761  1.00  0.00    -0.316 OA 
HETATM   16  H1  UNL     1      -9.192  15.728  65.001  1.00  0.00     0.000 HD 
HETATM   17  H2  UNL     1      -9.464  14.033  64.568  1.00  0.00     0.000 HD 
ENDBRANCH  10  13
ENDBRANCH   6  10
ENDBRANCH   3   4
ENDBRANCH   2   3
TORSDOF 5
ENDMDL
MODEL      186
REMARK 921   NORMALIZED FREE ENERGY PREDICTED BY IDOCK:   -2.86 KCAL/MOL
REMARK 922        TOTAL FREE ENERGY PREDICTED BY IDOCK:   -4.26 KCAL/MOL
REMARK 923 INTER-LIGAND FREE ENERGY PREDICTED BY IDOCK:   -3.78 KCAL/MOL
REMARK 924 INTRA-LIGAND FREE ENERGY PREDICTED BY IDOCK:   -0.48 KCAL/MOL
REMARK 927      BINDING AFFINITY PREDICTED BY RF-SCORE:    0.00 PKD
ROOT
HETATM    1  C   UNL     1     -12.722  11.950  70.841  1.00  0.00    -0.301 C  
HETATM    2  C   UNL     1     -12.539  10.525  70.335  1.00  0.00    -0.364 C  
ENDROOT
BRANCH   2   3
HETATM    3  C   UNL     1     -11.760   9.689  71.350  1.00  0.00    -0.478 C  
BRANCH   3   4
HETATM    4  C   UNL     1     -10.539   8.974  70.764  1.00  0.00    -0.300 C  
HETATM    5  C   UNL     1     -10.811   7.612  70.145  1.00  0.00    -0.248 C  
HETATM    6  N   UNL     1      -9.779   7.476  69.142  1.00  0.00    -0.164 N  
HETATM    7  C   UNL     1      -9.499   8.720  68.611  1.00  0.00    -0.141 C  
HETATM    8  O   UNL     1      -8.931   8.963  67.556  1.00  0.00    -0.132 OA 
HETATM    9  C   UNL     1      -9.939   9.773  69.600  1.00  0.00    -0.244 C  
BRANCH   6  10
HETATM   10  C   UNL     1      -9.498   6.165  68.521  1.00  0.00    -0.119 C  
BRANCH  10  11
HETATM   11  C   UNL     1      -9.077   5.060  69.507  1.00  0.00    -0.150 C  
HETATM   12  C   UNL     1      -7.760   5.316  70.219  1.00  0.00    -0.072 C  
ENDBRANCH  10  11
BRANCH  10  13
HETATM   13  C   UNL     1     -10.419   5.588  67.401  1.00  0.00    -0.219 C  
HETATM   14  N   UNL     1     -11.275   6.425  66.756  1.00  0.00    -0.742 N  
HETATM   15  O   UNL     1     -10.351   4.413  67.039  1.00  0.00    -0.100 OA 
HETATM   16  H1  UNL     1     -11.877   6.047  66.025  1.00  0.00     0.000 HD 
HETATM   17  H2  UNL     1     -11.316   7.414  67.000  1.00  0.00     0.000 HD 
ENDBRANCH  10  13
ENDBRANCH   6  10
ENDBRANCH   3   4
ENDBRANCH   2   3
TORSDOF 5
ENDMDL
MODEL      187
REMARK 921   NORMALIZED FREE ENERGY PREDICTED BY IDOCK:   -2.86 KCAL/MOL
REMARK 922        TOTAL FREE ENERGY PREDICTED BY IDOCK:   -4.25 KCAL/MOL
REMARK 923 INTER-LIGAND FREE ENERGY PREDICTED BY IDOCK:   -4.10 KCAL/MOL
REMARK 924 INTRA-LIGAND FREE ENERGY PREDICTED BY IDOCK:   -0.16 KCAL/MOL
REMARK 927      BINDING AFFINITY PREDICTED BY RF-SCORE:    0.00 PKD
ROOT
HETATM    1  C   UNL     1     -11.105  14.746  69.635  1.00  0.00    -0.299 C  
HETATM    2  C   UNL     1     -11.995  14.459  68.433  1.00  0.00    -0.328 C  
ENDROOT
BRANCH   2   3
HETATM    3  C   UNL     1     -12.282  12.962  68.321  1.00  0.00    -0.003 C  
BRANCH   3   4
HETATM    4  C   UNL     1     -11.465  12.095  69.283  1.00  0.00    -0.363 C  
HETATM    5  C   UNL     1     -12.239  11.501  70.449  1.00  0.00    -0.355 C  
HETATM    6  N   UNL     1     -11.513  10.290  70.764  1.00  0.00    -0.340 N  
HETATM    7  C   UNL     1     -10.995   9.759  69.599  1.00  0.00    -0.241 C  
HETATM    8  O   UNL     1     -10.603   8.615  69.418  1.00  0.00    -0.220 OA 
HETATM    9  C   UNL     1     -10.903  10.860  68.569  1.00  0.00    -0.262 C  
BRANCH   6  10
HETATM   10  C   UNL     1     -11.756   9.574  72.033  1.00  0.00    -0.102 C  
BRANCH  10  11
HETATM   11  C   UNL     1     -13.227   9.202  72.294  1.00  0.00    -0.528 C  
HETATM   12  C   UNL     1     -13.811   8.206  71.308  1.00  0.00    -0.227 C  
ENDBRANCH  10  11
BRANCH  10  13
HETATM   13  C   UNL     1     -10.801   8.437  72.515  1.00  0.00    -0.305 C  
HETATM   14  N   UNL     1      -9.471   8.696  72.623  1.00  0.00    -0.213 N  
HETATM   15  O   UNL     1     -11.222   7.333  72.860  1.00  0.00    -0.310 OA 
HETATM   16  H1  UNL     1      -8.847   7.953  72.937  1.00  0.00     0.000 HD 
HETATM   17  H2  UNL     1      -9.101   9.619  72.393  1.00  0.00     0.000 HD 
ENDBRANCH  10  13
ENDBRANCH   6  10
ENDBRANCH   3   4
ENDBRANCH   2   3
TORSDOF 5
ENDMDL
MODEL      188
REMARK 921   NORMALIZED FREE ENERGY PREDICTED BY IDOCK:   -2.85 KCAL/MOL
REMARK 922        TOTAL FREE ENERGY PREDICTED BY IDOCK:   -4.24 KCAL/MOL
REMARK 923 INTER-LIGAND FREE ENERGY PREDICTED BY IDOCK:   -4.21 KCAL/MOL
REMARK 924 INTRA-LIGAND FREE ENERGY PREDICTED BY IDOCK:   -0.02 KCAL/MOL
REMARK 927      BINDING AFFINITY PREDICTED BY RF-SCORE:    0.00 PKD
ROOT
HETATM    1  C   UNL     1      -6.513  12.826  68.095  1.00  0.00    -0.085 C  
HETATM    2  C   UNL     1      -7.848  13.482  67.766  1.00  0.00    -0.167 C  
ENDROOT
BRANCH   2   3
HETATM    3  C   UNL     1      -8.996  12.489  67.947  1.00  0.00    -0.188 C  
BRANCH   3   4
HETATM    4  C   UNL     1     -10.341  13.142  68.275  1.00  0.00    -0.256 C  
HETATM    5  C   UNL     1     -11.084  12.552  69.463  1.00  0.00    -0.006 C  
HETATM    6  N   UNL     1     -11.872  13.657  69.962  1.00  0.00    -0.314 N  
HETATM    7  C   UNL     1     -11.172  14.832  69.770  1.00  0.00    -0.273 C  
HETATM    8  O   UNL     1     -11.361  15.905  70.325  1.00  0.00    -0.315 OA 
HETATM    9  C   UNL     1     -10.157  14.612  68.673  1.00  0.00    -0.238 C  
BRANCH   6  10
HETATM   10  C   UNL     1     -12.969  13.427  70.923  1.00  0.00    -0.123 C  
BRANCH  10  11
HETATM   11  C   UNL     1     -12.751  12.244  71.884  1.00  0.00    -0.197 C  
HETATM   12  C   UNL     1     -13.229  10.904  71.355  1.00  0.00    -0.355 C  
ENDBRANCH  10  11
BRANCH  10  13
HETATM   13  C   UNL     1     -13.663  14.617  71.658  1.00  0.00    -0.418 C  
HETATM   14  N   UNL     1     -14.350  15.533  70.924  1.00  0.00    -0.817 N  
HETATM   15  O   UNL     1     -13.660  14.719  72.884  1.00  0.00    -0.463 OA 
HETATM   16  H1  UNL     1     -14.803  16.310  71.405  1.00  0.00     0.000 HD 
HETATM   17  H2  UNL     1     -14.413  15.444  69.910  1.00  0.00     0.000 HD 
ENDBRANCH  10  13
ENDBRANCH   6  10
ENDBRANCH   3   4
ENDBRANCH   2   3
TORSDOF 5
ENDMDL
MODEL      189
REMARK 921   NORMALIZED FREE ENERGY PREDICTED BY IDOCK:   -2.84 KCAL/MOL
REMARK 922        TOTAL FREE ENERGY PREDICTED BY IDOCK:   -4.23 KCAL/MOL
REMARK 923 INTER-LIGAND FREE ENERGY PREDICTED BY IDOCK:   -3.79 KCAL/MOL
REMARK 924 INTRA-LIGAND FREE ENERGY PREDICTED BY IDOCK:   -0.43 KCAL/MOL
REMARK 927      BINDING AFFINITY PREDICTED BY RF-SCORE:    0.00 PKD
ROOT
HETATM    1  C   UNL     1     -13.095  10.331  71.972  1.00  0.00    -0.529 C  
HETATM    2  C   UNL     1     -12.521  10.697  70.609  1.00  0.00    -0.462 C  
ENDROOT
BRANCH   2   3
HETATM    3  C   UNL     1     -11.195   9.974  70.372  1.00  0.00    -0.393 C  
BRANCH   3   4
HETATM    4  C   UNL     1     -10.932   8.818  71.341  1.00  0.00    -0.360 C  
HETATM    5  C   UNL     1     -10.953   7.428  70.725  1.00  0.00    -0.255 C  
HETATM    6  N   UNL     1     -10.072   6.660  71.576  1.00  0.00    -0.183 N  
HETATM    7  C   UNL     1      -9.059   7.480  72.034  1.00  0.00    -0.129 C  
HETATM    8  O   UNL     1      -7.985   7.135  72.506  1.00  0.00    -0.095 OA 
HETATM    9  C   UNL     1      -9.524   8.914  71.943  1.00  0.00    -0.301 C  
BRANCH   6  10
HETATM   10  C   UNL     1     -10.054   5.185  71.507  1.00  0.00    -0.193 C  
BRANCH  10  11
HETATM   11  C   UNL     1      -9.204   4.602  70.362  1.00  0.00    -0.187 C  
HETATM   12  C   UNL     1      -9.496   3.148  70.036  1.00  0.00    -0.219 C  
ENDBRANCH  10  11
BRANCH  10  13
HETATM   13  C   UNL     1      -9.918   4.316  72.796  1.00  0.00    -0.153 C  
HETATM   14  N   UNL     1     -11.046   3.870  73.411  1.00  0.00    -0.240 N  
HETATM   15  O   UNL     1      -8.824   3.970  73.239  1.00  0.00    -0.097 OA 
HETATM   16  H1  UNL     1     -10.957   3.303  74.254  1.00  0.00     0.000 HD 
HETATM   17  H2  UNL     1     -11.967   4.099  73.036  1.00  0.00     0.000 HD 
ENDBRANCH  10  13
ENDBRANCH   6  10
ENDBRANCH   3   4
ENDBRANCH   2   3
TORSDOF 5
ENDMDL
MODEL      190
REMARK 921   NORMALIZED FREE ENERGY PREDICTED BY IDOCK:   -2.84 KCAL/MOL
REMARK 922        TOTAL FREE ENERGY PREDICTED BY IDOCK:   -4.22 KCAL/MOL
REMARK 923 INTER-LIGAND FREE ENERGY PREDICTED BY IDOCK:   -4.25 KCAL/MOL
REMARK 924 INTRA-LIGAND FREE ENERGY PREDICTED BY IDOCK:    0.02 KCAL/MOL
REMARK 927      BINDING AFFINITY PREDICTED BY RF-SCORE:    0.00 PKD
ROOT
HETATM    1  C   UNL     1     -11.420  12.857  65.330  1.00  0.00    -0.360 C  
HETATM    2  C   UNL     1     -10.244  13.822  65.266  1.00  0.00    -0.355 C  
ENDROOT
BRANCH   2   3
HETATM    3  C   UNL     1     -10.731  15.250  65.020  1.00  0.00    -0.461 C  
BRANCH   3   4
HETATM    4  C   UNL     1     -10.480  16.205  66.190  1.00  0.00    -0.334 C  
HETATM    5  C   UNL     1      -9.150  16.031  66.906  1.00  0.00    -0.228 C  
HETATM    6  N   UNL     1      -8.866  17.348  67.432  1.00  0.00    -0.225 N  
HETATM    7  C   UNL     1      -9.356  18.298  66.558  1.00  0.00    -0.302 C  
HETATM    8  O   UNL     1      -9.044  19.479  66.499  1.00  0.00    -0.330 OA 
HETATM    9  C   UNL     1     -10.432  17.662  65.711  1.00  0.00    -0.208 C  
BRANCH   6  10
HETATM   10  C   UNL     1      -7.817  17.541  68.454  1.00  0.00    -0.263 C  
BRANCH  10  11
HETATM   11  C   UNL     1      -6.854  16.352  68.624  1.00  0.00    -0.152 C  
HETATM   12  C   UNL     1      -7.360  15.255  69.544  1.00  0.00    -0.210 C  
ENDBRANCH  10  11
BRANCH  10  13
HETATM   13  C   UNL     1      -7.054  18.896  68.582  1.00  0.00    -0.297 C  
HETATM   14  N   UNL     1      -6.084  19.195  67.676  1.00  0.00    -0.205 N  
HETATM   15  O   UNL     1      -7.343  19.732  69.439  1.00  0.00    -0.318 OA 
HETATM   16  H1  UNL     1      -5.586  20.080  67.760  1.00  0.00     0.000 HD 
HETATM   17  H2  UNL     1      -5.859  18.543  66.923  1.00  0.00     0.000 HD 
ENDBRANCH  10  13
ENDBRANCH   6  10
ENDBRANCH   3   4
ENDBRANCH   2   3
TORSDOF 5
ENDMDL
MODEL      191
REMARK 921   NORMALIZED FREE ENERGY PREDICTED BY IDOCK:   -2.82 KCAL/MOL
REMARK 922        TOTAL FREE ENERGY PREDICTED BY IDOCK:   -4.20 KCAL/MOL
REMARK 923 INTER-LIGAND FREE ENERGY PREDICTED BY IDOCK:   -3.75 KCAL/MOL
REMARK 924 INTRA-LIGAND FREE ENERGY PREDICTED BY IDOCK:   -0.45 KCAL/MOL
REMARK 927      BINDING AFFINITY PREDICTED BY RF-SCORE:    0.00 PKD
ROOT
HETATM    1  C   UNL     1     -11.454  13.294  66.312  1.00  0.00    -0.358 C  
HETATM    2  C   UNL     1     -10.115  12.568  66.295  1.00  0.00    -0.264 C  
ENDROOT
BRANCH   2   3
HETATM    3  C   UNL     1      -9.682  12.201  67.714  1.00  0.00    -0.197 C  
BRANCH   3   4
HETATM    4  C   UNL     1      -9.286  10.732  67.885  1.00  0.00    -0.154 C  
HETATM    5  C   UNL     1      -9.841  10.043  69.122  1.00  0.00    -0.205 C  
HETATM    6  N   UNL     1      -9.922   8.652  68.736  1.00  0.00    -0.178 N  
HETATM    7  C   UNL     1     -10.225   8.574  67.390  1.00  0.00    -0.261 C  
HETATM    8  O   UNL     1     -10.671   7.609  66.787  1.00  0.00    -0.318 OA 
HETATM    9  C   UNL     1      -9.830   9.877  66.734  1.00  0.00    -0.256 C  
BRANCH   6  10
HETATM   10  C   UNL     1     -10.124   7.598  69.751  1.00  0.00    -0.196 C  
BRANCH  10  11
HETATM   11  C   UNL     1      -8.837   7.111  70.441  1.00  0.00    -0.151 C  
HETATM   12  C   UNL     1      -7.864   6.388  69.527  1.00  0.00    -0.101 C  
ENDBRANCH  10  11
BRANCH  10  13
HETATM   13  C   UNL     1     -11.305   7.671  70.767  1.00  0.00    -0.281 C  
HETATM   14  N   UNL     1     -12.381   6.858  70.586  1.00  0.00    -0.575 N  
HETATM   15  O   UNL     1     -11.269   8.394  71.762  1.00  0.00    -0.257 OA 
HETATM   16  H1  UNL     1     -13.153   6.906  71.250  1.00  0.00     0.000 HD 
HETATM   17  H2  UNL     1     -12.415   6.210  69.798  1.00  0.00     0.000 HD 
ENDBRANCH  10  13
ENDBRANCH   6  10
ENDBRANCH   3   4
ENDBRANCH   2   3
TORSDOF 5
ENDMDL
MODEL      192
REMARK 921   NORMALIZED FREE ENERGY PREDICTED BY IDOCK:   -2.82 KCAL/MOL
REMARK 922        TOTAL FREE ENERGY PREDICTED BY IDOCK:   -4.20 KCAL/MOL
REMARK 923 INTER-LIGAND FREE ENERGY PREDICTED BY IDOCK:   -4.32 KCAL/MOL
REMARK 924 INTRA-LIGAND FREE ENERGY PREDICTED BY IDOCK:    0.11 KCAL/MOL
REMARK 927      BINDING AFFINITY PREDICTED BY RF-SCORE:    0.00 PKD
ROOT
HETATM    1  C   UNL     1      -6.302   9.440  65.695  1.00  0.00    -0.068 C  
HETATM    2  C   UNL     1      -7.808   9.254  65.833  1.00  0.00    -0.099 C  
ENDROOT
BRANCH   2   3
HETATM    3  C   UNL     1      -8.222   9.283  67.304  1.00  0.00    -0.121 C  
BRANCH   3   4
HETATM    4  C   UNL     1      -9.724   9.475  67.527  1.00  0.00    -0.194 C  
HETATM    5  C   UNL     1     -10.122  10.015  68.891  1.00  0.00    -0.190 C  
HETATM    6  N   UNL     1     -11.365  10.710  68.639  1.00  0.00    -0.278 N  
HETATM    7  C   UNL     1     -11.323  11.264  67.375  1.00  0.00    -0.276 C  
HETATM    8  O   UNL     1     -12.031  12.160  66.936  1.00  0.00    -0.603 OA 
HETATM    9  C   UNL     1     -10.296  10.518  66.557  1.00  0.00    -0.294 C  
BRANCH   6  10
HETATM   10  C   UNL     1     -12.240  11.118  69.756  1.00  0.00    -0.300 C  
BRANCH  10  11
HETATM   11  C   UNL     1     -12.499  10.024  70.808  1.00  0.00    -0.386 C  
HETATM   12  C   UNL     1     -11.269   9.591  71.585  1.00  0.00    -0.378 C  
ENDBRANCH  10  11
BRANCH  10  13
HETATM   13  C   UNL     1     -12.087  12.515  70.435  1.00  0.00    -0.297 C  
HETATM   14  N   UNL     1     -11.267  13.438  69.864  1.00  0.00    -0.482 N  
HETATM   15  O   UNL     1     -12.731  12.831  71.435  1.00  0.00    -0.351 OA 
HETATM   16  H1  UNL     1     -11.167  14.351  70.308  1.00  0.00     0.000 HD 
HETATM   17  H2  UNL     1     -10.761  13.222  69.005  1.00  0.00     0.000 HD 
ENDBRANCH  10  13
ENDBRANCH   6  10
ENDBRANCH   3   4
ENDBRANCH   2   3
TORSDOF 5
ENDMDL
MODEL      193
REMARK 921   NORMALIZED FREE ENERGY PREDICTED BY IDOCK:   -2.82 KCAL/MOL
REMARK 922        TOTAL FREE ENERGY PREDICTED BY IDOCK:   -4.20 KCAL/MOL
REMARK 923 INTER-LIGAND FREE ENERGY PREDICTED BY IDOCK:   -3.59 KCAL/MOL
REMARK 924 INTRA-LIGAND FREE ENERGY PREDICTED BY IDOCK:   -0.61 KCAL/MOL
REMARK 927      BINDING AFFINITY PREDICTED BY RF-SCORE:    0.00 PKD
ROOT
HETATM    1  C   UNL     1      -7.028   3.292  67.435  1.00  0.00    -0.050 C  
HETATM    2  C   UNL     1      -7.890   4.405  68.016  1.00  0.00    -0.080 C  
ENDROOT
BRANCH   2   3
HETATM    3  C   UNL     1      -9.338   3.942  68.168  1.00  0.00    -0.223 C  
BRANCH   3   4
HETATM    4  C   UNL     1     -10.339   5.081  68.383  1.00  0.00    -0.091 C  
HETATM    5  C   UNL     1     -10.076   5.965  69.592  1.00  0.00    -0.200 C  
HETATM    6  N   UNL     1     -10.650   7.239  69.219  1.00  0.00    -0.222 N  
HETATM    7  C   UNL     1     -10.498   7.422  67.859  1.00  0.00    -0.205 C  
HETATM    8  O   UNL     1     -10.570   8.475  67.241  1.00  0.00    -0.295 OA 
HETATM    9  C   UNL     1     -10.307   6.070  67.212  1.00  0.00    -0.275 C  
BRANCH   6  10
HETATM   10  C   UNL     1     -10.880   8.288  70.234  1.00  0.00    -0.240 C  
BRANCH  10  11
HETATM   11  C   UNL     1     -11.482   7.785  71.558  1.00  0.00    -0.298 C  
HETATM   12  C   UNL     1     -12.967   7.472  71.499  1.00  0.00    -0.400 C  
ENDBRANCH  10  11
BRANCH  10  13
HETATM   13  C   UNL     1      -9.822   9.406  70.494  1.00  0.00    -0.270 C  
HETATM   14  N   UNL     1      -9.844  10.525  69.721  1.00  0.00    -0.431 N  
HETATM   15  O   UNL     1      -9.009   9.335  71.415  1.00  0.00    -0.311 OA 
HETATM   16  H1  UNL     1      -9.152  11.255  69.891  1.00  0.00     0.000 HD 
HETATM   17  H2  UNL     1     -10.540  10.633  68.983  1.00  0.00     0.000 HD 
ENDBRANCH  10  13
ENDBRANCH   6  10
ENDBRANCH   3   4
ENDBRANCH   2   3
TORSDOF 5
ENDMDL
MODEL      194
REMARK 921   NORMALIZED FREE ENERGY PREDICTED BY IDOCK:   -2.82 KCAL/MOL
REMARK 922        TOTAL FREE ENERGY PREDICTED BY IDOCK:   -4.19 KCAL/MOL
REMARK 923 INTER-LIGAND FREE ENERGY PREDICTED BY IDOCK:   -3.99 KCAL/MOL
REMARK 924 INTRA-LIGAND FREE ENERGY PREDICTED BY IDOCK:   -0.20 KCAL/MOL
REMARK 927      BINDING AFFINITY PREDICTED BY RF-SCORE:    0.00 PKD
ROOT
HETATM    1  C   UNL     1      -5.594  13.666  70.895  1.00  0.00    -0.200 C  
HETATM    2  C   UNL     1      -6.463  14.751  70.272  1.00  0.00    -0.145 C  
ENDROOT
BRANCH   2   3
HETATM    3  C   UNL     1      -6.295  14.770  68.753  1.00  0.00    -0.086 C  
BRANCH   3   4
HETATM    4  C   UNL     1      -7.608  14.929  67.981  1.00  0.00    -0.128 C  
HETATM    5  C   UNL     1      -8.876  14.806  68.811  1.00  0.00    -0.179 C  
HETATM    6  N   UNL     1      -9.838  15.613  68.094  1.00  0.00    -0.212 N  
HETATM    7  C   UNL     1      -9.185  16.681  67.510  1.00  0.00    -0.207 C  
HETATM    8  O   UNL     1      -9.685  17.719  67.100  1.00  0.00    -0.272 OA 
HETATM    9  C   UNL     1      -7.722  16.332  67.372  1.00  0.00    -0.187 C  
BRANCH   6  10
HETATM   10  C   UNL     1     -11.280  15.515  68.398  1.00  0.00    -0.341 C  
BRANCH  10  11
HETATM   11  C   UNL     1     -12.012  14.356  67.698  1.00  0.00    -0.378 C  
HETATM   12  C   UNL     1     -11.100  13.360  67.004  1.00  0.00    -0.310 C  
ENDBRANCH  10  11
BRANCH  10  13
HETATM   13  C   UNL     1     -11.814  15.712  69.851  1.00  0.00    -0.360 C  
HETATM   14  N   UNL     1     -12.935  15.045  70.237  1.00  0.00    -0.627 N  
HETATM   15  O   UNL     1     -11.219  16.402  70.679  1.00  0.00    -0.358 OA 
HETATM   16  H1  UNL     1     -13.284  15.174  71.186  1.00  0.00     0.000 HD 
HETATM   17  H2  UNL     1     -13.419  14.425  69.587  1.00  0.00     0.000 HD 
ENDBRANCH  10  13
ENDBRANCH   6  10
ENDBRANCH   3   4
ENDBRANCH   2   3
TORSDOF 5
ENDMDL
MODEL      195
REMARK 921   NORMALIZED FREE ENERGY PREDICTED BY IDOCK:   -2.81 KCAL/MOL
REMARK 922        TOTAL FREE ENERGY PREDICTED BY IDOCK:   -4.18 KCAL/MOL
REMARK 923 INTER-LIGAND FREE ENERGY PREDICTED BY IDOCK:   -3.70 KCAL/MOL
REMARK 924 INTRA-LIGAND FREE ENERGY PREDICTED BY IDOCK:   -0.48 KCAL/MOL
REMARK 927      BINDING AFFINITY PREDICTED BY RF-SCORE:    0.00 PKD
ROOT
HETATM    1  C   UNL     1      -7.393  11.426  67.389  1.00  0.00    -0.119 C  
HETATM    2  C   UNL     1      -8.889  11.672  67.245  1.00  0.00    -0.164 C  
ENDROOT
BRANCH   2   3
HETATM    3  C   UNL     1      -9.391  11.164  65.894  1.00  0.00    -0.235 C  
BRANCH   3   4
HETATM    4  C   UNL     1      -9.998   9.759  65.941  1.00  0.00    -0.345 C  
HETATM    5  C   UNL     1      -9.027   8.616  65.689  1.00  0.00    -0.182 C  
HETATM    6  N   UNL     1      -9.605   7.506  66.413  1.00  0.00    -0.161 N  
HETATM    7  C   UNL     1     -10.234   7.984  67.546  1.00  0.00    -0.245 C  
HETATM    8  O   UNL     1     -10.555   7.347  68.539  1.00  0.00    -0.199 OA 
HETATM    9  C   UNL     1     -10.553   9.446  67.336  1.00  0.00    -0.326 C  
BRANCH   6  10
HETATM   10  C   UNL     1      -9.135   6.126  66.178  1.00  0.00    -0.145 C  
BRANCH  10  11
HETATM   11  C   UNL     1      -7.761   5.798  66.790  1.00  0.00    -0.100 C  
HETATM   12  C   UNL     1      -6.731   5.291  65.796  1.00  0.00    -0.053 C  
ENDBRANCH  10  11
BRANCH  10  13
HETATM   13  C   UNL     1     -10.104   4.909  66.305  1.00  0.00    -0.257 C  
HETATM   14  N   UNL     1     -11.179   4.835  65.476  1.00  0.00    -0.968 N  
HETATM   15  O   UNL     1      -9.892   3.983  67.087  1.00  0.00    -0.202 OA 
HETATM   16  H1  UNL     1     -11.812   4.040  65.559  1.00  0.00     0.000 HD 
HETATM   17  H2  UNL     1     -11.351   5.562  64.782  1.00  0.00     0.000 HD 
ENDBRANCH  10  13
ENDBRANCH   6  10
ENDBRANCH   3   4
ENDBRANCH   2   3
TORSDOF 5
ENDMDL
MODEL      196
REMARK 921   NORMALIZED FREE ENERGY PREDICTED BY IDOCK:   -2.77 KCAL/MOL
REMARK 922        TOTAL FREE ENERGY PREDICTED BY IDOCK:   -4.13 KCAL/MOL
REMARK 923 INTER-LIGAND FREE ENERGY PREDICTED BY IDOCK:   -3.73 KCAL/MOL
REMARK 924 INTRA-LIGAND FREE ENERGY PREDICTED BY IDOCK:   -0.40 KCAL/MOL
REMARK 927      BINDING AFFINITY PREDICTED BY RF-SCORE:    0.00 PKD
ROOT
HETATM    1  C   UNL     1      -9.759   8.178  66.874  1.00  0.00    -0.291 C  
HETATM    2  C   UNL     1     -10.501   6.852  66.988  1.00  0.00    -0.374 C  
ENDROOT
BRANCH   2   3
HETATM    3  C   UNL     1      -9.691   5.850  67.809  1.00  0.00    -0.124 C  
BRANCH   3   4
HETATM    4  C   UNL     1     -10.303   5.522  69.174  1.00  0.00    -0.318 C  
HETATM    5  C   UNL     1      -9.505   5.990  70.381  1.00  0.00    -0.163 C  
HETATM    6  N   UNL     1     -10.508   6.187  71.404  1.00  0.00    -0.218 N  
HETATM    7  C   UNL     1     -11.676   6.624  70.811  1.00  0.00    -0.388 C  
HETATM    8  O   UNL     1     -12.619   7.180  71.357  1.00  0.00    -0.359 OA 
HETATM    9  C   UNL     1     -11.655   6.223  69.355  1.00  0.00    -0.172 C  
BRANCH   6  10
HETATM   10  C   UNL     1     -10.119   6.346  72.819  1.00  0.00    -0.180 C  
BRANCH  10  11
HETATM   11  C   UNL     1      -9.733   5.039  73.535  1.00  0.00    -0.152 C  
HETATM   12  C   UNL     1     -10.858   4.027  73.654  1.00  0.00    -0.338 C  
ENDBRANCH  10  11
BRANCH  10  13
HETATM   13  C   UNL     1      -9.201   7.522  73.278  1.00  0.00    -0.205 C  
HETATM   14  N   UNL     1      -8.990   8.562  72.428  1.00  0.00    -0.231 N  
HETATM   15  O   UNL     1      -8.713   7.569  74.407  1.00  0.00    -0.216 OA 
HETATM   16  H1  UNL     1      -8.390   9.331  72.728  1.00  0.00     0.000 HD 
HETATM   17  H2  UNL     1      -9.424   8.575  71.505  1.00  0.00     0.000 HD 
ENDBRANCH  10  13
ENDBRANCH   6  10
ENDBRANCH   3   4
ENDBRANCH   2   3
TORSDOF 5
ENDMDL
MODEL      197
REMARK 921   NORMALIZED FREE ENERGY PREDICTED BY IDOCK:   -2.75 KCAL/MOL
REMARK 922        TOTAL FREE ENERGY PREDICTED BY IDOCK:   -4.11 KCAL/MOL
REMARK 923 INTER-LIGAND FREE ENERGY PREDICTED BY IDOCK:   -3.67 KCAL/MOL
REMARK 924 INTRA-LIGAND FREE ENERGY PREDICTED BY IDOCK:   -0.44 KCAL/MOL
REMARK 927      BINDING AFFINITY PREDICTED BY RF-SCORE:    0.00 PKD
ROOT
HETATM    1  C   UNL     1      -9.240   7.192  71.545  1.00  0.00    -0.148 C  
HETATM    2  C   UNL     1     -10.287   7.340  70.449  1.00  0.00    -0.217 C  
ENDROOT
BRANCH   2   3
HETATM    3  C   UNL     1     -10.676   8.807  70.269  1.00  0.00    -0.249 C  
BRANCH   3   4
HETATM    4  C   UNL     1     -10.644   9.288  68.816  1.00  0.00    -0.220 C  
HETATM    5  C   UNL     1     -11.186  10.689  68.577  1.00  0.00    -0.282 C  
HETATM    6  N   UNL     1     -10.471  11.140  67.403  1.00  0.00    -0.209 N  
HETATM    7  C   UNL     1      -9.198  10.604  67.417  1.00  0.00    -0.143 C  
HETATM    8  O   UNL     1      -8.226  10.990  66.783  1.00  0.00    -0.137 OA 
HETATM    9  C   UNL     1      -9.204   9.376  68.296  1.00  0.00    -0.133 C  
BRANCH   6  10
HETATM   10  C   UNL     1     -10.922  12.333  66.658  1.00  0.00    -0.278 C  
BRANCH  10  11
HETATM   11  C   UNL     1     -10.434  13.676  67.232  1.00  0.00    -0.260 C  
HETATM   12  C   UNL     1     -11.462  14.416  68.068  1.00  0.00    -0.336 C  
ENDBRANCH  10  11
BRANCH  10  13
HETATM   13  C   UNL     1     -10.916  12.360  65.098  1.00  0.00    -0.302 C  
HETATM   14  N   UNL     1     -10.563  13.509  64.461  1.00  0.00    -0.426 N  
HETATM   15  O   UNL     1     -11.160  11.359  64.425  1.00  0.00    -0.329 OA 
HETATM   16  H1  UNL     1     -10.559  13.527  63.441  1.00  0.00     0.000 HD 
HETATM   17  H2  UNL     1     -10.305  14.340  64.994  1.00  0.00     0.000 HD 
ENDBRANCH  10  13
ENDBRANCH   6  10
ENDBRANCH   3   4
ENDBRANCH   2   3
TORSDOF 5
ENDMDL
MODEL      198
REMARK 921   NORMALIZED FREE ENERGY PREDICTED BY IDOCK:   -2.74 KCAL/MOL
REMARK 922        TOTAL FREE ENERGY PREDICTED BY IDOCK:   -4.10 KCAL/MOL
REMARK 923 INTER-LIGAND FREE ENERGY PREDICTED BY IDOCK:   -3.65 KCAL/MOL
REMARK 924 INTRA-LIGAND FREE ENERGY PREDICTED BY IDOCK:   -0.45 KCAL/MOL
REMARK 927      BINDING AFFINITY PREDICTED BY RF-SCORE:    0.00 PKD
ROOT
HETATM    1  C   UNL     1     -10.334   6.699  73.893  1.00  0.00    -0.385 C  
HETATM    2  C   UNL     1     -11.155   7.445  72.849  1.00  0.00    -0.397 C  
ENDROOT
BRANCH   2   3
HETATM    3  C   UNL     1     -10.339   8.580  72.232  1.00  0.00    -0.402 C  
BRANCH   3   4
HETATM    4  C   UNL     1     -10.532   8.739  70.721  1.00  0.00    -0.270 C  
HETATM    5  C   UNL     1      -9.254   8.793  69.899  1.00  0.00    -0.157 C  
HETATM    6  N   UNL     1      -9.652   8.277  68.608  1.00  0.00    -0.148 N  
HETATM    7  C   UNL     1     -10.624   7.313  68.788  1.00  0.00    -0.181 C  
HETATM    8  O   UNL     1     -10.972   6.455  67.989  1.00  0.00    -0.293 OA 
HETATM    9  C   UNL     1     -11.277   7.534  70.132  1.00  0.00    -0.213 C  
BRANCH   6  10
HETATM   10  C   UNL     1      -8.782   8.448  67.427  1.00  0.00    -0.135 C  
BRANCH  10  11
HETATM   11  C   UNL     1      -7.759   7.318  67.209  1.00  0.00    -0.109 C  
HETATM   12  C   UNL     1      -6.356   7.633  67.694  1.00  0.00    -0.050 C  
ENDBRANCH  10  11
BRANCH  10  13
HETATM   13  C   UNL     1      -9.357   8.946  66.065  1.00  0.00    -0.242 C  
HETATM   14  N   UNL     1      -8.909   8.377  64.913  1.00  0.00    -0.411 N  
HETATM   15  O   UNL     1     -10.247   9.793  66.001  1.00  0.00    -0.259 OA 
HETATM   16  H1  UNL     1      -9.285   8.703  64.023  1.00  0.00     0.000 HD 
HETATM   17  H2  UNL     1      -8.209   7.635  64.939  1.00  0.00     0.000 HD 
ENDBRANCH  10  13
ENDBRANCH   6  10
ENDBRANCH   3   4
ENDBRANCH   2   3
TORSDOF 5
ENDMDL
MODEL      199
REMARK 921   NORMALIZED FREE ENERGY PREDICTED BY IDOCK:   -2.74 KCAL/MOL
REMARK 922        TOTAL FREE ENERGY PREDICTED BY IDOCK:   -4.10 KCAL/MOL
REMARK 923 INTER-LIGAND FREE ENERGY PREDICTED BY IDOCK:   -3.83 KCAL/MOL
REMARK 924 INTRA-LIGAND FREE ENERGY PREDICTED BY IDOCK:   -0.27 KCAL/MOL
REMARK 927      BINDING AFFINITY PREDICTED BY RF-SCORE:    0.00 PKD
ROOT
HETATM    1  C   UNL     1     -10.240   6.764  73.915  1.00  0.00    -0.396 C  
HETATM    2  C   UNL     1     -11.005   7.539  72.849  1.00  0.00    -0.434 C  
ENDROOT
BRANCH   2   3
HETATM    3  C   UNL     1     -10.133   8.646  72.259  1.00  0.00    -0.363 C  
BRANCH   3   4
HETATM    4  C   UNL     1     -10.351   8.883  70.762  1.00  0.00    -0.283 C  
HETATM    5  C   UNL     1     -11.103  10.155  70.402  1.00  0.00    -0.324 C  
HETATM    6  N   UNL     1     -10.610  10.485  69.083  1.00  0.00    -0.214 N  
HETATM    7  C   UNL     1      -9.286  10.106  68.988  1.00  0.00    -0.185 C  
HETATM    8  O   UNL     1      -8.464  10.490  68.168  1.00  0.00    -0.117 OA 
HETATM    9  C   UNL     1      -9.014   9.046  70.029  1.00  0.00    -0.184 C  
BRANCH   6  10
HETATM   10  C   UNL     1     -11.309  11.480  68.245  1.00  0.00    -0.286 C  
BRANCH  10  11
HETATM   11  C   UNL     1     -11.062  12.947  68.642  1.00  0.00    -0.307 C  
HETATM   12  C   UNL     1     -12.246  13.631  69.302  1.00  0.00    -0.283 C  
ENDBRANCH  10  11
BRANCH  10  13
HETATM   13  C   UNL     1     -11.372  11.329  66.693  1.00  0.00    -0.079 C  
HETATM   14  N   UNL     1     -11.834  12.368  65.948  1.00  0.00    -0.423 N  
HETATM   15  O   UNL     1     -10.959  10.322  66.117  1.00  0.00     0.050 OA 
HETATM   16  H1  UNL     1     -11.875  12.269  64.934  1.00  0.00     0.000 HD 
HETATM   17  H2  UNL     1     -12.135  13.234  66.395  1.00  0.00     0.000 HD 
ENDBRANCH  10  13
ENDBRANCH   6  10
ENDBRANCH   3   4
ENDBRANCH   2   3
TORSDOF 5
ENDMDL
MODEL      200
REMARK 921   NORMALIZED FREE ENERGY PREDICTED BY IDOCK:   -2.72 KCAL/MOL
REMARK 922        TOTAL FREE ENERGY PREDICTED BY IDOCK:   -4.07 KCAL/MOL
REMARK 923 INTER-LIGAND FREE ENERGY PREDICTED BY IDOCK:   -3.65 KCAL/MOL
REMARK 924 INTRA-LIGAND FREE ENERGY PREDICTED BY IDOCK:   -0.43 KCAL/MOL
REMARK 927      BINDING AFFINITY PREDICTED BY RF-SCORE:    0.00 PKD
ROOT
HETATM    1  C   UNL     1      -7.609   5.300  65.796  1.00  0.00    -0.083 C  
HETATM    2  C   UNL     1      -8.051   6.010  67.069  1.00  0.00    -0.106 C  
ENDROOT
BRANCH   2   3
HETATM    3  C   UNL     1      -9.417   6.667  66.873  1.00  0.00    -0.184 C  
BRANCH   3   4
HETATM    4  C   UNL     1      -9.351   8.165  66.565  1.00  0.00    -0.262 C  
HETATM    5  C   UNL     1     -10.482   9.004  67.138  1.00  0.00    -0.263 C  
HETATM    6  N   UNL     1      -9.890  10.311  67.311  1.00  0.00    -0.176 N  
HETATM    7  C   UNL     1      -8.558  10.162  67.644  1.00  0.00    -0.118 C  
HETATM    8  O   UNL     1      -7.827  10.995  68.160  1.00  0.00    -0.106 OA 
HETATM    9  C   UNL     1      -8.098   8.800  67.182  1.00  0.00    -0.100 C  
BRANCH   6  10
HETATM   10  C   UNL     1     -10.737  11.496  67.558  1.00  0.00    -0.223 C  
BRANCH  10  11
HETATM   11  C   UNL     1     -11.552  11.973  66.342  1.00  0.00    -0.381 C  
HETATM   12  C   UNL     1     -12.073  13.395  66.449  1.00  0.00    -0.464 C  
ENDBRANCH  10  11
BRANCH  10  13
HETATM   13  C   UNL     1     -11.568  11.635  68.872  1.00  0.00    -0.314 C  
HETATM   14  N   UNL     1     -11.167  12.532  69.812  1.00  0.00    -0.487 N  
HETATM   15  O   UNL     1     -12.609  11.005  69.057  1.00  0.00    -0.378 OA 
HETATM   16  H1  UNL     1     -11.711  12.623  70.671  1.00  0.00     0.000 HD 
HETATM   17  H2  UNL     1     -10.337  13.106  69.662  1.00  0.00     0.000 HD 
ENDBRANCH  10  13
ENDBRANCH   6  10
ENDBRANCH   3   4
ENDBRANCH   2   3
TORSDOF 5
ENDMDL
MODEL      201
REMARK 921   NORMALIZED FREE ENERGY PREDICTED BY IDOCK:   -2.71 KCAL/MOL
REMARK 922        TOTAL FREE ENERGY PREDICTED BY IDOCK:   -4.06 KCAL/MOL
REMARK 923 INTER-LIGAND FREE ENERGY PREDICTED BY IDOCK:   -3.57 KCAL/MOL
REMARK 924 INTRA-LIGAND FREE ENERGY PREDICTED BY IDOCK:   -0.49 KCAL/MOL
REMARK 927      BINDING AFFINITY PREDICTED BY RF-SCORE:    0.00 PKD
ROOT
HETATM    1  C   UNL     1      -6.526   3.143  69.914  1.00  0.00    -0.033 C  
HETATM    2  C   UNL     1      -7.485   4.293  70.193  1.00  0.00    -0.046 C  
ENDROOT
BRANCH   2   3
HETATM    3  C   UNL     1      -8.642   3.828  71.076  1.00  0.00    -0.108 C  
BRANCH   3   4
HETATM    4  C   UNL     1      -9.993   4.453  70.717  1.00  0.00    -0.247 C  
HETATM    5  C   UNL     1     -10.227   5.859  71.246  1.00  0.00    -0.210 C  
HETATM    6  N   UNL     1     -11.144   6.440  70.291  1.00  0.00    -0.322 N  
HETATM    7  C   UNL     1     -10.869   5.932  69.036  1.00  0.00    -0.313 C  
HETATM    8  O   UNL     1     -11.208   6.400  67.958  1.00  0.00    -0.311 OA 
HETATM    9  C   UNL     1     -10.134   4.622  69.199  1.00  0.00    -0.144 C  
BRANCH   6  10
HETATM   10  C   UNL     1     -11.864   7.691  70.602  1.00  0.00    -0.147 C  
BRANCH  10  11
HETATM   11  C   UNL     1     -12.721   7.644  71.880  1.00  0.00    -0.320 C  
HETATM   12  C   UNL     1     -14.199   7.399  71.641  1.00  0.00    -0.583 C  
ENDBRANCH  10  11
BRANCH  10  13
HETATM   13  C   UNL     1     -11.171   9.081  70.449  1.00  0.00    -0.241 C  
HETATM   14  N   UNL     1     -10.168   9.221  69.541  1.00  0.00    -0.198 N  
HETATM   15  O   UNL     1     -11.544  10.071  71.078  1.00  0.00    -0.343 OA 
HETATM   16  H1  UNL     1      -9.716  10.129  69.442  1.00  0.00     0.000 HD 
HETATM   17  H2  UNL     1      -9.873   8.430  68.968  1.00  0.00     0.000 HD 
ENDBRANCH  10  13
ENDBRANCH   6  10
ENDBRANCH   3   4
ENDBRANCH   2   3
TORSDOF 5
ENDMDL
MODEL      202
REMARK 921   NORMALIZED FREE ENERGY PREDICTED BY IDOCK:   -2.71 KCAL/MOL
REMARK 922        TOTAL FREE ENERGY PREDICTED BY IDOCK:   -4.06 KCAL/MOL
REMARK 923 INTER-LIGAND FREE ENERGY PREDICTED BY IDOCK:   -3.87 KCAL/MOL
REMARK 924 INTRA-LIGAND FREE ENERGY PREDICTED BY IDOCK:   -0.19 KCAL/MOL
REMARK 927      BINDING AFFINITY PREDICTED BY RF-SCORE:    0.00 PKD
ROOT
HETATM    1  C   UNL     1     -10.402  13.269  66.338  1.00  0.00    -0.286 C  
HETATM    2  C   UNL     1     -11.575  12.546  66.987  1.00  0.00    -0.437 C  
ENDROOT
BRANCH   2   3
HETATM    3  C   UNL     1     -11.170  11.135  67.412  1.00  0.00    -0.363 C  
BRANCH   3   4
HETATM    4  C   UNL     1     -10.772  11.017  68.886  1.00  0.00    -0.249 C  
HETATM    5  C   UNL     1     -11.271   9.772  69.602  1.00  0.00    -0.178 C  
HETATM    6  N   UNL     1     -10.286   9.552  70.638  1.00  0.00    -0.284 N  
HETATM    7  C   UNL     1      -9.047   9.947  70.174  1.00  0.00    -0.124 C  
HETATM    8  O   UNL     1      -7.954   9.635  70.625  1.00  0.00    -0.241 OA 
HETATM    9  C   UNL     1      -9.248  10.922  69.038  1.00  0.00    -0.128 C  
BRANCH   6  10
HETATM   10  C   UNL     1     -10.559   8.621  71.752  1.00  0.00    -0.325 C  
BRANCH  10  11
HETATM   11  C   UNL     1     -11.901   7.873  71.655  1.00  0.00    -0.325 C  
HETATM   12  C   UNL     1     -13.072   8.587  72.306  1.00  0.00    -0.372 C  
ENDBRANCH  10  11
BRANCH  10  13
HETATM   13  C   UNL     1      -9.443   7.688  72.317  1.00  0.00    -0.160 C  
HETATM   14  N   UNL     1      -8.672   8.133  73.346  1.00  0.00    -0.251 N  
HETATM   15  O   UNL     1      -9.280   6.540  71.905  1.00  0.00    -0.149 OA 
HETATM   16  H1  UNL     1      -7.943   7.523  73.715  1.00  0.00     0.000 HD 
HETATM   17  H2  UNL     1      -8.820   9.061  73.742  1.00  0.00     0.000 HD 
ENDBRANCH  10  13
ENDBRANCH   6  10
ENDBRANCH   3   4
ENDBRANCH   2   3
TORSDOF 5
ENDMDL
MODEL      203
REMARK 921   NORMALIZED FREE ENERGY PREDICTED BY IDOCK:   -2.69 KCAL/MOL
REMARK 922        TOTAL FREE ENERGY PREDICTED BY IDOCK:   -4.04 KCAL/MOL
REMARK 923 INTER-LIGAND FREE ENERGY PREDICTED BY IDOCK:   -4.09 KCAL/MOL
REMARK 924 INTRA-LIGAND FREE ENERGY PREDICTED BY IDOCK:    0.06 KCAL/MOL
REMARK 927      BINDING AFFINITY PREDICTED BY RF-SCORE:    0.00 PKD
ROOT
HETATM    1  C   UNL     1     -10.461   4.418  73.171  1.00  0.00    -0.251 C  
HETATM    2  C   UNL     1     -11.549   5.404  72.766  1.00  0.00    -0.293 C  
ENDROOT
BRANCH   2   3
HETATM    3  C   UNL     1     -11.062   6.843  72.935  1.00  0.00    -0.297 C  
BRANCH   3   4
HETATM    4  C   UNL     1     -10.523   7.475  71.649  1.00  0.00    -0.226 C  
HETATM    5  C   UNL     1     -11.170   8.790  71.243  1.00  0.00    -0.284 C  
HETATM    6  N   UNL     1     -10.133   9.471  70.500  1.00  0.00    -0.270 N  
HETATM    7  C   UNL     1      -8.904   9.145  71.038  1.00  0.00    -0.202 C  
HETATM    8  O   UNL     1      -7.849   9.745  70.891  1.00  0.00    -0.299 OA 
HETATM    9  C   UNL     1      -9.042   7.844  71.795  1.00  0.00    -0.188 C  
BRANCH   6  10
HETATM   10  C   UNL     1     -10.452  10.650  69.669  1.00  0.00    -0.179 C  
BRANCH  10  11
HETATM   11  C   UNL     1     -10.042  10.529  68.190  1.00  0.00    -0.180 C  
HETATM   12  C   UNL     1     -10.859  11.381  67.236  1.00  0.00    -0.311 C  
ENDBRANCH  10  11
BRANCH  10  13
HETATM   13  C   UNL     1     -11.818  11.391  69.808  1.00  0.00    -0.364 C  
HETATM   14  N   UNL     1     -11.827  12.683  70.232  1.00  0.00    -0.537 N  
HETATM   15  O   UNL     1     -12.883  10.864  69.486  1.00  0.00    -0.211 OA 
HETATM   16  H1  UNL     1     -12.720  13.167  70.323  1.00  0.00     0.000 HD 
HETATM   17  H2  UNL     1     -10.954  13.161  70.456  1.00  0.00     0.000 HD 
ENDBRANCH  10  13
ENDBRANCH   6  10
ENDBRANCH   3   4
ENDBRANCH   2   3
TORSDOF 5
ENDMDL
MODEL      204
REMARK 921   NORMALIZED FREE ENERGY PREDICTED BY IDOCK:   -2.69 KCAL/MOL
REMARK 922        TOTAL FREE ENERGY PREDICTED BY IDOCK:   -4.04 KCAL/MOL
REMARK 923 INTER-LIGAND FREE ENERGY PREDICTED BY IDOCK:   -3.52 KCAL/MOL
REMARK 924 INTRA-LIGAND FREE ENERGY PREDICTED BY IDOCK:   -0.52 KCAL/MOL
REMARK 927      BINDING AFFINITY PREDICTED BY RF-SCORE:    0.00 PKD
ROOT
HETATM    1  C   UNL     1     -11.830   9.753  71.143  1.00  0.00    -0.466 C  
HETATM    2  C   UNL     1     -10.788   8.676  70.866  1.00  0.00    -0.288 C  
ENDROOT
BRANCH   2   3
HETATM    3  C   UNL     1     -10.219   8.825  69.456  1.00  0.00    -0.208 C  
BRANCH   3   4
HETATM    4  C   UNL     1     -10.483  10.192  68.818  1.00  0.00    -0.223 C  
HETATM    5  C   UNL     1      -9.271  11.100  68.686  1.00  0.00    -0.171 C  
HETATM    6  N   UNL     1      -9.583  11.929  67.543  1.00  0.00    -0.173 N  
HETATM    7  C   UNL     1     -10.318  11.191  66.637  1.00  0.00    -0.241 C  
HETATM    8  O   UNL     1     -10.493  11.436  65.452  1.00  0.00    -0.264 OA 
HETATM    9  C   UNL     1     -10.966  10.040  67.370  1.00  0.00    -0.258 C  
BRANCH   6  10
HETATM   10  C   UNL     1      -8.802  13.151  67.263  1.00  0.00    -0.208 C  
BRANCH  10  11
HETATM   11  C   UNL     1      -9.456  14.460  67.743  1.00  0.00    -0.211 C  
HETATM   12  C   UNL     1     -10.750  14.817  67.035  1.00  0.00    -0.300 C  
ENDBRANCH  10  11
BRANCH  10  13
HETATM   13  C   UNL     1      -7.257  13.191  67.480  1.00  0.00    -0.151 C  
HETATM   14  N   UNL     1      -6.469  12.351  66.756  1.00  0.00    -0.268 N  
HETATM   15  O   UNL     1      -6.723  13.999  68.239  1.00  0.00    -0.086 OA 
HETATM   16  H1  UNL     1      -5.459  12.377  66.899  1.00  0.00     0.000 HD 
HETATM   17  H2  UNL     1      -6.880  11.706  66.082  1.00  0.00     0.000 HD 
ENDBRANCH  10  13
ENDBRANCH   6  10
ENDBRANCH   3   4
ENDBRANCH   2   3
TORSDOF 5
ENDMDL
MODEL      205
REMARK 921   NORMALIZED FREE ENERGY PREDICTED BY IDOCK:   -2.68 KCAL/MOL
REMARK 922        TOTAL FREE ENERGY PREDICTED BY IDOCK:   -4.01 KCAL/MOL
REMARK 923 INTER-LIGAND FREE ENERGY PREDICTED BY IDOCK:   -3.51 KCAL/MOL
REMARK 924 INTRA-LIGAND FREE ENERGY PREDICTED BY IDOCK:   -0.50 KCAL/MOL
REMARK 927      BINDING AFFINITY PREDICTED BY RF-SCORE:    0.00 PKD
ROOT
HETATM    1  C   UNL     1      -9.005   8.296  66.237  1.00  0.00    -0.221 C  
HETATM    2  C   UNL     1     -10.394   8.200  66.854  1.00  0.00    -0.401 C  
ENDROOT
BRANCH   2   3
HETATM    3  C   UNL     1     -10.644   9.370  67.805  1.00  0.00    -0.317 C  
BRANCH   3   4
HETATM    4  C   UNL     1     -10.637   8.983  69.286  1.00  0.00    -0.226 C  
HETATM    5  C   UNL     1     -10.322   7.525  69.582  1.00  0.00    -0.225 C  
HETATM    6  N   UNL     1      -9.731   7.560  70.902  1.00  0.00    -0.173 N  
HETATM    7  C   UNL     1      -9.016   8.733  71.044  1.00  0.00    -0.217 C  
HETATM    8  O   UNL     1      -8.148   8.973  71.871  1.00  0.00    -0.359 OA 
HETATM    9  C   UNL     1      -9.541   9.739  70.048  1.00  0.00    -0.282 C  
BRANCH   6  10
HETATM   10  C   UNL     1      -9.564   6.319  71.686  1.00  0.00    -0.154 C  
BRANCH  10  11
HETATM   11  C   UNL     1     -10.770   5.363  71.649  1.00  0.00    -0.266 C  
HETATM   12  C   UNL     1     -11.404   5.093  73.002  1.00  0.00    -0.381 C  
ENDBRANCH  10  11
BRANCH  10  13
HETATM   13  C   UNL     1      -8.223   5.522  71.660  1.00  0.00    -0.119 C  
HETATM   14  N   UNL     1      -7.053   6.194  71.829  1.00  0.00    -0.083 N  
HETATM   15  O   UNL     1      -8.193   4.296  71.554  1.00  0.00    -0.087 OA 
HETATM   16  H1  UNL     1      -6.177   5.673  71.812  1.00  0.00     0.000 HD 
HETATM   17  H2  UNL     1      -7.051   7.205  71.971  1.00  0.00     0.000 HD 
ENDBRANCH  10  13
ENDBRANCH   6  10
ENDBRANCH   3   4
ENDBRANCH   2   3
TORSDOF 5
ENDMDL
MODEL      206
REMARK 921   NORMALIZED FREE ENERGY PREDICTED BY IDOCK:   -2.67 KCAL/MOL
REMARK 922        TOTAL FREE ENERGY PREDICTED BY IDOCK:   -4.00 KCAL/MOL
REMARK 923 INTER-LIGAND FREE ENERGY PREDICTED BY IDOCK:   -4.02 KCAL/MOL
REMARK 924 INTRA-LIGAND FREE ENERGY PREDICTED BY IDOCK:    0.01 KCAL/MOL
REMARK 927      BINDING AFFINITY PREDICTED BY RF-SCORE:    0.00 PKD
ROOT
HETATM    1  C   UNL     1      -8.726   4.779  66.801  1.00  0.00    -0.107 C  
HETATM    2  C   UNL     1      -9.868   4.500  67.770  1.00  0.00    -0.169 C  
ENDROOT
BRANCH   2   3
HETATM    3  C   UNL     1      -9.331   4.265  69.182  1.00  0.00    -0.229 C  
BRANCH   3   4
HETATM    4  C   UNL     1      -9.476   5.471  70.114  1.00  0.00    -0.210 C  
HETATM    5  C   UNL     1     -10.117   6.705  69.497  1.00  0.00    -0.177 C  
HETATM    6  N   UNL     1     -10.731   7.374  70.622  1.00  0.00    -0.225 N  
HETATM    7  C   UNL     1     -11.172   6.427  71.525  1.00  0.00    -0.284 C  
HETATM    8  O   UNL     1     -11.992   6.582  72.418  1.00  0.00    -0.255 OA 
HETATM    9  C   UNL     1     -10.401   5.148  71.294  1.00  0.00    -0.276 C  
BRANCH   6  10
HETATM   10  C   UNL     1     -11.197   8.771  70.505  1.00  0.00    -0.247 C  
BRANCH  10  11
HETATM   11  C   UNL     1     -11.693   9.399  71.820  1.00  0.00    -0.444 C  
HETATM   12  C   UNL     1     -13.106   9.952  71.764  1.00  0.00    -0.553 C  
ENDBRANCH  10  11
BRANCH  10  13
HETATM   13  C   UNL     1     -10.413   9.815  69.652  1.00  0.00    -0.242 C  
HETATM   14  N   UNL     1      -9.151  10.157  70.026  1.00  0.00    -0.390 N  
HETATM   15  O   UNL     1     -10.875  10.294  68.616  1.00  0.00    -0.210 OA 
HETATM   16  H1  UNL     1      -8.639  10.840  69.468  1.00  0.00     0.000 HD 
HETATM   17  H2  UNL     1      -8.723   9.737  70.851  1.00  0.00     0.000 HD 
ENDBRANCH  10  13
ENDBRANCH   6  10
ENDBRANCH   3   4
ENDBRANCH   2   3
TORSDOF 5
ENDMDL
MODEL      207
REMARK 921   NORMALIZED FREE ENERGY PREDICTED BY IDOCK:   -2.67 KCAL/MOL
REMARK 922        TOTAL FREE ENERGY PREDICTED BY IDOCK:   -4.00 KCAL/MOL
REMARK 923 INTER-LIGAND FREE ENERGY PREDICTED BY IDOCK:   -3.65 KCAL/MOL
REMARK 924 INTRA-LIGAND FREE ENERGY PREDICTED BY IDOCK:   -0.35 KCAL/MOL
REMARK 927      BINDING AFFINITY PREDICTED BY RF-SCORE:    0.00 PKD
ROOT
HETATM    1  C   UNL     1     -10.668   5.223  73.670  1.00  0.00    -0.343 C  
HETATM    2  C   UNL     1     -10.015   6.032  72.556  1.00  0.00    -0.195 C  
ENDROOT
BRANCH   2   3
HETATM    3  C   UNL     1     -10.852   7.267  72.226  1.00  0.00    -0.274 C  
BRANCH   3   4
HETATM    4  C   UNL     1     -11.324   7.331  70.770  1.00  0.00    -0.312 C  
HETATM    5  C   UNL     1     -10.580   8.317  69.883  1.00  0.00    -0.232 C  
HETATM    6  N   UNL     1     -10.697   7.747  68.559  1.00  0.00    -0.100 N  
HETATM    7  C   UNL     1     -10.692   6.369  68.659  1.00  0.00    -0.285 C  
HETATM    8  O   UNL     1     -10.463   5.564  67.768  1.00  0.00    -0.205 OA 
HETATM    9  C   UNL     1     -11.106   5.989  70.061  1.00  0.00    -0.451 C  
BRANCH   6  10
HETATM   10  C   UNL     1     -10.375   8.549  67.361  1.00  0.00    -0.286 C  
BRANCH  10  11
HETATM   11  C   UNL     1     -10.745  10.040  67.464  1.00  0.00    -0.339 C  
HETATM   12  C   UNL     1      -9.576  10.962  67.760  1.00  0.00    -0.176 C  
ENDBRANCH  10  11
BRANCH  10  13
HETATM   13  C   UNL     1      -9.024   8.362  66.604  1.00  0.00    -0.151 C  
HETATM   14  N   UNL     1      -7.969   7.813  67.263  1.00  0.00    -0.116 N  
HETATM   15  O   UNL     1      -8.899   8.639  65.411  1.00  0.00    -0.183 OA 
HETATM   16  H1  UNL     1      -7.086   7.692  66.768  1.00  0.00     0.000 HD 
HETATM   17  H2  UNL     1      -8.059   7.527  68.238  1.00  0.00     0.000 HD 
ENDBRANCH  10  13
ENDBRANCH   6  10
ENDBRANCH   3   4
ENDBRANCH   2   3
TORSDOF 5
ENDMDL
MODEL      208
REMARK 921   NORMALIZED FREE ENERGY PREDICTED BY IDOCK:   -2.66 KCAL/MOL
REMARK 922        TOTAL FREE ENERGY PREDICTED BY IDOCK:   -3.99 KCAL/MOL
REMARK 923 INTER-LIGAND FREE ENERGY PREDICTED BY IDOCK:   -3.81 KCAL/MOL
REMARK 924 INTRA-LIGAND FREE ENERGY PREDICTED BY IDOCK:   -0.18 KCAL/MOL
REMARK 927      BINDING AFFINITY PREDICTED BY RF-SCORE:    0.00 PKD
ROOT
HETATM    1  C   UNL     1      -5.682   8.727  72.160  1.00  0.00    -0.062 C  
HETATM    2  C   UNL     1      -6.280   8.207  70.859  1.00  0.00    -0.033 C  
ENDROOT
BRANCH   2   3
HETATM    3  C   UNL     1      -7.179   9.264  70.219  1.00  0.00    -0.087 C  
BRANCH   3   4
HETATM    4  C   UNL     1      -8.642   8.834  70.072  1.00  0.00    -0.136 C  
HETATM    5  C   UNL     1      -9.228   8.086  71.259  1.00  0.00    -0.150 C  
HETATM    6  N   UNL     1     -10.641   8.388  71.194  1.00  0.00    -0.208 N  
HETATM    7  C   UNL     1     -10.806   9.669  70.704  1.00  0.00    -0.320 C  
HETATM    8  O   UNL     1     -11.801  10.374  70.796  1.00  0.00    -0.312 OA 
HETATM    9  C   UNL     1      -9.563  10.052  69.935  1.00  0.00    -0.233 C  
BRANCH   6  10
HETATM   10  C   UNL     1     -11.615   7.610  71.986  1.00  0.00    -0.291 C  
BRANCH  10  11
HETATM   11  C   UNL     1     -12.756   6.978  71.168  1.00  0.00    -0.361 C  
HETATM   12  C   UNL     1     -14.150   7.376  71.615  1.00  0.00    -0.552 C  
ENDBRANCH  10  11
BRANCH  10  13
HETATM   13  C   UNL     1     -11.148   6.649  73.123  1.00  0.00    -0.171 C  
HETATM   14  N   UNL     1     -11.642   5.382  73.158  1.00  0.00    -0.531 N  
HETATM   15  O   UNL     1     -10.300   6.979  73.951  1.00  0.00    -0.363 OA 
HETATM   16  H1  UNL     1     -11.337   4.754  73.902  1.00  0.00     0.000 HD 
HETATM   17  H2  UNL     1     -12.307   5.065  72.453  1.00  0.00     0.000 HD 
ENDBRANCH  10  13
ENDBRANCH   6  10
ENDBRANCH   3   4
ENDBRANCH   2   3
TORSDOF 5
ENDMDL
MODEL      209
REMARK 921   NORMALIZED FREE ENERGY PREDICTED BY IDOCK:   -2.65 KCAL/MOL
REMARK 922        TOTAL FREE ENERGY PREDICTED BY IDOCK:   -3.98 KCAL/MOL
REMARK 923 INTER-LIGAND FREE ENERGY PREDICTED BY IDOCK:   -3.61 KCAL/MOL
REMARK 924 INTRA-LIGAND FREE ENERGY PREDICTED BY IDOCK:   -0.38 KCAL/MOL
REMARK 927      BINDING AFFINITY PREDICTED BY RF-SCORE:    0.00 PKD
ROOT
HETATM    1  C   UNL     1      -9.238   5.269  65.759  1.00  0.00    -0.159 C  
HETATM    2  C   UNL     1      -9.853   4.653  67.009  1.00  0.00    -0.232 C  
ENDROOT
BRANCH   2   3
HETATM    3  C   UNL     1      -8.804   4.507  68.110  1.00  0.00    -0.123 C  
BRANCH   3   4
HETATM    4  C   UNL     1      -9.086   5.348  69.358  1.00  0.00    -0.135 C  
HETATM    5  C   UNL     1      -9.030   6.854  69.161  1.00  0.00    -0.133 C  
HETATM    6  N   UNL     1      -9.930   7.369  70.169  1.00  0.00    -0.184 N  
HETATM    7  C   UNL     1     -10.967   6.473  70.347  1.00  0.00    -0.298 C  
HETATM    8  O   UNL     1     -12.052   6.692  70.865  1.00  0.00    -0.377 OA 
HETATM    9  C   UNL     1     -10.514   5.114  69.867  1.00  0.00    -0.296 C  
BRANCH   6  10
HETATM   10  C   UNL     1      -9.930   8.804  70.518  1.00  0.00    -0.189 C  
BRANCH  10  11
HETATM   11  C   UNL     1      -8.532   9.434  70.661  1.00  0.00    -0.239 C  
HETATM   12  C   UNL     1      -8.111  10.310  69.495  1.00  0.00    -0.170 C  
ENDBRANCH  10  11
BRANCH  10  13
HETATM   13  C   UNL     1     -10.921   9.800  69.841  1.00  0.00    -0.264 C  
HETATM   14  N   UNL     1     -11.222   9.639  68.524  1.00  0.00    -0.494 N  
HETATM   15  O   UNL     1     -11.489  10.691  70.474  1.00  0.00    -0.311 OA 
HETATM   16  H1  UNL     1     -11.870  10.290  68.082  1.00  0.00     0.000 HD 
HETATM   17  H2  UNL     1     -10.806   8.877  67.987  1.00  0.00     0.000 HD 
ENDBRANCH  10  13
ENDBRANCH   6  10
ENDBRANCH   3   4
ENDBRANCH   2   3
TORSDOF 5
ENDMDL
MODEL      210
REMARK 921   NORMALIZED FREE ENERGY PREDICTED BY IDOCK:   -2.65 KCAL/MOL
REMARK 922        TOTAL FREE ENERGY PREDICTED BY IDOCK:   -3.98 KCAL/MOL
REMARK 923 INTER-LIGAND FREE ENERGY PREDICTED BY IDOCK:   -3.66 KCAL/MOL
REMARK 924 INTRA-LIGAND FREE ENERGY PREDICTED BY IDOCK:   -0.32 KCAL/MOL
REMARK 927      BINDING AFFINITY PREDICTED BY RF-SCORE:    0.00 PKD
ROOT
HETATM    1  C   UNL     1      -8.839   5.088  72.154  1.00  0.00    -0.137 C  
HETATM    2  C   UNL     1     -10.120   4.728  71.412  1.00  0.00    -0.259 C  
ENDROOT
BRANCH   2   3
HETATM    3  C   UNL     1     -11.131   5.870  71.496  1.00  0.00    -0.314 C  
BRANCH   3   4
HETATM    4  C   UNL     1     -11.335   6.622  70.178  1.00  0.00    -0.440 C  
HETATM    5  C   UNL     1     -10.581   7.936  70.048  1.00  0.00    -0.242 C  
HETATM    6  N   UNL     1     -10.380   8.080  68.624  1.00  0.00    -0.207 N  
HETATM    7  C   UNL     1     -10.210   6.829  68.063  1.00  0.00    -0.171 C  
HETATM    8  O   UNL     1      -9.719   6.567  66.975  1.00  0.00    -0.139 OA 
HETATM    9  C   UNL     1     -10.817   5.802  68.990  1.00  0.00    -0.330 C  
BRANCH   6  10
HETATM   10  C   UNL     1      -9.955   9.373  68.049  1.00  0.00    -0.176 C  
BRANCH  10  11
HETATM   11  C   UNL     1     -10.792   9.853  66.850  1.00  0.00    -0.137 C  
HETATM   12  C   UNL     1     -10.066  10.800  65.911  1.00  0.00    -0.314 C  
ENDBRANCH  10  11
BRANCH  10  13
HETATM   13  C   UNL     1      -9.558  10.572  68.965  1.00  0.00    -0.202 C  
HETATM   14  N   UNL     1     -10.523  11.187  69.700  1.00  0.00    -0.451 N  
HETATM   15  O   UNL     1      -8.390  10.939  69.092  1.00  0.00    -0.141 OA 
HETATM   16  H1  UNL     1     -10.263  11.971  70.298  1.00  0.00     0.000 HD 
HETATM   17  H2  UNL     1     -11.491  10.870  69.654  1.00  0.00     0.000 HD 
ENDBRANCH  10  13
ENDBRANCH   6  10
ENDBRANCH   3   4
ENDBRANCH   2   3
TORSDOF 5
ENDMDL
MODEL      211
REMARK 921   NORMALIZED FREE ENERGY PREDICTED BY IDOCK:   -2.65 KCAL/MOL
REMARK 922        TOTAL FREE ENERGY PREDICTED BY IDOCK:   -3.97 KCAL/MOL
REMARK 923 INTER-LIGAND FREE ENERGY PREDICTED BY IDOCK:   -3.65 KCAL/MOL
REMARK 924 INTRA-LIGAND FREE ENERGY PREDICTED BY IDOCK:   -0.33 KCAL/MOL
REMARK 927      BINDING AFFINITY PREDICTED BY RF-SCORE:    0.00 PKD
ROOT
HETATM    1  C   UNL     1      -6.470  11.795  68.134  1.00  0.00    -0.051 C  
HETATM    2  C   UNL     1      -7.008  11.057  69.353  1.00  0.00    -0.126 C  
ENDROOT
BRANCH   2   3
HETATM    3  C   UNL     1      -8.456  10.624  69.126  1.00  0.00    -0.134 C  
BRANCH   3   4
HETATM    4  C   UNL     1      -8.788   9.238  69.685  1.00  0.00    -0.159 C  
HETATM    5  C   UNL     1      -9.898   9.198  70.724  1.00  0.00    -0.270 C  
HETATM    6  N   UNL     1     -10.457   7.872  70.582  1.00  0.00    -0.211 N  
HETATM    7  C   UNL     1     -10.384   7.492  69.257  1.00  0.00    -0.209 C  
HETATM    8  O   UNL     1     -11.017   6.601  68.707  1.00  0.00    -0.263 OA 
HETATM    9  C   UNL     1      -9.309   8.310  68.581  1.00  0.00    -0.143 C  
BRANCH   6  10
HETATM   10  C   UNL     1     -11.357   7.319  71.615  1.00  0.00    -0.254 C  
BRANCH  10  11
HETATM   11  C   UNL     1     -12.845   7.667  71.428  1.00  0.00    -0.354 C  
HETATM   12  C   UNL     1     -13.266   8.991  72.039  1.00  0.00    -0.486 C  
ENDBRANCH  10  11
BRANCH  10  13
HETATM   13  C   UNL     1     -11.189   5.857  72.134  1.00  0.00    -0.287 C  
HETATM   14  N   UNL     1     -11.959   5.434  73.171  1.00  0.00    -0.493 N  
HETATM   15  O   UNL     1     -10.427   5.055  71.594  1.00  0.00    -0.207 OA 
HETATM   16  H1  UNL     1     -11.849   4.478  73.510  1.00  0.00     0.000 HD 
HETATM   17  H2  UNL     1     -12.637   6.062  73.604  1.00  0.00     0.000 HD 
ENDBRANCH  10  13
ENDBRANCH   6  10
ENDBRANCH   3   4
ENDBRANCH   2   3
TORSDOF 5
ENDMDL
MODEL      212
REMARK 921   NORMALIZED FREE ENERGY PREDICTED BY IDOCK:   -2.64 KCAL/MOL
REMARK 922        TOTAL FREE ENERGY PREDICTED BY IDOCK:   -3.97 KCAL/MOL
REMARK 923 INTER-LIGAND FREE ENERGY PREDICTED BY IDOCK:   -3.46 KCAL/MOL
REMARK 924 INTRA-LIGAND FREE ENERGY PREDICTED BY IDOCK:   -0.51 KCAL/MOL
REMARK 927      BINDING AFFINITY PREDICTED BY RF-SCORE:    0.00 PKD
ROOT
HETATM    1  C   UNL     1      -5.271   9.083  72.678  1.00  0.00    -0.069 C  
HETATM    2  C   UNL     1      -5.393   8.834  71.180  1.00  0.00    -0.033 C  
ENDROOT
BRANCH   2   3
HETATM    3  C   UNL     1      -6.643   9.511  70.620  1.00  0.00    -0.103 C  
BRANCH   3   4
HETATM    4  C   UNL     1      -7.856   8.584  70.503  1.00  0.00    -0.086 C  
HETATM    5  C   UNL     1      -9.128   9.080  71.175  1.00  0.00    -0.246 C  
HETATM    6  N   UNL     1     -10.187   8.464  70.406  1.00  0.00    -0.194 N  
HETATM    7  C   UNL     1      -9.787   8.364  69.088  1.00  0.00    -0.183 C  
HETATM    8  O   UNL     1     -10.501   8.194  68.109  1.00  0.00    -0.210 OA 
HETATM    9  C   UNL     1      -8.278   8.412  69.039  1.00  0.00    -0.118 C  
BRANCH   6  10
HETATM   10  C   UNL     1     -11.573   8.442  70.915  1.00  0.00    -0.262 C  
BRANCH  10  11
HETATM   11  C   UNL     1     -11.802   7.520  72.127  1.00  0.00    -0.338 C  
HETATM   12  C   UNL     1     -11.396   6.074  71.906  1.00  0.00    -0.335 C  
ENDBRANCH  10  11
BRANCH  10  13
HETATM   13  C   UNL     1     -12.404   9.755  71.052  1.00  0.00    -0.332 C  
HETATM   14  N   UNL     1     -12.634  10.508  69.943  1.00  0.00    -0.535 N  
HETATM   15  O   UNL     1     -12.912  10.100  72.120  1.00  0.00    -0.415 OA 
HETATM   16  H1  UNL     1     -13.178  11.367  70.033  1.00  0.00     0.000 HD 
HETATM   17  H2  UNL     1     -12.270  10.219  69.035  1.00  0.00     0.000 HD 
ENDBRANCH  10  13
ENDBRANCH   6  10
ENDBRANCH   3   4
ENDBRANCH   2   3
TORSDOF 5
ENDMDL
MODEL      213
REMARK 921   NORMALIZED FREE ENERGY PREDICTED BY IDOCK:   -2.61 KCAL/MOL
REMARK 922        TOTAL FREE ENERGY PREDICTED BY IDOCK:   -3.93 KCAL/MOL
REMARK 923 INTER-LIGAND FREE ENERGY PREDICTED BY IDOCK:   -4.06 KCAL/MOL
REMARK 924 INTRA-LIGAND FREE ENERGY PREDICTED BY IDOCK:    0.13 KCAL/MOL
REMARK 927      BINDING AFFINITY PREDICTED BY RF-SCORE:    0.00 PKD
ROOT
HETATM    1  C   UNL     1      -9.270  17.542  66.656  1.00  0.00    -0.277 C  
HETATM    2  C   UNL     1      -8.244  16.863  67.555  1.00  0.00    -0.191 C  
ENDROOT
BRANCH   2   3
HETATM    3  C   UNL     1      -7.983  15.431  67.089  1.00  0.00    -0.251 C  
BRANCH   3   4
HETATM    4  C   UNL     1      -9.201  14.509  67.192  1.00  0.00    -0.233 C  
HETATM    5  C   UNL     1      -9.669  13.892  65.883  1.00  0.00    -0.214 C  
HETATM    6  N   UNL     1     -10.293  12.652  66.289  1.00  0.00    -0.248 N  
HETATM    7  C   UNL     1      -9.625  12.150  67.388  1.00  0.00    -0.177 C  
HETATM    8  O   UNL     1      -9.654  11.004  67.812  1.00  0.00    -0.165 OA 
HETATM    9  C   UNL     1      -8.893  13.286  68.064  1.00  0.00    -0.190 C  
BRANCH   6  10
HETATM   10  C   UNL     1     -11.148  11.897  65.352  1.00  0.00    -0.306 C  
BRANCH  10  11
HETATM   11  C   UNL     1     -12.364  12.675  64.815  1.00  0.00    -0.556 C  
HETATM   12  C   UNL     1     -12.015  13.883  63.964  1.00  0.00    -0.425 C  
ENDBRANCH  10  11
BRANCH  10  13
HETATM   13  C   UNL     1     -10.528  10.998  64.237  1.00  0.00    -0.359 C  
HETATM   14  N   UNL     1      -9.671  10.004  64.592  1.00  0.00    -0.361 N  
HETATM   15  O   UNL     1     -10.838  11.119  63.051  1.00  0.00    -0.110 OA 
HETATM   16  H1  UNL     1      -9.266   9.417  63.863  1.00  0.00     0.000 HD 
HETATM   17  H2  UNL     1      -9.437   9.848  65.573  1.00  0.00     0.000 HD 
ENDBRANCH  10  13
ENDBRANCH   6  10
ENDBRANCH   3   4
ENDBRANCH   2   3
TORSDOF 5
ENDMDL
MODEL      214
REMARK 921   NORMALIZED FREE ENERGY PREDICTED BY IDOCK:   -2.60 KCAL/MOL
REMARK 922        TOTAL FREE ENERGY PREDICTED BY IDOCK:   -3.91 KCAL/MOL
REMARK 923 INTER-LIGAND FREE ENERGY PREDICTED BY IDOCK:   -3.76 KCAL/MOL
REMARK 924 INTRA-LIGAND FREE ENERGY PREDICTED BY IDOCK:   -0.15 KCAL/MOL
REMARK 927      BINDING AFFINITY PREDICTED BY RF-SCORE:    0.00 PKD
ROOT
HETATM    1  C   UNL     1     -11.041  14.802  69.482  1.00  0.00    -0.302 C  
HETATM    2  C   UNL     1     -11.853  14.848  68.194  1.00  0.00    -0.307 C  
ENDROOT
BRANCH   2   3
HETATM    3  C   UNL     1     -12.213  13.436  67.733  1.00  0.00    -0.171 C  
BRANCH   3   4
HETATM    4  C   UNL     1     -11.059  12.434  67.832  1.00  0.00    -0.283 C  
HETATM    5  C   UNL     1     -11.225  11.344  68.879  1.00  0.00    -0.248 C  
HETATM    6  N   UNL     1     -10.453  10.239  68.354  1.00  0.00    -0.189 N  
HETATM    7  C   UNL     1     -10.531  10.250  66.975  1.00  0.00    -0.244 C  
HETATM    8  O   UNL     1     -10.281   9.327  66.213  1.00  0.00    -0.273 OA 
HETATM    9  C   UNL     1     -10.902  11.644  66.526  1.00  0.00    -0.328 C  
BRANCH   6  10
HETATM   10  C   UNL     1     -10.102   9.090  69.212  1.00  0.00    -0.195 C  
BRANCH  10  11
HETATM   11  C   UNL     1      -8.592   8.811  69.333  1.00  0.00    -0.133 C  
HETATM   12  C   UNL     1      -8.120   7.562  68.612  1.00  0.00    -0.124 C  
ENDBRANCH  10  11
BRANCH  10  13
HETATM   13  C   UNL     1     -10.822   8.850  70.575  1.00  0.00    -0.236 C  
HETATM   14  N   UNL     1     -12.181   8.857  70.613  1.00  0.00    -0.487 N  
HETATM   15  O   UNL     1     -10.201   8.592  71.607  1.00  0.00    -0.240 OA 
HETATM   16  H1  UNL     1     -12.651   8.700  71.504  1.00  0.00     0.000 HD 
HETATM   17  H2  UNL     1     -12.723   9.016  69.763  1.00  0.00     0.000 HD 
ENDBRANCH  10  13
ENDBRANCH   6  10
ENDBRANCH   3   4
ENDBRANCH   2   3
TORSDOF 5
ENDMDL
MODEL      215
REMARK 921   NORMALIZED FREE ENERGY PREDICTED BY IDOCK:   -2.60 KCAL/MOL
REMARK 922        TOTAL FREE ENERGY PREDICTED BY IDOCK:   -3.91 KCAL/MOL
REMARK 923 INTER-LIGAND FREE ENERGY PREDICTED BY IDOCK:   -3.61 KCAL/MOL
REMARK 924 INTRA-LIGAND FREE ENERGY PREDICTED BY IDOCK:   -0.30 KCAL/MOL
REMARK 927      BINDING AFFINITY PREDICTED BY RF-SCORE:    0.00 PKD
ROOT
HETATM    1  C   UNL     1      -8.306   8.055  65.610  1.00  0.00    -0.146 C  
HETATM    2  C   UNL     1      -8.427   6.726  66.345  1.00  0.00    -0.126 C  
ENDROOT
BRANCH   2   3
HETATM    3  C   UNL     1      -7.621   6.752  67.643  1.00  0.00    -0.106 C  
BRANCH   3   4
HETATM    4  C   UNL     1      -8.404   6.284  68.873  1.00  0.00    -0.120 C  
HETATM    5  C   UNL     1      -8.535   7.303  69.995  1.00  0.00    -0.139 C  
HETATM    6  N   UNL     1      -9.771   6.937  70.651  1.00  0.00    -0.176 N  
HETATM    7  C   UNL     1     -10.653   6.445  69.709  1.00  0.00    -0.254 C  
HETATM    8  O   UNL     1     -11.865   6.331  69.819  1.00  0.00    -0.319 OA 
HETATM    9  C   UNL     1      -9.862   5.971  68.512  1.00  0.00    -0.156 C  
BRANCH   6  10
HETATM   10  C   UNL     1     -10.109   7.486  71.979  1.00  0.00    -0.187 C  
BRANCH  10  11
HETATM   11  C   UNL     1     -10.932   8.787  71.951  1.00  0.00    -0.435 C  
HETATM   12  C   UNL     1     -12.403   8.612  72.284  1.00  0.00    -0.449 C  
ENDBRANCH  10  11
BRANCH  10  13
HETATM   13  C   UNL     1     -10.580   6.557  73.141  1.00  0.00    -0.265 C  
HETATM   14  N   UNL     1     -10.222   6.864  74.417  1.00  0.00    -0.441 N  
HETATM   15  O   UNL     1     -11.316   5.589  72.948  1.00  0.00    -0.291 OA 
HETATM   16  H1  UNL     1     -10.530   6.256  75.176  1.00  0.00     0.000 HD 
HETATM   17  H2  UNL     1      -9.655   7.689  74.612  1.00  0.00     0.000 HD 
ENDBRANCH  10  13
ENDBRANCH   6  10
ENDBRANCH   3   4
ENDBRANCH   2   3
TORSDOF 5
ENDMDL
MODEL      216
REMARK 921   NORMALIZED FREE ENERGY PREDICTED BY IDOCK:   -2.56 KCAL/MOL
REMARK 922        TOTAL FREE ENERGY PREDICTED BY IDOCK:   -3.87 KCAL/MOL
REMARK 923 INTER-LIGAND FREE ENERGY PREDICTED BY IDOCK:   -3.32 KCAL/MOL
REMARK 924 INTRA-LIGAND FREE ENERGY PREDICTED BY IDOCK:   -0.55 KCAL/MOL
REMARK 927      BINDING AFFINITY PREDICTED BY RF-SCORE:    0.00 PKD
ROOT
HETATM    1  C   UNL     1     -12.893  10.416  71.632  1.00  0.00    -0.579 C  
HETATM    2  C   UNL     1     -12.384  11.069  70.353  1.00  0.00    -0.442 C  
ENDROOT
BRANCH   2   3
HETATM    3  C   UNL     1     -10.957  10.617  70.048  1.00  0.00    -0.325 C  
BRANCH   3   4
HETATM    4  C   UNL     1     -10.704   9.129  70.306  1.00  0.00    -0.268 C  
HETATM    5  C   UNL     1     -10.356   8.300  69.080  1.00  0.00    -0.217 C  
HETATM    6  N   UNL     1      -9.551   7.221  69.609  1.00  0.00    -0.156 N  
HETATM    7  C   UNL     1      -8.813   7.692  70.677  1.00  0.00    -0.145 C  
HETATM    8  O   UNL     1      -7.816   7.182  71.169  1.00  0.00    -0.096 OA 
HETATM    9  C   UNL     1      -9.490   8.928  71.221  1.00  0.00    -0.343 C  
BRANCH   6  10
HETATM   10  C   UNL     1      -9.265   6.024  68.793  1.00  0.00    -0.123 C  
BRANCH  10  11
HETATM   11  C   UNL     1      -8.345   6.272  67.584  1.00  0.00    -0.117 C  
HETATM   12  C   UNL     1      -9.036   6.187  66.235  1.00  0.00    -0.165 C  
ENDBRANCH  10  11
BRANCH  10  13
HETATM   13  C   UNL     1      -8.949   4.649  69.459  1.00  0.00    -0.092 C  
HETATM   14  N   UNL     1      -7.663   4.359  69.794  1.00  0.00    -0.054 N  
HETATM   15  O   UNL     1      -9.834   3.844  69.748  1.00  0.00    -0.195 OA 
HETATM   16  H1  UNL     1      -7.457   3.460  70.229  1.00  0.00     0.000 HD 
HETATM   17  H2  UNL     1      -6.916   5.030  69.613  1.00  0.00     0.000 HD 
ENDBRANCH  10  13
ENDBRANCH   6  10
ENDBRANCH   3   4
ENDBRANCH   2   3
TORSDOF 5
ENDMDL
MODEL      217
REMARK 921   NORMALIZED FREE ENERGY PREDICTED BY IDOCK:   -2.54 KCAL/MOL
REMARK 922        TOTAL FREE ENERGY PREDICTED BY IDOCK:   -3.84 KCAL/MOL
REMARK 923 INTER-LIGAND FREE ENERGY PREDICTED BY IDOCK:   -3.39 KCAL/MOL
REMARK 924 INTRA-LIGAND FREE ENERGY PREDICTED BY IDOCK:   -0.45 KCAL/MOL
REMARK 927      BINDING AFFINITY PREDICTED BY RF-SCORE:    0.00 PKD
ROOT
HETATM    1  C   UNL     1     -13.135  11.576  71.796  1.00  0.00    -0.503 C  
HETATM    2  C   UNL     1     -12.487  10.670  70.756  1.00  0.00    -0.480 C  
ENDROOT
BRANCH   2   3
HETATM    3  C   UNL     1     -12.887   9.214  70.986  1.00  0.00    -0.158 C  
BRANCH   3   4
HETATM    4  C   UNL     1     -11.704   8.271  71.227  1.00  0.00    -0.318 C  
HETATM    5  C   UNL     1     -10.970   7.807  69.979  1.00  0.00    -0.214 C  
HETATM    6  N   UNL     1      -9.625   7.550  70.444  1.00  0.00    -0.169 N  
HETATM    7  C   UNL     1      -9.316   8.447  71.448  1.00  0.00    -0.190 C  
HETATM    8  O   UNL     1      -8.204   8.742  71.860  1.00  0.00    -0.292 OA 
HETATM    9  C   UNL     1     -10.605   8.965  72.042  1.00  0.00    -0.388 C  
BRANCH   6  10
HETATM   10  C   UNL     1      -8.672   6.791  69.611  1.00  0.00    -0.137 C  
BRANCH  10  11
HETATM   11  C   UNL     1      -9.272   5.569  68.891  1.00  0.00    -0.141 C  
HETATM   12  C   UNL     1      -8.822   4.228  69.441  1.00  0.00    -0.138 C  
ENDBRANCH  10  11
BRANCH  10  13
HETATM   13  C   UNL     1      -7.638   7.520  68.697  1.00  0.00    -0.110 C  
HETATM   14  N   UNL     1      -7.671   8.878  68.619  1.00  0.00    -0.096 N  
HETATM   15  O   UNL     1      -6.755   6.912  68.093  1.00  0.00    -0.062 OA 
HETATM   16  H1  UNL     1      -6.996   9.354  68.022  1.00  0.00     0.000 HD 
HETATM   17  H2  UNL     1      -8.360   9.411  69.149  1.00  0.00     0.000 HD 
ENDBRANCH  10  13
ENDBRANCH   6  10
ENDBRANCH   3   4
ENDBRANCH   2   3
TORSDOF 5
ENDMDL
MODEL      218
REMARK 921   NORMALIZED FREE ENERGY PREDICTED BY IDOCK:   -2.53 KCAL/MOL
REMARK 922        TOTAL FREE ENERGY PREDICTED BY IDOCK:   -3.82 KCAL/MOL
REMARK 923 INTER-LIGAND FREE ENERGY PREDICTED BY IDOCK:   -4.42 KCAL/MOL
REMARK 924 INTRA-LIGAND FREE ENERGY PREDICTED BY IDOCK:    0.60 KCAL/MOL
REMARK 927      BINDING AFFINITY PREDICTED BY RF-SCORE:    0.00 PKD
ROOT
HETATM    1  C   UNL     1     -13.165  12.581  72.157  1.00  0.00    -0.508 C  
HETATM    2  C   UNL     1     -13.105  11.145  71.653  1.00  0.00    -0.529 C  
ENDROOT
BRANCH   2   3
HETATM    3  C   UNL     1     -12.605  11.101  70.209  1.00  0.00    -0.288 C  
BRANCH   3   4
HETATM    4  C   UNL     1     -11.551  12.162  69.881  1.00  0.00    -0.297 C  
HETATM    5  C   UNL     1     -10.782  11.945  68.587  1.00  0.00    -0.235 C  
HETATM    6  N   UNL     1     -10.409  13.282  68.178  1.00  0.00    -0.238 N  
HETATM    7  C   UNL     1     -11.405  14.162  68.554  1.00  0.00    -0.283 C  
HETATM    8  O   UNL     1     -11.596  15.290  68.123  1.00  0.00    -0.337 OA 
HETATM    9  C   UNL     1     -12.200  13.537  69.677  1.00  0.00    -0.304 C  
BRANCH   6  10
HETATM   10  C   UNL     1      -9.389  13.493  67.132  1.00  0.00    -0.240 C  
BRANCH  10  11
HETATM   11  C   UNL     1      -9.747  12.909  65.753  1.00  0.00    -0.155 C  
HETATM   12  C   UNL     1     -11.095  13.349  65.211  1.00  0.00    -0.305 C  
ENDBRANCH  10  11
BRANCH  10  13
HETATM   13  C   UNL     1      -8.657  14.862  66.981  1.00  0.00    -0.238 C  
HETATM   14  N   UNL     1      -7.610  15.144  67.802  1.00  0.00    -0.140 N  
HETATM   15  O   UNL     1      -8.957  15.671  66.102  1.00  0.00    -0.323 OA 
HETATM   16  H1  UNL     1      -7.132  16.039  67.703  1.00  0.00     0.000 HD 
HETATM   17  H2  UNL     1      -7.307  14.470  68.505  1.00  0.00     0.000 HD 
ENDBRANCH  10  13
ENDBRANCH   6  10
ENDBRANCH   3   4
ENDBRANCH   2   3
TORSDOF 5
ENDMDL
MODEL      219
REMARK 921   NORMALIZED FREE ENERGY PREDICTED BY IDOCK:   -2.52 KCAL/MOL
REMARK 922        TOTAL FREE ENERGY PREDICTED BY IDOCK:   -3.81 KCAL/MOL
REMARK 923 INTER-LIGAND FREE ENERGY PREDICTED BY IDOCK:   -3.29 KCAL/MOL
REMARK 924 INTRA-LIGAND FREE ENERGY PREDICTED BY IDOCK:   -0.52 KCAL/MOL
REMARK 927      BINDING AFFINITY PREDICTED BY RF-SCORE:    0.00 PKD
ROOT
HETATM    1  C   UNL     1     -10.214   3.366  73.443  1.00  0.00    -0.217 C  
HETATM    2  C   UNL     1     -11.387   4.337  73.474  1.00  0.00    -0.316 C  
ENDROOT
BRANCH   2   3
HETATM    3  C   UNL     1     -10.981   5.691  72.895  1.00  0.00    -0.323 C  
BRANCH   3   4
HETATM    4  C   UNL     1      -9.978   5.602  71.742  1.00  0.00    -0.222 C  
HETATM    5  C   UNL     1     -10.481   6.097  70.394  1.00  0.00    -0.230 C  
HETATM    6  N   UNL     1      -9.281   6.536  69.718  1.00  0.00    -0.145 N  
HETATM    7  C   UNL     1      -8.401   7.052  70.649  1.00  0.00    -0.127 C  
HETATM    8  O   UNL     1      -7.445   7.784  70.437  1.00  0.00    -0.075 OA 
HETATM    9  C   UNL     1      -8.755   6.489  72.006  1.00  0.00    -0.132 C  
BRANCH   6  10
HETATM   10  C   UNL     1      -9.290   6.804  68.265  1.00  0.00    -0.124 C  
BRANCH  10  11
HETATM   11  C   UNL     1      -8.576   5.742  67.408  1.00  0.00    -0.105 C  
HETATM   12  C   UNL     1      -8.719   4.319  67.916  1.00  0.00    -0.119 C  
ENDBRANCH  10  11
BRANCH  10  13
HETATM   13  C   UNL     1     -10.574   7.325  67.547  1.00  0.00    -0.274 C  
HETATM   14  N   UNL     1     -10.888   8.645  67.637  1.00  0.00    -0.493 N  
HETATM   15  O   UNL     1     -11.277   6.593  66.851  1.00  0.00    -0.391 OA 
HETATM   16  H1  UNL     1     -11.727   8.985  67.168  1.00  0.00     0.000 HD 
HETATM   17  H2  UNL     1     -10.294   9.285  68.164  1.00  0.00     0.000 HD 
ENDBRANCH  10  13
ENDBRANCH   6  10
ENDBRANCH   3   4
ENDBRANCH   2   3
TORSDOF 5
ENDMDL
MODEL      220
REMARK 921   NORMALIZED FREE ENERGY PREDICTED BY IDOCK:   -2.50 KCAL/MOL
REMARK 922        TOTAL FREE ENERGY PREDICTED BY IDOCK:   -3.79 KCAL/MOL
REMARK 923 INTER-LIGAND FREE ENERGY PREDICTED BY IDOCK:   -3.26 KCAL/MOL
REMARK 924 INTRA-LIGAND FREE ENERGY PREDICTED BY IDOCK:   -0.52 KCAL/MOL
REMARK 927      BINDING AFFINITY PREDICTED BY RF-SCORE:    0.00 PKD
ROOT
HETATM    1  C   UNL     1      -9.070   6.476  71.582  1.00  0.00    -0.143 C  
HETATM    2  C   UNL     1     -10.095   7.116  70.655  1.00  0.00    -0.198 C  
ENDROOT
BRANCH   2   3
HETATM    3  C   UNL     1     -10.066   8.638  70.789  1.00  0.00    -0.244 C  
BRANCH   3   4
HETATM    4  C   UNL     1     -10.516   9.385  69.530  1.00  0.00    -0.229 C  
HETATM    5  C   UNL     1      -9.573  10.473  69.040  1.00  0.00    -0.202 C  
HETATM    6  N   UNL     1      -9.819  10.529  67.616  1.00  0.00    -0.164 N  
HETATM    7  C   UNL     1     -10.122   9.260  67.161  1.00  0.00    -0.236 C  
HETATM    8  O   UNL     1     -10.084   8.860  66.006  1.00  0.00    -0.260 OA 
HETATM    9  C   UNL     1     -10.607   8.434  68.329  1.00  0.00    -0.163 C  
BRANCH   6  10
HETATM   10  C   UNL     1      -9.329  11.665  66.811  1.00  0.00    -0.186 C  
BRANCH  10  11
HETATM   11  C   UNL     1     -10.303  12.853  66.709  1.00  0.00    -0.250 C  
HETATM   12  C   UNL     1     -11.762  12.494  66.921  1.00  0.00    -0.447 C  
ENDBRANCH  10  11
BRANCH  10  13
HETATM   13  C   UNL     1      -7.855  12.164  66.930  1.00  0.00    -0.069 C  
HETATM   14  N   UNL     1      -7.624  13.459  67.274  1.00  0.00    -0.339 N  
HETATM   15  O   UNL     1      -6.895  11.408  66.784  1.00  0.00    -0.132 OA 
HETATM   16  H1  UNL     1      -6.661  13.784  67.352  1.00  0.00     0.000 HD 
HETATM   17  H2  UNL     1      -8.401  14.095  67.452  1.00  0.00     0.000 HD 
ENDBRANCH  10  13
ENDBRANCH   6  10
ENDBRANCH   3   4
ENDBRANCH   2   3
TORSDOF 5
ENDMDL
MODEL      221
REMARK 921   NORMALIZED FREE ENERGY PREDICTED BY IDOCK:   -2.49 KCAL/MOL
REMARK 922        TOTAL FREE ENERGY PREDICTED BY IDOCK:   -3.77 KCAL/MOL
REMARK 923 INTER-LIGAND FREE ENERGY PREDICTED BY IDOCK:   -3.37 KCAL/MOL
REMARK 924 INTRA-LIGAND FREE ENERGY PREDICTED BY IDOCK:   -0.40 KCAL/MOL
REMARK 927      BINDING AFFINITY PREDICTED BY RF-SCORE:    0.00 PKD
ROOT
HETATM    1  C   UNL     1     -12.045  12.908  66.041  1.00  0.00    -0.484 C  
HETATM    2  C   UNL     1     -10.542  12.664  66.075  1.00  0.00    -0.294 C  
ENDROOT
BRANCH   2   3
HETATM    3  C   UNL     1     -10.078  12.356  67.498  1.00  0.00    -0.205 C  
BRANCH   3   4
HETATM    4  C   UNL     1     -10.346  10.915  67.943  1.00  0.00    -0.216 C  
HETATM    5  C   UNL     1      -9.195  10.225  68.658  1.00  0.00    -0.159 C  
HETATM    6  N   UNL     1      -9.848   9.260  69.515  1.00  0.00    -0.174 N  
HETATM    7  C   UNL     1     -11.054   9.781  69.942  1.00  0.00    -0.254 C  
HETATM    8  O   UNL     1     -11.724   9.410  70.895  1.00  0.00    -0.281 OA 
HETATM    9  C   UNL     1     -11.481  10.859  68.973  1.00  0.00    -0.371 C  
BRANCH   6  10
HETATM   10  C   UNL     1      -9.077   8.174  70.152  1.00  0.00    -0.147 C  
BRANCH  10  11
HETATM   11  C   UNL     1      -8.508   8.515  71.542  1.00  0.00    -0.221 C  
HETATM   12  C   UNL     1      -7.053   8.945  71.540  1.00  0.00    -0.078 C  
ENDBRANCH  10  11
BRANCH  10  13
HETATM   13  C   UNL     1      -9.573   6.695  70.103  1.00  0.00    -0.161 C  
HETATM   14  N   UNL     1     -10.340   6.223  71.121  1.00  0.00    -0.204 N  
HETATM   15  O   UNL     1      -9.344   5.960  69.142  1.00  0.00    -0.119 OA 
HETATM   16  H1  UNL     1     -10.664   5.256  71.088  1.00  0.00     0.000 HD 
HETATM   17  H2  UNL     1     -10.589   6.826  71.906  1.00  0.00     0.000 HD 
ENDBRANCH  10  13
ENDBRANCH   6  10
ENDBRANCH   3   4
ENDBRANCH   2   3
TORSDOF 5
ENDMDL
MODEL      222
REMARK 921   NORMALIZED FREE ENERGY PREDICTED BY IDOCK:   -2.47 KCAL/MOL
REMARK 922        TOTAL FREE ENERGY PREDICTED BY IDOCK:   -3.74 KCAL/MOL
REMARK 923 INTER-LIGAND FREE ENERGY PREDICTED BY IDOCK:   -3.30 KCAL/MOL
REMARK 924 INTRA-LIGAND FREE ENERGY PREDICTED BY IDOCK:   -0.45 KCAL/MOL
REMARK 927      BINDING AFFINITY PREDICTED BY RF-SCORE:    0.00 PKD
ROOT
HETATM    1  C   UNL     1     -12.393  13.068  63.208  1.00  0.00    -0.392 C  
HETATM    2  C   UNL     1     -11.384  12.196  63.946  1.00  0.00    -0.501 C  
ENDROOT
BRANCH   2   3
HETATM    3  C   UNL     1     -11.620  12.259  65.454  1.00  0.00    -0.412 C  
BRANCH   3   4
HETATM    4  C   UNL     1     -10.543  11.555  66.285  1.00  0.00    -0.309 C  
HETATM    5  C   UNL     1      -9.623  10.623  65.512  1.00  0.00    -0.221 C  
HETATM    6  N   UNL     1      -8.395  10.639  66.274  1.00  0.00    -0.149 N  
HETATM    7  C   UNL     1      -8.226  11.892  66.831  1.00  0.00    -0.157 C  
HETATM    8  O   UNL     1      -7.190  12.374  67.267  1.00  0.00    -0.143 OA 
HETATM    9  C   UNL     1      -9.573  12.570  66.903  1.00  0.00    -0.229 C  
BRANCH   6  10
HETATM   10  C   UNL     1      -7.345   9.628  66.034  1.00  0.00    -0.099 C  
BRANCH  10  11
HETATM   11  C   UNL     1      -7.676   8.217  66.555  1.00  0.00    -0.092 C  
HETATM   12  C   UNL     1      -6.806   7.749  67.708  1.00  0.00    -0.069 C  
ENDBRANCH  10  11
BRANCH  10  13
HETATM   13  C   UNL     1      -6.592   9.553  64.670  1.00  0.00    -0.093 C  
HETATM   14  N   UNL     1      -5.808  10.598  64.293  1.00  0.00    -0.355 N  
HETATM   15  O   UNL     1      -6.635   8.554  63.953  1.00  0.00    -0.075 OA 
HETATM   16  H1  UNL     1      -5.316  10.549  63.401  1.00  0.00     0.000 HD 
HETATM   17  H2  UNL     1      -5.712  11.418  64.892  1.00  0.00     0.000 HD 
ENDBRANCH  10  13
ENDBRANCH   6  10
ENDBRANCH   3   4
ENDBRANCH   2   3
TORSDOF 5
ENDMDL
MODEL      223
REMARK 921   NORMALIZED FREE ENERGY PREDICTED BY IDOCK:   -2.47 KCAL/MOL
REMARK 922        TOTAL FREE ENERGY PREDICTED BY IDOCK:   -3.74 KCAL/MOL
REMARK 923 INTER-LIGAND FREE ENERGY PREDICTED BY IDOCK:   -3.23 KCAL/MOL
REMARK 924 INTRA-LIGAND FREE ENERGY PREDICTED BY IDOCK:   -0.51 KCAL/MOL
REMARK 927      BINDING AFFINITY PREDICTED BY RF-SCORE:    0.00 PKD
ROOT
HETATM    1  C   UNL     1     -10.059  13.443  66.403  1.00  0.00    -0.292 C  
HETATM    2  C   UNL     1     -10.957  12.468  67.155  1.00  0.00    -0.302 C  
ENDROOT
BRANCH   2   3
HETATM    3  C   UNL     1     -10.890  11.078  66.524  1.00  0.00    -0.269 C  
BRANCH   3   4
HETATM    4  C   UNL     1     -10.153  10.041  67.376  1.00  0.00    -0.256 C  
HETATM    5  C   UNL     1     -10.760   8.647  67.385  1.00  0.00    -0.142 C  
HETATM    6  N   UNL     1      -9.631   7.779  67.634  1.00  0.00    -0.143 N  
HETATM    7  C   UNL     1      -8.507   8.320  67.042  1.00  0.00    -0.122 C  
HETATM    8  O   UNL     1      -7.462   7.744  66.772  1.00  0.00    -0.087 OA 
HETATM    9  C   UNL     1      -8.733   9.801  66.846  1.00  0.00    -0.143 C  
BRANCH   6  10
HETATM   10  C   UNL     1      -9.835   6.369  68.022  1.00  0.00    -0.123 C  
BRANCH  10  11
HETATM   11  C   UNL     1     -11.038   6.122  68.951  1.00  0.00    -0.417 C  
HETATM   12  C   UNL     1     -10.674   5.856  70.400  1.00  0.00    -0.373 C  
ENDBRANCH  10  11
BRANCH  10  13
HETATM   13  C   UNL     1      -9.691   5.215  66.981  1.00  0.00    -0.159 C  
HETATM   14  N   UNL     1      -8.495   4.579  66.864  1.00  0.00    -0.105 N  
HETATM   15  O   UNL     1     -10.642   4.820  66.306  1.00  0.00    -0.301 OA 
HETATM   16  H1  UNL     1      -8.401   3.825  66.184  1.00  0.00     0.000 HD 
HETATM   17  H2  UNL     1      -7.704   4.851  67.448  1.00  0.00     0.000 HD 
ENDBRANCH  10  13
ENDBRANCH   6  10
ENDBRANCH   3   4
ENDBRANCH   2   3
TORSDOF 5
ENDMDL
MODEL      224
REMARK 921   NORMALIZED FREE ENERGY PREDICTED BY IDOCK:   -2.47 KCAL/MOL
REMARK 922        TOTAL FREE ENERGY PREDICTED BY IDOCK:   -3.74 KCAL/MOL
REMARK 923 INTER-LIGAND FREE ENERGY PREDICTED BY IDOCK:   -3.50 KCAL/MOL
REMARK 924 INTRA-LIGAND FREE ENERGY PREDICTED BY IDOCK:   -0.24 KCAL/MOL
REMARK 927      BINDING AFFINITY PREDICTED BY RF-SCORE:    0.00 PKD
ROOT
HETATM    1  C   UNL     1     -11.035  14.801  69.485  1.00  0.00    -0.287 C  
HETATM    2  C   UNL     1     -11.858  14.817  68.203  1.00  0.00    -0.318 C  
ENDROOT
BRANCH   2   3
HETATM    3  C   UNL     1     -12.154  13.393  67.735  1.00  0.00    -0.299 C  
BRANCH   3   4
HETATM    4  C   UNL     1     -10.945  12.454  67.788  1.00  0.00    -0.267 C  
HETATM    5  C   UNL     1     -11.015  11.352  68.834  1.00  0.00    -0.226 C  
HETATM    6  N   UNL     1     -10.203  10.294  68.276  1.00  0.00    -0.153 N  
HETATM    7  C   UNL     1     -10.329  10.306  66.900  1.00  0.00    -0.239 C  
HETATM    8  O   UNL     1     -10.055   9.402  66.124  1.00  0.00    -0.292 OA 
HETATM    9  C   UNL     1     -10.790  11.680  66.473  1.00  0.00    -0.328 C  
BRANCH   6  10
HETATM   10  C   UNL     1      -9.760   9.162  69.114  1.00  0.00    -0.163 C  
BRANCH  10  11
HETATM   11  C   UNL     1     -10.879   8.478  69.921  1.00  0.00    -0.205 C  
HETATM   12  C   UNL     1     -10.828   8.738  71.416  1.00  0.00    -0.359 C  
ENDBRANCH  10  11
BRANCH  10  13
HETATM   13  C   UNL     1      -8.741   8.109  68.577  1.00  0.00    -0.134 C  
HETATM   14  N   UNL     1      -7.589   8.542  67.999  1.00  0.00    -0.097 N  
HETATM   15  O   UNL     1      -8.916   6.898  68.716  1.00  0.00    -0.132 OA 
HETATM   16  H1  UNL     1      -6.923   7.854  67.648  1.00  0.00     0.000 HD 
HETATM   17  H2  UNL     1      -7.393   9.540  67.917  1.00  0.00     0.000 HD 
ENDBRANCH  10  13
ENDBRANCH   6  10
ENDBRANCH   3   4
ENDBRANCH   2   3
TORSDOF 5
ENDMDL
MODEL      225
REMARK 921   NORMALIZED FREE ENERGY PREDICTED BY IDOCK:   -2.44 KCAL/MOL
REMARK 922        TOTAL FREE ENERGY PREDICTED BY IDOCK:   -3.71 KCAL/MOL
REMARK 923 INTER-LIGAND FREE ENERGY PREDICTED BY IDOCK:   -3.19 KCAL/MOL
REMARK 924 INTRA-LIGAND FREE ENERGY PREDICTED BY IDOCK:   -0.52 KCAL/MOL
REMARK 927      BINDING AFFINITY PREDICTED BY RF-SCORE:    0.00 PKD
ROOT
HETATM    1  C   UNL     1      -7.629   8.494  63.384  1.00  0.00    -0.123 C  
HETATM    2  C   UNL     1      -7.721   7.250  64.259  1.00  0.00    -0.124 C  
ENDROOT
BRANCH   2   3
HETATM    3  C   UNL     1      -7.002   7.472  65.589  1.00  0.00    -0.060 C  
BRANCH   3   4
HETATM    4  C   UNL     1      -7.895   7.289  66.820  1.00  0.00    -0.113 C  
HETATM    5  C   UNL     1      -8.528   8.559  67.366  1.00  0.00    -0.127 C  
HETATM    6  N   UNL     1      -9.745   8.095  67.996  1.00  0.00    -0.156 N  
HETATM    7  C   UNL     1     -10.238   7.019  67.284  1.00  0.00    -0.234 C  
HETATM    8  O   UNL     1     -11.375   6.569  67.318  1.00  0.00    -0.316 OA 
HETATM    9  C   UNL     1      -9.106   6.405  66.495  1.00  0.00    -0.162 C  
BRANCH   6  10
HETATM   10  C   UNL     1     -10.500   8.972  68.913  1.00  0.00    -0.210 C  
BRANCH  10  11
HETATM   11  C   UNL     1     -10.081   8.875  70.392  1.00  0.00    -0.232 C  
HETATM   12  C   UNL     1      -9.186   7.693  70.719  1.00  0.00    -0.157 C  
ENDBRANCH  10  11
BRANCH  10  13
HETATM   13  C   UNL     1     -10.837  10.446  68.527  1.00  0.00    -0.237 C  
HETATM   14  N   UNL     1     -10.019  11.443  68.958  1.00  0.00    -0.395 N  
HETATM   15  O   UNL     1     -11.784  10.730  67.794  1.00  0.00    -0.547 OA 
HETATM   16  H1  UNL     1     -10.240  12.406  68.706  1.00  0.00     0.000 HD 
HETATM   17  H2  UNL     1      -9.198  11.232  69.524  1.00  0.00     0.000 HD 
ENDBRANCH  10  13
ENDBRANCH   6  10
ENDBRANCH   3   4
ENDBRANCH   2   3
TORSDOF 5
ENDMDL
MODEL      226
REMARK 921   NORMALIZED FREE ENERGY PREDICTED BY IDOCK:   -2.44 KCAL/MOL
REMARK 922        TOTAL FREE ENERGY PREDICTED BY IDOCK:   -3.70 KCAL/MOL
REMARK 923 INTER-LIGAND FREE ENERGY PREDICTED BY IDOCK:   -3.28 KCAL/MOL
REMARK 924 INTRA-LIGAND FREE ENERGY PREDICTED BY IDOCK:   -0.42 KCAL/MOL
REMARK 927      BINDING AFFINITY PREDICTED BY RF-SCORE:    0.00 PKD
ROOT
HETATM    1  C   UNL     1     -11.325  10.845  68.067  1.00  0.00    -0.382 C  
HETATM    2  C   UNL     1     -12.107  11.213  69.322  1.00  0.00    -0.377 C  
ENDROOT
BRANCH   2   3
HETATM    3  C   UNL     1     -11.464  10.587  70.559  1.00  0.00    -0.433 C  
BRANCH   3   4
HETATM    4  C   UNL     1     -11.333   9.063  70.492  1.00  0.00    -0.282 C  
HETATM    5  C   UNL     1      -9.964   8.506  70.849  1.00  0.00    -0.191 C  
HETATM    6  N   UNL     1     -10.251   7.182  71.357  1.00  0.00    -0.193 N  
HETATM    7  C   UNL     1     -11.467   7.204  72.011  1.00  0.00    -0.274 C  
HETATM    8  O   UNL     1     -11.889   6.386  72.816  1.00  0.00    -0.109 OA 
HETATM    9  C   UNL     1     -12.263   8.385  71.506  1.00  0.00    -0.340 C  
BRANCH   6  10
HETATM   10  C   UNL     1      -9.171   6.190  71.528  1.00  0.00    -0.146 C  
BRANCH  10  11
HETATM   11  C   UNL     1      -8.558   6.139  72.940  1.00  0.00    -0.123 C  
HETATM   12  C   UNL     1      -7.072   6.444  72.995  1.00  0.00    -0.082 C  
ENDBRANCH  10  11
BRANCH  10  13
HETATM   13  C   UNL     1      -9.285   4.757  70.921  1.00  0.00    -0.140 C  
HETATM   14  N   UNL     1      -8.393   4.372  69.970  1.00  0.00    -0.062 N  
HETATM   15  O   UNL     1     -10.118   3.943  71.319  1.00  0.00    -0.150 OA 
HETATM   16  H1  UNL     1      -8.469   3.435  69.573  1.00  0.00     0.000 HD 
HETATM   17  H2  UNL     1      -7.660   5.009  69.657  1.00  0.00     0.000 HD 
ENDBRANCH  10  13
ENDBRANCH   6  10
ENDBRANCH   3   4
ENDBRANCH   2   3
TORSDOF 5
ENDMDL
MODEL      227
REMARK 921   NORMALIZED FREE ENERGY PREDICTED BY IDOCK:   -2.43 KCAL/MOL
REMARK 922        TOTAL FREE ENERGY PREDICTED BY IDOCK:   -3.70 KCAL/MOL
REMARK 923 INTER-LIGAND FREE ENERGY PREDICTED BY IDOCK:   -3.18 KCAL/MOL
REMARK 924 INTRA-LIGAND FREE ENERGY PREDICTED BY IDOCK:   -0.52 KCAL/MOL
REMARK 927      BINDING AFFINITY PREDICTED BY RF-SCORE:    0.00 PKD
ROOT
HETATM    1  C   UNL     1     -12.450  13.558  70.730  1.00  0.00    -0.428 C  
HETATM    2  C   UNL     1     -12.343  12.074  71.053  1.00  0.00    -0.340 C  
ENDROOT
BRANCH   2   3
HETATM    3  C   UNL     1     -12.286  11.246  69.769  1.00  0.00    -0.343 C  
BRANCH   3   4
HETATM    4  C   UNL     1     -10.947  11.333  69.030  1.00  0.00    -0.288 C  
HETATM    5  C   UNL     1     -10.236  10.008  68.803  1.00  0.00    -0.186 C  
HETATM    6  N   UNL     1      -9.459  10.234  67.605  1.00  0.00    -0.151 N  
HETATM    7  C   UNL     1     -10.151  11.094  66.774  1.00  0.00    -0.218 C  
HETATM    8  O   UNL     1      -9.973  11.268  65.577  1.00  0.00    -0.223 OA 
HETATM    9  C   UNL     1     -11.138  11.876  67.608  1.00  0.00    -0.314 C  
BRANCH   6  10
HETATM   10  C   UNL     1      -8.387   9.296  67.214  1.00  0.00    -0.125 C  
BRANCH  10  11
HETATM   11  C   UNL     1      -7.007   9.602  67.823  1.00  0.00    -0.079 C  
HETATM   12  C   UNL     1      -6.578  11.055  67.719  1.00  0.00    -0.063 C  
ENDBRANCH  10  11
BRANCH  10  13
HETATM   13  C   UNL     1      -8.640   7.758  67.157  1.00  0.00    -0.128 C  
HETATM   14  N   UNL     1      -7.798   6.926  67.828  1.00  0.00    -0.111 N  
HETATM   15  O   UNL     1      -9.613   7.275  66.578  1.00  0.00    -0.180 OA 
HETATM   16  H1  UNL     1      -7.963   5.921  67.790  1.00  0.00     0.000 HD 
HETATM   17  H2  UNL     1      -7.012   7.302  68.359  1.00  0.00     0.000 HD 
ENDBRANCH  10  13
ENDBRANCH   6  10
ENDBRANCH   3   4
ENDBRANCH   2   3
TORSDOF 5
ENDMDL
MODEL      228
REMARK 921   NORMALIZED FREE ENERGY PREDICTED BY IDOCK:   -2.41 KCAL/MOL
REMARK 922        TOTAL FREE ENERGY PREDICTED BY IDOCK:   -3.67 KCAL/MOL
REMARK 923 INTER-LIGAND FREE ENERGY PREDICTED BY IDOCK:   -3.14 KCAL/MOL
REMARK 924 INTRA-LIGAND FREE ENERGY PREDICTED BY IDOCK:   -0.53 KCAL/MOL
REMARK 927      BINDING AFFINITY PREDICTED BY RF-SCORE:    0.00 PKD
ROOT
HETATM    1  C   UNL     1      -9.947  17.966  69.486  1.00  0.00     0.167 C  
HETATM    2  C   UNL     1     -10.252  16.541  69.041  1.00  0.00    -0.285 C  
ENDROOT
BRANCH   2   3
HETATM    3  C   UNL     1     -10.001  16.379  67.542  1.00  0.00    -0.250 C  
BRANCH   3   4
HETATM    4  C   UNL     1     -10.283  14.971  67.010  1.00  0.00    -0.257 C  
HETATM    5  C   UNL     1      -9.198  13.939  67.276  1.00  0.00    -0.235 C  
HETATM    6  N   UNL     1      -9.917  12.685  67.319  1.00  0.00    -0.210 N  
HETATM    7  C   UNL     1     -11.171  12.903  67.856  1.00  0.00    -0.269 C  
HETATM    8  O   UNL     1     -11.928  12.068  68.329  1.00  0.00    -0.426 OA 
HETATM    9  C   UNL     1     -11.518  14.364  67.688  1.00  0.00    -0.369 C  
BRANCH   6  10
HETATM   10  C   UNL     1      -9.194  11.399  67.251  1.00  0.00    -0.165 C  
BRANCH  10  11
HETATM   11  C   UNL     1      -8.743  10.838  68.612  1.00  0.00    -0.152 C  
HETATM   12  C   UNL     1      -7.303  11.150  68.978  1.00  0.00    -0.120 C  
ENDBRANCH  10  11
BRANCH  10  13
HETATM   13  C   UNL     1      -9.674  10.252  66.309  1.00  0.00    -0.209 C  
HETATM   14  N   UNL     1     -10.605   9.372  66.764  1.00  0.00    -0.187 N  
HETATM   15  O   UNL     1      -9.284  10.154  65.145  1.00  0.00    -0.178 OA 
HETATM   16  H1  UNL     1     -10.918   8.622  66.149  1.00  0.00     0.000 HD 
HETATM   17  H2  UNL     1     -10.985   9.460  67.707  1.00  0.00     0.000 HD 
ENDBRANCH  10  13
ENDBRANCH   6  10
ENDBRANCH   3   4
ENDBRANCH   2   3
TORSDOF 5
ENDMDL
MODEL      229
REMARK 921   NORMALIZED FREE ENERGY PREDICTED BY IDOCK:   -2.41 KCAL/MOL
REMARK 922        TOTAL FREE ENERGY PREDICTED BY IDOCK:   -3.67 KCAL/MOL
REMARK 923 INTER-LIGAND FREE ENERGY PREDICTED BY IDOCK:   -3.46 KCAL/MOL
REMARK 924 INTRA-LIGAND FREE ENERGY PREDICTED BY IDOCK:   -0.21 KCAL/MOL
REMARK 927      BINDING AFFINITY PREDICTED BY RF-SCORE:    0.00 PKD
ROOT
HETATM    1  C   UNL     1      -8.094   9.134  64.698  1.00  0.00    -0.136 C  
HETATM    2  C   UNL     1      -9.056   9.433  65.841  1.00  0.00    -0.242 C  
ENDROOT
BRANCH   2   3
HETATM    3  C   UNL     1      -9.699   8.145  66.355  1.00  0.00    -0.275 C  
BRANCH   3   4
HETATM    4  C   UNL     1     -10.655   8.351  67.533  1.00  0.00    -0.285 C  
HETATM    5  C   UNL     1     -10.934   7.117  68.376  1.00  0.00    -0.021 C  
HETATM    6  N   UNL     1     -11.242   7.652  69.683  1.00  0.00    -0.059 N  
HETATM    7  C   UNL     1     -10.492   8.793  69.891  1.00  0.00    -0.221 C  
HETATM    8  O   UNL     1     -10.247   9.333  70.961  1.00  0.00    -0.271 OA 
HETATM    9  C   UNL     1     -10.073   9.343  68.548  1.00  0.00    -0.208 C  
BRANCH   6  10
HETATM   10  C   UNL     1     -11.869   6.804  70.717  1.00  0.00    -0.392 C  
BRANCH  10  11
HETATM   11  C   UNL     1     -10.886   5.939  71.527  1.00  0.00    -0.325 C  
HETATM   12  C   UNL     1     -11.523   5.147  72.654  1.00  0.00    -0.221 C  
ENDBRANCH  10  11
BRANCH  10  13
HETATM   13  C   UNL     1     -13.009   7.353  71.630  1.00  0.00    -0.366 C  
HETATM   14  N   UNL     1     -14.296   7.010  71.355  1.00  0.00    -0.309 N  
HETATM   15  O   UNL     1     -12.776   8.035  72.628  1.00  0.00    -0.129 OA 
HETATM   16  H1  UNL     1     -15.040   7.370  71.952  1.00  0.00     0.000 HD 
HETATM   17  H2  UNL     1     -14.514   6.404  70.565  1.00  0.00     0.000 HD 
ENDBRANCH  10  13
ENDBRANCH   6  10
ENDBRANCH   3   4
ENDBRANCH   2   3
TORSDOF 5
ENDMDL
MODEL      230
REMARK 921   NORMALIZED FREE ENERGY PREDICTED BY IDOCK:   -2.41 KCAL/MOL
REMARK 922        TOTAL FREE ENERGY PREDICTED BY IDOCK:   -3.67 KCAL/MOL
REMARK 923 INTER-LIGAND FREE ENERGY PREDICTED BY IDOCK:   -3.17 KCAL/MOL
REMARK 924 INTRA-LIGAND FREE ENERGY PREDICTED BY IDOCK:   -0.49 KCAL/MOL
REMARK 927      BINDING AFFINITY PREDICTED BY RF-SCORE:    0.00 PKD
ROOT
HETATM    1  C   UNL     1      -6.908   5.079  69.370  1.00  0.00    -0.053 C  
HETATM    2  C   UNL     1      -7.192   6.449  69.971  1.00  0.00    -0.080 C  
ENDROOT
BRANCH   2   3
HETATM    3  C   UNL     1      -8.548   6.457  70.676  1.00  0.00    -0.139 C  
BRANCH   3   4
HETATM    4  C   UNL     1      -9.663   7.139  69.878  1.00  0.00    -0.170 C  
HETATM    5  C   UNL     1      -9.211   8.224  68.913  1.00  0.00    -0.147 C  
HETATM    6  N   UNL     1     -10.224   8.212  67.881  1.00  0.00    -0.207 N  
HETATM    7  C   UNL     1     -10.678   6.919  67.710  1.00  0.00    -0.254 C  
HETATM    8  O   UNL     1     -11.285   6.469  66.748  1.00  0.00    -0.334 OA 
HETATM    9  C   UNL     1     -10.379   6.135  68.966  1.00  0.00    -0.263 C  
BRANCH   6  10
HETATM   10  C   UNL     1     -10.326   9.322  66.912  1.00  0.00    -0.246 C  
BRANCH  10  11
HETATM   11  C   UNL     1     -10.722  10.679  67.523  1.00  0.00    -0.321 C  
HETATM   12  C   UNL     1     -11.310  11.669  66.534  1.00  0.00    -0.331 C  
ENDBRANCH  10  11
BRANCH  10  13
HETATM   13  C   UNL     1      -9.264   9.510  65.785  1.00  0.00    -0.211 C  
HETATM   14  N   UNL     1      -9.614   9.238  64.499  1.00  0.00    -0.303 N  
HETATM   15  O   UNL     1      -8.139   9.956  66.013  1.00  0.00    -0.115 OA 
HETATM   16  H1  UNL     1      -8.919   9.361  63.762  1.00  0.00     0.000 HD 
HETATM   17  H2  UNL     1     -10.556   8.917  64.274  1.00  0.00     0.000 HD 
ENDBRANCH  10  13
ENDBRANCH   6  10
ENDBRANCH   3   4
ENDBRANCH   2   3
TORSDOF 5
ENDMDL
MODEL      231
REMARK 921   NORMALIZED FREE ENERGY PREDICTED BY IDOCK:   -2.40 KCAL/MOL
REMARK 922        TOTAL FREE ENERGY PREDICTED BY IDOCK:   -3.65 KCAL/MOL
REMARK 923 INTER-LIGAND FREE ENERGY PREDICTED BY IDOCK:   -3.22 KCAL/MOL
REMARK 924 INTRA-LIGAND FREE ENERGY PREDICTED BY IDOCK:   -0.43 KCAL/MOL
REMARK 927      BINDING AFFINITY PREDICTED BY RF-SCORE:    0.00 PKD
ROOT
HETATM    1  C   UNL     1      -8.647   7.761  73.485  1.00  0.00    -0.279 C  
HETATM    2  C   UNL     1      -7.950   7.456  72.165  1.00  0.00    -0.101 C  
ENDROOT
BRANCH   2   3
HETATM    3  C   UNL     1      -7.347   8.727  71.568  1.00  0.00    -0.109 C  
BRANCH   3   4
HETATM    4  C   UNL     1      -7.742   8.981  70.111  1.00  0.00    -0.089 C  
HETATM    5  C   UNL     1      -9.063   9.707  69.907  1.00  0.00    -0.225 C  
HETATM    6  N   UNL     1      -8.890  10.391  68.644  1.00  0.00    -0.134 N  
HETATM    7  C   UNL     1      -7.568  10.770  68.515  1.00  0.00    -0.104 C  
HETATM    8  O   UNL     1      -7.112  11.616  67.758  1.00  0.00    -0.082 OA 
HETATM    9  C   UNL     1      -6.727   9.898  69.417  1.00  0.00    -0.057 C  
BRANCH   6  10
HETATM   10  C   UNL     1     -10.050  10.964  67.932  1.00  0.00    -0.177 C  
BRANCH  10  11
HETATM   11  C   UNL     1     -10.527  10.151  66.715  1.00  0.00    -0.270 C  
HETATM   12  C   UNL     1      -9.592   9.031  66.296  1.00  0.00    -0.327 C  
ENDBRANCH  10  11
BRANCH  10  13
HETATM   13  C   UNL     1     -11.263  11.560  68.712  1.00  0.00    -0.249 C  
HETATM   14  N   UNL     1     -11.061  12.632  69.524  1.00  0.00    -0.460 N  
HETATM   15  O   UNL     1     -12.407  11.130  68.569  1.00  0.00    -0.561 OA 
HETATM   16  H1  UNL     1     -11.854  13.021  70.034  1.00  0.00     0.000 HD 
HETATM   17  H2  UNL     1     -10.132  13.041  69.622  1.00  0.00     0.000 HD 
ENDBRANCH  10  13
ENDBRANCH   6  10
ENDBRANCH   3   4
ENDBRANCH   2   3
TORSDOF 5
ENDMDL
MODEL      232
REMARK 921   NORMALIZED FREE ENERGY PREDICTED BY IDOCK:   -2.40 KCAL/MOL
REMARK 922        TOTAL FREE ENERGY PREDICTED BY IDOCK:   -3.65 KCAL/MOL
REMARK 923 INTER-LIGAND FREE ENERGY PREDICTED BY IDOCK:   -3.18 KCAL/MOL
REMARK 924 INTRA-LIGAND FREE ENERGY PREDICTED BY IDOCK:   -0.48 KCAL/MOL
REMARK 927      BINDING AFFINITY PREDICTED BY RF-SCORE:    0.00 PKD
ROOT
HETATM    1  C   UNL     1     -10.625   9.891  67.499  1.00  0.00    -0.333 C  
HETATM    2  C   UNL     1     -10.347   8.703  66.587  1.00  0.00    -0.303 C  
ENDROOT
BRANCH   2   3
HETATM    3  C   UNL     1     -10.295   7.406  67.394  1.00  0.00    -0.340 C  
BRANCH   3   4
HETATM    4  C   UNL     1      -9.575   7.536  68.739  1.00  0.00    -0.149 C  
HETATM    5  C   UNL     1     -10.314   6.960  69.937  1.00  0.00    -0.205 C  
HETATM    6  N   UNL     1      -9.256   6.593  70.852  1.00  0.00    -0.157 N  
HETATM    7  C   UNL     1      -8.156   6.179  70.127  1.00  0.00    -0.116 C  
HETATM    8  O   UNL     1      -7.211   5.516  70.530  1.00  0.00    -0.065 OA 
HETATM    9  C   UNL     1      -8.254   6.756  68.734  1.00  0.00    -0.121 C  
BRANCH   6  10
HETATM   10  C   UNL     1      -9.555   6.279  72.264  1.00  0.00    -0.151 C  
BRANCH  10  11
HETATM   11  C   UNL     1      -9.996   4.826  72.523  1.00  0.00    -0.216 C  
HETATM   12  C   UNL     1     -11.224   4.686  73.403  1.00  0.00    -0.423 C  
ENDBRANCH  10  11
BRANCH  10  13
HETATM   13  C   UNL     1      -8.642   6.797  73.418  1.00  0.00    -0.122 C  
HETATM   14  N   UNL     1      -8.973   7.954  74.051  1.00  0.00    -0.385 N  
HETATM   15  O   UNL     1      -7.667   6.160  73.816  1.00  0.00    -0.095 OA 
HETATM   16  H1  UNL     1      -8.376   8.292  74.805  1.00  0.00     0.000 HD 
HETATM   17  H2  UNL     1      -9.805   8.476  73.776  1.00  0.00     0.000 HD 
ENDBRANCH  10  13
ENDBRANCH   6  10
ENDBRANCH   3   4
ENDBRANCH   2   3
TORSDOF 5
ENDMDL
MODEL      233
REMARK 921   NORMALIZED FREE ENERGY PREDICTED BY IDOCK:   -2.39 KCAL/MOL
REMARK 922        TOTAL FREE ENERGY PREDICTED BY IDOCK:   -3.64 KCAL/MOL
REMARK 923 INTER-LIGAND FREE ENERGY PREDICTED BY IDOCK:   -3.14 KCAL/MOL
REMARK 924 INTRA-LIGAND FREE ENERGY PREDICTED BY IDOCK:   -0.50 KCAL/MOL
REMARK 927      BINDING AFFINITY PREDICTED BY RF-SCORE:    0.00 PKD
ROOT
HETATM    1  C   UNL     1      -5.879   8.541  72.193  1.00  0.00    -0.059 C  
HETATM    2  C   UNL     1      -5.768   8.922  70.723  1.00  0.00    -0.034 C  
ENDROOT
BRANCH   2   3
HETATM    3  C   UNL     1      -6.895   9.876  70.328  1.00  0.00    -0.138 C  
BRANCH   3   4
HETATM    4  C   UNL     1      -7.781   9.360  69.190  1.00  0.00    -0.079 C  
HETATM    5  C   UNL     1      -8.767   8.267  69.571  1.00  0.00    -0.138 C  
HETATM    6  N   UNL     1      -9.850   8.435  68.629  1.00  0.00    -0.165 N  
HETATM    7  C   UNL     1      -9.989   9.778  68.336  1.00  0.00    -0.156 C  
HETATM    8  O   UNL     1     -10.961  10.330  67.842  1.00  0.00    -0.267 OA 
HETATM    9  C   UNL     1      -8.685  10.474  68.648  1.00  0.00    -0.143 C  
BRANCH   6  10
HETATM   10  C   UNL     1     -10.871   7.381  68.458  1.00  0.00    -0.026 C  
BRANCH  10  11
HETATM   11  C   UNL     1     -10.789   6.612  67.127  1.00  0.00    -0.471 C  
HETATM   12  C   UNL     1      -9.412   6.596  66.489  1.00  0.00    -0.192 C  
ENDBRANCH  10  11
BRANCH  10  13
HETATM   13  C   UNL     1     -11.247   6.423  69.631  1.00  0.00    -0.418 C  
HETATM   14  N   UNL     1     -12.173   6.828  70.541  1.00  0.00    -0.566 N  
HETATM   15  O   UNL     1     -10.780   5.288  69.724  1.00  0.00    -0.286 OA 
HETATM   16  H1  UNL     1     -12.419   6.202  71.308  1.00  0.00     0.000 HD 
HETATM   17  H2  UNL     1     -12.616   7.744  70.459  1.00  0.00     0.000 HD 
ENDBRANCH  10  13
ENDBRANCH   6  10
ENDBRANCH   3   4
ENDBRANCH   2   3
TORSDOF 5
ENDMDL
MODEL      234
REMARK 921   NORMALIZED FREE ENERGY PREDICTED BY IDOCK:   -2.39 KCAL/MOL
REMARK 922        TOTAL FREE ENERGY PREDICTED BY IDOCK:   -3.64 KCAL/MOL
REMARK 923 INTER-LIGAND FREE ENERGY PREDICTED BY IDOCK:   -3.67 KCAL/MOL
REMARK 924 INTRA-LIGAND FREE ENERGY PREDICTED BY IDOCK:    0.03 KCAL/MOL
REMARK 927      BINDING AFFINITY PREDICTED BY RF-SCORE:    0.00 PKD
ROOT
HETATM    1  C   UNL     1     -13.032  12.575  71.964  1.00  0.00    -0.379 C  
HETATM    2  C   UNL     1     -13.148  11.089  71.653  1.00  0.00    -0.543 C  
ENDROOT
BRANCH   2   3
HETATM    3  C   UNL     1     -12.387  10.745  70.373  1.00  0.00    -0.438 C  
BRANCH   3   4
HETATM    4  C   UNL     1     -11.590  11.914  69.787  1.00  0.00    -0.359 C  
HETATM    5  C   UNL     1     -10.561  11.543  68.731  1.00  0.00    -0.211 C  
HETATM    6  N   UNL     1     -10.463  12.730  67.911  1.00  0.00    -0.215 N  
HETATM    7  C   UNL     1     -11.699  13.344  67.858  1.00  0.00    -0.361 C  
HETATM    8  O   UNL     1     -12.081  14.168  67.039  1.00  0.00    -0.427 OA 
HETATM    9  C   UNL     1     -12.510  12.895  69.051  1.00  0.00     0.345 C  
BRANCH   6  10
HETATM   10  C   UNL     1      -9.349  12.897  66.956  1.00  0.00    -0.235 C  
BRANCH  10  11
HETATM   11  C   UNL     1      -8.481  14.147  67.188  1.00  0.00    -0.214 C  
HETATM   12  C   UNL     1      -8.388  14.593  68.636  1.00  0.00    -0.165 C  
ENDBRANCH  10  11
BRANCH  10  13
HETATM   13  C   UNL     1      -8.471  11.684  66.520  1.00  0.00    -0.141 C  
HETATM   14  N   UNL     1      -8.920  10.868  65.528  1.00  0.00    -0.196 N  
HETATM   15  O   UNL     1      -7.356  11.477  67.000  1.00  0.00    -0.130 OA 
HETATM   16  H1  UNL     1      -8.346  10.075  65.243  1.00  0.00     0.000 HD 
HETATM   17  H2  UNL     1      -9.817  11.047  65.076  1.00  0.00     0.000 HD 
ENDBRANCH  10  13
ENDBRANCH   6  10
ENDBRANCH   3   4
ENDBRANCH   2   3
TORSDOF 5
ENDMDL
MODEL      235
REMARK 921   NORMALIZED FREE ENERGY PREDICTED BY IDOCK:   -2.38 KCAL/MOL
REMARK 922        TOTAL FREE ENERGY PREDICTED BY IDOCK:   -3.63 KCAL/MOL
REMARK 923 INTER-LIGAND FREE ENERGY PREDICTED BY IDOCK:   -3.72 KCAL/MOL
REMARK 924 INTRA-LIGAND FREE ENERGY PREDICTED BY IDOCK:    0.10 KCAL/MOL
REMARK 927      BINDING AFFINITY PREDICTED BY RF-SCORE:    0.00 PKD
ROOT
HETATM    1  C   UNL     1      -9.945   4.790  67.558  1.00  0.00    -0.194 C  
HETATM    2  C   UNL     1     -10.522   6.200  67.584  1.00  0.00    -0.295 C  
ENDROOT
BRANCH   2   3
HETATM    3  C   UNL     1     -10.582   6.731  69.016  1.00  0.00    -0.258 C  
BRANCH   3   4
HETATM    4  C   UNL     1     -10.068   8.165  69.172  1.00  0.00    -0.204 C  
HETATM    5  C   UNL     1     -10.042   8.995  67.898  1.00  0.00    -0.197 C  
HETATM    6  N   UNL     1     -10.193  10.355  68.369  1.00  0.00    -0.159 N  
HETATM    7  C   UNL     1     -11.003  10.358  69.487  1.00  0.00    -0.262 C  
HETATM    8  O   UNL     1     -11.598  11.312  69.967  1.00  0.00    -0.297 OA 
HETATM    9  C   UNL     1     -10.978   8.978  70.102  1.00  0.00    -0.256 C  
BRANCH   6  10
HETATM   10  C   UNL     1      -9.912  11.497  67.476  1.00  0.00    -0.190 C  
BRANCH  10  11
HETATM   11  C   UNL     1     -10.971  12.614  67.502  1.00  0.00    -0.280 C  
HETATM   12  C   UNL     1     -11.887  12.646  66.293  1.00  0.00    -0.471 C  
ENDBRANCH  10  11
BRANCH  10  13
HETATM   13  C   UNL     1      -8.476  12.095  67.357  1.00  0.00    -0.173 C  
HETATM   14  N   UNL     1      -7.625  11.587  66.426  1.00  0.00    -0.353 N  
HETATM   15  O   UNL     1      -8.109  13.054  68.036  1.00  0.00    -0.134 OA 
HETATM   16  H1  UNL     1      -6.687  11.979  66.349  1.00  0.00     0.000 HD 
HETATM   17  H2  UNL     1      -7.920  10.826  65.814  1.00  0.00     0.000 HD 
ENDBRANCH  10  13
ENDBRANCH   6  10
ENDBRANCH   3   4
ENDBRANCH   2   3
TORSDOF 5
ENDMDL
MODEL      236
REMARK 921   NORMALIZED FREE ENERGY PREDICTED BY IDOCK:   -2.36 KCAL/MOL
REMARK 922        TOTAL FREE ENERGY PREDICTED BY IDOCK:   -3.61 KCAL/MOL
REMARK 923 INTER-LIGAND FREE ENERGY PREDICTED BY IDOCK:   -3.31 KCAL/MOL
REMARK 924 INTRA-LIGAND FREE ENERGY PREDICTED BY IDOCK:   -0.30 KCAL/MOL
REMARK 927      BINDING AFFINITY PREDICTED BY RF-SCORE:    0.00 PKD
ROOT
HETATM    1  C   UNL     1      -8.124   7.140  63.942  1.00  0.00    -0.009 C  
HETATM    2  C   UNL     1      -7.901   7.831  65.281  1.00  0.00    -0.117 C  
ENDROOT
BRANCH   2   3
HETATM    3  C   UNL     1      -6.977   9.037  65.118  1.00  0.00    -0.080 C  
BRANCH   3   4
HETATM    4  C   UNL     1      -7.703  10.386  65.129  1.00  0.00    -0.110 C  
HETATM    5  C   UNL     1      -9.190  10.328  65.441  1.00  0.00    -0.193 C  
HETATM    6  N   UNL     1      -9.467  11.617  66.036  1.00  0.00    -0.226 N  
HETATM    7  C   UNL     1      -8.362  12.030  66.754  1.00  0.00    -0.135 C  
HETATM    8  O   UNL     1      -8.324  12.887  67.625  1.00  0.00    -0.152 OA 
HETATM    9  C   UNL     1      -7.148  11.300  66.228  1.00  0.00     0.007 C  
BRANCH   6  10
HETATM   10  C   UNL     1     -10.858  12.086  66.203  1.00  0.00    -0.286 C  
BRANCH  10  11
HETATM   11  C   UNL     1     -11.412  11.967  67.635  1.00  0.00    -0.392 C  
HETATM   12  C   UNL     1     -11.371  10.565  68.214  1.00  0.00    -0.332 C  
ENDBRANCH  10  11
BRANCH  10  13
HETATM   13  C   UNL     1     -11.355  13.399  65.522  1.00  0.00    -0.293 C  
HETATM   14  N   UNL     1     -12.687  13.564  65.304  1.00  0.00    -0.657 N  
HETATM   15  O   UNL     1     -10.588  14.317  65.233  1.00  0.00    -0.333 OA 
HETATM   16  H1  UNL     1     -13.011  14.422  64.859  1.00  0.00     0.000 HD 
HETATM   17  H2  UNL     1     -13.352  12.841  65.581  1.00  0.00     0.000 HD 
ENDBRANCH  10  13
ENDBRANCH   6  10
ENDBRANCH   3   4
ENDBRANCH   2   3
TORSDOF 5
ENDMDL
MODEL      237
REMARK 921   NORMALIZED FREE ENERGY PREDICTED BY IDOCK:   -2.36 KCAL/MOL
REMARK 922        TOTAL FREE ENERGY PREDICTED BY IDOCK:   -3.60 KCAL/MOL
REMARK 923 INTER-LIGAND FREE ENERGY PREDICTED BY IDOCK:   -3.17 KCAL/MOL
REMARK 924 INTRA-LIGAND FREE ENERGY PREDICTED BY IDOCK:   -0.43 KCAL/MOL
REMARK 927      BINDING AFFINITY PREDICTED BY RF-SCORE:    0.00 PKD
ROOT
HETATM    1  C   UNL     1     -13.994   8.914  72.342  1.00  0.00    -0.516 C  
HETATM    2  C   UNL     1     -13.180   9.850  71.457  1.00  0.00    -0.501 C  
ENDROOT
BRANCH   2   3
HETATM    3  C   UNL     1     -11.690   9.528  71.559  1.00  0.00    -0.472 C  
BRANCH   3   4
HETATM    4  C   UNL     1     -11.055   9.086  70.238  1.00  0.00    -0.263 C  
HETATM    5  C   UNL     1      -9.898   9.942  69.747  1.00  0.00    -0.236 C  
HETATM    6  N   UNL     1      -9.097   9.026  68.966  1.00  0.00    -0.142 N  
HETATM    7  C   UNL     1      -9.173   7.767  69.530  1.00  0.00    -0.149 C  
HETATM    8  O   UNL     1      -8.411   6.828  69.350  1.00  0.00    -0.129 OA 
HETATM    9  C   UNL     1     -10.429   7.692  70.367  1.00  0.00    -0.221 C  
BRANCH   6  10
HETATM   10  C   UNL     1      -8.044   9.528  68.061  1.00  0.00    -0.102 C  
BRANCH  10  11
HETATM   11  C   UNL     1      -8.488  10.662  67.119  1.00  0.00    -0.128 C  
HETATM   12  C   UNL     1      -8.024  10.508  65.682  1.00  0.00    -0.158 C  
ENDBRANCH  10  11
BRANCH  10  13
HETATM   13  C   UNL     1      -6.588   9.767  68.570  1.00  0.00    -0.051 C  
HETATM   14  N   UNL     1      -6.361  10.754  69.478  1.00  0.00    -0.067 N  
HETATM   15  O   UNL     1      -5.648   9.052  68.223  1.00  0.00    -0.038 OA 
HETATM   16  H1  UNL     1      -5.410  10.910  69.810  1.00  0.00     0.000 HD 
HETATM   17  H2  UNL     1      -7.130  11.329  69.822  1.00  0.00     0.000 HD 
ENDBRANCH  10  13
ENDBRANCH   6  10
ENDBRANCH   3   4
ENDBRANCH   2   3
TORSDOF 5
ENDMDL
MODEL      238
REMARK 921   NORMALIZED FREE ENERGY PREDICTED BY IDOCK:   -2.34 KCAL/MOL
REMARK 922        TOTAL FREE ENERGY PREDICTED BY IDOCK:   -3.58 KCAL/MOL
REMARK 923 INTER-LIGAND FREE ENERGY PREDICTED BY IDOCK:   -3.14 KCAL/MOL
REMARK 924 INTRA-LIGAND FREE ENERGY PREDICTED BY IDOCK:   -0.44 KCAL/MOL
REMARK 927      BINDING AFFINITY PREDICTED BY RF-SCORE:    0.00 PKD
ROOT
HETATM    1  C   UNL     1     -10.874   5.902  66.501  1.00  0.00    -0.214 C  
HETATM    2  C   UNL     1      -9.712   5.836  67.484  1.00  0.00    -0.128 C  
ENDROOT
BRANCH   2   3
HETATM    3  C   UNL     1     -10.004   4.831  68.598  1.00  0.00    -0.170 C  
BRANCH   3   4
HETATM    4  C   UNL     1     -10.191   5.465  69.979  1.00  0.00    -0.349 C  
HETATM    5  C   UNL     1      -9.077   6.397  70.429  1.00  0.00    -0.155 C  
HETATM    6  N   UNL     1      -9.740   7.320  71.324  1.00  0.00    -0.166 N  
HETATM    7  C   UNL     1     -11.031   7.529  70.881  1.00  0.00    -0.253 C  
HETATM    8  O   UNL     1     -11.775   8.453  71.180  1.00  0.00    -0.276 OA 
HETATM    9  C   UNL     1     -11.434   6.364  70.008  1.00  0.00    -0.496 C  
BRANCH   6  10
HETATM   10  C   UNL     1      -8.956   8.198  72.216  1.00  0.00    -0.189 C  
BRANCH  10  11
HETATM   11  C   UNL     1      -8.960   7.783  73.699  1.00  0.00    -0.335 C  
HETATM   12  C   UNL     1     -10.120   6.891  74.102  1.00  0.00    -0.351 C  
ENDBRANCH  10  11
BRANCH  10  13
HETATM   13  C   UNL     1      -7.553   8.734  71.794  1.00  0.00    -0.038 C  
HETATM   14  N   UNL     1      -7.479   9.735  70.877  1.00  0.00     0.044 N  
HETATM   15  O   UNL     1      -6.513   8.323  72.309  1.00  0.00    -0.063 OA 
HETATM   16  H1  UNL     1      -6.562  10.085  70.601  1.00  0.00     0.000 HD 
HETATM   17  H2  UNL     1      -8.327  10.131  70.471  1.00  0.00     0.000 HD 
ENDBRANCH  10  13
ENDBRANCH   6  10
ENDBRANCH   3   4
ENDBRANCH   2   3
TORSDOF 5
ENDMDL
MODEL      239
REMARK 921   NORMALIZED FREE ENERGY PREDICTED BY IDOCK:   -2.33 KCAL/MOL
REMARK 922        TOTAL FREE ENERGY PREDICTED BY IDOCK:   -3.56 KCAL/MOL
REMARK 923 INTER-LIGAND FREE ENERGY PREDICTED BY IDOCK:   -3.17 KCAL/MOL
REMARK 924 INTRA-LIGAND FREE ENERGY PREDICTED BY IDOCK:   -0.39 KCAL/MOL
REMARK 927      BINDING AFFINITY PREDICTED BY RF-SCORE:    0.00 PKD
ROOT
HETATM    1  C   UNL     1     -10.873  18.931  67.703  1.00  0.00    -0.407 C  
HETATM    2  C   UNL     1     -10.519  17.455  67.834  1.00  0.00    -0.383 C  
ENDROOT
BRANCH   2   3
HETATM    3  C   UNL     1     -10.318  16.825  66.456  1.00  0.00    -0.301 C  
BRANCH   3   4
HETATM    4  C   UNL     1     -10.179  15.301  66.481  1.00  0.00    -0.282 C  
HETATM    5  C   UNL     1      -8.776  14.774  66.743  1.00  0.00    -0.224 C  
HETATM    6  N   UNL     1      -9.000  13.488  67.365  1.00  0.00    -0.208 N  
HETATM    7  C   UNL     1     -10.148  13.551  68.130  1.00  0.00    -0.250 C  
HETATM    8  O   UNL     1     -10.483  12.789  69.025  1.00  0.00    -0.130 OA 
HETATM    9  C   UNL     1     -11.001  14.691  67.624  1.00  0.00    -0.296 C  
BRANCH   6  10
HETATM   10  C   UNL     1      -7.899  12.514  67.499  1.00  0.00    -0.168 C  
BRANCH  10  11
HETATM   11  C   UNL     1      -7.893  11.393  66.443  1.00  0.00    -0.067 C  
HETATM   12  C   UNL     1      -8.926  10.305  66.672  1.00  0.00    -0.156 C  
ENDBRANCH  10  11
BRANCH  10  13
HETATM   13  C   UNL     1      -6.444  12.979  67.823  1.00  0.00    -0.148 C  
HETATM   14  N   UNL     1      -5.404  12.382  67.181  1.00  0.00    -0.072 N  
HETATM   15  O   UNL     1      -6.211  13.910  68.593  1.00  0.00    -0.079 OA 
HETATM   16  H1  UNL     1      -4.454  12.686  67.393  1.00  0.00     0.000 HD 
HETATM   17  H2  UNL     1      -5.571  11.642  66.499  1.00  0.00     0.000 HD 
ENDBRANCH  10  13
ENDBRANCH   6  10
ENDBRANCH   3   4
ENDBRANCH   2   3
TORSDOF 5
ENDMDL
MODEL      240
REMARK 921   NORMALIZED FREE ENERGY PREDICTED BY IDOCK:   -2.31 KCAL/MOL
REMARK 922        TOTAL FREE ENERGY PREDICTED BY IDOCK:   -3.54 KCAL/MOL
REMARK 923 INTER-LIGAND FREE ENERGY PREDICTED BY IDOCK:   -3.79 KCAL/MOL
REMARK 924 INTRA-LIGAND FREE ENERGY PREDICTED BY IDOCK:    0.25 KCAL/MOL
REMARK 927      BINDING AFFINITY PREDICTED BY RF-SCORE:    0.00 PKD
ROOT
HETATM    1  C   UNL     1      -5.249  13.136  71.670  1.00  0.00    -0.148 C  
HETATM    2  C   UNL     1      -6.010  14.191  70.877  1.00  0.00    -0.196 C  
ENDROOT
BRANCH   2   3
HETATM    3  C   UNL     1      -6.224  13.731  69.436  1.00  0.00    -0.107 C  
BRANCH   3   4
HETATM    4  C   UNL     1      -6.966  14.744  68.560  1.00  0.00    -0.108 C  
HETATM    5  C   UNL     1      -8.022  14.162  67.633  1.00  0.00    -0.178 C  
HETATM    6  N   UNL     1      -8.968  15.243  67.464  1.00  0.00    -0.181 N  
HETATM    7  C   UNL     1      -9.031  15.973  68.635  1.00  0.00    -0.210 C  
HETATM    8  O   UNL     1      -9.916  16.745  68.978  1.00  0.00    -0.257 OA 
HETATM    9  C   UNL     1      -7.762  15.735  69.419  1.00  0.00    -0.213 C  
BRANCH   6  10
HETATM   10  C   UNL     1      -9.984  15.195  66.394  1.00  0.00    -0.272 C  
BRANCH  10  11
HETATM   11  C   UNL     1     -11.209  14.316  66.705  1.00  0.00    -0.337 C  
HETATM   12  C   UNL     1     -11.598  14.269  68.172  1.00  0.00    -0.365 C  
ENDBRANCH  10  11
BRANCH  10  13
HETATM   13  C   UNL     1     -10.407  16.483  65.623  1.00  0.00    -0.322 C  
HETATM   14  N   UNL     1     -11.378  16.395  64.675  1.00  0.00    -0.387 N  
HETATM   15  O   UNL     1      -9.935  17.589  65.888  1.00  0.00    -0.511 OA 
HETATM   16  H1  UNL     1     -11.654  17.238  64.171  1.00  0.00     0.000 HD 
HETATM   17  H2  UNL     1     -11.824  15.500  64.471  1.00  0.00     0.000 HD 
ENDBRANCH  10  13
ENDBRANCH   6  10
ENDBRANCH   3   4
ENDBRANCH   2   3
TORSDOF 5
ENDMDL
MODEL      241
REMARK 921   NORMALIZED FREE ENERGY PREDICTED BY IDOCK:   -2.31 KCAL/MOL
REMARK 922        TOTAL FREE ENERGY PREDICTED BY IDOCK:   -3.54 KCAL/MOL
REMARK 923 INTER-LIGAND FREE ENERGY PREDICTED BY IDOCK:   -3.23 KCAL/MOL
REMARK 924 INTRA-LIGAND FREE ENERGY PREDICTED BY IDOCK:   -0.30 KCAL/MOL
REMARK 927      BINDING AFFINITY PREDICTED BY RF-SCORE:    0.00 PKD
ROOT
HETATM    1  C   UNL     1     -11.316   4.628  73.321  1.00  0.00    -0.393 C  
HETATM    2  C   UNL     1     -10.113   5.353  72.730  1.00  0.00    -0.211 C  
ENDROOT
BRANCH   2   3
HETATM    3  C   UNL     1     -10.422   6.837  72.533  1.00  0.00    -0.235 C  
BRANCH   3   4
HETATM    4  C   UNL     1     -10.223   7.332  71.098  1.00  0.00    -0.197 C  
HETATM    5  C   UNL     1      -8.962   6.840  70.403  1.00  0.00    -0.152 C  
HETATM    6  N   UNL     1      -9.316   6.846  69.001  1.00  0.00    -0.136 N  
HETATM    7  C   UNL     1     -10.654   6.530  68.872  1.00  0.00    -0.241 C  
HETATM    8  O   UNL     1     -11.229   6.141  67.866  1.00  0.00    -0.304 OA 
HETATM    9  C   UNL     1     -11.346   6.829  70.182  1.00  0.00    -0.404 C  
BRANCH   6  10
HETATM   10  C   UNL     1      -8.274   6.728  67.961  1.00  0.00    -0.114 C  
BRANCH  10  11
HETATM   11  C   UNL     1      -7.686   5.315  67.792  1.00  0.00    -0.091 C  
HETATM   12  C   UNL     1      -8.139   4.588  66.539  1.00  0.00    -0.103 C  
ENDBRANCH  10  11
BRANCH  10  13
HETATM   13  C   UNL     1      -8.430   7.433  66.578  1.00  0.00    -0.128 C  
HETATM   14  N   UNL     1      -9.678   7.740  66.132  1.00  0.00    -0.449 N  
HETATM   15  O   UNL     1      -7.458   7.778  65.905  1.00  0.00    -0.077 OA 
HETATM   16  H1  UNL     1      -9.780   8.201  65.228  1.00  0.00     0.000 HD 
HETATM   17  H2  UNL     1     -10.500   7.513  66.692  1.00  0.00     0.000 HD 
ENDBRANCH  10  13
ENDBRANCH   6  10
ENDBRANCH   3   4
ENDBRANCH   2   3
TORSDOF 5
ENDMDL
MODEL      242
REMARK 921   NORMALIZED FREE ENERGY PREDICTED BY IDOCK:   -2.27 KCAL/MOL
REMARK 922        TOTAL FREE ENERGY PREDICTED BY IDOCK:   -3.49 KCAL/MOL
REMARK 923 INTER-LIGAND FREE ENERGY PREDICTED BY IDOCK:   -3.21 KCAL/MOL
REMARK 924 INTRA-LIGAND FREE ENERGY PREDICTED BY IDOCK:   -0.29 KCAL/MOL
REMARK 927      BINDING AFFINITY PREDICTED BY RF-SCORE:    0.00 PKD
ROOT
HETATM    1  C   UNL     1     -10.648  12.432  68.155  1.00  0.00    -0.232 C  
HETATM    2  C   UNL     1     -10.007  11.066  67.944  1.00  0.00    -0.192 C  
ENDROOT
BRANCH   2   3
HETATM    3  C   UNL     1      -8.598  11.035  68.534  1.00  0.00    -0.158 C  
BRANCH   3   4
HETATM    4  C   UNL     1      -8.430  10.055  69.698  1.00  0.00    -0.193 C  
HETATM    5  C   UNL     1      -9.702   9.363  70.163  1.00  0.00    -0.235 C  
HETATM    6  N   UNL     1      -9.233   8.110  70.711  1.00  0.00    -0.148 N  
HETATM    7  C   UNL     1      -8.131   7.688  69.993  1.00  0.00    -0.120 C  
HETATM    8  O   UNL     1      -7.663   6.559  69.952  1.00  0.00    -0.103 OA 
HETATM    9  C   UNL     1      -7.518   8.886  69.307  1.00  0.00    -0.075 C  
BRANCH   6  10
HETATM   10  C   UNL     1     -10.119   7.274  71.546  1.00  0.00    -0.186 C  
BRANCH  10  11
HETATM   11  C   UNL     1     -10.653   6.006  70.854  1.00  0.00    -0.310 C  
HETATM   12  C   UNL     1     -11.386   6.260  69.549  1.00  0.00    -0.475 C  
ENDBRANCH  10  11
BRANCH  10  13
HETATM   13  C   UNL     1      -9.786   6.990  73.043  1.00  0.00    -0.187 C  
HETATM   14  N   UNL     1     -10.795   6.649  73.889  1.00  0.00    -0.470 N  
HETATM   15  O   UNL     1      -8.632   7.004  73.471  1.00  0.00    -0.125 OA 
HETATM   16  H1  UNL     1     -10.577   6.464  74.868  1.00  0.00     0.000 HD 
HETATM   17  H2  UNL     1     -11.755   6.579  73.550  1.00  0.00     0.000 HD 
ENDBRANCH  10  13
ENDBRANCH   6  10
ENDBRANCH   3   4
ENDBRANCH   2   3
TORSDOF 5
ENDMDL
MODEL      243
REMARK 921   NORMALIZED FREE ENERGY PREDICTED BY IDOCK:   -2.26 KCAL/MOL
REMARK 922        TOTAL FREE ENERGY PREDICTED BY IDOCK:   -3.47 KCAL/MOL
REMARK 923 INTER-LIGAND FREE ENERGY PREDICTED BY IDOCK:   -2.90 KCAL/MOL
REMARK 924 INTRA-LIGAND FREE ENERGY PREDICTED BY IDOCK:   -0.57 KCAL/MOL
REMARK 927      BINDING AFFINITY PREDICTED BY RF-SCORE:    0.00 PKD
ROOT
HETATM    1  C   UNL     1     -10.155   5.002  66.588  1.00  0.00    -0.276 C  
HETATM    2  C   UNL     1      -9.508   6.352  66.306  1.00  0.00    -0.133 C  
ENDROOT
BRANCH   2   3
HETATM    3  C   UNL     1      -8.752   6.855  67.535  1.00  0.00    -0.120 C  
BRANCH   3   4
HETATM    4  C   UNL     1      -9.556   6.780  68.837  1.00  0.00    -0.137 C  
HETATM    5  C   UNL     1      -8.978   5.877  69.914  1.00  0.00    -0.139 C  
HETATM    6  N   UNL     1      -9.455   6.461  71.148  1.00  0.00    -0.167 N  
HETATM    7  C   UNL     1      -9.529   7.832  70.998  1.00  0.00    -0.155 C  
HETATM    8  O   UNL     1      -9.585   8.671  71.886  1.00  0.00    -0.256 OA 
HETATM    9  C   UNL     1      -9.618   8.150  69.524  1.00  0.00    -0.168 C  
BRANCH   6  10
HETATM   10  C   UNL     1      -9.373   5.712  72.418  1.00  0.00    -0.143 C  
BRANCH  10  11
HETATM   11  C   UNL     1      -8.015   5.805  73.137  1.00  0.00    -0.110 C  
HETATM   12  C   UNL     1      -7.265   4.490  73.246  1.00  0.00    -0.079 C  
ENDBRANCH  10  11
BRANCH  10  13
HETATM   13  C   UNL     1     -10.547   5.731  73.445  1.00  0.00    -0.258 C  
HETATM   14  N   UNL     1     -10.641   6.769  74.319  1.00  0.00    -0.424 N  
HETATM   15  O   UNL     1     -11.427   4.871  73.449  1.00  0.00    -0.336 OA 
HETATM   16  H1  UNL     1     -11.409   6.782  74.990  1.00  0.00     0.000 HD 
HETATM   17  H2  UNL     1      -9.955   7.524  74.303  1.00  0.00     0.000 HD 
ENDBRANCH  10  13
ENDBRANCH   6  10
ENDBRANCH   3   4
ENDBRANCH   2   3
TORSDOF 5
ENDMDL
MODEL      244
REMARK 921   NORMALIZED FREE ENERGY PREDICTED BY IDOCK:   -2.24 KCAL/MOL
REMARK 922        TOTAL FREE ENERGY PREDICTED BY IDOCK:   -3.45 KCAL/MOL
REMARK 923 INTER-LIGAND FREE ENERGY PREDICTED BY IDOCK:   -3.83 KCAL/MOL
REMARK 924 INTRA-LIGAND FREE ENERGY PREDICTED BY IDOCK:    0.37 KCAL/MOL
REMARK 927      BINDING AFFINITY PREDICTED BY RF-SCORE:    0.00 PKD
ROOT
HETATM    1  C   UNL     1      -6.817   9.165  67.840  1.00  0.00    -0.069 C  
HETATM    2  C   UNL     1      -7.294  10.050  66.696  1.00  0.00    -0.103 C  
ENDROOT
BRANCH   2   3
HETATM    3  C   UNL     1      -8.585   9.501  66.091  1.00  0.00    -0.143 C  
BRANCH   3   4
HETATM    4  C   UNL     1      -9.834  10.317  66.437  1.00  0.00    -0.272 C  
HETATM    5  C   UNL     1      -9.738  11.162  67.697  1.00  0.00    -0.170 C  
HETATM    6  N   UNL     1     -10.647  12.259  67.449  1.00  0.00    -0.219 N  
HETATM    7  C   UNL     1     -10.633  12.560  66.101  1.00  0.00    -0.253 C  
HETATM    8  O   UNL     1     -11.015  13.593  65.570  1.00  0.00    -0.287 OA 
HETATM    9  C   UNL     1     -10.135  11.351  65.344  1.00  0.00    -0.308 C  
BRANCH   6  10
HETATM   10  C   UNL     1     -11.080  13.143  68.550  1.00  0.00    -0.266 C  
BRANCH  10  11
HETATM   11  C   UNL     1     -11.846  14.402  68.104  1.00  0.00    -0.362 C  
HETATM   12  C   UNL     1     -11.107  15.707  68.337  1.00  0.00    -0.326 C  
ENDBRANCH  10  11
BRANCH  10  13
HETATM   13  C   UNL     1     -11.687  12.560  69.864  1.00  0.00    -0.255 C  
HETATM   14  N   UNL     1     -12.043  13.414  70.860  1.00  0.00    -0.484 N  
HETATM   15  O   UNL     1     -11.911  11.358  70.003  1.00  0.00    -0.310 OA 
HETATM   16  H1  UNL     1     -12.439  13.032  71.719  1.00  0.00     0.000 HD 
HETATM   17  H2  UNL     1     -11.916  14.420  70.751  1.00  0.00     0.000 HD 
ENDBRANCH  10  13
ENDBRANCH   6  10
ENDBRANCH   3   4
ENDBRANCH   2   3
TORSDOF 5
ENDMDL
MODEL      245
REMARK 921   NORMALIZED FREE ENERGY PREDICTED BY IDOCK:   -2.24 KCAL/MOL
REMARK 922        TOTAL FREE ENERGY PREDICTED BY IDOCK:   -3.44 KCAL/MOL
REMARK 923 INTER-LIGAND FREE ENERGY PREDICTED BY IDOCK:   -3.15 KCAL/MOL
REMARK 924 INTRA-LIGAND FREE ENERGY PREDICTED BY IDOCK:   -0.30 KCAL/MOL
REMARK 927      BINDING AFFINITY PREDICTED BY RF-SCORE:    0.00 PKD
ROOT
HETATM    1  C   UNL     1      -7.992   6.495  70.718  1.00  0.00    -0.115 C  
HETATM    2  C   UNL     1      -7.829   7.970  70.374  1.00  0.00    -0.091 C  
ENDROOT
BRANCH   2   3
HETATM    3  C   UNL     1      -7.829   8.172  68.859  1.00  0.00    -0.112 C  
BRANCH   3   4
HETATM    4  C   UNL     1      -8.253   9.576  68.417  1.00  0.00    -0.113 C  
HETATM    5  C   UNL     1      -8.413   9.771  66.917  1.00  0.00    -0.120 C  
HETATM    6  N   UNL     1      -9.396  10.825  66.809  1.00  0.00    -0.160 N  
HETATM    7  C   UNL     1     -10.294  10.714  67.853  1.00  0.00    -0.199 C  
HETATM    8  O   UNL     1     -11.409  11.211  67.925  1.00  0.00    -0.283 OA 
HETATM    9  C   UNL     1      -9.640   9.930  68.967  1.00  0.00    -0.188 C  
BRANCH   6  10
HETATM   10  C   UNL     1      -9.611  11.527  65.527  1.00  0.00    -0.227 C  
BRANCH  10  11
HETATM   11  C   UNL     1      -9.748  10.606  64.301  1.00  0.00    -0.372 C  
HETATM   12  C   UNL     1      -8.505  10.518  63.435  1.00  0.00    -0.148 C  
ENDBRANCH  10  11
BRANCH  10  13
HETATM   13  C   UNL     1     -10.588  12.739  65.423  1.00  0.00    -0.287 C  
HETATM   14  N   UNL     1     -11.913  12.502  65.227  1.00  0.00    -0.422 N  
HETATM   15  O   UNL     1     -10.209  13.900  65.576  1.00  0.00    -0.311 OA 
HETATM   16  H1  UNL     1     -12.552  13.294  65.159  1.00  0.00     0.000 HD 
HETATM   17  H2  UNL     1     -12.263  11.547  65.149  1.00  0.00     0.000 HD 
ENDBRANCH  10  13
ENDBRANCH   6  10
ENDBRANCH   3   4
ENDBRANCH   2   3
TORSDOF 5
ENDMDL
MODEL      246
REMARK 921   NORMALIZED FREE ENERGY PREDICTED BY IDOCK:   -2.22 KCAL/MOL
REMARK 922        TOTAL FREE ENERGY PREDICTED BY IDOCK:   -3.43 KCAL/MOL
REMARK 923 INTER-LIGAND FREE ENERGY PREDICTED BY IDOCK:   -3.15 KCAL/MOL
REMARK 924 INTRA-LIGAND FREE ENERGY PREDICTED BY IDOCK:   -0.28 KCAL/MOL
REMARK 927      BINDING AFFINITY PREDICTED BY RF-SCORE:    0.00 PKD
ROOT
HETATM    1  C   UNL     1      -7.232   8.446  63.132  1.00  0.00    -0.093 C  
HETATM    2  C   UNL     1      -7.911   7.306  63.881  1.00  0.00    -0.111 C  
ENDROOT
BRANCH   2   3
HETATM    3  C   UNL     1      -7.610   7.390  65.377  1.00  0.00    -0.096 C  
BRANCH   3   4
HETATM    4  C   UNL     1      -8.852   7.313  66.269  1.00  0.00    -0.179 C  
HETATM    5  C   UNL     1      -8.582   7.158  67.758  1.00  0.00    -0.126 C  
HETATM    6  N   UNL     1      -9.737   7.764  68.383  1.00  0.00    -0.156 N  
HETATM    7  C   UNL     1     -10.172   8.817  67.602  1.00  0.00    -0.239 C  
HETATM    8  O   UNL     1     -10.901   9.738  67.942  1.00  0.00    -0.266 OA 
HETATM    9  C   UNL     1      -9.666   8.611  66.194  1.00  0.00    -0.292 C  
BRANCH   6  10
HETATM   10  C   UNL     1     -10.015   7.551  69.818  1.00  0.00    -0.186 C  
BRANCH  10  11
HETATM   11  C   UNL     1      -9.002   8.203  70.777  1.00  0.00    -0.156 C  
HETATM   12  C   UNL     1      -8.514   9.574  70.345  1.00  0.00    -0.238 C  
ENDBRANCH  10  11
BRANCH  10  13
HETATM   13  C   UNL     1     -11.465   7.661  70.384  1.00  0.00    -0.174 C  
HETATM   14  N   UNL     1     -11.981   8.893  70.640  1.00  0.00    -0.471 N  
HETATM   15  O   UNL     1     -12.180   6.673  70.549  1.00  0.00    -0.364 OA 
HETATM   16  H1  UNL     1     -12.928   8.965  71.010  1.00  0.00     0.000 HD 
HETATM   17  H2  UNL     1     -11.429   9.733  70.464  1.00  0.00     0.000 HD 
ENDBRANCH  10  13
ENDBRANCH   6  10
ENDBRANCH   3   4
ENDBRANCH   2   3
TORSDOF 5
ENDMDL
MODEL      247
REMARK 921   NORMALIZED FREE ENERGY PREDICTED BY IDOCK:   -2.22 KCAL/MOL
REMARK 922        TOTAL FREE ENERGY PREDICTED BY IDOCK:   -3.42 KCAL/MOL
REMARK 923 INTER-LIGAND FREE ENERGY PREDICTED BY IDOCK:   -2.97 KCAL/MOL
REMARK 924 INTRA-LIGAND FREE ENERGY PREDICTED BY IDOCK:   -0.45 KCAL/MOL
REMARK 927      BINDING AFFINITY PREDICTED BY RF-SCORE:    0.00 PKD
ROOT
HETATM    1  C   UNL     1      -9.122   6.403  71.564  1.00  0.00    -0.144 C  
HETATM    2  C   UNL     1     -10.091   7.245  70.745  1.00  0.00    -0.193 C  
ENDROOT
BRANCH   2   3
HETATM    3  C   UNL     1      -9.984   8.719  71.133  1.00  0.00    -0.317 C  
BRANCH   3   4
HETATM    4  C   UNL     1     -10.390   9.690  70.020  1.00  0.00    -0.298 C  
HETATM    5  C   UNL     1      -9.273  10.565  69.473  1.00  0.00    -0.048 C  
HETATM    6  N   UNL     1      -9.684  10.839  68.114  1.00  0.00    -0.155 N  
HETATM    7  C   UNL     1     -10.359   9.741  67.617  1.00  0.00    -0.230 C  
HETATM    8  O   UNL     1     -10.578   9.476  66.443  1.00  0.00    -0.146 OA 
HETATM    9  C   UNL     1     -10.881   8.931  68.780  1.00  0.00    -0.040 C  
BRANCH   6  10
HETATM   10  C   UNL     1      -9.030  11.906  67.329  1.00  0.00    -0.176 C  
BRANCH  10  11
HETATM   11  C   UNL     1      -7.633  11.548  66.790  1.00  0.00    -0.126 C  
HETATM   12  C   UNL     1      -6.511  12.433  67.303  1.00  0.00    -0.140 C  
ENDBRANCH  10  11
BRANCH  10  13
HETATM   13  C   UNL     1      -9.829  12.747  66.286  1.00  0.00    -0.267 C  
HETATM   14  N   UNL     1      -9.460  12.697  64.978  1.00  0.00    -0.408 N  
HETATM   15  O   UNL     1     -10.821  13.405  66.598  1.00  0.00    -0.280 OA 
HETATM   16  H1  UNL     1      -9.982  13.247  64.297  1.00  0.00     0.000 HD 
HETATM   17  H2  UNL     1      -8.673  12.119  64.683  1.00  0.00     0.000 HD 
ENDBRANCH  10  13
ENDBRANCH   6  10
ENDBRANCH   3   4
ENDBRANCH   2   3
TORSDOF 5
ENDMDL
MODEL      248
REMARK 921   NORMALIZED FREE ENERGY PREDICTED BY IDOCK:   -2.20 KCAL/MOL
REMARK 922        TOTAL FREE ENERGY PREDICTED BY IDOCK:   -3.40 KCAL/MOL
REMARK 923 INTER-LIGAND FREE ENERGY PREDICTED BY IDOCK:   -3.01 KCAL/MOL
REMARK 924 INTRA-LIGAND FREE ENERGY PREDICTED BY IDOCK:   -0.39 KCAL/MOL
REMARK 927      BINDING AFFINITY PREDICTED BY RF-SCORE:    0.00 PKD
ROOT
HETATM    1  C   UNL     1     -10.473   4.041  73.087  1.00  0.00    -0.251 C  
HETATM    2  C   UNL     1     -10.871   5.463  73.464  1.00  0.00    -0.342 C  
ENDROOT
BRANCH   2   3
HETATM    3  C   UNL     1     -11.359   6.229  72.235  1.00  0.00    -0.337 C  
BRANCH   3   4
HETATM    4  C   UNL     1     -10.247   6.943  71.462  1.00  0.00    -0.210 C  
HETATM    5  C   UNL     1     -10.399   6.949  69.949  1.00  0.00    -0.205 C  
HETATM    6  N   UNL     1      -9.708   8.150  69.536  1.00  0.00    -0.168 N  
HETATM    7  C   UNL     1      -9.867   9.118  70.509  1.00  0.00    -0.233 C  
HETATM    8  O   UNL     1      -9.703  10.323  70.387  1.00  0.00     0.041 OA 
HETATM    9  C   UNL     1     -10.202   8.435  71.815  1.00  0.00    -0.323 C  
BRANCH   6  10
HETATM   10  C   UNL     1      -9.357   8.369  68.119  1.00  0.00    -0.133 C  
BRANCH  10  11
HETATM   11  C   UNL     1     -10.484   8.972  67.260  1.00  0.00    -0.343 C  
HETATM   12  C   UNL     1     -10.066   9.364  65.854  1.00  0.00    -0.243 C  
ENDBRANCH  10  11
BRANCH  10  13
HETATM   13  C   UNL     1      -7.972   8.960  67.711  1.00  0.00    -0.102 C  
HETATM   14  N   UNL     1      -7.720  10.275  67.949  1.00  0.00    -0.089 N  
HETATM   15  O   UNL     1      -7.076   8.260  67.238  1.00  0.00    -0.077 OA 
HETATM   16  H1  UNL     1      -6.815  10.660  67.682  1.00  0.00     0.000 HD 
HETATM   17  H2  UNL     1      -8.426  10.866  68.388  1.00  0.00     0.000 HD 
ENDBRANCH  10  13
ENDBRANCH   6  10
ENDBRANCH   3   4
ENDBRANCH   2   3
TORSDOF 5
ENDMDL
MODEL      249
REMARK 921   NORMALIZED FREE ENERGY PREDICTED BY IDOCK:   -2.18 KCAL/MOL
REMARK 922        TOTAL FREE ENERGY PREDICTED BY IDOCK:   -3.37 KCAL/MOL
REMARK 923 INTER-LIGAND FREE ENERGY PREDICTED BY IDOCK:   -2.91 KCAL/MOL
REMARK 924 INTRA-LIGAND FREE ENERGY PREDICTED BY IDOCK:   -0.46 KCAL/MOL
REMARK 927      BINDING AFFINITY PREDICTED BY RF-SCORE:    0.00 PKD
ROOT
HETATM    1  C   UNL     1     -10.613   5.451  66.586  1.00  0.00    -0.359 C  
HETATM    2  C   UNL     1     -11.094   6.389  67.685  1.00  0.00    -0.388 C  
ENDROOT
BRANCH   2   3
HETATM    3  C   UNL     1     -10.673   5.869  69.059  1.00  0.00    -0.379 C  
BRANCH   3   4
HETATM    4  C   UNL     1     -10.088   6.942  69.981  1.00  0.00    -0.195 C  
HETATM    5  C   UNL     1      -8.853   7.658  69.455  1.00  0.00    -0.139 C  
HETATM    6  N   UNL     1      -8.910   8.956  70.088  1.00  0.00    -0.150 N  
HETATM    7  C   UNL     1     -10.232   9.329  70.235  1.00  0.00    -0.227 C  
HETATM    8  O   UNL     1     -10.665  10.455  70.433  1.00  0.00    -0.269 OA 
HETATM    9  C   UNL     1     -11.088   8.085  70.200  1.00  0.00    -0.191 C  
BRANCH   6  10
HETATM   10  C   UNL     1      -7.733   9.849  70.083  1.00  0.00    -0.175 C  
BRANCH  10  11
HETATM   11  C   UNL     1      -6.392   9.152  70.377  1.00  0.00    -0.048 C  
HETATM   12  C   UNL     1      -5.639   9.709  71.572  1.00  0.00    -0.067 C  
ENDBRANCH  10  11
BRANCH  10  13
HETATM   13  C   UNL     1      -7.559  10.950  68.992  1.00  0.00    -0.135 C  
HETATM   14  N   UNL     1      -8.025  10.713  67.736  1.00  0.00    -0.109 N  
HETATM   15  O   UNL     1      -7.070  12.051  69.246  1.00  0.00    -0.075 OA 
HETATM   16  H1  UNL     1      -7.910  11.433  67.023  1.00  0.00     0.000 HD 
HETATM   17  H2  UNL     1      -8.481   9.829  67.511  1.00  0.00     0.000 HD 
ENDBRANCH  10  13
ENDBRANCH   6  10
ENDBRANCH   3   4
ENDBRANCH   2   3
TORSDOF 5
ENDMDL
MODEL      250
REMARK 921   NORMALIZED FREE ENERGY PREDICTED BY IDOCK:   -2.17 KCAL/MOL
REMARK 922        TOTAL FREE ENERGY PREDICTED BY IDOCK:   -3.36 KCAL/MOL
REMARK 923 INTER-LIGAND FREE ENERGY PREDICTED BY IDOCK:   -3.37 KCAL/MOL
REMARK 924 INTRA-LIGAND FREE ENERGY PREDICTED BY IDOCK:    0.01 KCAL/MOL
REMARK 927      BINDING AFFINITY PREDICTED BY RF-SCORE:    0.00 PKD
ROOT
HETATM    1  C   UNL     1      -7.697   2.046  68.110  1.00  0.00    -0.054 C  
HETATM    2  C   UNL     1      -8.039   3.290  68.919  1.00  0.00    -0.072 C  
ENDROOT
BRANCH   2   3
HETATM    3  C   UNL     1      -9.533   3.333  69.237  1.00  0.00    -0.199 C  
BRANCH   3   4
HETATM    4  C   UNL     1     -10.134   4.741  69.226  1.00  0.00    -0.217 C  
HETATM    5  C   UNL     1     -10.635   5.251  70.568  1.00  0.00    -0.202 C  
HETATM    6  N   UNL     1     -10.504   6.688  70.462  1.00  0.00    -0.199 N  
HETATM    7  C   UNL     1      -9.400   6.984  69.687  1.00  0.00    -0.149 C  
HETATM    8  O   UNL     1      -8.800   8.048  69.630  1.00  0.00    -0.139 OA 
HETATM    9  C   UNL     1      -9.084   5.785  68.824  1.00  0.00    -0.118 C  
BRANCH   6  10
HETATM   10  C   UNL     1     -11.167   7.578  71.436  1.00  0.00    -0.242 C  
BRANCH  10  11
HETATM   11  C   UNL     1     -10.488   7.649  72.816  1.00  0.00    -0.368 C  
HETATM   12  C   UNL     1      -9.035   8.088  72.783  1.00  0.00    -0.291 C  
ENDBRANCH  10  11
BRANCH  10  13
HETATM   13  C   UNL     1     -11.708   8.979  71.011  1.00  0.00    -0.296 C  
HETATM   14  N   UNL     1     -13.037   9.125  70.764  1.00  0.00    -0.501 N  
HETATM   15  O   UNL     1     -10.981   9.971  70.954  1.00  0.00    -0.327 OA 
HETATM   16  H1  UNL     1     -13.390  10.041  70.486  1.00  0.00     0.000 HD 
HETATM   17  H2  UNL     1     -13.672   8.331  70.854  1.00  0.00     0.000 HD 
ENDBRANCH  10  13
ENDBRANCH   6  10
ENDBRANCH   3   4
ENDBRANCH   2   3
TORSDOF 5
ENDMDL
MODEL      251
REMARK 921   NORMALIZED FREE ENERGY PREDICTED BY IDOCK:   -2.15 KCAL/MOL
REMARK 922        TOTAL FREE ENERGY PREDICTED BY IDOCK:   -3.33 KCAL/MOL
REMARK 923 INTER-LIGAND FREE ENERGY PREDICTED BY IDOCK:   -2.83 KCAL/MOL
REMARK 924 INTRA-LIGAND FREE ENERGY PREDICTED BY IDOCK:   -0.51 KCAL/MOL
REMARK 927      BINDING AFFINITY PREDICTED BY RF-SCORE:    0.00 PKD
ROOT
HETATM    1  C   UNL     1     -10.390   6.402  66.716  1.00  0.00    -0.279 C  
HETATM    2  C   UNL     1     -10.788   6.570  68.177  1.00  0.00    -0.370 C  
ENDROOT
BRANCH   2   3
HETATM    3  C   UNL     1     -10.699   5.236  68.916  1.00  0.00    -0.028 C  
BRANCH   3   4
HETATM    4  C   UNL     1      -9.483   5.113  69.839  1.00  0.00    -0.221 C  
HETATM    5  C   UNL     1      -9.263   6.276  70.793  1.00  0.00    -0.154 C  
HETATM    6  N   UNL     1      -8.575   5.677  71.915  1.00  0.00    -0.130 N  
HETATM    7  C   UNL     1      -9.030   4.384  72.085  1.00  0.00    -0.120 C  
HETATM    8  O   UNL     1      -8.922   3.687  73.084  1.00  0.00    -0.097 OA 
HETATM    9  C   UNL     1      -9.625   3.910  70.780  1.00  0.00    -0.259 C  
BRANCH   6  10
HETATM   10  C   UNL     1      -7.906   6.520  72.926  1.00  0.00    -0.101 C  
BRANCH  10  11
HETATM   11  C   UNL     1      -6.483   6.974  72.551  1.00  0.00    -0.053 C  
HETATM   12  C   UNL     1      -5.603   5.880  71.973  1.00  0.00    -0.023 C  
ENDBRANCH  10  11
BRANCH  10  13
HETATM   13  C   UNL     1      -8.675   7.660  73.665  1.00  0.00    -0.231 C  
HETATM   14  N   UNL     1      -9.899   7.393  74.195  1.00  0.00    -0.418 N  
HETATM   15  O   UNL     1      -8.184   8.775  73.838  1.00  0.00    -0.346 OA 
HETATM   16  H1  UNL     1     -10.401   8.138  74.677  1.00  0.00     0.000 HD 
HETATM   17  H2  UNL     1     -10.308   6.462  74.112  1.00  0.00     0.000 HD 
ENDBRANCH  10  13
ENDBRANCH   6  10
ENDBRANCH   3   4
ENDBRANCH   2   3
TORSDOF 5
ENDMDL
MODEL      252
REMARK 921   NORMALIZED FREE ENERGY PREDICTED BY IDOCK:   -2.06 KCAL/MOL
REMARK 922        TOTAL FREE ENERGY PREDICTED BY IDOCK:   -3.21 KCAL/MOL
REMARK 923 INTER-LIGAND FREE ENERGY PREDICTED BY IDOCK:   -2.68 KCAL/MOL
REMARK 924 INTRA-LIGAND FREE ENERGY PREDICTED BY IDOCK:   -0.54 KCAL/MOL
REMARK 927      BINDING AFFINITY PREDICTED BY RF-SCORE:    0.00 PKD
ROOT
HETATM    1  C   UNL     1     -10.602   5.147  66.446  1.00  0.00    -0.336 C  
HETATM    2  C   UNL     1      -9.298   5.327  67.213  1.00  0.00    -0.123 C  
ENDROOT
BRANCH   2   3
HETATM    3  C   UNL     1      -9.575   5.632  68.684  1.00  0.00    -0.163 C  
BRANCH   3   4
HETATM    4  C   UNL     1      -9.289   7.082  69.086  1.00  0.00    -0.140 C  
HETATM    5  C   UNL     1      -8.620   7.938  68.022  1.00  0.00    -0.126 C  
HETATM    6  N   UNL     1      -9.059   9.281  68.332  1.00  0.00    -0.129 N  
HETATM    7  C   UNL     1     -10.343   9.229  68.839  1.00  0.00    -0.214 C  
HETATM    8  O   UNL     1     -11.143  10.150  68.919  1.00  0.00    -0.231 OA 
HETATM    9  C   UNL     1     -10.591   7.840  69.377  1.00  0.00    -0.211 C  
BRANCH   6  10
HETATM   10  C   UNL     1      -8.393  10.451  67.725  1.00  0.00    -0.114 C  
BRANCH  10  11
HETATM   11  C   UNL     1      -8.647  10.630  66.217  1.00  0.00    -0.156 C  
HETATM   12  C   UNL     1      -7.419  10.449  65.343  1.00  0.00    -0.127 C  
ENDBRANCH  10  11
BRANCH  10  13
HETATM   13  C   UNL     1      -8.365  11.832  68.451  1.00  0.00    -0.153 C  
HETATM   14  N   UNL     1      -9.512  12.558  68.527  1.00  0.00    -0.374 N  
HETATM   15  O   UNL     1      -7.355  12.256  69.012  1.00  0.00    -0.079 OA 
HETATM   16  H1  UNL     1      -9.494  13.461  69.002  1.00  0.00     0.000 HD 
HETATM   17  H2  UNL     1     -10.377  12.207  68.117  1.00  0.00     0.000 HD 
ENDBRANCH  10  13
ENDBRANCH   6  10
ENDBRANCH   3   4
ENDBRANCH   2   3
TORSDOF 5
ENDMDL
MODEL      253
REMARK 921   NORMALIZED FREE ENERGY PREDICTED BY IDOCK:   -2.02 KCAL/MOL
REMARK 922        TOTAL FREE ENERGY PREDICTED BY IDOCK:   -3.17 KCAL/MOL
REMARK 923 INTER-LIGAND FREE ENERGY PREDICTED BY IDOCK:   -3.01 KCAL/MOL
REMARK 924 INTRA-LIGAND FREE ENERGY PREDICTED BY IDOCK:   -0.16 KCAL/MOL
REMARK 927      BINDING AFFINITY PREDICTED BY RF-SCORE:    0.00 PKD
ROOT
HETATM    1  C   UNL     1     -10.409   6.406  74.130  1.00  0.00    -0.335 C  
HETATM    2  C   UNL     1     -10.740   7.642  73.304  1.00  0.00    -0.409 C  
ENDROOT
BRANCH   2   3
HETATM    3  C   UNL     1     -11.221   7.245  71.909  1.00  0.00    -0.281 C  
BRANCH   3   4
HETATM    4  C   UNL     1     -10.291   6.270  71.181  1.00  0.00    -0.255 C  
HETATM    5  C   UNL     1     -10.804   5.743  69.850  1.00  0.00    -0.347 C  
HETATM    6  N   UNL     1      -9.599   5.452  69.106  1.00  0.00    -0.132 N  
HETATM    7  C   UNL     1      -8.624   6.367  69.451  1.00  0.00    -0.130 C  
HETATM    8  O   UNL     1      -7.607   6.635  68.828  1.00  0.00    -0.100 OA 
HETATM    9  C   UNL     1      -8.968   6.948  70.803  1.00  0.00    -0.150 C  
BRANCH   6  10
HETATM   10  C   UNL     1      -9.651   4.635  67.877  1.00  0.00    -0.157 C  
BRANCH  10  11
HETATM   11  C   UNL     1     -10.418   5.277  66.706  1.00  0.00    -0.330 C  
HETATM   12  C   UNL     1     -10.662   4.352  65.527  1.00  0.00    -0.126 C  
ENDBRANCH  10  11
BRANCH  10  13
HETATM   13  C   UNL     1      -8.394   3.869  67.362  1.00  0.00    -0.098 C  
HETATM   14  N   UNL     1      -8.313   2.526  67.563  1.00  0.00    -0.081 N  
HETATM   15  O   UNL     1      -7.501   4.428  66.725  1.00  0.00    -0.079 OA 
HETATM   16  H1  UNL     1      -7.490   2.025  67.227  1.00  0.00     0.000 HD 
HETATM   17  H2  UNL     1      -9.062   2.027  68.043  1.00  0.00     0.000 HD 
ENDBRANCH  10  13
ENDBRANCH   6  10
ENDBRANCH   3   4
ENDBRANCH   2   3
TORSDOF 5
ENDMDL
MODEL      254
REMARK 921   NORMALIZED FREE ENERGY PREDICTED BY IDOCK:   -2.01 KCAL/MOL
REMARK 922        TOTAL FREE ENERGY PREDICTED BY IDOCK:   -3.15 KCAL/MOL
REMARK 923 INTER-LIGAND FREE ENERGY PREDICTED BY IDOCK:   -3.23 KCAL/MOL
REMARK 924 INTRA-LIGAND FREE ENERGY PREDICTED BY IDOCK:    0.08 KCAL/MOL
REMARK 927      BINDING AFFINITY PREDICTED BY RF-SCORE:    0.00 PKD
ROOT
HETATM    1  C   UNL     1      -5.385  13.765  71.474  1.00  0.00    -0.208 C  
HETATM    2  C   UNL     1      -5.352  13.883  69.956  1.00  0.00    -0.096 C  
ENDROOT
BRANCH   2   3
HETATM    3  C   UNL     1      -5.491  12.507  69.306  1.00  0.00    -0.072 C  
BRANCH   3   4
HETATM    4  C   UNL     1      -6.399  12.488  68.073  1.00  0.00    -0.087 C  
HETATM    5  C   UNL     1      -7.716  11.747  68.240  1.00  0.00    -0.130 C  
HETATM    6  N   UNL     1      -8.603  12.403  67.304  1.00  0.00    -0.178 N  
HETATM    7  C   UNL     1      -8.270  13.742  67.231  1.00  0.00    -0.159 C  
HETATM    8  O   UNL     1      -8.963  14.654  66.804  1.00  0.00    -0.246 OA 
HETATM    9  C   UNL     1      -6.841  13.907  67.692  1.00  0.00    -0.193 C  
BRANCH   6  10
HETATM   10  C   UNL     1      -9.894  11.790  66.933  1.00  0.00    -0.203 C  
BRANCH  10  11
HETATM   11  C   UNL     1      -9.810  10.734  65.815  1.00  0.00    -0.292 C  
HETATM   12  C   UNL     1      -8.411  10.492  65.278  1.00  0.00    -0.155 C  
ENDBRANCH  10  11
BRANCH  10  13
HETATM   13  C   UNL     1     -10.929  11.366  68.020  1.00  0.00    -0.237 C  
HETATM   14  N   UNL     1     -10.479  10.970  69.240  1.00  0.00    -0.332 N  
HETATM   15  O   UNL     1     -12.144  11.437  67.830  1.00  0.00    -0.637 OA 
HETATM   16  H1  UNL     1     -11.156  10.693  69.951  1.00  0.00     0.000 HD 
HETATM   17  H2  UNL     1      -9.479  10.951  69.443  1.00  0.00     0.000 HD 
ENDBRANCH  10  13
ENDBRANCH   6  10
ENDBRANCH   3   4
ENDBRANCH   2   3
TORSDOF 5
ENDMDL
MODEL      255
REMARK 921   NORMALIZED FREE ENERGY PREDICTED BY IDOCK:   -2.00 KCAL/MOL
REMARK 922        TOTAL FREE ENERGY PREDICTED BY IDOCK:   -3.14 KCAL/MOL
REMARK 923 INTER-LIGAND FREE ENERGY PREDICTED BY IDOCK:   -2.98 KCAL/MOL
REMARK 924 INTRA-LIGAND FREE ENERGY PREDICTED BY IDOCK:   -0.16 KCAL/MOL
REMARK 927      BINDING AFFINITY PREDICTED BY RF-SCORE:    0.00 PKD
ROOT
HETATM    1  C   UNL     1      -8.878   6.078  70.737  1.00  0.00    -0.139 C  
HETATM    2  C   UNL     1      -8.233   7.295  70.085  1.00  0.00    -0.134 C  
ENDROOT
BRANCH   2   3
HETATM    3  C   UNL     1      -8.126   7.102  68.573  1.00  0.00    -0.125 C  
BRANCH   3   4
HETATM    4  C   UNL     1      -8.636   8.292  67.754  1.00  0.00    -0.131 C  
HETATM    5  C   UNL     1     -10.059   8.734  68.055  1.00  0.00    -0.196 C  
HETATM    6  N   UNL     1     -10.061  10.142  67.726  1.00  0.00    -0.171 N  
HETATM    7  C   UNL     1      -8.820  10.674  68.017  1.00  0.00    -0.130 C  
HETATM    8  O   UNL     1      -8.539  11.855  68.167  1.00  0.00    -0.152 OA 
HETATM    9  C   UNL     1      -7.810   9.552  68.041  1.00  0.00    -0.087 C  
BRANCH   6  10
HETATM   10  C   UNL     1     -11.331  10.882  67.585  1.00  0.00    -0.270 C  
BRANCH  10  11
HETATM   11  C   UNL     1     -12.086  11.127  68.904  1.00  0.00    -0.276 C  
HETATM   12  C   UNL     1     -11.384  12.064  69.870  1.00  0.00    -0.144 C  
ENDBRANCH  10  11
BRANCH  10  13
HETATM   13  C   UNL     1     -11.445  12.120  66.642  1.00  0.00    -0.365 C  
HETATM   14  N   UNL     1     -10.872  12.065  65.410  1.00  0.00    -0.282 N  
HETATM   15  O   UNL     1     -12.089  13.122  66.953  1.00  0.00    -0.379 OA 
HETATM   16  H1  UNL     1     -10.946  12.874  64.794  1.00  0.00     0.000 HD 
HETATM   17  H2  UNL     1     -10.375  11.227  65.106  1.00  0.00     0.000 HD 
ENDBRANCH  10  13
ENDBRANCH   6  10
ENDBRANCH   3   4
ENDBRANCH   2   3
TORSDOF 5
ENDMDL
MODEL      256
REMARK 921   NORMALIZED FREE ENERGY PREDICTED BY IDOCK:   -2.00 KCAL/MOL
REMARK 922        TOTAL FREE ENERGY PREDICTED BY IDOCK:   -3.14 KCAL/MOL
REMARK 923 INTER-LIGAND FREE ENERGY PREDICTED BY IDOCK:   -2.59 KCAL/MOL
REMARK 924 INTRA-LIGAND FREE ENERGY PREDICTED BY IDOCK:   -0.55 KCAL/MOL
REMARK 927      BINDING AFFINITY PREDICTED BY RF-SCORE:    0.00 PKD
ROOT
HETATM    1  C   UNL     1      -8.244   3.008  67.686  1.00  0.00    -0.087 C  
HETATM    2  C   UNL     1      -8.267   4.183  68.655  1.00  0.00    -0.088 C  
ENDROOT
BRANCH   2   3
HETATM    3  C   UNL     1      -9.680   4.416  69.186  1.00  0.00    -0.240 C  
BRANCH   3   4
HETATM    4  C   UNL     1     -10.144   5.873  69.112  1.00  0.00    -0.244 C  
HETATM    5  C   UNL     1      -9.151   6.904  69.627  1.00  0.00    -0.143 C  
HETATM    6  N   UNL     1      -9.474   8.098  68.877  1.00  0.00    -0.151 N  
HETATM    7  C   UNL     1      -9.897   7.737  67.613  1.00  0.00    -0.163 C  
HETATM    8  O   UNL     1      -9.955   8.449  66.621  1.00  0.00    -0.245 OA 
HETATM    9  C   UNL     1     -10.375   6.304  67.659  1.00  0.00    -0.243 C  
BRANCH   6  10
HETATM   10  C   UNL     1      -8.946   9.414  69.292  1.00  0.00    -0.154 C  
BRANCH  10  11
HETATM   11  C   UNL     1      -9.862  10.208  70.241  1.00  0.00    -0.022 C  
HETATM   12  C   UNL     1     -11.303  10.324  69.779  1.00  0.00    -0.334 C  
ENDBRANCH  10  11
BRANCH  10  13
HETATM   13  C   UNL     1      -7.448   9.596  69.686  1.00  0.00    -0.102 C  
HETATM   14  N   UNL     1      -6.485   9.264  68.784  1.00  0.00    -0.048 N  
HETATM   15  O   UNL     1      -7.109  10.088  70.762  1.00  0.00    -0.324 OA 
HETATM   16  H1  UNL     1      -5.505   9.383  69.042  1.00  0.00     0.000 HD 
HETATM   17  H2  UNL     1      -6.738   8.903  67.865  1.00  0.00     0.000 HD 
ENDBRANCH  10  13
ENDBRANCH   6  10
ENDBRANCH   3   4
ENDBRANCH   2   3
TORSDOF 5
ENDMDL
MODEL      257
REMARK 921   NORMALIZED FREE ENERGY PREDICTED BY IDOCK:   -1.99 KCAL/MOL
REMARK 922        TOTAL FREE ENERGY PREDICTED BY IDOCK:   -3.13 KCAL/MOL
REMARK 923 INTER-LIGAND FREE ENERGY PREDICTED BY IDOCK:   -2.71 KCAL/MOL
REMARK 924 INTRA-LIGAND FREE ENERGY PREDICTED BY IDOCK:   -0.42 KCAL/MOL
REMARK 927      BINDING AFFINITY PREDICTED BY RF-SCORE:    0.00 PKD
ROOT
HETATM    1  C   UNL     1      -5.922  13.745  70.563  1.00  0.00    -0.161 C  
HETATM    2  C   UNL     1      -6.100  13.376  69.096  1.00  0.00    -0.093 C  
ENDROOT
BRANCH   2   3
HETATM    3  C   UNL     1      -5.871  11.880  68.885  1.00  0.00    -0.052 C  
BRANCH   3   4
HETATM    4  C   UNL     1      -6.871  10.985  69.624  1.00  0.00    -0.129 C  
HETATM    5  C   UNL     1      -8.335  11.223  69.291  1.00  0.00     0.182 C  
HETATM    6  N   UNL     1      -8.957   9.939  69.528  1.00  0.00    -0.198 N  
HETATM    7  C   UNL     1      -8.061   8.938  69.207  1.00  0.00    -0.109 C  
HETATM    8  O   UNL     1      -8.314   7.763  68.982  1.00  0.00    -0.128 OA 
HETATM    9  C   UNL     1      -6.664   9.510  69.259  1.00  0.00    -0.049 C  
BRANCH   6  10
HETATM   10  C   UNL     1     -10.426   9.818  69.617  1.00  0.00    -0.242 C  
BRANCH  10  11
HETATM   11  C   UNL     1     -10.972   9.599  71.040  1.00  0.00    -0.431 C  
HETATM   12  C   UNL     1      -9.976   8.994  72.013  1.00  0.00    -0.225 C  
ENDBRANCH  10  11
BRANCH  10  13
HETATM   13  C   UNL     1     -11.365  10.759  68.801  1.00  0.00    -0.288 C  
HETATM   14  N   UNL     1     -11.986  11.786  69.441  1.00  0.00    -0.310 N  
HETATM   15  O   UNL     1     -11.514  10.641  67.585  1.00  0.00    -0.474 OA 
HETATM   16  H1  UNL     1     -12.600  12.401  68.907  1.00  0.00     0.000 HD 
HETATM   17  H2  UNL     1     -11.840  11.940  70.439  1.00  0.00     0.000 HD 
ENDBRANCH  10  13
ENDBRANCH   6  10
ENDBRANCH   3   4
ENDBRANCH   2   3
TORSDOF 5
ENDMDL
MODEL      258
REMARK 921   NORMALIZED FREE ENERGY PREDICTED BY IDOCK:   -1.98 KCAL/MOL
REMARK 922        TOTAL FREE ENERGY PREDICTED BY IDOCK:   -3.12 KCAL/MOL
REMARK 923 INTER-LIGAND FREE ENERGY PREDICTED BY IDOCK:   -3.04 KCAL/MOL
REMARK 924 INTRA-LIGAND FREE ENERGY PREDICTED BY IDOCK:   -0.08 KCAL/MOL
REMARK 927      BINDING AFFINITY PREDICTED BY RF-SCORE:    0.00 PKD
ROOT
HETATM    1  C   UNL     1      -5.411  13.237  70.899  1.00  0.00    -0.171 C  
HETATM    2  C   UNL     1      -6.496  14.010  70.161  1.00  0.00    -0.055 C  
ENDROOT
BRANCH   2   3
HETATM    3  C   UNL     1      -6.620  13.521  68.719  1.00  0.00    -0.102 C  
BRANCH   3   4
HETATM    4  C   UNL     1      -7.916  13.948  68.024  1.00  0.00    -0.154 C  
HETATM    5  C   UNL     1      -8.411  13.016  66.929  1.00  0.00    -0.022 C  
HETATM    6  N   UNL     1      -9.843  13.217  66.924  1.00  0.00    -0.241 N  
HETATM    7  C   UNL     1     -10.266  13.475  68.213  1.00  0.00    -0.250 C  
HETATM    8  O   UNL     1     -11.405  13.389  68.649  1.00  0.00    -0.249 OA 
HETATM    9  C   UNL     1      -9.088  13.977  69.014  1.00  0.00     0.155 C  
BRANCH   6  10
HETATM   10  C   UNL     1     -10.669  12.729  65.802  1.00  0.00    -0.272 C  
BRANCH  10  11
HETATM   11  C   UNL     1     -11.492  13.814  65.084  1.00  0.00    -0.329 C  
HETATM   12  C   UNL     1     -10.903  15.211  65.167  1.00  0.00    -0.437 C  
ENDBRANCH  10  11
BRANCH  10  13
HETATM   13  C   UNL     1     -10.111  11.690  64.780  1.00  0.00    -0.260 C  
HETATM   14  N   UNL     1     -10.580  11.703  63.504  1.00  0.00    -0.451 N  
HETATM   15  O   UNL     1      -9.214  10.899  65.075  1.00  0.00    -0.199 OA 
HETATM   16  H1  UNL     1     -10.215  11.023  62.837  1.00  0.00     0.000 HD 
HETATM   17  H2  UNL     1     -11.286  12.381  63.218  1.00  0.00     0.000 HD 
ENDBRANCH  10  13
ENDBRANCH   6  10
ENDBRANCH   3   4
ENDBRANCH   2   3
TORSDOF 5
ENDMDL
MODEL      259
REMARK 921   NORMALIZED FREE ENERGY PREDICTED BY IDOCK:   -1.96 KCAL/MOL
REMARK 922        TOTAL FREE ENERGY PREDICTED BY IDOCK:   -3.09 KCAL/MOL
REMARK 923 INTER-LIGAND FREE ENERGY PREDICTED BY IDOCK:   -2.67 KCAL/MOL
REMARK 924 INTRA-LIGAND FREE ENERGY PREDICTED BY IDOCK:   -0.42 KCAL/MOL
REMARK 927      BINDING AFFINITY PREDICTED BY RF-SCORE:    0.00 PKD
ROOT
HETATM    1  C   UNL     1      -5.279  12.619  72.379  1.00  0.00     0.251 C  
HETATM    2  C   UNL     1      -5.602  13.329  71.070  1.00  0.00    -0.189 C  
ENDROOT
BRANCH   2   3
HETATM    3  C   UNL     1      -5.647  12.332  69.913  1.00  0.00    -0.112 C  
BRANCH   3   4
HETATM    4  C   UNL     1      -6.574  12.747  68.766  1.00  0.00    -0.090 C  
HETATM    5  C   UNL     1      -7.798  11.869  68.561  1.00  0.00    -0.136 C  
HETATM    6  N   UNL     1      -8.771  12.765  67.974  1.00  0.00    -0.187 N  
HETATM    7  C   UNL     1      -8.588  14.032  68.493  1.00  0.00    -0.147 C  
HETATM    8  O   UNL     1      -9.385  14.958  68.481  1.00  0.00    -0.183 OA 
HETATM    9  C   UNL     1      -7.176  14.135  69.021  1.00  0.00    -0.110 C  
BRANCH   6  10
HETATM   10  C   UNL     1      -9.994  12.236  67.339  1.00  0.00    -0.201 C  
BRANCH  10  11
HETATM   11  C   UNL     1     -11.181  12.024  68.297  1.00  0.00    -0.315 C  
HETATM   12  C   UNL     1     -11.357  10.595  68.778  1.00  0.00    -0.339 C  
ENDBRANCH  10  11
BRANCH  10  13
HETATM   13  C   UNL     1     -10.485  12.774  65.959  1.00  0.00    -0.274 C  
HETATM   14  N   UNL     1     -11.556  12.184  65.365  1.00  0.00    -0.349 N  
HETATM   15  O   UNL     1      -9.973  13.756  65.420  1.00  0.00    -0.294 OA 
HETATM   16  H1  UNL     1     -11.877  12.536  64.463  1.00  0.00     0.000 HD 
HETATM   17  H2  UNL     1     -12.033  11.401  65.814  1.00  0.00     0.000 HD 
ENDBRANCH  10  13
ENDBRANCH   6  10
ENDBRANCH   3   4
ENDBRANCH   2   3
TORSDOF 5
ENDMDL
MODEL      260
REMARK 921   NORMALIZED FREE ENERGY PREDICTED BY IDOCK:   -1.96 KCAL/MOL
REMARK 922        TOTAL FREE ENERGY PREDICTED BY IDOCK:   -3.09 KCAL/MOL
REMARK 923 INTER-LIGAND FREE ENERGY PREDICTED BY IDOCK:   -2.63 KCAL/MOL
REMARK 924 INTRA-LIGAND FREE ENERGY PREDICTED BY IDOCK:   -0.46 KCAL/MOL
REMARK 927      BINDING AFFINITY PREDICTED BY RF-SCORE:    0.00 PKD
ROOT
HETATM    1  C   UNL     1      -6.019  13.603  70.422  1.00  0.00    -0.148 C  
HETATM    2  C   UNL     1      -6.381  14.006  68.998  1.00  0.00    -0.097 C  
ENDROOT
BRANCH   2   3
HETATM    3  C   UNL     1      -5.932  12.935  68.005  1.00  0.00    -0.107 C  
BRANCH   3   4
HETATM    4  C   UNL     1      -6.785  11.664  68.029  1.00  0.00    -0.064 C  
HETATM    5  C   UNL     1      -8.280  11.873  67.844  1.00  0.00    -0.150 C  
HETATM    6  N   UNL     1      -8.731  10.634  67.250  1.00  0.00    -0.129 N  
HETATM    7  C   UNL     1      -7.734  10.136  66.434  1.00  0.00    -0.111 C  
HETATM    8  O   UNL     1      -7.852   9.303  65.546  1.00  0.00    -0.097 OA 
HETATM    9  C   UNL     1      -6.416  10.730  66.870  1.00  0.00    -0.090 C  
BRANCH   6  10
HETATM   10  C   UNL     1     -10.170  10.306  67.191  1.00  0.00    -0.225 C  
BRANCH  10  11
HETATM   11  C   UNL     1     -10.546   8.935  67.782  1.00  0.00    -0.266 C  
HETATM   12  C   UNL     1      -9.531   8.368  68.758  1.00  0.00    -0.147 C  
ENDBRANCH  10  11
BRANCH  10  13
HETATM   13  C   UNL     1     -11.256  11.374  67.531  1.00  0.00    -0.292 C  
HETATM   14  N   UNL     1     -11.747  11.434  68.798  1.00  0.00    -0.319 N  
HETATM   15  O   UNL     1     -11.638  12.205  66.706  1.00  0.00    -0.392 OA 
HETATM   16  H1  UNL     1     -12.457  12.132  69.019  1.00  0.00     0.000 HD 
HETATM   17  H2  UNL     1     -11.411  10.792  69.515  1.00  0.00     0.000 HD 
ENDBRANCH  10  13
ENDBRANCH   6  10
ENDBRANCH   3   4
ENDBRANCH   2   3
TORSDOF 5
ENDMDL
MODEL      261
REMARK 921   NORMALIZED FREE ENERGY PREDICTED BY IDOCK:   -1.88 KCAL/MOL
REMARK 922        TOTAL FREE ENERGY PREDICTED BY IDOCK:   -2.99 KCAL/MOL
REMARK 923 INTER-LIGAND FREE ENERGY PREDICTED BY IDOCK:   -2.62 KCAL/MOL
REMARK 924 INTRA-LIGAND FREE ENERGY PREDICTED BY IDOCK:   -0.37 KCAL/MOL
REMARK 927      BINDING AFFINITY PREDICTED BY RF-SCORE:    0.00 PKD
ROOT
HETATM    1  C   UNL     1      -9.553   9.356  70.550  1.00  0.00    -0.330 C  
HETATM    2  C   UNL     1     -10.290   8.748  69.364  1.00  0.00    -0.217 C  
ENDROOT
BRANCH   2   3
HETATM    3  C   UNL     1     -10.874   7.385  69.734  1.00  0.00    -0.246 C  
BRANCH   3   4
HETATM    4  C   UNL     1      -9.821   6.326  70.074  1.00  0.00    -0.200 C  
HETATM    5  C   UNL     1      -9.943   5.699  71.454  1.00  0.00    -0.186 C  
HETATM    6  N   UNL     1      -9.364   4.384  71.289  1.00  0.00    -0.137 N  
HETATM    7  C   UNL     1      -9.635   3.930  70.013  1.00  0.00    -0.199 C  
HETATM    8  O   UNL     1      -9.587   2.775  69.614  1.00  0.00    -0.113 OA 
HETATM    9  C   UNL     1      -9.928   5.121  69.131  1.00  0.00    -0.273 C  
BRANCH   6  10
HETATM   10  C   UNL     1      -9.008   3.564  72.464  1.00  0.00    -0.092 C  
BRANCH  10  11
HETATM   11  C   UNL     1     -10.012   2.447  72.801  1.00  0.00    -0.201 C  
HETATM   12  C   UNL     1     -11.277   2.921  73.494  1.00  0.00    -0.301 C  
ENDBRANCH  10  11
BRANCH  10  13
HETATM   13  C   UNL     1      -7.543   3.083  72.700  1.00  0.00    -0.053 C  
HETATM   14  N   UNL     1      -6.948   3.343  73.895  1.00  0.00    -0.044 N  
HETATM   15  O   UNL     1      -6.929   2.421  71.863  1.00  0.00    -0.028 OA 
HETATM   16  H1  UNL     1      -5.990   3.029  74.048  1.00  0.00     0.000 HD 
HETATM   17  H2  UNL     1      -7.451   3.845  74.626  1.00  0.00     0.000 HD 
ENDBRANCH  10  13
ENDBRANCH   6  10
ENDBRANCH   3   4
ENDBRANCH   2   3
TORSDOF 5
ENDMDL
MODEL      262
REMARK 921   NORMALIZED FREE ENERGY PREDICTED BY IDOCK:   -1.85 KCAL/MOL
REMARK 922        TOTAL FREE ENERGY PREDICTED BY IDOCK:   -2.94 KCAL/MOL
REMARK 923 INTER-LIGAND FREE ENERGY PREDICTED BY IDOCK:   -2.44 KCAL/MOL
REMARK 924 INTRA-LIGAND FREE ENERGY PREDICTED BY IDOCK:   -0.51 KCAL/MOL
REMARK 927      BINDING AFFINITY PREDICTED BY RF-SCORE:    0.00 PKD
ROOT
HETATM    1  C   UNL     1      -9.076   9.855  69.704  1.00  0.00    -0.245 C  
HETATM    2  C   UNL     1     -10.087   9.262  68.730  1.00  0.00    -0.210 C  
ENDROOT
BRANCH   2   3
HETATM    3  C   UNL     1     -10.737   8.013  69.323  1.00  0.00    -0.140 C  
BRANCH   3   4
HETATM    4  C   UNL     1      -9.741   6.924  69.732  1.00  0.00    -0.166 C  
HETATM    5  C   UNL     1      -9.832   6.463  71.178  1.00  0.00    -0.179 C  
HETATM    6  N   UNL     1      -9.352   5.099  71.136  1.00  0.00    -0.144 N  
HETATM    7  C   UNL     1      -9.719   4.529  69.933  1.00  0.00    -0.218 C  
HETATM    8  O   UNL     1      -9.768   3.337  69.665  1.00  0.00    -0.126 OA 
HETATM    9  C   UNL     1      -9.978   5.634  68.937  1.00  0.00    -0.222 C  
BRANCH   6  10
HETATM   10  C   UNL     1      -8.990   4.389  72.380  1.00  0.00    -0.119 C  
BRANCH  10  11
HETATM   11  C   UNL     1      -7.860   5.045  73.194  1.00  0.00    -0.100 C  
HETATM   12  C   UNL     1      -6.510   5.063  72.502  1.00  0.00    -0.043 C  
ENDBRANCH  10  11
BRANCH  10  13
HETATM   13  C   UNL     1     -10.086   3.802  73.323  1.00  0.00    -0.142 C  
HETATM   14  N   UNL     1     -10.421   2.490  73.207  1.00  0.00    -0.132 N  
HETATM   15  O   UNL     1     -10.612   4.473  74.211  1.00  0.00    -0.250 OA 
HETATM   16  H1  UNL     1     -11.138   2.107  73.823  1.00  0.00     0.000 HD 
HETATM   17  H2  UNL     1      -9.964   1.897  72.514  1.00  0.00     0.000 HD 
ENDBRANCH  10  13
ENDBRANCH   6  10
ENDBRANCH   3   4
ENDBRANCH   2   3
TORSDOF 5
ENDMDL
MODEL      263
REMARK 921   NORMALIZED FREE ENERGY PREDICTED BY IDOCK:   -1.77 KCAL/MOL
REMARK 922        TOTAL FREE ENERGY PREDICTED BY IDOCK:   -2.84 KCAL/MOL
REMARK 923 INTER-LIGAND FREE ENERGY PREDICTED BY IDOCK:   -2.43 KCAL/MOL
REMARK 924 INTRA-LIGAND FREE ENERGY PREDICTED BY IDOCK:   -0.41 KCAL/MOL
REMARK 927      BINDING AFFINITY PREDICTED BY RF-SCORE:    0.00 PKD
ROOT
HETATM    1  C   UNL     1      -9.685  10.674  67.906  1.00  0.00    -0.177 C  
HETATM    2  C   UNL     1     -10.437   9.444  68.396  1.00  0.00    -0.256 C  
ENDROOT
BRANCH   2   3
HETATM    3  C   UNL     1     -10.627   8.440  67.260  1.00  0.00    -0.328 C  
BRANCH   3   4
HETATM    4  C   UNL     1     -10.434   6.979  67.678  1.00  0.00    -0.301 C  
HETATM    5  C   UNL     1      -9.032   6.609  68.137  1.00  0.00    -0.121 C  
HETATM    6  N   UNL     1      -9.247   5.510  69.052  1.00  0.00    -0.117 N  
HETATM    7  C   UNL     1     -10.443   5.704  69.716  1.00  0.00    -0.306 C  
HETATM    8  O   UNL     1     -10.804   5.175  70.757  1.00  0.00    -0.132 OA 
HETATM    9  C   UNL     1     -11.303   6.635  68.894  1.00  0.00    -0.209 C  
BRANCH   6  10
HETATM   10  C   UNL     1      -8.121   4.659  69.486  1.00  0.00    -0.065 C  
BRANCH  10  11
HETATM   11  C   UNL     1      -8.401   3.145  69.445  1.00  0.00    -0.088 C  
HETATM   12  C   UNL     1      -9.070   2.660  68.171  1.00  0.00    -0.229 C  
ENDBRANCH  10  11
BRANCH  10  13
HETATM   13  C   UNL     1      -6.658   4.964  69.038  1.00  0.00    -0.045 C  
HETATM   14  N   UNL     1      -6.244   4.547  67.812  1.00  0.00    -0.035 N  
HETATM   15  O   UNL     1      -5.886   5.626  69.732  1.00  0.00    -0.018 OA 
HETATM   16  H1  UNL     1      -5.287   4.747  67.519  1.00  0.00     0.000 HD 
HETATM   17  H2  UNL     1      -6.879   4.042  67.194  1.00  0.00     0.000 HD 
ENDBRANCH  10  13
ENDBRANCH   6  10
ENDBRANCH   3   4
ENDBRANCH   2   3
TORSDOF 5
ENDMDL
MODEL      264
REMARK 921   NORMALIZED FREE ENERGY PREDICTED BY IDOCK:   -1.68 KCAL/MOL
REMARK 922        TOTAL FREE ENERGY PREDICTED BY IDOCK:   -2.72 KCAL/MOL
REMARK 923 INTER-LIGAND FREE ENERGY PREDICTED BY IDOCK:   -2.37 KCAL/MOL
REMARK 924 INTRA-LIGAND FREE ENERGY PREDICTED BY IDOCK:   -0.35 KCAL/MOL
REMARK 927      BINDING AFFINITY PREDICTED BY RF-SCORE:    0.00 PKD
ROOT
HETATM    1  C   UNL     1      -9.675  10.685  67.914  1.00  0.00    -0.177 C  
HETATM    2  C   UNL     1     -10.359   9.430  68.443  1.00  0.00    -0.238 C  
ENDROOT
BRANCH   2   3
HETATM    3  C   UNL     1     -10.505   8.388  67.335  1.00  0.00    -0.354 C  
BRANCH   3   4
HETATM    4  C   UNL     1     -10.189   6.957  67.778  1.00  0.00    -0.224 C  
HETATM    5  C   UNL     1      -8.753   6.706  68.211  1.00  0.00    -0.118 C  
HETATM    6  N   UNL     1      -8.862   5.614  69.153  1.00  0.00    -0.110 N  
HETATM    7  C   UNL     1     -10.054   5.730  69.841  1.00  0.00    -0.209 C  
HETATM    8  O   UNL     1     -10.351   5.197  70.901  1.00  0.00    -0.229 OA 
HETATM    9  C   UNL     1     -11.002   6.573  69.021  1.00  0.00    -0.378 C  
BRANCH   6  10
HETATM   10  C   UNL     1      -7.664   4.863  69.578  1.00  0.00    -0.067 C  
BRANCH  10  11
HETATM   11  C   UNL     1      -6.619   5.693  70.347  1.00  0.00    -0.046 C  
HETATM   12  C   UNL     1      -7.191   6.562  71.452  1.00  0.00    -0.079 C  
ENDBRANCH  10  11
BRANCH  10  13
HETATM   13  C   UNL     1      -7.781   3.426  70.176  1.00  0.00    -0.044 C  
HETATM   14  N   UNL     1      -8.099   3.284  71.490  1.00  0.00    -0.060 N  
HETATM   15  O   UNL     1      -7.656   2.417  69.482  1.00  0.00    -0.043 OA 
HETATM   16  H1  UNL     1      -8.175   2.345  71.881  1.00  0.00     0.000 HD 
HETATM   17  H2  UNL     1      -8.260   4.103  72.077  1.00  0.00     0.000 HD 
ENDBRANCH  10  13
ENDBRANCH   6  10
ENDBRANCH   3   4
ENDBRANCH   2   3
TORSDOF 5
ENDMDL
MODEL      265
REMARK 921   NORMALIZED FREE ENERGY PREDICTED BY IDOCK:   -1.66 KCAL/MOL
REMARK 922        TOTAL FREE ENERGY PREDICTED BY IDOCK:   -2.70 KCAL/MOL
REMARK 923 INTER-LIGAND FREE ENERGY PREDICTED BY IDOCK:   -2.26 KCAL/MOL
REMARK 924 INTRA-LIGAND FREE ENERGY PREDICTED BY IDOCK:   -0.44 KCAL/MOL
REMARK 927      BINDING AFFINITY PREDICTED BY RF-SCORE:    0.00 PKD
ROOT
HETATM    1  C   UNL     1     -10.053   9.504  68.000  1.00  0.00    -0.226 C  
HETATM    2  C   UNL     1     -10.115   8.668  66.728  1.00  0.00    -0.366 C  
ENDROOT
BRANCH   2   3
HETATM    3  C   UNL     1     -10.631   7.262  67.031  1.00  0.00    -0.415 C  
BRANCH   3   4
HETATM    4  C   UNL     1      -9.538   6.191  67.075  1.00  0.00    -0.153 C  
HETATM    5  C   UNL     1      -8.933   5.926  68.444  1.00  0.00    -0.112 C  
HETATM    6  N   UNL     1      -8.501   4.548  68.370  1.00  0.00    -0.092 N  
HETATM    7  C   UNL     1      -9.376   3.843  67.567  1.00  0.00    -0.191 C  
HETATM    8  O   UNL     1      -9.522   2.630  67.518  1.00  0.00    -0.181 OA 
HETATM    9  C   UNL     1     -10.093   4.821  66.665  1.00  0.00    -0.276 C  
BRANCH   6  10
HETATM   10  C   UNL     1      -7.586   3.989  69.386  1.00  0.00    -0.053 C  
BRANCH  10  11
HETATM   11  C   UNL     1      -8.277   3.453  70.653  1.00  0.00    -0.075 C  
HETATM   12  C   UNL     1      -7.485   3.645  71.934  1.00  0.00    -0.056 C  
ENDBRANCH  10  11
BRANCH  10  13
HETATM   13  C   UNL     1      -6.387   3.077  68.980  1.00  0.00    -0.029 C  
HETATM   14  N   UNL     1      -5.182   3.650  68.719  1.00  0.00    -0.011 N  
HETATM   15  O   UNL     1      -6.480   1.850  68.947  1.00  0.00    -0.028 OA 
HETATM   16  H1  UNL     1      -4.398   3.054  68.453  1.00  0.00     0.000 HD 
HETATM   17  H2  UNL     1      -5.062   4.661  68.789  1.00  0.00     0.000 HD 
ENDBRANCH  10  13
ENDBRANCH   6  10
ENDBRANCH   3   4
ENDBRANCH   2   3
TORSDOF 5
ENDMDL
MODEL      266
REMARK 921   NORMALIZED FREE ENERGY PREDICTED BY IDOCK:   -1.62 KCAL/MOL
REMARK 922        TOTAL FREE ENERGY PREDICTED BY IDOCK:   -2.64 KCAL/MOL
REMARK 923 INTER-LIGAND FREE ENERGY PREDICTED BY IDOCK:   -2.14 KCAL/MOL
REMARK 924 INTRA-LIGAND FREE ENERGY PREDICTED BY IDOCK:   -0.51 KCAL/MOL
REMARK 927      BINDING AFFINITY PREDICTED BY RF-SCORE:    0.00 PKD
ROOT
HETATM    1  C   UNL     1      -5.971  11.254  69.310  1.00  0.00    -0.053 C  
HETATM    2  C   UNL     1      -6.278  10.405  70.537  1.00  0.00    -0.113 C  
ENDROOT
BRANCH   2   3
HETATM    3  C   UNL     1      -7.630   9.709  70.386  1.00  0.00    -0.176 C  
BRANCH   3   4
HETATM    4  C   UNL     1      -7.554   8.180  70.437  1.00  0.00    -0.076 C  
HETATM    5  C   UNL     1      -8.500   7.509  71.421  1.00  0.00    -0.112 C  
HETATM    6  N   UNL     1      -8.734   6.205  70.840  1.00  0.00    -0.135 N  
HETATM    7  C   UNL     1      -8.719   6.315  69.463  1.00  0.00    -0.132 C  
HETATM    8  O   UNL     1      -9.174   5.522  68.653  1.00  0.00    -0.119 OA 
HETATM    9  C   UNL     1      -7.954   7.564  69.091  1.00  0.00    -0.121 C  
BRANCH   6  10
HETATM   10  C   UNL     1      -9.354   5.126  71.635  1.00  0.00    -0.147 C  
BRANCH  10  11
HETATM   11  C   UNL     1     -10.870   5.277  71.858  1.00  0.00    -0.218 C  
HETATM   12  C   UNL     1     -11.345   4.900  73.249  1.00  0.00    -0.408 C  
ENDBRANCH  10  11
BRANCH  10  13
HETATM   13  C   UNL     1      -8.973   3.631  71.403  1.00  0.00    -0.104 C  
HETATM   14  N   UNL     1      -9.354   3.026  70.246  1.00  0.00    -0.152 N  
HETATM   15  O   UNL     1      -8.287   2.999  72.206  1.00  0.00    -0.071 OA 
HETATM   16  H1  UNL     1      -9.105   2.048  70.096  1.00  0.00     0.000 HD 
HETATM   17  H2  UNL     1      -9.879   3.541  69.540  1.00  0.00     0.000 HD 
ENDBRANCH  10  13
ENDBRANCH   6  10
ENDBRANCH   3   4
ENDBRANCH   2   3
TORSDOF 5
ENDMDL
MODEL      267
REMARK 921   NORMALIZED FREE ENERGY PREDICTED BY IDOCK:   -1.57 KCAL/MOL
REMARK 922        TOTAL FREE ENERGY PREDICTED BY IDOCK:   -2.59 KCAL/MOL
REMARK 923 INTER-LIGAND FREE ENERGY PREDICTED BY IDOCK:   -2.25 KCAL/MOL
REMARK 924 INTRA-LIGAND FREE ENERGY PREDICTED BY IDOCK:   -0.33 KCAL/MOL
REMARK 927      BINDING AFFINITY PREDICTED BY RF-SCORE:    0.00 PKD
ROOT
HETATM    1  C   UNL     1      -8.786  10.841  68.568  1.00  0.00    -0.149 C  
HETATM    2  C   UNL     1      -9.808   9.777  68.188  1.00  0.00    -0.170 C  
ENDROOT
BRANCH   2   3
HETATM    3  C   UNL     1      -9.699   9.432  66.703  1.00  0.00    -0.280 C  
BRANCH   3   4
HETATM    4  C   UNL     1      -9.952   7.956  66.384  1.00  0.00    -0.192 C  
HETATM    5  C   UNL     1      -8.719   7.139  66.034  1.00  0.00    -0.147 C  
HETATM    6  N   UNL     1      -9.069   5.794  66.436  1.00  0.00    -0.142 N  
HETATM    7  C   UNL     1      -9.883   5.854  67.550  1.00  0.00    -0.125 C  
HETATM    8  O   UNL     1     -10.121   4.953  68.342  1.00  0.00    -0.145 OA 
HETATM    9  C   UNL     1     -10.526   7.220  67.602  1.00  0.00    -0.310 C  
BRANCH   6  10
HETATM   10  C   UNL     1      -8.265   4.640  65.988  1.00  0.00    -0.110 C  
BRANCH  10  11
HETATM   11  C   UNL     1      -6.792   4.665  66.438  1.00  0.00    -0.058 C  
HETATM   12  C   UNL     1      -6.587   4.956  67.914  1.00  0.00    -0.050 C  
ENDBRANCH  10  11
BRANCH  10  13
HETATM   13  C   UNL     1      -8.836   3.189  66.039  1.00  0.00    -0.140 C  
HETATM   14  N   UNL     1      -8.654   2.448  67.165  1.00  0.00    -0.101 N  
HETATM   15  O   UNL     1      -9.499   2.714  65.116  1.00  0.00    -0.131 OA 
HETATM   16  H1  UNL     1      -9.028   1.500  67.197  1.00  0.00     0.000 HD 
HETATM   17  H2  UNL     1      -8.153   2.835  67.965  1.00  0.00     0.000 HD 
ENDBRANCH  10  13
ENDBRANCH   6  10
ENDBRANCH   3   4
ENDBRANCH   2   3
TORSDOF 5
ENDMDL
MODEL      268
REMARK 921   NORMALIZED FREE ENERGY PREDICTED BY IDOCK:   -1.56 KCAL/MOL
REMARK 922        TOTAL FREE ENERGY PREDICTED BY IDOCK:   -2.57 KCAL/MOL
REMARK 923 INTER-LIGAND FREE ENERGY PREDICTED BY IDOCK:   -2.43 KCAL/MOL
REMARK 924 INTRA-LIGAND FREE ENERGY PREDICTED BY IDOCK:   -0.14 KCAL/MOL
REMARK 927      BINDING AFFINITY PREDICTED BY RF-SCORE:    0.00 PKD
ROOT
HETATM    1  C   UNL     1      -8.922  11.300  66.628  1.00  0.00    -0.180 C  
HETATM    2  C   UNL     1      -9.576  10.472  65.530  1.00  0.00    -0.282 C  
ENDROOT
BRANCH   2   3
HETATM    3  C   UNL     1     -10.089   9.145  66.090  1.00  0.00    -0.278 C  
BRANCH   3   4
HETATM    4  C   UNL     1      -9.074   8.401  66.963  1.00  0.00    -0.171 C  
HETATM    5  C   UNL     1      -9.530   8.092  68.380  1.00  0.00    -0.142 C  
HETATM    6  N   UNL     1      -8.786   6.902  68.730  1.00  0.00    -0.132 N  
HETATM    7  C   UNL     1      -8.613   6.129  67.599  1.00  0.00    -0.106 C  
HETATM    8  O   UNL     1      -8.321   4.943  67.551  1.00  0.00    -0.105 OA 
HETATM    9  C   UNL     1      -8.762   7.015  66.385  1.00  0.00    -0.148 C  
BRANCH   6  10
HETATM   10  C   UNL     1      -8.707   6.449  70.133  1.00  0.00    -0.139 C  
BRANCH  10  11
HETATM   11  C   UNL     1      -7.407   6.832  70.864  1.00  0.00    -0.082 C  
HETATM   12  C   UNL     1      -7.154   8.325  70.963  1.00  0.00    -0.056 C  
ENDBRANCH  10  11
BRANCH  10  13
HETATM   13  C   UNL     1      -9.935   6.561  71.089  1.00  0.00    -0.182 C  
HETATM   14  N   UNL     1      -9.720   6.735  72.421  1.00  0.00    -0.155 N  
HETATM   15  O   UNL     1     -11.093   6.561  70.670  1.00  0.00    -0.267 OA 
HETATM   16  H1  UNL     1     -10.523   6.809  73.045  1.00  0.00     0.000 HD 
HETATM   17  H2  UNL     1      -8.770   6.792  72.790  1.00  0.00     0.000 HD 
ENDBRANCH  10  13
ENDBRANCH   6  10
ENDBRANCH   3   4
ENDBRANCH   2   3
TORSDOF 5
ENDMDL
