MODEL        1
REMARK 921   NORMALIZED FREE ENERGY PREDICTED BY IDOCK:   -7.27 KCAL/MOL
REMARK 922        TOTAL FREE ENERGY PREDICTED BY IDOCK:   -9.16 KCAL/MOL
REMARK 923 INTER-LIGAND FREE ENERGY PREDICTED BY IDOCK:   -8.55 KCAL/MOL
REMARK 924 INTRA-LIGAND FREE ENERGY PREDICTED BY IDOCK:   -0.61 KCAL/MOL
REMARK 927      BINDING AFFINITY PREDICTED BY RF-SCORE:    0.00 PKD
ROOT
HETATM    1  O5* UNL     1     -11.533  16.575  63.944  1.00  0.00    -1.608 OA 
HETATM    2  H5* UNL     1     -11.429  17.518  63.993  1.00  0.00     0.000 HD 
HETATM    3  C5* UNL     1     -10.783  15.917  64.966  1.00  0.00    -0.404 C  
ENDROOT
BRANCH   3   4
HETATM    4  C4* UNL     1     -10.949  14.401  64.887  1.00  0.00    -0.406 C  
HETATM    5  O4* UNL     1     -10.639  13.790  66.152  1.00  0.00    -0.284 OA 
HETATM    6  C1* UNL     1     -11.288  12.512  66.122  1.00  0.00    -0.343 C  
HETATM    7  C2* UNL     1     -12.610  12.724  65.392  1.00  0.00    -0.387 C  
HETATM    8  H3* UNL     1     -13.343  13.365  62.933  1.00  0.00     0.000 HD 
HETATM    9  O3* UNL     1     -12.461  13.643  63.150  1.00  0.00    -0.786 OA 
HETATM   10  C3* UNL     1     -12.368  13.954  64.538  1.00  0.00    -0.372 C  
BRANCH   6  11
HETATM   11  N   UNL     1     -11.439  11.966  67.465  1.00  0.00    -0.321 N  
HETATM   12  C   UNL     1     -11.898  12.746  68.515  1.00  0.00    -0.306 C  
HETATM   13  C   UNL     1     -11.662  10.850  69.997  1.00  0.00    -0.345 C  
HETATM   14  C   UNL     1     -12.017  12.285  69.770  1.00  0.00    -0.365 C  
HETATM   15  O   UNL     1     -10.816   9.871  66.714  1.00  0.00    -0.140 OA 
HETATM   16  N   UNL     1     -11.291  10.135  68.897  1.00  0.00    -0.443 N  
HETATM   17  H   UNL     1     -11.093   9.144  69.035  1.00  0.00     0.000 HD 
HETATM   18  O   UNL     1     -11.702  10.333  71.111  1.00  0.00    -0.358 OA 
HETATM   19  C   UNL     1     -11.159  10.620  67.627  1.00  0.00    -0.319 C  
BRANCH  14  20
HETATM   20  C   UNL     1     -12.524  13.056  70.895  1.00  0.00    -0.396 C  
HETATM   21  C   UNL     1     -13.126  14.249  70.830  1.00  0.00    -0.304 C  
HETATM   22 BR   UNL     1     -13.708  15.185  72.326  1.00  0.00    -0.658 Br 
ENDBRANCH  14  20
ENDBRANCH   6  11
ENDBRANCH   3   4
TORSDOF 3
ENDMDL
MODEL        2
REMARK 921   NORMALIZED FREE ENERGY PREDICTED BY IDOCK:   -6.82 KCAL/MOL
REMARK 922        TOTAL FREE ENERGY PREDICTED BY IDOCK:   -8.62 KCAL/MOL
REMARK 923 INTER-LIGAND FREE ENERGY PREDICTED BY IDOCK:   -8.01 KCAL/MOL
REMARK 924 INTRA-LIGAND FREE ENERGY PREDICTED BY IDOCK:   -0.61 KCAL/MOL
REMARK 927      BINDING AFFINITY PREDICTED BY RF-SCORE:    0.00 PKD
ROOT
HETATM    1  O5* UNL     1     -10.042  10.193  70.235  1.00  0.00    -0.390 OA 
HETATM    2  H5* UNL     1      -9.856  10.299  71.161  1.00  0.00     0.000 HD 
HETATM    3  C5* UNL     1     -11.221  10.906  69.859  1.00  0.00    -0.282 C  
ENDROOT
BRANCH   3   4
HETATM    4  C4* UNL     1     -11.522  10.735  68.371  1.00  0.00    -0.288 C  
HETATM    5  O4* UNL     1     -11.946  11.983  67.793  1.00  0.00    -0.538 OA 
HETATM    6  C1* UNL     1     -11.713  11.844  66.386  1.00  0.00    -0.155 C  
HETATM    7  C2* UNL     1     -10.420  11.047  66.246  1.00  0.00    -0.310 C  
HETATM    8  H3* UNL     1      -9.634   8.586  66.810  1.00  0.00     0.000 HD 
HETATM    9  O3* UNL     1     -10.382   8.871  67.322  1.00  0.00    -0.241 OA 
HETATM   10  C3* UNL     1     -10.318  10.277  67.549  1.00  0.00    -0.229 C  
BRANCH   6  11
HETATM   11  N   UNL     1     -11.676  13.144  65.728  1.00  0.00    -0.355 N  
HETATM   12  C   UNL     1     -10.928  14.193  66.240  1.00  0.00    -0.303 C  
HETATM   13  C   UNL     1     -11.691  15.596  64.425  1.00  0.00    -0.218 C  
HETATM   14  C   UNL     1     -10.898  15.412  65.679  1.00  0.00    -0.363 C  
HETATM   15  O   UNL     1     -12.992  12.342  64.006  1.00  0.00    -0.748 OA 
HETATM   16  N   UNL     1     -12.337  14.493  63.948  1.00  0.00    -1.047 N  
HETATM   17  H   UNL     1     -12.842  14.598  63.068  1.00  0.00     0.000 HD 
HETATM   18  O   UNL     1     -11.762  16.677  63.845  1.00  0.00    -1.153 OA 
HETATM   19  C   UNL     1     -12.372  13.262  64.537  1.00  0.00    -0.368 C  
BRANCH  14  20
HETATM   20  C   UNL     1     -10.104  16.531  66.163  1.00  0.00    -0.365 C  
HETATM   21  C   UNL     1     -10.338  17.251  67.266  1.00  0.00    -0.331 C  
HETATM   22 BR   UNL     1      -9.292  18.694  67.789  1.00  0.00    -0.328 Br 
ENDBRANCH  14  20
ENDBRANCH   6  11
ENDBRANCH   3   4
TORSDOF 3
ENDMDL
MODEL        3
REMARK 921   NORMALIZED FREE ENERGY PREDICTED BY IDOCK:   -6.69 KCAL/MOL
REMARK 922        TOTAL FREE ENERGY PREDICTED BY IDOCK:   -8.48 KCAL/MOL
REMARK 923 INTER-LIGAND FREE ENERGY PREDICTED BY IDOCK:   -7.86 KCAL/MOL
REMARK 924 INTRA-LIGAND FREE ENERGY PREDICTED BY IDOCK:   -0.62 KCAL/MOL
REMARK 927      BINDING AFFINITY PREDICTED BY RF-SCORE:    0.00 PKD
ROOT
HETATM    1  O5* UNL     1      -6.011  18.168  67.620  1.00  0.00    -0.156 OA 
HETATM    2  H5* UNL     1      -5.086  17.966  67.689  1.00  0.00     0.000 HD 
HETATM    3  C5* UNL     1      -6.614  17.479  66.524  1.00  0.00    -0.236 C  
ENDROOT
BRANCH   3   4
HETATM    4  C4* UNL     1      -8.102  17.805  66.413  1.00  0.00    -0.261 C  
HETATM    5  O4* UNL     1      -8.799  16.762  65.708  1.00  0.00    -0.505 OA 
HETATM    6  C1* UNL     1     -10.173  16.902  66.092  1.00  0.00    -0.341 C  
HETATM    7  C2* UNL     1     -10.164  17.305  67.563  1.00  0.00    -0.328 C  
HETATM    8  H3* UNL     1      -9.365  19.408  68.953  1.00  0.00     0.000 HD 
HETATM    9  O3* UNL     1      -8.929  19.321  68.114  1.00  0.00    -0.303 OA 
HETATM   10  C3* UNL     1      -8.803  17.945  67.763  1.00  0.00    -0.251 C  
BRANCH   6  11
HETATM   11  N   UNL     1     -10.922  15.681  65.822  1.00  0.00    -0.288 N  
HETATM   12  C   UNL     1     -10.958  14.638  66.734  1.00  0.00    -0.323 C  
HETATM   13  C   UNL     1     -12.348  13.380  65.208  1.00  0.00    -0.469 C  
HETATM   14  C   UNL     1     -11.609  13.487  66.503  1.00  0.00    -0.391 C  
HETATM   15  O   UNL     1     -11.700  16.565  63.833  1.00  0.00    -1.148 OA 
HETATM   16  N   UNL     1     -12.322  14.480  64.401  1.00  0.00    -0.635 N  
HETATM   17  H   UNL     1     -12.862  14.431  63.537  1.00  0.00     0.000 HD 
HETATM   18  O   UNL     1     -12.950  12.361  64.878  1.00  0.00    -0.762 OA 
HETATM   19  C   UNL     1     -11.643  15.639  64.640  1.00  0.00    -0.249 C  
BRANCH  14  20
HETATM   20  C   UNL     1     -11.701  12.380  67.443  1.00  0.00    -0.417 C  
HETATM   21  C   UNL     1     -11.780  12.476  68.775  1.00  0.00    -0.327 C  
HETATM   22 BR   UNL     1     -11.853  11.003  69.905  1.00  0.00    -0.469 Br 
ENDBRANCH  14  20
ENDBRANCH   6  11
ENDBRANCH   3   4
TORSDOF 3
ENDMDL
MODEL        4
REMARK 921   NORMALIZED FREE ENERGY PREDICTED BY IDOCK:   -6.55 KCAL/MOL
REMARK 922        TOTAL FREE ENERGY PREDICTED BY IDOCK:   -8.31 KCAL/MOL
REMARK 923 INTER-LIGAND FREE ENERGY PREDICTED BY IDOCK:   -7.71 KCAL/MOL
REMARK 924 INTRA-LIGAND FREE ENERGY PREDICTED BY IDOCK:   -0.60 KCAL/MOL
REMARK 927      BINDING AFFINITY PREDICTED BY RF-SCORE:    0.00 PKD
ROOT
HETATM    1  O5* UNL     1      -9.774  10.045  70.098  1.00  0.00    -0.347 OA 
HETATM    2  H5* UNL     1      -9.572  10.100  71.025  1.00  0.00     0.000 HD 
HETATM    3  C5* UNL     1     -10.953  10.785  69.779  1.00  0.00    -0.252 C  
ENDROOT
BRANCH   3   4
HETATM    4  C4* UNL     1     -11.278  10.695  68.289  1.00  0.00    -0.301 C  
HETATM    5  O4* UNL     1     -11.685  11.979  67.781  1.00  0.00    -0.402 OA 
HETATM    6  C1* UNL     1     -11.475  11.906  66.365  1.00  0.00    -0.304 C  
HETATM    7  C2* UNL     1     -10.201  11.091  66.166  1.00  0.00    -0.298 C  
HETATM    8  H3* UNL     1      -9.459   8.589  66.595  1.00  0.00     0.000 HD 
HETATM    9  O3* UNL     1     -10.194   8.863  67.131  1.00  0.00    -0.223 OA 
HETATM   10  C3* UNL     1     -10.097  10.254  67.427  1.00  0.00    -0.202 C  
BRANCH   6  11
HETATM   11  N   UNL     1     -11.419  13.236  65.772  1.00  0.00    -0.315 N  
HETATM   12  C   UNL     1     -10.546  14.203  66.245  1.00  0.00    -0.284 C  
HETATM   13  C   UNL     1     -11.407  15.754  64.603  1.00  0.00    -0.337 C  
HETATM   14  C   UNL     1     -10.492  15.448  65.745  1.00  0.00    -0.371 C  
HETATM   15  O   UNL     1     -12.976  12.622  64.178  1.00  0.00    -0.717 OA 
HETATM   16  N   UNL     1     -12.180  14.725  64.151  1.00  0.00    -0.874 N  
HETATM   17  H   UNL     1     -12.772  14.913  63.342  1.00  0.00     0.000 HD 
HETATM   18  O   UNL     1     -11.465  16.869  64.089  1.00  0.00    -1.174 OA 
HETATM   19  C   UNL     1     -12.236  13.468  64.678  1.00  0.00    -0.406 C  
BRANCH  14  20
HETATM   20  C   UNL     1      -9.571  16.483  66.187  1.00  0.00    -0.344 C  
HETATM   21  C   UNL     1      -8.250  16.349  66.357  1.00  0.00    -0.331 C  
HETATM   22 BR   UNL     1      -7.152  17.718  66.967  1.00  0.00    -0.222 Br 
ENDBRANCH  14  20
ENDBRANCH   6  11
ENDBRANCH   3   4
TORSDOF 3
ENDMDL
MODEL        5
REMARK 921   NORMALIZED FREE ENERGY PREDICTED BY IDOCK:   -6.38 KCAL/MOL
REMARK 922        TOTAL FREE ENERGY PREDICTED BY IDOCK:   -8.11 KCAL/MOL
REMARK 923 INTER-LIGAND FREE ENERGY PREDICTED BY IDOCK:   -7.49 KCAL/MOL
REMARK 924 INTRA-LIGAND FREE ENERGY PREDICTED BY IDOCK:   -0.62 KCAL/MOL
REMARK 927      BINDING AFFINITY PREDICTED BY RF-SCORE:    0.00 PKD
ROOT
HETATM    1  O5* UNL     1      -6.555  17.337  68.981  1.00  0.00    -0.206 OA 
HETATM    2  H5* UNL     1      -5.707  17.059  69.305  1.00  0.00     0.000 HD 
HETATM    3  C5* UNL     1      -6.766  16.901  67.637  1.00  0.00    -0.142 C  
ENDROOT
BRANCH   3   4
HETATM    4  C4* UNL     1      -8.129  17.349  67.115  1.00  0.00    -0.208 C  
HETATM    5  O4* UNL     1      -8.656  16.389  66.182  1.00  0.00    -0.319 OA 
HETATM    6  C1* UNL     1     -10.069  16.626  66.155  1.00  0.00    -0.345 C  
HETATM    7  C2* UNL     1     -10.468  16.978  67.584  1.00  0.00    -0.343 C  
HETATM    8  H3* UNL     1      -9.975  18.964  69.261  1.00  0.00     0.000 HD 
HETATM    9  O3* UNL     1      -9.318  18.870  68.582  1.00  0.00    -0.347 OA 
HETATM   10  C3* UNL     1      -9.187  17.501  68.208  1.00  0.00    -0.277 C  
BRANCH   6  11
HETATM   11  N   UNL     1     -10.786  15.479  65.611  1.00  0.00    -0.348 N  
HETATM   12  C   UNL     1     -10.770  14.248  66.249  1.00  0.00    -0.297 C  
HETATM   13  C   UNL     1     -12.151  13.341  64.484  1.00  0.00    -0.408 C  
HETATM   14  C   UNL     1     -11.390  13.163  65.759  1.00  0.00    -0.331 C  
HETATM   15  O   UNL     1     -11.631  16.782  63.900  1.00  0.00    -1.122 OA 
HETATM   16  N   UNL     1     -12.177  14.601  63.963  1.00  0.00    -0.954 N  
HETATM   17  H   UNL     1     -12.733  14.741  63.119  1.00  0.00     0.000 HD 
HETATM   18  O   UNL     1     -12.729  12.409  63.929  1.00  0.00    -0.673 OA 
HETATM   19  C   UNL     1     -11.529  15.694  64.463  1.00  0.00    -0.300 C  
BRANCH  14  20
HETATM   20  C   UNL     1     -11.428  11.862  66.408  1.00  0.00    -0.371 C  
HETATM   21  C   UNL     1     -10.455  10.943  66.400  1.00  0.00    -0.250 C  
HETATM   22 BR   UNL     1     -10.604   9.286  67.225  1.00  0.00    -0.243 Br 
ENDBRANCH  14  20
ENDBRANCH   6  11
ENDBRANCH   3   4
TORSDOF 3
ENDMDL
MODEL        6
REMARK 921   NORMALIZED FREE ENERGY PREDICTED BY IDOCK:   -6.36 KCAL/MOL
REMARK 922        TOTAL FREE ENERGY PREDICTED BY IDOCK:   -8.09 KCAL/MOL
REMARK 923 INTER-LIGAND FREE ENERGY PREDICTED BY IDOCK:   -7.62 KCAL/MOL
REMARK 924 INTRA-LIGAND FREE ENERGY PREDICTED BY IDOCK:   -0.47 KCAL/MOL
REMARK 927      BINDING AFFINITY PREDICTED BY RF-SCORE:    0.00 PKD
ROOT
HETATM    1  O5* UNL     1      -9.988  10.541  62.478  1.00  0.00    -0.708 OA 
HETATM    2  H5* UNL     1      -9.213  10.484  61.932  1.00  0.00     0.000 HD 
HETATM    3  C5* UNL     1      -9.841  11.542  63.485  1.00  0.00    -0.383 C  
ENDROOT
BRANCH   3   4
HETATM    4  C4* UNL     1     -11.087  11.634  64.364  1.00  0.00    -0.317 C  
HETATM    5  O4* UNL     1     -10.736  12.032  65.702  1.00  0.00    -0.255 OA 
HETATM    6  C1* UNL     1     -11.944  12.561  66.265  1.00  0.00    -0.343 C  
HETATM    7  C2* UNL     1     -12.650  13.304  65.135  1.00  0.00    -0.512 C  
HETATM    8  H3* UNL     1     -13.788  12.638  62.842  1.00  0.00     0.000 HD 
HETATM    9  O3* UNL     1     -13.151  12.003  63.147  1.00  0.00    -0.624 OA 
HETATM   10  C3* UNL     1     -12.112  12.655  63.873  1.00  0.00    -0.487 C  
BRANCH   6  11
HETATM   11  N   UNL     1     -11.662  13.393  67.428  1.00  0.00    -0.352 N  
HETATM   12  C   UNL     1     -11.425  14.753  67.304  1.00  0.00    -0.366 C  
HETATM   13  C   UNL     1     -11.099  14.892  69.696  1.00  0.00    -0.276 C  
HETATM   14  C   UNL     1     -11.130  15.542  68.349  1.00  0.00    -0.315 C  
HETATM   15  O   UNL     1     -11.973  11.584  68.833  1.00  0.00    -0.333 OA 
HETATM   16  N   UNL     1     -11.416  13.566  69.737  1.00  0.00    -0.455 N  
HETATM   17  H   UNL     1     -11.443  13.126  70.658  1.00  0.00     0.000 HD 
HETATM   18  O   UNL     1     -10.808  15.511  70.717  1.00  0.00    -0.329 OA 
HETATM   19  C   UNL     1     -11.700  12.771  68.665  1.00  0.00    -0.324 C  
BRANCH  14  20
HETATM   20  C   UNL     1     -10.907  16.977  68.271  1.00  0.00    -0.341 C  
HETATM   21  C   UNL     1     -10.422  17.648  67.220  1.00  0.00    -0.338 C  
HETATM   22 BR   UNL     1     -10.131  19.483  67.222  1.00  0.00    -0.564 Br 
ENDBRANCH  14  20
ENDBRANCH   6  11
ENDBRANCH   3   4
TORSDOF 3
ENDMDL
MODEL        7
REMARK 921   NORMALIZED FREE ENERGY PREDICTED BY IDOCK:   -6.31 KCAL/MOL
REMARK 922        TOTAL FREE ENERGY PREDICTED BY IDOCK:   -8.02 KCAL/MOL
REMARK 923 INTER-LIGAND FREE ENERGY PREDICTED BY IDOCK:   -8.22 KCAL/MOL
REMARK 924 INTRA-LIGAND FREE ENERGY PREDICTED BY IDOCK:    0.20 KCAL/MOL
REMARK 927      BINDING AFFINITY PREDICTED BY RF-SCORE:    0.00 PKD
ROOT
HETATM    1  O5* UNL     1     -12.445  14.148  63.006  1.00  0.00    -1.077 OA 
HETATM    2  H5* UNL     1     -12.838  13.962  62.161  1.00  0.00     0.000 HD 
HETATM    3  C5* UNL     1     -11.758  13.006  63.520  1.00  0.00    -0.471 C  
ENDROOT
BRANCH   3   4
HETATM    4  C4* UNL     1     -11.127  13.303  64.878  1.00  0.00    -0.328 C  
HETATM    5  O4* UNL     1     -10.509  14.603  64.877  1.00  0.00    -0.414 OA 
HETATM    6  C1* UNL     1     -10.413  14.975  66.258  1.00  0.00    -0.304 C  
HETATM    7  C2* UNL     1     -11.679  14.452  66.928  1.00  0.00    -0.422 C  
HETATM    8  H3* UNL     1     -12.712  12.073  67.445  1.00  0.00     0.000 HD 
HETATM    9  O3* UNL     1     -12.090  12.067  66.727  1.00  0.00    -0.613 OA 
HETATM   10  C3* UNL     1     -12.127  13.311  66.033  1.00  0.00    -0.436 C  
BRANCH   6  11
HETATM   11  N   UNL     1     -10.222  16.412  66.404  1.00  0.00    -0.304 N  
HETATM   12  C   UNL     1      -9.478  16.941  67.448  1.00  0.00    -0.238 C  
HETATM   13  C   UNL     1      -9.940  19.166  66.623  1.00  0.00    -0.376 C  
HETATM   14  C   UNL     1      -9.310  18.260  67.632  1.00  0.00    -0.271 C  
HETATM   15  O   UNL     1     -11.376  16.795  64.439  1.00  0.00    -1.089 OA 
HETATM   16  N   UNL     1     -10.592  18.562  65.588  1.00  0.00    -0.295 N  
HETATM   17  H   UNL     1     -10.984  19.172  64.870  1.00  0.00     0.000 HD 
HETATM   18  O   UNL     1      -9.879  20.390  66.711  1.00  0.00    -0.441 OA 
HETATM   19  C   UNL     1     -10.768  17.219  65.420  1.00  0.00    -0.066 C  
BRANCH  14  20
HETATM   20  C   UNL     1      -8.513  18.857  68.692  1.00  0.00    -0.381 C  
HETATM   21  C   UNL     1      -7.219  19.190  68.618  1.00  0.00    -0.321 C  
HETATM   22 BR   UNL     1      -6.264  19.912  70.039  1.00  0.00    -0.374 Br 
ENDBRANCH  14  20
ENDBRANCH   6  11
ENDBRANCH   3   4
TORSDOF 3
ENDMDL
MODEL        8
REMARK 921   NORMALIZED FREE ENERGY PREDICTED BY IDOCK:   -6.31 KCAL/MOL
REMARK 922        TOTAL FREE ENERGY PREDICTED BY IDOCK:   -8.02 KCAL/MOL
REMARK 923 INTER-LIGAND FREE ENERGY PREDICTED BY IDOCK:   -7.63 KCAL/MOL
REMARK 924 INTRA-LIGAND FREE ENERGY PREDICTED BY IDOCK:   -0.39 KCAL/MOL
REMARK 927      BINDING AFFINITY PREDICTED BY RF-SCORE:    0.00 PKD
ROOT
HETATM    1  O5* UNL     1      -7.656  21.233  67.003  1.00  0.00    -0.741 OA 
HETATM    2  H5* UNL     1      -6.764  21.559  66.974  1.00  0.00     0.000 HD 
HETATM    3  C5* UNL     1      -7.721  19.861  66.611  1.00  0.00    -0.286 C  
ENDROOT
BRANCH   3   4
HETATM    4  C4* UNL     1      -9.155  19.338  66.656  1.00  0.00    -0.338 C  
HETATM    5  O4* UNL     1      -9.292  18.162  65.837  1.00  0.00    -0.517 OA 
HETATM    6  C1* UNL     1     -10.460  17.495  66.331  1.00  0.00    -0.277 C  
HETATM    7  C2* UNL     1     -10.451  17.684  67.844  1.00  0.00    -0.392 C  
HETATM    8  H3* UNL     1     -10.686  19.728  69.506  1.00  0.00     0.000 HD 
HETATM    9  O3* UNL     1     -10.398  19.979  68.636  1.00  0.00    -0.437 OA 
HETATM   10  C3* UNL     1      -9.619  18.936  68.055  1.00  0.00    -0.322 C  
BRANCH   6  11
HETATM   11  N   UNL     1     -10.484  16.098  65.914  1.00  0.00    -0.346 N  
HETATM   12  C   UNL     1      -9.991  15.091  66.729  1.00  0.00    -0.248 C  
HETATM   13  C   UNL     1     -10.540  13.469  65.023  1.00  0.00    -0.372 C  
HETATM   14  C   UNL     1      -9.966  13.800  66.363  1.00  0.00    -0.301 C  
HETATM   15  O   UNL     1     -11.590  16.669  63.967  1.00  0.00    -1.197 OA 
HETATM   16  N   UNL     1     -11.072  14.508  64.316  1.00  0.00    -0.604 N  
HETATM   17  H   UNL     1     -11.507  14.284  63.422  1.00  0.00     0.000 HD 
HETATM   18  O   UNL     1     -10.540  12.326  64.573  1.00  0.00    -0.280 OA 
HETATM   19  C   UNL     1     -11.077  15.820  64.694  1.00  0.00    -0.361 C  
BRANCH  14  20
HETATM   20  C   UNL     1      -9.489  12.708  67.197  1.00  0.00    -0.214 C  
HETATM   21  C   UNL     1     -10.247  11.815  67.844  1.00  0.00    -0.191 C  
HETATM   22 BR   UNL     1      -9.552  10.473  68.924  1.00  0.00    -0.208 Br 
ENDBRANCH  14  20
ENDBRANCH   6  11
ENDBRANCH   3   4
TORSDOF 3
ENDMDL
MODEL        9
REMARK 921   NORMALIZED FREE ENERGY PREDICTED BY IDOCK:   -6.12 KCAL/MOL
REMARK 922        TOTAL FREE ENERGY PREDICTED BY IDOCK:   -7.80 KCAL/MOL
REMARK 923 INTER-LIGAND FREE ENERGY PREDICTED BY IDOCK:   -7.20 KCAL/MOL
REMARK 924 INTRA-LIGAND FREE ENERGY PREDICTED BY IDOCK:   -0.60 KCAL/MOL
REMARK 927      BINDING AFFINITY PREDICTED BY RF-SCORE:    0.00 PKD
ROOT
HETATM    1  O5* UNL     1      -9.128  20.268  65.833  1.00  0.00    -0.584 OA 
HETATM    2  H5* UNL     1      -9.209  20.687  64.984  1.00  0.00     0.000 HD 
HETATM    3  C5* UNL     1     -10.332  19.591  66.195  1.00  0.00    -0.520 C  
ENDROOT
BRANCH   3   4
HETATM    4  C4* UNL     1     -10.201  18.917  67.560  1.00  0.00    -0.391 C  
HETATM    5  O4* UNL     1     -11.012  17.730  67.619  1.00  0.00    -0.301 OA 
HETATM    6  C1* UNL     1     -10.450  16.943  68.677  1.00  0.00    -0.352 C  
HETATM    7  C2* UNL     1      -8.940  17.140  68.598  1.00  0.00    -0.267 C  
HETATM    8  H3* UNL     1      -7.265  19.156  68.951  1.00  0.00     0.000 HD 
HETATM    9  O3* UNL     1      -8.150  19.432  68.743  1.00  0.00    -0.359 OA 
HETATM   10  C3* UNL     1      -8.778  18.475  67.894  1.00  0.00    -0.284 C  
BRANCH   6  11
HETATM   11  N   UNL     1     -10.867  15.551  68.577  1.00  0.00    -0.260 N  
HETATM   12  C   UNL     1     -10.966  14.912  67.351  1.00  0.00    -0.314 C  
HETATM   13  C   UNL     1     -11.702  12.904  68.479  1.00  0.00    -0.339 C  
HETATM   14  C   UNL     1     -11.379  13.641  67.219  1.00  0.00    -0.346 C  
HETATM   15  O   UNL     1     -10.959  15.382  70.880  1.00  0.00    -0.331 OA 
HETATM   16  N   UNL     1     -11.506  13.583  69.647  1.00  0.00    -0.419 N  
HETATM   17  H   UNL     1     -11.679  13.072  70.512  1.00  0.00     0.000 HD 
HETATM   18  O   UNL     1     -12.119  11.749  68.475  1.00  0.00    -0.454 OA 
HETATM   19  C   UNL     1     -11.100  14.880  69.766  1.00  0.00    -0.274 C  
BRANCH  14  20
HETATM   20  C   UNL     1     -11.466  12.922  65.958  1.00  0.00    -0.384 C  
HETATM   21  C   UNL     1     -12.434  13.044  65.041  1.00  0.00    -0.477 C  
HETATM   22 BR   UNL     1     -12.489  12.052  63.472  1.00  0.00    -0.545 Br 
ENDBRANCH  14  20
ENDBRANCH   6  11
ENDBRANCH   3   4
TORSDOF 3
ENDMDL
MODEL       10
REMARK 921   NORMALIZED FREE ENERGY PREDICTED BY IDOCK:   -6.11 KCAL/MOL
REMARK 922        TOTAL FREE ENERGY PREDICTED BY IDOCK:   -7.80 KCAL/MOL
REMARK 923 INTER-LIGAND FREE ENERGY PREDICTED BY IDOCK:   -7.29 KCAL/MOL
REMARK 924 INTRA-LIGAND FREE ENERGY PREDICTED BY IDOCK:   -0.50 KCAL/MOL
REMARK 927      BINDING AFFINITY PREDICTED BY RF-SCORE:    0.00 PKD
ROOT
HETATM    1  O5* UNL     1     -12.288  11.453  62.887  1.00  0.00    -0.954 OA 
HETATM    2  H5* UNL     1     -12.982  11.286  62.260  1.00  0.00     0.000 HD 
HETATM    3  C5* UNL     1     -12.761  12.220  63.994  1.00  0.00    -0.352 C  
ENDROOT
BRANCH   3   4
HETATM    4  C4* UNL     1     -11.645  12.489  65.001  1.00  0.00    -0.349 C  
HETATM    5  O4* UNL     1     -12.191  12.917  66.262  1.00  0.00    -0.454 OA 
HETATM    6  C1* UNL     1     -11.164  12.654  67.225  1.00  0.00    -0.298 C  
HETATM    7  C2* UNL     1     -10.501  11.349  66.795  1.00  0.00    -0.284 C  
HETATM    8  H3* UNL     1      -9.042  10.546  64.740  1.00  0.00     0.000 HD 
HETATM    9  O3* UNL     1      -9.577  11.308  64.550  1.00  0.00    -0.235 OA 
HETATM   10  C3* UNL     1     -10.784  11.264  65.307  1.00  0.00    -0.237 C  
BRANCH   6  11
HETATM   11  N   UNL     1     -11.706  12.618  68.578  1.00  0.00    -0.314 N  
HETATM   12  C   UNL     1     -11.799  11.432  69.289  1.00  0.00    -0.349 C  
HETATM   13  C   UNL     1     -12.785  12.641  71.136  1.00  0.00    -0.254 C  
HETATM   14  C   UNL     1     -12.324  11.358  70.522  1.00  0.00    -0.439 C  
HETATM   15  O   UNL     1     -11.940  14.918  68.575  1.00  0.00    -0.309 OA 
HETATM   16  N   UNL     1     -12.590  13.772  70.398  1.00  0.00    -0.292 N  
HETATM   17  H   UNL     1     -12.859  14.657  70.829  1.00  0.00     0.000 HD 
HETATM   18  O   UNL     1     -13.311  12.686  72.245  1.00  0.00    -0.533 OA 
HETATM   19  C   UNL     1     -12.068  13.832  69.138  1.00  0.00    -0.333 C  
BRANCH  14  20
HETATM   20  C   UNL     1     -12.411  10.143  71.317  1.00  0.00    -0.510 C  
HETATM   21  C   UNL     1     -11.415   9.285  71.566  1.00  0.00    -0.384 C  
HETATM   22 BR   UNL     1     -11.626   7.731  72.562  1.00  0.00    -0.412 Br 
ENDBRANCH  14  20
ENDBRANCH   6  11
ENDBRANCH   3   4
TORSDOF 3
ENDMDL
MODEL       11
REMARK 921   NORMALIZED FREE ENERGY PREDICTED BY IDOCK:   -6.11 KCAL/MOL
REMARK 922        TOTAL FREE ENERGY PREDICTED BY IDOCK:   -7.79 KCAL/MOL
REMARK 923 INTER-LIGAND FREE ENERGY PREDICTED BY IDOCK:   -8.16 KCAL/MOL
REMARK 924 INTRA-LIGAND FREE ENERGY PREDICTED BY IDOCK:    0.37 KCAL/MOL
REMARK 927      BINDING AFFINITY PREDICTED BY RF-SCORE:    0.00 PKD
ROOT
HETATM    1  O5* UNL     1     -11.575  16.463  63.813  1.00  0.00    -1.605 OA 
HETATM    2  H5* UNL     1     -11.604  17.374  63.545  1.00  0.00     0.000 HD 
HETATM    3  C5* UNL     1     -10.810  16.298  65.008  1.00  0.00    -0.320 C  
ENDROOT
BRANCH   3   4
HETATM    4  C4* UNL     1     -10.762  14.833  65.439  1.00  0.00    -0.371 C  
HETATM    5  O4* UNL     1     -10.793  14.725  66.874  1.00  0.00    -0.302 OA 
HETATM    6  C1* UNL     1     -11.244  13.391  67.141  1.00  0.00    -0.302 C  
HETATM    7  C2* UNL     1     -12.287  13.074  66.075  1.00  0.00    -0.387 C  
HETATM    8  H3* UNL     1     -12.285  12.750  63.450  1.00  0.00     0.000 HD 
HETATM    9  O3* UNL     1     -11.554  13.266  63.768  1.00  0.00    -0.413 OA 
HETATM   10  C3* UNL     1     -11.938  14.003  64.927  1.00  0.00    -0.404 C  
BRANCH   6  11
HETATM   11  N   UNL     1     -11.742  13.267  68.505  1.00  0.00    -0.332 N  
HETATM   12  C   UNL     1     -11.784  12.041  69.150  1.00  0.00    -0.330 C  
HETATM   13  C   UNL     1     -12.737  13.119  71.092  1.00  0.00    -0.300 C  
HETATM   14  C   UNL     1     -12.267  11.884  70.393  1.00  0.00    -0.399 C  
HETATM   15  O   UNL     1     -12.028  15.556  68.641  1.00  0.00    -0.335 OA 
HETATM   16  N   UNL     1     -12.591  14.294  70.414  1.00  0.00    -0.351 N  
HETATM   17  H   UNL     1     -12.866  15.147  70.903  1.00  0.00     0.000 HD 
HETATM   18  O   UNL     1     -13.228  13.089  72.218  1.00  0.00    -0.471 OA 
HETATM   19  C   UNL     1     -12.112  14.438  69.144  1.00  0.00    -0.281 C  
BRANCH  14  20
HETATM   20  C   UNL     1     -12.301  10.625  71.119  1.00  0.00    -0.505 C  
HETATM   21  C   UNL     1     -11.442   9.608  70.985  1.00  0.00    -0.371 C  
HETATM   22 BR   UNL     1     -11.585   8.014  71.928  1.00  0.00    -0.381 Br 
ENDBRANCH  14  20
ENDBRANCH   6  11
ENDBRANCH   3   4
TORSDOF 3
ENDMDL
MODEL       12
REMARK 921   NORMALIZED FREE ENERGY PREDICTED BY IDOCK:   -6.10 KCAL/MOL
REMARK 922        TOTAL FREE ENERGY PREDICTED BY IDOCK:   -7.78 KCAL/MOL
REMARK 923 INTER-LIGAND FREE ENERGY PREDICTED BY IDOCK:   -7.34 KCAL/MOL
REMARK 924 INTRA-LIGAND FREE ENERGY PREDICTED BY IDOCK:   -0.44 KCAL/MOL
REMARK 927      BINDING AFFINITY PREDICTED BY RF-SCORE:    0.00 PKD
ROOT
HETATM    1  O5* UNL     1     -11.749  16.242  63.763  1.00  0.00    -1.511 OA 
HETATM    2  H5* UNL     1     -12.106  16.016  62.912  1.00  0.00     0.000 HD 
HETATM    3  C5* UNL     1     -11.600  15.086  64.588  1.00  0.00    -0.386 C  
ENDROOT
BRANCH   3   4
HETATM    4  C4* UNL     1     -11.027  15.450  65.956  1.00  0.00    -0.286 C  
HETATM    5  O4* UNL     1     -11.870  14.949  67.009  1.00  0.00    -0.327 OA 
HETATM    6  C1* UNL     1     -11.030  14.891  68.169  1.00  0.00    -0.272 C  
HETATM    7  C2* UNL     1      -9.654  14.457  67.675  1.00  0.00    -0.214 C  
HETATM    8  H3* UNL     1      -7.773  15.495  66.132  1.00  0.00     0.000 HD 
HETATM    9  O3* UNL     1      -8.637  15.855  65.970  1.00  0.00    -0.307 OA 
HETATM   10  C3* UNL     1      -9.638  14.870  66.215  1.00  0.00    -0.307 C  
BRANCH   6  11
HETATM   11  N   UNL     1     -11.594  14.011  69.185  1.00  0.00    -0.290 N  
HETATM   12  C   UNL     1     -11.419  12.637  69.130  1.00  0.00    -0.304 C  
HETATM   13  C   UNL     1     -12.733  12.410  71.146  1.00  0.00    -0.240 C  
HETATM   14  C   UNL     1     -11.952  11.795  70.029  1.00  0.00    -0.421 C  
HETATM   15  O   UNL     1     -12.382  15.834  70.367  1.00  0.00    -0.398 OA 
HETATM   16  N   UNL     1     -12.794  13.773  71.166  1.00  0.00    -0.342 N  
HETATM   17  H   UNL     1     -13.286  14.201  71.951  1.00  0.00     0.000 HD 
HETATM   18  O   UNL     1     -13.292  11.733  72.006  1.00  0.00    -0.487 OA 
HETATM   19  C   UNL     1     -12.260  14.617  70.237  1.00  0.00    -0.331 C  
BRANCH  14  20
HETATM   20  C   UNL     1     -11.767  10.352  70.029  1.00  0.00    -0.366 C  
HETATM   21  C   UNL     1     -10.812   9.675  70.677  1.00  0.00    -0.320 C  
HETATM   22 BR   UNL     1     -10.625   7.829  70.588  1.00  0.00    -0.232 Br 
ENDBRANCH  14  20
ENDBRANCH   6  11
ENDBRANCH   3   4
TORSDOF 3
ENDMDL
MODEL       13
REMARK 921   NORMALIZED FREE ENERGY PREDICTED BY IDOCK:   -6.10 KCAL/MOL
REMARK 922        TOTAL FREE ENERGY PREDICTED BY IDOCK:   -7.78 KCAL/MOL
REMARK 923 INTER-LIGAND FREE ENERGY PREDICTED BY IDOCK:   -7.88 KCAL/MOL
REMARK 924 INTRA-LIGAND FREE ENERGY PREDICTED BY IDOCK:    0.11 KCAL/MOL
REMARK 927      BINDING AFFINITY PREDICTED BY RF-SCORE:    0.00 PKD
ROOT
HETATM    1  O5* UNL     1     -10.250  10.574  62.514  1.00  0.00    -0.749 OA 
HETATM    2  H5* UNL     1      -9.495  10.302  62.005  1.00  0.00     0.000 HD 
HETATM    3  C5* UNL     1      -9.858  11.326  63.663  1.00  0.00    -0.340 C  
ENDROOT
BRANCH   3   4
HETATM    4  C4* UNL     1     -11.072  11.763  64.481  1.00  0.00    -0.315 C  
HETATM    5  O4* UNL     1     -10.661  12.527  65.629  1.00  0.00    -0.258 OA 
HETATM    6  C1* UNL     1     -11.818  13.281  66.013  1.00  0.00    -0.395 C  
HETATM    7  C2* UNL     1     -12.509  13.688  64.716  1.00  0.00    -0.391 C  
HETATM    8  H3* UNL     1     -13.748  12.431  62.747  1.00  0.00     0.000 HD 
HETATM    9  O3* UNL     1     -13.142  11.878  63.226  1.00  0.00    -0.674 OA 
HETATM   10  C3* UNL     1     -12.046  12.651  63.709  1.00  0.00    -0.522 C  
BRANCH   6  11
HETATM   11  N   UNL     1     -11.454  14.408  66.863  1.00  0.00    -0.351 N  
HETATM   12  C   UNL     1     -11.874  14.484  68.182  1.00  0.00    -0.313 C  
HETATM   13  C   UNL     1     -10.741  16.608  68.399  1.00  0.00    -0.353 C  
HETATM   14  C   UNL     1     -11.586  15.522  68.983  1.00  0.00    -0.377 C  
HETATM   15  O   UNL     1     -10.166  15.309  65.169  1.00  0.00    -0.368 OA 
HETATM   16  N   UNL     1     -10.309  16.420  67.118  1.00  0.00    -0.288 N  
HETATM   17  H   UNL     1      -9.693  17.134  66.729  1.00  0.00     0.000 HD 
HETATM   18  O   UNL     1     -10.444  17.620  69.030  1.00  0.00    -0.342 OA 
HETATM   19  C   UNL     1     -10.621  15.366  66.309  1.00  0.00    -0.308 C  
BRANCH  14  20
HETATM   20  C   UNL     1     -11.977  15.628  70.380  1.00  0.00    -0.405 C  
HETATM   21  C   UNL     1     -13.192  15.380  70.884  1.00  0.00    -0.455 C  
HETATM   22 BR   UNL     1     -13.615  15.582  72.682  1.00  0.00    -0.679 Br 
ENDBRANCH  14  20
ENDBRANCH   6  11
ENDBRANCH   3   4
TORSDOF 3
ENDMDL
MODEL       14
REMARK 921   NORMALIZED FREE ENERGY PREDICTED BY IDOCK:   -6.09 KCAL/MOL
REMARK 922        TOTAL FREE ENERGY PREDICTED BY IDOCK:   -7.77 KCAL/MOL
REMARK 923 INTER-LIGAND FREE ENERGY PREDICTED BY IDOCK:   -7.31 KCAL/MOL
REMARK 924 INTRA-LIGAND FREE ENERGY PREDICTED BY IDOCK:   -0.45 KCAL/MOL
REMARK 927      BINDING AFFINITY PREDICTED BY RF-SCORE:    0.00 PKD
ROOT
HETATM    1  O5* UNL     1     -13.000  12.291  63.336  1.00  0.00    -0.753 OA 
HETATM    2  H5* UNL     1     -13.016  11.865  62.487  1.00  0.00     0.000 HD 
HETATM    3  C5* UNL     1     -12.122  13.418  63.335  1.00  0.00    -0.372 C  
ENDROOT
BRANCH   3   4
HETATM    4  C4* UNL     1     -12.095  14.102  64.700  1.00  0.00    -0.452 C  
HETATM    5  O4* UNL     1     -12.388  13.158  65.746  1.00  0.00    -0.443 OA 
HETATM    6  C1* UNL     1     -11.857  13.744  66.942  1.00  0.00    -0.413 C  
HETATM    7  C2* UNL     1     -10.563  14.441  66.535  1.00  0.00    -0.296 C  
HETATM    8  H3* UNL     1      -9.911  16.501  65.009  1.00  0.00     0.000 HD 
HETATM    9  O3* UNL     1     -10.753  16.118  64.789  1.00  0.00    -0.648 OA 
HETATM   10  C3* UNL     1     -10.742  14.717  65.053  1.00  0.00    -0.433 C  
BRANCH   6  11
HETATM   11  N   UNL     1     -11.682  12.743  67.986  1.00  0.00    -0.345 N  
HETATM   12  C   UNL     1     -11.173  11.485  67.704  1.00  0.00    -0.281 C  
HETATM   13  C   UNL     1     -11.414  10.888  70.034  1.00  0.00    -0.329 C  
HETATM   14  C   UNL     1     -11.030  10.528  68.635  1.00  0.00    -0.294 C  
HETATM   15  O   UNL     1     -12.379  14.253  69.591  1.00  0.00    -0.329 OA 
HETATM   16  N   UNL     1     -11.836  12.169  70.238  1.00  0.00    -0.515 N  
HETATM   17  H   UNL     1     -12.055  12.436  71.198  1.00  0.00     0.000 HD 
HETATM   18  O   UNL     1     -11.356  10.081  70.959  1.00  0.00    -0.347 OA 
HETATM   19  C   UNL     1     -11.991  13.129  69.280  1.00  0.00    -0.292 C  
BRANCH  14  20
HETATM   20  C   UNL     1     -10.471   9.208  68.391  1.00  0.00    -0.241 C  
HETATM   21  C   UNL     1     -10.512   8.530  67.238  1.00  0.00    -0.296 C  
HETATM   22 BR   UNL     1      -9.805   6.825  67.026  1.00  0.00    -0.236 Br 
ENDBRANCH  14  20
ENDBRANCH   6  11
ENDBRANCH   3   4
TORSDOF 3
ENDMDL
MODEL       15
REMARK 921   NORMALIZED FREE ENERGY PREDICTED BY IDOCK:   -6.02 KCAL/MOL
REMARK 922        TOTAL FREE ENERGY PREDICTED BY IDOCK:   -7.69 KCAL/MOL
REMARK 923 INTER-LIGAND FREE ENERGY PREDICTED BY IDOCK:   -7.77 KCAL/MOL
REMARK 924 INTRA-LIGAND FREE ENERGY PREDICTED BY IDOCK:    0.09 KCAL/MOL
REMARK 927      BINDING AFFINITY PREDICTED BY RF-SCORE:    0.00 PKD
ROOT
HETATM    1  O5* UNL     1     -11.429  16.553  63.822  1.00  0.00    -1.615 OA 
HETATM    2  H5* UNL     1     -11.354  17.497  63.899  1.00  0.00     0.000 HD 
HETATM    3  C5* UNL     1     -10.829  15.892  64.938  1.00  0.00    -0.400 C  
ENDROOT
BRANCH   3   4
HETATM    4  C4* UNL     1     -10.949  14.375  64.814  1.00  0.00    -0.397 C  
HETATM    5  O4* UNL     1     -10.572  13.734  66.047  1.00  0.00    -0.282 OA 
HETATM    6  C1* UNL     1     -11.180  12.437  65.998  1.00  0.00    -0.335 C  
HETATM    7  C2* UNL     1     -12.535  12.628  65.325  1.00  0.00    -0.483 C  
HETATM    8  H3* UNL     1     -13.381  13.324  62.917  1.00  0.00     0.000 HD 
HETATM    9  O3* UNL     1     -12.500  13.623  63.110  1.00  0.00    -0.786 OA 
HETATM   10  C3* UNL     1     -12.365  13.893  64.504  1.00  0.00    -0.372 C  
BRANCH   6  11
HETATM   11  N   UNL     1     -11.262  11.844  67.327  1.00  0.00    -0.296 N  
HETATM   12  C   UNL     1     -10.852  10.541  67.564  1.00  0.00    -0.301 C  
HETATM   13  C   UNL     1     -11.488  10.785  69.883  1.00  0.00    -0.321 C  
HETATM   14  C   UNL     1     -10.945   9.952  68.766  1.00  0.00    -0.217 C  
HETATM   15  O   UNL     1     -12.022  13.843  68.204  1.00  0.00    -0.355 OA 
HETATM   16  N   UNL     1     -11.798  12.079  69.581  1.00  0.00    -0.328 N  
HETATM   17  H   UNL     1     -12.125  12.667  70.348  1.00  0.00     0.000 HD 
HETATM   18  O   UNL     1     -11.648  10.339  71.017  1.00  0.00    -0.351 OA 
HETATM   19  C   UNL     1     -11.713  12.661  68.350  1.00  0.00    -0.333 C  
BRANCH  14  20
HETATM   20  C   UNL     1     -10.498   8.602  69.068  1.00  0.00    -0.216 C  
HETATM   21  C   UNL     1     -10.408   7.584  68.203  1.00  0.00    -0.200 C  
HETATM   22 BR   UNL     1      -9.864   5.875  68.685  1.00  0.00    -0.186 Br 
ENDBRANCH  14  20
ENDBRANCH   6  11
ENDBRANCH   3   4
TORSDOF 3
ENDMDL
MODEL       16
REMARK 921   NORMALIZED FREE ENERGY PREDICTED BY IDOCK:   -6.00 KCAL/MOL
REMARK 922        TOTAL FREE ENERGY PREDICTED BY IDOCK:   -7.66 KCAL/MOL
REMARK 923 INTER-LIGAND FREE ENERGY PREDICTED BY IDOCK:   -7.08 KCAL/MOL
REMARK 924 INTRA-LIGAND FREE ENERGY PREDICTED BY IDOCK:   -0.58 KCAL/MOL
REMARK 927      BINDING AFFINITY PREDICTED BY RF-SCORE:    0.00 PKD
ROOT
HETATM    1  O5* UNL     1     -12.623  11.370  62.779  1.00  0.00    -0.952 OA 
HETATM    2  H5* UNL     1     -13.259  10.746  62.449  1.00  0.00     0.000 HD 
HETATM    3  C5* UNL     1     -13.114  12.047  63.936  1.00  0.00    -0.041 C  
ENDROOT
BRANCH   3   4
HETATM    4  C4* UNL     1     -12.093  13.052  64.466  1.00  0.00    -0.410 C  
HETATM    5  O4* UNL     1     -12.535  13.614  65.715  1.00  0.00    -0.458 OA 
HETATM    6  C1* UNL     1     -11.348  14.113  66.344  1.00  0.00    -0.338 C  
HETATM    7  C2* UNL     1     -10.241  13.118  66.013  1.00  0.00    -0.287 C  
HETATM    8  H3* UNL     1      -8.979  12.338  63.823  1.00  0.00     0.000 HD 
HETATM    9  O3* UNL     1      -9.835  12.715  63.653  1.00  0.00    -0.310 OA 
HETATM   10  C3* UNL     1     -10.718  12.445  64.739  1.00  0.00    -0.298 C  
BRANCH   6  11
HETATM   11  N   UNL     1     -11.553  14.309  67.774  1.00  0.00    -0.334 N  
HETATM   12  C   UNL     1     -11.894  13.255  68.607  1.00  0.00    -0.345 C  
HETATM   13  C   UNL     1     -11.956  14.783  70.480  1.00  0.00    -0.312 C  
HETATM   14  C   UNL     1     -12.122  13.406  69.921  1.00  0.00    -0.389 C  
HETATM   15  O   UNL     1     -10.960  16.535  67.582  1.00  0.00    -0.301 OA 
HETATM   16  N   UNL     1     -11.546  15.748  69.606  1.00  0.00    -0.342 N  
HETATM   17  H   UNL     1     -11.385  16.679  69.988  1.00  0.00     0.000 HD 
HETATM   18  O   UNL     1     -12.171  15.043  71.661  1.00  0.00    -0.306 OA 
HETATM   19  C   UNL     1     -11.331  15.584  68.268  1.00  0.00    -0.357 C  
BRANCH  14  20
HETATM   20  C   UNL     1     -12.450  12.326  70.838  1.00  0.00    -0.371 C  
HETATM   21  C   UNL     1     -12.312  11.016  70.602  1.00  0.00    -0.386 C  
HETATM   22 BR   UNL     1     -12.796   9.698  71.819  1.00  0.00    -0.542 Br 
ENDBRANCH  14  20
ENDBRANCH   6  11
ENDBRANCH   3   4
TORSDOF 3
ENDMDL
MODEL       17
REMARK 921   NORMALIZED FREE ENERGY PREDICTED BY IDOCK:   -5.93 KCAL/MOL
REMARK 922        TOTAL FREE ENERGY PREDICTED BY IDOCK:   -7.59 KCAL/MOL
REMARK 923 INTER-LIGAND FREE ENERGY PREDICTED BY IDOCK:   -7.07 KCAL/MOL
REMARK 924 INTRA-LIGAND FREE ENERGY PREDICTED BY IDOCK:   -0.52 KCAL/MOL
REMARK 927      BINDING AFFINITY PREDICTED BY RF-SCORE:    0.00 PKD
ROOT
HETATM    1  O5* UNL     1     -13.082  15.126  74.023  1.00  0.00    -0.584 OA 
HETATM    2  H5* UNL     1     -13.083  15.646  74.818  1.00  0.00     0.000 HD 
HETATM    3  C5* UNL     1     -13.445  15.913  72.888  1.00  0.00    -0.554 C  
ENDROOT
BRANCH   3   4
HETATM    4  C4* UNL     1     -13.445  15.077  71.610  1.00  0.00    -0.414 C  
HETATM    5  O4* UNL     1     -12.946  15.846  70.501  1.00  0.00    -0.438 OA 
HETATM    6  C1* UNL     1     -12.523  14.878  69.532  1.00  0.00    -0.088 C  
HETATM    7  C2* UNL     1     -11.917  13.723  70.322  1.00  0.00    -0.397 C  
HETATM    8  H3* UNL     1     -12.814  11.907  72.024  1.00  0.00     0.000 HD 
HETATM    9  O3* UNL     1     -13.361  12.682  71.974  1.00  0.00    -0.502 OA 
HETATM   10  C3* UNL     1     -12.566  13.831  71.690  1.00  0.00    -0.279 C  
BRANCH   6  11
HETATM   11  N   UNL     1     -11.610  15.469  68.562  1.00  0.00    -0.363 N  
HETATM   12  C   UNL     1     -10.806  16.549  68.889  1.00  0.00    -0.336 C  
HETATM   13  C   UNL     1      -9.925  16.550  66.638  1.00  0.00    -0.276 C  
HETATM   14  C   UNL     1      -9.979  17.138  68.012  1.00  0.00    -0.295 C  
HETATM   15  O   UNL     1     -12.181  13.861  67.003  1.00  0.00    -0.421 OA 
HETATM   16  N   UNL     1     -10.692  15.443  66.421  1.00  0.00    -0.310 N  
HETATM   17  H   UNL     1     -10.626  15.008  65.501  1.00  0.00     0.000 HD 
HETATM   18  O   UNL     1      -9.229  17.028  65.746  1.00  0.00    -0.526 OA 
HETATM   19  C   UNL     1     -11.541  14.862  67.319  1.00  0.00    -0.324 C  
BRANCH  14  20
HETATM   20  C   UNL     1      -9.094  18.251  68.320  1.00  0.00    -0.318 C  
HETATM   21  C   UNL     1      -7.819  18.164  68.717  1.00  0.00    -0.254 C  
HETATM   22 BR   UNL     1      -6.772  19.642  69.130  1.00  0.00    -0.388 Br 
ENDBRANCH  14  20
ENDBRANCH   6  11
ENDBRANCH   3   4
TORSDOF 3
ENDMDL
MODEL       18
REMARK 921   NORMALIZED FREE ENERGY PREDICTED BY IDOCK:   -5.88 KCAL/MOL
REMARK 922        TOTAL FREE ENERGY PREDICTED BY IDOCK:   -7.52 KCAL/MOL
REMARK 923 INTER-LIGAND FREE ENERGY PREDICTED BY IDOCK:   -7.11 KCAL/MOL
REMARK 924 INTRA-LIGAND FREE ENERGY PREDICTED BY IDOCK:   -0.41 KCAL/MOL
REMARK 927      BINDING AFFINITY PREDICTED BY RF-SCORE:    0.00 PKD
ROOT
HETATM    1  O5* UNL     1     -10.199  10.625  62.650  1.00  0.00    -0.751 OA 
HETATM    2  H5* UNL     1      -9.523  10.429  62.012  1.00  0.00     0.000 HD 
HETATM    3  C5* UNL     1      -9.932  11.851  63.331  1.00  0.00    -0.410 C  
ENDROOT
BRANCH   3   4
HETATM    4  C4* UNL     1     -11.019  12.165  64.357  1.00  0.00    -0.326 C  
HETATM    5  O4* UNL     1     -10.488  12.962  65.431  1.00  0.00    -0.282 OA 
HETATM    6  C1* UNL     1     -11.626  13.598  66.026  1.00  0.00    -0.337 C  
HETATM    7  C2* UNL     1     -12.570  13.940  64.878  1.00  0.00    -0.380 C  
HETATM    8  H3* UNL     1     -14.010  12.574  63.130  1.00  0.00     0.000 HD 
HETATM    9  O3* UNL     1     -13.279  12.082  63.485  1.00  0.00    -0.724 OA 
HETATM   10  C3* UNL     1     -12.194  12.956  63.785  1.00  0.00    -0.476 C  
BRANCH   6  11
HETATM   11  N   UNL     1     -11.228  14.752  66.822  1.00  0.00    -0.339 N  
HETATM   12  C   UNL     1     -10.567  15.830  66.254  1.00  0.00    -0.310 C  
HETATM   13  C   UNL     1     -10.477  16.892  68.424  1.00  0.00    -0.355 C  
HETATM   14  C   UNL     1     -10.157  16.893  66.963  1.00  0.00    -0.289 C  
HETATM   15  O   UNL     1     -12.238  13.846  68.693  1.00  0.00    -0.345 OA 
HETATM   16  N   UNL     1     -11.194  15.828  68.888  1.00  0.00    -0.309 N  
HETATM   17  H   UNL     1     -11.457  15.842  69.873  1.00  0.00     0.000 HD 
HETATM   18  O   UNL     1     -10.121  17.797  69.174  1.00  0.00    -0.322 OA 
HETATM   19  C   UNL     1     -11.593  14.745  68.158  1.00  0.00    -0.332 C  
BRANCH  14  20
HETATM   20  C   UNL     1      -9.491  18.059  66.404  1.00  0.00    -0.280 C  
HETATM   21  C   UNL     1      -8.186  18.345  66.490  1.00  0.00    -0.269 C  
HETATM   22 BR   UNL     1      -7.425  19.883  65.779  1.00  0.00    -0.274 Br 
ENDBRANCH  14  20
ENDBRANCH   6  11
ENDBRANCH   3   4
TORSDOF 3
ENDMDL
MODEL       19
REMARK 921   NORMALIZED FREE ENERGY PREDICTED BY IDOCK:   -5.86 KCAL/MOL
REMARK 922        TOTAL FREE ENERGY PREDICTED BY IDOCK:   -7.50 KCAL/MOL
REMARK 923 INTER-LIGAND FREE ENERGY PREDICTED BY IDOCK:   -7.71 KCAL/MOL
REMARK 924 INTRA-LIGAND FREE ENERGY PREDICTED BY IDOCK:    0.21 KCAL/MOL
REMARK 927      BINDING AFFINITY PREDICTED BY RF-SCORE:    0.00 PKD
ROOT
HETATM    1  O5* UNL     1     -10.032  20.431  65.405  1.00  0.00    -0.474 OA 
HETATM    2  H5* UNL     1     -10.360  21.299  65.202  1.00  0.00     0.000 HD 
HETATM    3  C5* UNL     1      -9.990  20.209  66.815  1.00  0.00    -0.469 C  
ENDROOT
BRANCH   3   4
HETATM    4  C4* UNL     1      -9.462  18.814  67.142  1.00  0.00    -0.305 C  
HETATM    5  O4* UNL     1     -10.425  17.809  66.775  1.00  0.00    -0.340 OA 
HETATM    6  C1* UNL     1      -9.672  16.596  66.646  1.00  0.00    -0.266 C  
HETATM    7  C2* UNL     1      -8.332  16.991  66.034  1.00  0.00    -0.180 C  
HETATM    8  H3* UNL     1      -6.245  18.428  66.793  1.00  0.00     0.000 HD 
HETATM    9  O3* UNL     1      -7.046  18.652  67.252  1.00  0.00    -0.204 OA 
HETATM   10  C3* UNL     1      -8.174  18.455  66.403  1.00  0.00    -0.257 C  
BRANCH   6  11
HETATM   11  N   UNL     1     -10.402  15.603  65.868  1.00  0.00    -0.326 N  
HETATM   12  C   UNL     1     -10.420  14.267  66.236  1.00  0.00    -0.291 C  
HETATM   13  C   UNL     1     -11.793  13.775  64.308  1.00  0.00    -0.417 C  
HETATM   14  C   UNL     1     -11.053  13.320  65.525  1.00  0.00    -0.299 C  
HETATM   15  O   UNL     1     -11.198  17.251  64.457  1.00  0.00    -1.083 OA 
HETATM   16  N   UNL     1     -11.787  15.117  64.060  1.00  0.00    -0.876 N  
HETATM   17  H   UNL     1     -12.328  15.441  63.258  1.00  0.00     0.000 HD 
HETATM   18  O   UNL     1     -12.380  12.992  63.566  1.00  0.00    -0.654 OA 
HETATM   19  C   UNL     1     -11.125  16.067  64.782  1.00  0.00    -0.365 C  
BRANCH  14  20
HETATM   20  C   UNL     1     -11.125  11.914  65.890  1.00  0.00    -0.365 C  
HETATM   21  C   UNL     1     -10.092  11.119  66.189  1.00  0.00    -0.238 C  
HETATM   22 BR   UNL     1     -10.272   9.317  66.605  1.00  0.00    -0.296 Br 
ENDBRANCH  14  20
ENDBRANCH   6  11
ENDBRANCH   3   4
TORSDOF 3
ENDMDL
MODEL       20
REMARK 921   NORMALIZED FREE ENERGY PREDICTED BY IDOCK:   -5.81 KCAL/MOL
REMARK 922        TOTAL FREE ENERGY PREDICTED BY IDOCK:   -7.44 KCAL/MOL
REMARK 923 INTER-LIGAND FREE ENERGY PREDICTED BY IDOCK:   -7.80 KCAL/MOL
REMARK 924 INTRA-LIGAND FREE ENERGY PREDICTED BY IDOCK:    0.36 KCAL/MOL
REMARK 927      BINDING AFFINITY PREDICTED BY RF-SCORE:    0.00 PKD
ROOT
HETATM    1  O5* UNL     1     -12.958  12.230  63.605  1.00  0.00    -0.777 OA 
HETATM    2  H5* UNL     1     -12.964  11.664  62.842  1.00  0.00     0.000 HD 
HETATM    3  C5* UNL     1     -12.162  13.395  63.382  1.00  0.00    -0.349 C  
ENDROOT
BRANCH   3   4
HETATM    4  C4* UNL     1     -12.154  14.305  64.608  1.00  0.00    -0.463 C  
HETATM    5  O4* UNL     1     -12.610  13.591  65.772  1.00  0.00    -0.464 OA 
HETATM    6  C1* UNL     1     -12.100  14.330  66.890  1.00  0.00    -0.409 C  
HETATM    7  C2* UNL     1     -10.717  14.823  66.478  1.00  0.00    -0.319 C  
HETATM    8  H3* UNL     1      -9.758  16.512  64.683  1.00  0.00     0.000 HD 
HETATM    9  O3* UNL     1     -10.619  16.175  64.463  1.00  0.00    -0.509 OA 
HETATM   10  C3* UNL     1     -10.770  14.848  64.961  1.00  0.00    -0.431 C  
BRANCH   6  11
HETATM   11  N   UNL     1     -12.098  13.518  68.100  1.00  0.00    -0.321 N  
HETATM   12  C   UNL     1     -12.285  14.084  69.351  1.00  0.00    -0.292 C  
HETATM   13  C   UNL     1     -12.043  11.898  70.355  1.00  0.00    -0.333 C  
HETATM   14  C   UNL     1     -12.255  13.372  70.489  1.00  0.00    -0.425 C  
HETATM   15  O   UNL     1     -11.860  11.593  66.844  1.00  0.00    -0.577 OA 
HETATM   16  N   UNL     1     -11.942  11.413  69.084  1.00  0.00    -0.336 N  
HETATM   17  H   UNL     1     -11.844  10.402  68.982  1.00  0.00     0.000 HD 
HETATM   18  O   UNL     1     -11.966  11.155  71.330  1.00  0.00    -0.195 OA 
HETATM   19  C   UNL     1     -11.959  12.150  67.935  1.00  0.00    -0.148 C  
BRANCH  14  20
HETATM   20  C   UNL     1     -12.479  13.918  71.818  1.00  0.00    -0.291 C  
HETATM   21  C   UNL     1     -12.378  15.204  72.175  1.00  0.00    -0.358 C  
HETATM   22 BR   UNL     1     -12.642  15.810  73.911  1.00  0.00    -0.801 Br 
ENDBRANCH  14  20
ENDBRANCH   6  11
ENDBRANCH   3   4
TORSDOF 3
ENDMDL
MODEL       21
REMARK 921   NORMALIZED FREE ENERGY PREDICTED BY IDOCK:   -5.77 KCAL/MOL
REMARK 922        TOTAL FREE ENERGY PREDICTED BY IDOCK:   -7.39 KCAL/MOL
REMARK 923 INTER-LIGAND FREE ENERGY PREDICTED BY IDOCK:   -6.96 KCAL/MOL
REMARK 924 INTRA-LIGAND FREE ENERGY PREDICTED BY IDOCK:   -0.43 KCAL/MOL
REMARK 927      BINDING AFFINITY PREDICTED BY RF-SCORE:    0.00 PKD
ROOT
HETATM    1  O5* UNL     1     -12.292   6.857  70.268  1.00  0.00    -0.625 OA 
HETATM    2  H5* UNL     1     -12.082   6.002  69.911  1.00  0.00     0.000 HD 
HETATM    3  C5* UNL     1     -11.125   7.513  70.765  1.00  0.00    -0.265 C  
ENDROOT
BRANCH   3   4
HETATM    4  C4* UNL     1     -11.462   8.887  71.339  1.00  0.00    -0.311 C  
HETATM    5  O4* UNL     1     -11.050   9.930  70.436  1.00  0.00    -0.270 OA 
HETATM    6  C1* UNL     1     -11.831  11.074  70.802  1.00  0.00    -0.278 C  
HETATM    7  C2* UNL     1     -13.210  10.545  71.182  1.00  0.00    -0.358 C  
HETATM    8  H3* UNL     1     -14.198   9.021  73.105  1.00  0.00     0.000 HD 
HETATM    9  O3* UNL     1     -13.269   8.887  72.955  1.00  0.00    -0.333 OA 
HETATM   10  C3* UNL     1     -12.955   9.103  71.581  1.00  0.00    -0.365 C  
BRANCH   6  11
HETATM   11  N   UNL     1     -11.856  12.060  69.729  1.00  0.00    -0.328 N  
HETATM   12  C   UNL     1     -11.728  11.686  68.400  1.00  0.00    -0.307 C  
HETATM   13  C   UNL     1     -11.880  14.010  67.753  1.00  0.00    -0.384 C  
HETATM   14  C   UNL     1     -11.712  12.569  67.390  1.00  0.00    -0.432 C  
HETATM   15  O   UNL     1     -12.261  13.751  71.252  1.00  0.00    -0.340 OA 
HETATM   16  N   UNL     1     -12.074  14.285  69.075  1.00  0.00    -0.475 N  
HETATM   17  H   UNL     1     -12.236  15.260  69.325  1.00  0.00     0.000 HD 
HETATM   18  O   UNL     1     -11.848  14.907  66.913  1.00  0.00    -0.315 OA 
HETATM   19  C   UNL     1     -12.072  13.378  70.095  1.00  0.00    -0.344 C  
BRANCH  14  20
HETATM   20  C   UNL     1     -11.613  12.220  65.981  1.00  0.00    -0.451 C  
HETATM   21  C   UNL     1     -10.490  11.935  65.312  1.00  0.00    -0.275 C  
HETATM   22 BR   UNL     1     -10.451  11.539  63.498  1.00  0.00    -0.505 Br 
ENDBRANCH  14  20
ENDBRANCH   6  11
ENDBRANCH   3   4
TORSDOF 3
ENDMDL
MODEL       22
REMARK 921   NORMALIZED FREE ENERGY PREDICTED BY IDOCK:   -5.76 KCAL/MOL
REMARK 922        TOTAL FREE ENERGY PREDICTED BY IDOCK:   -7.37 KCAL/MOL
REMARK 923 INTER-LIGAND FREE ENERGY PREDICTED BY IDOCK:   -6.82 KCAL/MOL
REMARK 924 INTRA-LIGAND FREE ENERGY PREDICTED BY IDOCK:   -0.56 KCAL/MOL
REMARK 927      BINDING AFFINITY PREDICTED BY RF-SCORE:    0.00 PKD
ROOT
HETATM    1  O5* UNL     1     -11.578  16.530  63.835  1.00  0.00    -1.598 OA 
HETATM    2  H5* UNL     1     -11.660  17.447  64.069  1.00  0.00     0.000 HD 
HETATM    3  C5* UNL     1     -10.961  15.780  64.882  1.00  0.00    -0.427 C  
ENDROOT
BRANCH   3   4
HETATM    4  C4* UNL     1     -10.828  14.306  64.505  1.00  0.00    -0.288 C  
HETATM    5  O4* UNL     1     -10.153  13.576  65.545  1.00  0.00    -0.295 OA 
HETATM    6  C1* UNL     1     -10.522  12.206  65.343  1.00  0.00    -0.270 C  
HETATM    7  C2* UNL     1     -11.979  12.220  64.892  1.00  0.00    -0.420 C  
HETATM    8  H3* UNL     1     -13.305  13.087  62.775  1.00  0.00     0.000 HD 
HETATM    9  O3* UNL     1     -12.473  13.525  62.905  1.00  0.00    -0.601 OA 
HETATM   10  C3* UNL     1     -12.168  13.602  64.295  1.00  0.00    -0.396 C  
BRANCH   6  11
HETATM   11  N   UNL     1     -10.287  11.414  66.543  1.00  0.00    -0.228 N  
HETATM   12  C   UNL     1     -11.104  11.528  67.657  1.00  0.00    -0.266 C  
HETATM   13  C   UNL     1      -9.742   9.890  68.799  1.00  0.00    -0.160 C  
HETATM   14  C   UNL     1     -10.896  10.840  68.791  1.00  0.00    -0.262 C  
HETATM   15  O   UNL     1      -8.538  10.312  65.509  1.00  0.00    -0.150 OA 
HETATM   16  N   UNL     1      -9.034   9.783  67.638  1.00  0.00    -0.128 N  
HETATM   17  H   UNL     1      -8.274   9.103  67.620  1.00  0.00     0.000 HD 
HETATM   18  O   UNL     1      -9.439   9.233  69.793  1.00  0.00    -0.169 OA 
HETATM   19  C   UNL     1      -9.247  10.501  66.496  1.00  0.00    -0.161 C  
BRANCH  14  20
HETATM   20  C   UNL     1     -11.745  10.904  69.970  1.00  0.00    -0.427 C  
HETATM   21  C   UNL     1     -12.280  12.009  70.503  1.00  0.00    -0.325 C  
HETATM   22 BR   UNL     1     -13.323  12.004  72.040  1.00  0.00    -0.243 Br 
ENDBRANCH  14  20
ENDBRANCH   6  11
ENDBRANCH   3   4
TORSDOF 3
ENDMDL
MODEL       23
REMARK 921   NORMALIZED FREE ENERGY PREDICTED BY IDOCK:   -5.75 KCAL/MOL
REMARK 922        TOTAL FREE ENERGY PREDICTED BY IDOCK:   -7.37 KCAL/MOL
REMARK 923 INTER-LIGAND FREE ENERGY PREDICTED BY IDOCK:   -6.75 KCAL/MOL
REMARK 924 INTRA-LIGAND FREE ENERGY PREDICTED BY IDOCK:   -0.62 KCAL/MOL
REMARK 927      BINDING AFFINITY PREDICTED BY RF-SCORE:    0.00 PKD
ROOT
HETATM    1  O5* UNL     1      -7.235  19.728  69.292  1.00  0.00    -0.340 OA 
HETATM    2  H5* UNL     1      -6.499  19.831  69.884  1.00  0.00     0.000 HD 
HETATM    3  C5* UNL     1      -7.075  18.576  68.462  1.00  0.00    -0.277 C  
ENDROOT
BRANCH   3   4
HETATM    4  C4* UNL     1      -8.258  18.409  67.510  1.00  0.00    -0.248 C  
HETATM    5  O4* UNL     1      -8.590  17.018  67.352  1.00  0.00    -0.194 OA 
HETATM    6  C1* UNL     1      -9.946  17.005  66.889  1.00  0.00    -0.289 C  
HETATM    7  C2* UNL     1     -10.655  18.144  67.616  1.00  0.00    -0.424 C  
HETATM    8  H3* UNL     1     -10.487  20.783  67.635  1.00  0.00     0.000 HD 
HETATM    9  O3* UNL     1      -9.692  20.355  67.337  1.00  0.00    -0.418 OA 
HETATM   10  C3* UNL     1      -9.535  19.098  67.989  1.00  0.00    -0.330 C  
BRANCH   6  11
HETATM   11  N   UNL     1     -10.562  15.701  67.098  1.00  0.00    -0.305 N  
HETATM   12  C   UNL     1     -11.034  15.316  68.343  1.00  0.00    -0.271 C  
HETATM   13  C   UNL     1     -11.691  13.184  67.411  1.00  0.00    -0.370 C  
HETATM   14  C   UNL     1     -11.576  14.111  68.579  1.00  0.00    -0.351 C  
HETATM   15  O   UNL     1     -10.369  15.216  64.847  1.00  0.00    -0.371 OA 
HETATM   16  N   UNL     1     -11.271  13.669  66.207  1.00  0.00    -0.302 N  
HETATM   17  H   UNL     1     -11.389  13.061  65.397  1.00  0.00     0.000 HD 
HETATM   18  O   UNL     1     -12.140  12.046  67.518  1.00  0.00    -0.555 OA 
HETATM   19  C   UNL     1     -10.707  14.892  65.984  1.00  0.00    -0.323 C  
BRANCH  14  20
HETATM   20  C   UNL     1     -12.114  13.677  69.859  1.00  0.00    -0.406 C  
HETATM   21  C   UNL     1     -12.928  14.378  70.656  1.00  0.00    -0.289 C  
HETATM   22 BR   UNL     1     -13.535  13.760  72.300  1.00  0.00    -0.686 Br 
ENDBRANCH  14  20
ENDBRANCH   6  11
ENDBRANCH   3   4
TORSDOF 3
ENDMDL
MODEL       24
REMARK 921   NORMALIZED FREE ENERGY PREDICTED BY IDOCK:   -5.73 KCAL/MOL
REMARK 922        TOTAL FREE ENERGY PREDICTED BY IDOCK:   -7.35 KCAL/MOL
REMARK 923 INTER-LIGAND FREE ENERGY PREDICTED BY IDOCK:   -6.85 KCAL/MOL
REMARK 924 INTRA-LIGAND FREE ENERGY PREDICTED BY IDOCK:   -0.50 KCAL/MOL
REMARK 927      BINDING AFFINITY PREDICTED BY RF-SCORE:    0.00 PKD
ROOT
HETATM    1  O5* UNL     1     -14.380   8.869  73.395  1.00  0.00    -1.192 OA 
HETATM    2  H5* UNL     1     -15.091   8.621  73.974  1.00  0.00     0.000 HD 
HETATM    3  C5* UNL     1     -14.329   8.024  72.244  1.00  0.00    -0.253 C  
ENDROOT
BRANCH   3   4
HETATM    4  C4* UNL     1     -13.186   8.424  71.313  1.00  0.00    -0.130 C  
HETATM    5  O4* UNL     1     -13.421   9.729  70.752  1.00  0.00    -0.252 OA 
HETATM    6  C1* UNL     1     -12.132  10.197  70.337  1.00  0.00    -0.246 C  
HETATM    7  C2* UNL     1     -11.142   9.706  71.388  1.00  0.00    -0.397 C  
HETATM    8  H3* UNL     1     -10.237   7.355  72.195  1.00  0.00     0.000 HD 
HETATM    9  O3* UNL     1     -11.083   7.308  71.765  1.00  0.00    -0.230 OA 
HETATM   10  C3* UNL     1     -11.826   8.500  72.005  1.00  0.00    -0.362 C  
BRANCH   6  11
HETATM   11  N   UNL     1     -12.130  11.644  70.159  1.00  0.00    -0.336 N  
HETATM   12  C   UNL     1     -12.459  12.501  71.198  1.00  0.00    -0.223 C  
HETATM   13  C   UNL     1     -12.132  14.385  69.719  1.00  0.00    -0.334 C  
HETATM   14  C   UNL     1     -12.500  13.835  71.060  1.00  0.00    -0.458 C  
HETATM   15  O   UNL     1     -11.358  11.405  67.994  1.00  0.00    -0.256 OA 
HETATM   16  N   UNL     1     -11.749  13.478  68.775  1.00  0.00    -0.316 N  
HETATM   17  H   UNL     1     -11.451  13.848  67.872  1.00  0.00     0.000 HD 
HETATM   18  O   UNL     1     -12.166  15.588  69.470  1.00  0.00    -0.327 OA 
HETATM   19  C   UNL     1     -11.726  12.121  68.923  1.00  0.00    -0.327 C  
BRANCH  14  20
HETATM   20  C   UNL     1     -12.808  14.773  72.128  1.00  0.00    -0.407 C  
HETATM   21  C   UNL     1     -11.949  15.251  73.036  1.00  0.00    -0.407 C  
HETATM   22 BR   UNL     1     -12.439  16.418  74.396  1.00  0.00    -0.392 Br 
ENDBRANCH  14  20
ENDBRANCH   6  11
ENDBRANCH   3   4
TORSDOF 3
ENDMDL
MODEL       25
REMARK 921   NORMALIZED FREE ENERGY PREDICTED BY IDOCK:   -5.70 KCAL/MOL
REMARK 922        TOTAL FREE ENERGY PREDICTED BY IDOCK:   -7.31 KCAL/MOL
REMARK 923 INTER-LIGAND FREE ENERGY PREDICTED BY IDOCK:   -6.79 KCAL/MOL
REMARK 924 INTRA-LIGAND FREE ENERGY PREDICTED BY IDOCK:   -0.51 KCAL/MOL
REMARK 927      BINDING AFFINITY PREDICTED BY RF-SCORE:    0.00 PKD
ROOT
HETATM    1  O5* UNL     1     -10.595  17.758  65.523  1.00  0.00    -0.632 OA 
HETATM    2  H5* UNL     1     -10.380  18.448  66.140  1.00  0.00     0.000 HD 
HETATM    3  C5* UNL     1     -10.207  16.477  66.022  1.00  0.00    -0.356 C  
ENDROOT
BRANCH   3   4
HETATM    4  C4* UNL     1     -10.551  15.368  65.030  1.00  0.00    -0.420 C  
HETATM    5  O4* UNL     1      -9.942  14.126  65.427  1.00  0.00    -0.336 OA 
HETATM    6  C1* UNL     1     -10.704  13.106  64.768  1.00  0.00    -0.364 C  
HETATM    7  C2* UNL     1     -12.154  13.579  64.787  1.00  0.00    -0.442 C  
HETATM    8  H3* UNL     1     -13.519  15.566  63.700  1.00  0.00     0.000 HD 
HETATM    9  O3* UNL     1     -12.588  15.741  63.770  1.00  0.00    -0.622 OA 
HETATM   10  C3* UNL     1     -12.049  15.087  64.917  1.00  0.00    -0.201 C  
BRANCH   6  11
HETATM   11  N   UNL     1     -10.502  11.807  65.398  1.00  0.00    -0.262 N  
HETATM   12  C   UNL     1     -10.770  11.606  66.743  1.00  0.00    -0.260 C  
HETATM   13  C   UNL     1     -10.054   9.308  66.521  1.00  0.00    -0.273 C  
HETATM   14  C   UNL     1     -10.563  10.434  67.363  1.00  0.00    -0.321 C  
HETATM   15  O   UNL     1      -9.904  10.882  63.366  1.00  0.00    -0.301 OA 
HETATM   16  N   UNL     1      -9.888   9.570  65.193  1.00  0.00    -0.437 N  
HETATM   17  H   UNL     1      -9.586   8.794  64.603  1.00  0.00     0.000 HD 
HETATM   18  O   UNL     1      -9.799   8.201  66.990  1.00  0.00    -0.187 OA 
HETATM   19  C   UNL     1     -10.087  10.772  64.577  1.00  0.00    -0.350 C  
BRANCH  14  20
HETATM   20  C   UNL     1     -10.860  10.169  68.762  1.00  0.00    -0.259 C  
HETATM   21  C   UNL     1     -11.885  10.668  69.464  1.00  0.00    -0.273 C  
HETATM   22 BR   UNL     1     -12.166  10.307  71.264  1.00  0.00    -0.501 Br 
ENDBRANCH  14  20
ENDBRANCH   6  11
ENDBRANCH   3   4
TORSDOF 3
ENDMDL
MODEL       26
REMARK 921   NORMALIZED FREE ENERGY PREDICTED BY IDOCK:   -5.69 KCAL/MOL
REMARK 922        TOTAL FREE ENERGY PREDICTED BY IDOCK:   -7.30 KCAL/MOL
REMARK 923 INTER-LIGAND FREE ENERGY PREDICTED BY IDOCK:   -6.82 KCAL/MOL
REMARK 924 INTRA-LIGAND FREE ENERGY PREDICTED BY IDOCK:   -0.48 KCAL/MOL
REMARK 927      BINDING AFFINITY PREDICTED BY RF-SCORE:    0.00 PKD
ROOT
HETATM    1  O5* UNL     1     -13.559  11.076  72.436  1.00  0.00    -0.541 OA 
HETATM    2  H5* UNL     1     -13.889  10.186  72.394  1.00  0.00     0.000 HD 
HETATM    3  C5* UNL     1     -12.825  11.413  71.259  1.00  0.00    -0.379 C  
ENDROOT
BRANCH   3   4
HETATM    4  C4* UNL     1     -12.293  12.844  71.327  1.00  0.00    -0.078 C  
HETATM    5  O4* UNL     1     -11.584  13.179  70.120  1.00  0.00    -0.209 OA 
HETATM    6  C1* UNL     1     -11.581  14.612  70.072  1.00  0.00    -0.284 C  
HETATM    7  C2* UNL     1     -12.935  15.058  70.612  1.00  0.00    -0.394 C  
HETATM    8  H3* UNL     1     -14.182  14.951  72.942  1.00  0.00     0.000 HD 
HETATM    9  O3* UNL     1     -13.502  14.295  72.846  1.00  0.00    -0.593 OA 
HETATM   10  C3* UNL     1     -13.387  13.899  71.482  1.00  0.00    -0.335 C  
BRANCH   6  11
HETATM   11  N   UNL     1     -11.298  15.093  68.726  1.00  0.00    -0.283 N  
HETATM   12  C   UNL     1     -11.609  14.335  67.607  1.00  0.00    -0.368 C  
HETATM   13  C   UNL     1     -10.691  16.074  66.201  1.00  0.00    -0.244 C  
HETATM   14  C   UNL     1     -11.332  14.732  66.355  1.00  0.00    -0.339 C  
HETATM   15  O   UNL     1     -10.530  17.101  69.573  1.00  0.00    -0.286 OA 
HETATM   16  N   UNL     1     -10.487  16.785  67.347  1.00  0.00    -0.314 N  
HETATM   17  H   UNL     1     -10.093  17.721  67.246  1.00  0.00     0.000 HD 
HETATM   18  O   UNL     1     -10.364  16.523  65.105  1.00  0.00    -0.618 OA 
HETATM   19  C   UNL     1     -10.759  16.364  68.616  1.00  0.00    -0.317 C  
BRANCH  14  20
HETATM   20  C   UNL     1     -11.669  13.987  65.152  1.00  0.00    -0.353 C  
HETATM   21  C   UNL     1     -12.430  12.888  65.088  1.00  0.00    -0.501 C  
HETATM   22 BR   UNL     1     -12.777  11.973  63.509  1.00  0.00    -0.387 Br 
ENDBRANCH  14  20
ENDBRANCH   6  11
ENDBRANCH   3   4
TORSDOF 3
ENDMDL
MODEL       27
REMARK 921   NORMALIZED FREE ENERGY PREDICTED BY IDOCK:   -5.69 KCAL/MOL
REMARK 922        TOTAL FREE ENERGY PREDICTED BY IDOCK:   -7.30 KCAL/MOL
REMARK 923 INTER-LIGAND FREE ENERGY PREDICTED BY IDOCK:   -6.76 KCAL/MOL
REMARK 924 INTRA-LIGAND FREE ENERGY PREDICTED BY IDOCK:   -0.55 KCAL/MOL
REMARK 927      BINDING AFFINITY PREDICTED BY RF-SCORE:    0.00 PKD
ROOT
HETATM    1  O5* UNL     1      -6.978  19.704  67.427  1.00  0.00    -0.203 OA 
HETATM    2  H5* UNL     1      -6.054  19.859  67.586  1.00  0.00     0.000 HD 
HETATM    3  C5* UNL     1      -7.191  18.443  66.792  1.00  0.00    -0.208 C  
ENDROOT
BRANCH   3   4
HETATM    4  C4* UNL     1      -8.676  18.194  66.536  1.00  0.00    -0.268 C  
HETATM    5  O4* UNL     1      -9.072  16.911  67.054  1.00  0.00    -0.215 OA 
HETATM    6  C1* UNL     1     -10.493  16.996  67.220  1.00  0.00    -0.301 C  
HETATM    7  C2* UNL     1     -10.783  18.416  67.692  1.00  0.00    -0.390 C  
HETATM    8  H3* UNL     1     -10.570  20.843  66.661  1.00  0.00     0.000 HD 
HETATM    9  O3* UNL     1      -9.998  20.205  66.250  1.00  0.00    -0.448 OA 
HETATM   10  C3* UNL     1      -9.594  19.220  67.197  1.00  0.00    -0.325 C  
BRANCH   6  11
HETATM   11  N   UNL     1     -10.980  15.964  68.128  1.00  0.00    -0.322 N  
HETATM   12  C   UNL     1     -10.973  16.149  69.502  1.00  0.00    -0.341 C  
HETATM   13  C   UNL     1     -11.894  13.931  69.783  1.00  0.00    -0.329 C  
HETATM   14  C   UNL     1     -11.382  15.208  70.368  1.00  0.00    -0.323 C  
HETATM   15  O   UNL     1     -11.595  14.638  66.338  1.00  0.00    -0.361 OA 
HETATM   16  N   UNL     1     -11.936  13.861  68.421  1.00  0.00    -0.401 N  
HETATM   17  H   UNL     1     -12.327  13.011  68.014  1.00  0.00     0.000 HD 
HETATM   18  O   UNL     1     -12.263  12.990  70.481  1.00  0.00    -0.357 OA 
HETATM   19  C   UNL     1     -11.503  14.819  67.551  1.00  0.00    -0.354 C  
BRANCH  14  20
HETATM   20  C   UNL     1     -11.424  15.370  71.813  1.00  0.00    -0.497 C  
HETATM   21  C   UNL     1     -12.500  15.681  72.545  1.00  0.00    -0.428 C  
HETATM   22 BR   UNL     1     -12.453  15.908  74.388  1.00  0.00    -0.687 Br 
ENDBRANCH  14  20
ENDBRANCH   6  11
ENDBRANCH   3   4
TORSDOF 3
ENDMDL
MODEL       28
REMARK 921   NORMALIZED FREE ENERGY PREDICTED BY IDOCK:   -5.61 KCAL/MOL
REMARK 922        TOTAL FREE ENERGY PREDICTED BY IDOCK:   -7.20 KCAL/MOL
REMARK 923 INTER-LIGAND FREE ENERGY PREDICTED BY IDOCK:   -6.81 KCAL/MOL
REMARK 924 INTRA-LIGAND FREE ENERGY PREDICTED BY IDOCK:   -0.40 KCAL/MOL
REMARK 927      BINDING AFFINITY PREDICTED BY RF-SCORE:    0.00 PKD
ROOT
HETATM    1  O5* UNL     1     -10.441  19.976  69.040  1.00  0.00    -0.600 OA 
HETATM    2  H5* UNL     1     -10.409  20.521  69.817  1.00  0.00     0.000 HD 
HETATM    3  C5* UNL     1      -9.187  19.335  68.805  1.00  0.00    -0.371 C  
ENDROOT
BRANCH   3   4
HETATM    4  C4* UNL     1      -9.237  18.458  67.555  1.00  0.00    -0.272 C  
HETATM    5  O4* UNL     1      -9.399  17.074  67.912  1.00  0.00    -0.234 OA 
HETATM    6  C1* UNL     1      -9.926  16.441  66.739  1.00  0.00    -0.272 C  
HETATM    7  C2* UNL     1     -10.884  17.447  66.108  1.00  0.00     0.040 C  
HETATM    8  H3* UNL     1     -10.664  19.820  64.961  1.00  0.00     0.000 HD 
HETATM    9  O3* UNL     1      -9.944  19.613  65.544  1.00  0.00    -0.345 OA 
HETATM   10  C3* UNL     1     -10.396  18.791  66.617  1.00  0.00    -0.420 C  
BRANCH   6  11
HETATM   11  N   UNL     1     -10.546  15.163  67.063  1.00  0.00    -0.293 N  
HETATM   12  C   UNL     1     -11.045  14.902  68.330  1.00  0.00    -0.282 C  
HETATM   13  C   UNL     1     -11.681  12.687  67.599  1.00  0.00    -0.361 C  
HETATM   14  C   UNL     1     -11.591  13.724  68.672  1.00  0.00    -0.369 C  
HETATM   15  O   UNL     1     -10.305  14.458  64.875  1.00  0.00    -0.421 OA 
HETATM   16  N   UNL     1     -11.235  13.051  66.363  1.00  0.00    -0.291 N  
HETATM   17  H   UNL     1     -11.336  12.365  65.614  1.00  0.00     0.000 HD 
HETATM   18  O   UNL     1     -12.132  11.563  67.809  1.00  0.00    -0.626 OA 
HETATM   19  C   UNL     1     -10.667  14.247  66.031  1.00  0.00    -0.304 C  
BRANCH  14  20
HETATM   20  C   UNL     1     -12.156  13.417  69.977  1.00  0.00    -0.404 C  
HETATM   21  C   UNL     1     -12.701  14.292  70.831  1.00  0.00    -0.357 C  
HETATM   22 BR   UNL     1     -13.363  13.817  72.500  1.00  0.00    -0.628 Br 
ENDBRANCH  14  20
ENDBRANCH   6  11
ENDBRANCH   3   4
TORSDOF 3
ENDMDL
MODEL       29
REMARK 921   NORMALIZED FREE ENERGY PREDICTED BY IDOCK:   -5.57 KCAL/MOL
REMARK 922        TOTAL FREE ENERGY PREDICTED BY IDOCK:   -7.16 KCAL/MOL
REMARK 923 INTER-LIGAND FREE ENERGY PREDICTED BY IDOCK:   -7.24 KCAL/MOL
REMARK 924 INTRA-LIGAND FREE ENERGY PREDICTED BY IDOCK:    0.08 KCAL/MOL
REMARK 927      BINDING AFFINITY PREDICTED BY RF-SCORE:    0.00 PKD
ROOT
HETATM    1  O5* UNL     1     -11.161   8.199  67.914  1.00  0.00    -0.467 OA 
HETATM    2  H5* UNL     1     -11.209   7.362  67.468  1.00  0.00     0.000 HD 
HETATM    3  C5* UNL     1     -10.445   9.160  67.138  1.00  0.00    -0.255 C  
ENDROOT
BRANCH   3   4
HETATM    4  C4* UNL     1     -10.367  10.506  67.855  1.00  0.00    -0.192 C  
HETATM    5  O4* UNL     1     -10.087  11.564  66.920  1.00  0.00    -0.206 OA 
HETATM    6  C1* UNL     1     -10.526  12.765  67.568  1.00  0.00    -0.218 C  
HETATM    7  C2* UNL     1     -11.790  12.396  68.337  1.00  0.00    -0.361 C  
HETATM    8  H3* UNL     1     -12.377  10.844  70.397  1.00  0.00     0.000 HD 
HETATM    9  O3* UNL     1     -11.572  10.598  69.956  1.00  0.00    -0.271 OA 
HETATM   10  C3* UNL     1     -11.660  10.901  68.565  1.00  0.00    -0.290 C  
BRANCH   6  11
HETATM   11  N   UNL     1     -10.717  13.843  66.607  1.00  0.00    -0.280 N  
HETATM   12  C   UNL     1     -10.252  15.125  66.855  1.00  0.00    -0.259 C  
HETATM   13  C   UNL     1     -11.157  15.843  64.732  1.00  0.00    -0.384 C  
HETATM   14  C   UNL     1     -10.441  16.149  66.008  1.00  0.00    -0.349 C  
HETATM   15  O   UNL     1     -11.697  12.376  65.113  1.00  0.00    -0.355 OA 
HETATM   16  N   UNL     1     -11.515  14.541  64.533  1.00  0.00    -0.561 N  
HETATM   17  H   UNL     1     -11.962  14.316  63.644  1.00  0.00     0.000 HD 
HETATM   18  O   UNL     1     -11.413  16.709  63.899  1.00  0.00    -1.186 OA 
HETATM   19  C   UNL     1     -11.331  13.512  65.410  1.00  0.00    -0.289 C  
BRANCH  14  20
HETATM   20  C   UNL     1      -9.943  17.500  66.212  1.00  0.00    -0.316 C  
HETATM   21  C   UNL     1     -10.492  18.437  66.995  1.00  0.00    -0.399 C  
HETATM   22 BR   UNL     1      -9.810  20.157  67.166  1.00  0.00    -0.607 Br 
ENDBRANCH  14  20
ENDBRANCH   6  11
ENDBRANCH   3   4
TORSDOF 3
ENDMDL
MODEL       30
REMARK 921   NORMALIZED FREE ENERGY PREDICTED BY IDOCK:   -5.48 KCAL/MOL
REMARK 922        TOTAL FREE ENERGY PREDICTED BY IDOCK:   -7.05 KCAL/MOL
REMARK 923 INTER-LIGAND FREE ENERGY PREDICTED BY IDOCK:   -6.58 KCAL/MOL
REMARK 924 INTRA-LIGAND FREE ENERGY PREDICTED BY IDOCK:   -0.47 KCAL/MOL
REMARK 927      BINDING AFFINITY PREDICTED BY RF-SCORE:    0.00 PKD
ROOT
HETATM    1  O5* UNL     1     -12.299  14.072  63.339  1.00  0.00    -1.099 OA 
HETATM    2  H5* UNL     1     -12.578  13.907  62.446  1.00  0.00     0.000 HD 
HETATM    3  C5* UNL     1     -12.248  12.864  64.099  1.00  0.00    -0.414 C  
ENDROOT
BRANCH   3   4
HETATM    4  C4* UNL     1     -11.800  13.131  65.535  1.00  0.00    -0.380 C  
HETATM    5  O4* UNL     1     -12.158  12.030  66.390  1.00  0.00    -0.610 OA 
HETATM    6  C1* UNL     1     -11.289  12.138  67.525  1.00  0.00    -0.326 C  
HETATM    7  C2* UNL     1      -9.943  12.610  66.987  1.00  0.00    -0.220 C  
HETATM    8  H3* UNL     1      -9.021  14.806  65.835  1.00  0.00     0.000 HD 
HETATM    9  O3* UNL     1      -9.960  14.695  65.741  1.00  0.00    -0.306 OA 
HETATM   10  C3* UNL     1     -10.290  13.309  65.685  1.00  0.00    -0.287 C  
BRANCH   6  11
HETATM   11  N   UNL     1     -11.219  10.879  68.257  1.00  0.00    -0.263 N  
HETATM   12  C   UNL     1     -10.704   9.731  67.674  1.00  0.00    -0.274 C  
HETATM   13  C   UNL     1     -11.158   8.517  69.715  1.00  0.00    -0.062 C  
HETATM   14  C   UNL     1     -10.656   8.548  68.307  1.00  0.00    -0.173 C  
HETATM   15  O   UNL     1     -12.035  11.906  70.159  1.00  0.00    -0.330 OA 
HETATM   16  N   UNL     1     -11.579   9.706  70.236  1.00  0.00    -0.380 N  
HETATM   17  H   UNL     1     -11.878   9.702  71.211  1.00  0.00     0.000 HD 
HETATM   18  O   UNL     1     -11.191   7.483  70.377  1.00  0.00    -0.266 OA 
HETATM   19  C   UNL     1     -11.636  10.899  69.577  1.00  0.00    -0.313 C  
BRANCH  14  20
HETATM   20  C   UNL     1     -10.095   7.329  67.748  1.00  0.00    -0.225 C  
HETATM   21  C   UNL     1     -10.733   6.447  66.969  1.00  0.00    -0.363 C  
HETATM   22 BR   UNL     1      -9.949   4.888  66.331  1.00  0.00    -0.289 Br 
ENDBRANCH  14  20
ENDBRANCH   6  11
ENDBRANCH   3   4
TORSDOF 3
ENDMDL
MODEL       31
REMARK 921   NORMALIZED FREE ENERGY PREDICTED BY IDOCK:   -5.46 KCAL/MOL
REMARK 922        TOTAL FREE ENERGY PREDICTED BY IDOCK:   -7.02 KCAL/MOL
REMARK 923 INTER-LIGAND FREE ENERGY PREDICTED BY IDOCK:   -6.61 KCAL/MOL
REMARK 924 INTRA-LIGAND FREE ENERGY PREDICTED BY IDOCK:   -0.41 KCAL/MOL
REMARK 927      BINDING AFFINITY PREDICTED BY RF-SCORE:    0.00 PKD
ROOT
HETATM    1  O5* UNL     1     -11.969  16.334  72.331  1.00  0.00    -0.516 OA 
HETATM    2  H5* UNL     1     -11.382  17.070  72.457  1.00  0.00     0.000 HD 
HETATM    3  C5* UNL     1     -11.706  15.667  71.095  1.00  0.00    -0.413 C  
ENDROOT
BRANCH   3   4
HETATM    4  C4* UNL     1     -12.650  14.484  70.892  1.00  0.00    -0.344 C  
HETATM    5  O4* UNL     1     -12.023  13.466  70.091  1.00  0.00    -0.327 OA 
HETATM    6  C1* UNL     1     -12.744  12.261  70.381  1.00  0.00     0.100 C  
HETATM    7  C2* UNL     1     -13.088  12.318  71.865  1.00  0.00    -0.469 C  
HETATM    8  H3* UNL     1     -14.618  13.829  73.405  1.00  0.00     0.000 HD 
HETATM    9  O3* UNL     1     -14.358  14.254  72.597  1.00  0.00    -0.515 OA 
HETATM   10  C3* UNL     1     -13.069  13.800  72.193  1.00  0.00    -0.406 C  
BRANCH   6  11
HETATM   11  N   UNL     1     -11.976  11.083  70.001  1.00  0.00    -0.320 N  
HETATM   12  C   UNL     1     -11.571  10.149  70.942  1.00  0.00    -0.372 C  
HETATM   13  C   UNL     1     -10.486   8.885  69.190  1.00  0.00    -0.223 C  
HETATM   14  C   UNL     1     -10.834   9.070  70.632  1.00  0.00    -0.295 C  
HETATM   15  O   UNL     1     -12.119  11.673  67.770  1.00  0.00    -0.613 OA 
HETATM   16  N   UNL     1     -10.986   9.809  68.320  1.00  0.00    -0.444 N  
HETATM   17  H   UNL     1     -10.792   9.664  67.330  1.00  0.00     0.000 HD 
HETATM   18  O   UNL     1      -9.788   7.952  68.798  1.00  0.00    -0.160 OA 
HETATM   19  C   UNL     1     -11.722  10.911  68.650  1.00  0.00    -0.263 C  
BRANCH  14  20
HETATM   20  C   UNL     1     -10.416   8.049  71.580  1.00  0.00    -0.265 C  
HETATM   21  C   UNL     1     -10.775   7.966  72.866  1.00  0.00    -0.375 C  
HETATM   22 BR   UNL     1     -10.158   6.646  74.019  1.00  0.00    -0.394 Br 
ENDBRANCH  14  20
ENDBRANCH   6  11
ENDBRANCH   3   4
TORSDOF 3
ENDMDL
MODEL       32
REMARK 921   NORMALIZED FREE ENERGY PREDICTED BY IDOCK:   -5.45 KCAL/MOL
REMARK 922        TOTAL FREE ENERGY PREDICTED BY IDOCK:   -7.01 KCAL/MOL
REMARK 923 INTER-LIGAND FREE ENERGY PREDICTED BY IDOCK:   -6.62 KCAL/MOL
REMARK 924 INTRA-LIGAND FREE ENERGY PREDICTED BY IDOCK:   -0.39 KCAL/MOL
REMARK 927      BINDING AFFINITY PREDICTED BY RF-SCORE:    0.00 PKD
ROOT
HETATM    1  O5* UNL     1     -13.256  12.030  63.884  1.00  0.00    -0.705 OA 
HETATM    2  H5* UNL     1     -14.006  12.031  63.301  1.00  0.00     0.000 HD 
HETATM    3  C5* UNL     1     -12.277  12.985  63.473  1.00  0.00    -0.501 C  
ENDROOT
BRANCH   3   4
HETATM    4  C4* UNL     1     -11.072  12.983  64.411  1.00  0.00    -0.370 C  
HETATM    5  O4* UNL     1     -10.839  14.301  64.941  1.00  0.00    -0.373 OA 
HETATM    6  C1* UNL     1     -10.067  14.097  66.131  1.00  0.00    -0.313 C  
HETATM    7  C2* UNL     1     -10.606  12.824  66.774  1.00  0.00    -0.266 C  
HETATM    8  H3* UNL     1     -10.666  10.255  66.146  1.00  0.00     0.000 HD 
HETATM    9  O3* UNL     1     -10.565  10.826  65.394  1.00  0.00    -0.242 OA 
HETATM   10  C3* UNL     1     -11.235  12.064  65.620  1.00  0.00    -0.327 C  
BRANCH   6  11
HETATM   11  N   UNL     1     -10.124  15.264  67.002  1.00  0.00    -0.245 N  
HETATM   12  C   UNL     1     -10.717  15.205  68.254  1.00  0.00    -0.251 C  
HETATM   13  C   UNL     1     -10.216  17.547  68.579  1.00  0.00    -0.378 C  
HETATM   14  C   UNL     1     -10.816  16.268  69.067  1.00  0.00    -0.315 C  
HETATM   15  O   UNL     1      -8.907  16.500  65.474  1.00  0.00    -0.325 OA 
HETATM   16  N   UNL     1      -9.587  17.500  67.370  1.00  0.00    -0.261 N  
HETATM   17  H   UNL     1      -9.134  18.357  67.051  1.00  0.00     0.000 HD 
HETATM   18  O   UNL     1     -10.278  18.590  69.226  1.00  0.00    -0.248 OA 
HETATM   19  C   UNL     1      -9.506  16.416  66.545  1.00  0.00    -0.272 C  
BRANCH  14  20
HETATM   20  C   UNL     1     -11.400  16.244  70.399  1.00  0.00    -0.313 C  
HETATM   21  C   UNL     1     -11.549  15.167  71.180  1.00  0.00    -0.360 C  
HETATM   22 BR   UNL     1     -12.345  15.221  72.858  1.00  0.00    -0.560 Br 
ENDBRANCH  14  20
ENDBRANCH   6  11
ENDBRANCH   3   4
TORSDOF 3
ENDMDL
MODEL       33
REMARK 921   NORMALIZED FREE ENERGY PREDICTED BY IDOCK:   -5.43 KCAL/MOL
REMARK 922        TOTAL FREE ENERGY PREDICTED BY IDOCK:   -7.00 KCAL/MOL
REMARK 923 INTER-LIGAND FREE ENERGY PREDICTED BY IDOCK:   -6.55 KCAL/MOL
REMARK 924 INTRA-LIGAND FREE ENERGY PREDICTED BY IDOCK:   -0.45 KCAL/MOL
REMARK 927      BINDING AFFINITY PREDICTED BY RF-SCORE:    0.00 PKD
ROOT
HETATM    1  O5* UNL     1     -13.102  12.536  64.687  1.00  0.00    -0.845 OA 
HETATM    2  H5* UNL     1     -13.321  12.160  63.843  1.00  0.00     0.000 HD 
HETATM    3  C5* UNL     1     -11.734  12.299  65.023  1.00  0.00    -0.352 C  
ENDROOT
BRANCH   3   4
HETATM    4  C4* UNL     1     -11.383  12.902  66.381  1.00  0.00    -0.319 C  
HETATM    5  O4* UNL     1     -12.134  12.264  67.430  1.00  0.00    -0.533 OA 
HETATM    6  C1* UNL     1     -11.397  12.523  68.631  1.00  0.00    -0.288 C  
HETATM    7  C2* UNL     1      -9.923  12.450  68.249  1.00  0.00    -0.224 C  
HETATM    8  H3* UNL     1      -8.285  13.854  66.718  1.00  0.00     0.000 HD 
HETATM    9  O3* UNL     1      -9.200  13.950  66.482  1.00  0.00    -0.260 OA 
HETATM   10  C3* UNL     1      -9.911  12.747  66.761  1.00  0.00    -0.237 C  
BRANCH   6  11
HETATM   11  N   UNL     1     -11.775  11.596  69.691  1.00  0.00    -0.323 N  
HETATM   12  C   UNL     1     -11.383  10.266  69.663  1.00  0.00    -0.257 C  
HETATM   13  C   UNL     1     -12.571   9.894  71.735  1.00  0.00    -0.414 C  
HETATM   14  C   UNL     1     -11.741   9.378  70.603  1.00  0.00    -0.302 C  
HETATM   15  O   UNL     1     -12.805  13.304  70.858  1.00  0.00    -0.270 OA 
HETATM   16  N   UNL     1     -12.850  11.229  71.724  1.00  0.00    -0.405 N  
HETATM   17  H   UNL     1     -13.376  11.598  72.516  1.00  0.00     0.000 HD 
HETATM   18  O   UNL     1     -12.983   9.164  72.633  1.00  0.00    -0.388 OA 
HETATM   19  C   UNL     1     -12.493  12.120  70.753  1.00  0.00    -0.271 C  
BRANCH  14  20
HETATM   20  C   UNL     1     -11.326   7.984  70.632  1.00  0.00    -0.256 C  
HETATM   21  C   UNL     1     -10.824   7.285  69.607  1.00  0.00    -0.222 C  
HETATM   22 BR   UNL     1     -10.357   5.491  69.723  1.00  0.00    -0.385 Br 
ENDBRANCH  14  20
ENDBRANCH   6  11
ENDBRANCH   3   4
TORSDOF 3
ENDMDL
MODEL       34
REMARK 921   NORMALIZED FREE ENERGY PREDICTED BY IDOCK:   -5.43 KCAL/MOL
REMARK 922        TOTAL FREE ENERGY PREDICTED BY IDOCK:   -6.99 KCAL/MOL
REMARK 923 INTER-LIGAND FREE ENERGY PREDICTED BY IDOCK:   -7.14 KCAL/MOL
REMARK 924 INTRA-LIGAND FREE ENERGY PREDICTED BY IDOCK:    0.15 KCAL/MOL
REMARK 927      BINDING AFFINITY PREDICTED BY RF-SCORE:    0.00 PKD
ROOT
HETATM    1  O5* UNL     1     -11.029  19.720  65.297  1.00  0.00    -0.410 OA 
HETATM    2  H5* UNL     1     -11.364  20.498  64.867  1.00  0.00     0.000 HD 
HETATM    3  C5* UNL     1     -10.001  20.046  66.233  1.00  0.00    -0.481 C  
ENDROOT
BRANCH   3   4
HETATM    4  C4* UNL     1      -9.462  18.796  66.924  1.00  0.00    -0.310 C  
HETATM    5  O4* UNL     1     -10.450  17.750  66.923  1.00  0.00    -0.341 OA 
HETATM    6  C1* UNL     1      -9.713  16.535  67.112  1.00  0.00    -0.245 C  
HETATM    7  C2* UNL     1      -8.411  16.703  66.336  1.00  0.00    -0.353 C  
HETATM    8  H3* UNL     1      -6.274  18.252  66.521  1.00  0.00     0.000 HD 
HETATM    9  O3* UNL     1      -7.044  18.618  66.940  1.00  0.00    -0.198 OA 
HETATM   10  C3* UNL     1      -8.223  18.207  66.251  1.00  0.00    -0.212 C  
BRANCH   6  11
HETATM   11  N   UNL     1     -10.494  15.375  66.703  1.00  0.00    -0.287 N  
HETATM   12  C   UNL     1     -10.735  14.322  67.572  1.00  0.00    -0.270 C  
HETATM   13  C   UNL     1     -11.966  13.190  65.826  1.00  0.00    -0.423 C  
HETATM   14  C   UNL     1     -11.421  13.224  67.218  1.00  0.00    -0.378 C  
HETATM   15  O   UNL     1     -10.908  16.343  64.646  1.00  0.00    -0.717 OA 
HETATM   16  N   UNL     1     -11.747  14.299  65.061  1.00  0.00    -0.365 N  
HETATM   17  H   UNL     1     -12.156  14.303  64.126  1.00  0.00     0.000 HD 
HETATM   18  O   UNL     1     -12.581  12.222  65.385  1.00  0.00    -0.572 OA 
HETATM   19  C   UNL     1     -11.034  15.403  65.428  1.00  0.00    -0.368 C  
BRANCH  14  20
HETATM   20  C   UNL     1     -11.725  12.112  68.104  1.00  0.00    -0.402 C  
HETATM   21  C   UNL     1     -11.782  12.155  69.441  1.00  0.00    -0.329 C  
HETATM   22 BR   UNL     1     -12.138  10.671  70.500  1.00  0.00    -0.481 Br 
ENDBRANCH  14  20
ENDBRANCH   6  11
ENDBRANCH   3   4
TORSDOF 3
ENDMDL
MODEL       35
REMARK 921   NORMALIZED FREE ENERGY PREDICTED BY IDOCK:   -5.42 KCAL/MOL
REMARK 922        TOTAL FREE ENERGY PREDICTED BY IDOCK:   -6.98 KCAL/MOL
REMARK 923 INTER-LIGAND FREE ENERGY PREDICTED BY IDOCK:   -6.52 KCAL/MOL
REMARK 924 INTRA-LIGAND FREE ENERGY PREDICTED BY IDOCK:   -0.47 KCAL/MOL
REMARK 927      BINDING AFFINITY PREDICTED BY RF-SCORE:    0.00 PKD
ROOT
HETATM    1  O5* UNL     1     -12.468  14.777  68.171  1.00  0.00    -0.574 OA 
HETATM    2  H5* UNL     1     -12.641  15.334  68.921  1.00  0.00     0.000 HD 
HETATM    3  C5* UNL     1     -11.397  15.292  67.379  1.00  0.00    -0.284 C  
ENDROOT
BRANCH   3   4
HETATM    4  C4* UNL     1     -11.118  14.398  66.173  1.00  0.00    -0.330 C  
HETATM    5  O4* UNL     1     -10.395  13.219  66.571  1.00  0.00    -0.275 OA 
HETATM    6  C1* UNL     1     -10.629  12.264  65.528  1.00  0.00    -0.269 C  
HETATM    7  C2* UNL     1     -12.072  12.468  65.081  1.00  0.00    -0.503 C  
HETATM    8  H3* UNL     1     -13.438  14.392  63.884  1.00  0.00     0.000 HD 
HETATM    9  O3* UNL     1     -12.653  14.700  64.321  1.00  0.00    -0.688 OA 
HETATM   10  C3* UNL     1     -12.381  13.902  65.470  1.00  0.00    -0.480 C  
BRANCH   6  11
HETATM   11  N   UNL     1     -10.340  10.909  65.981  1.00  0.00    -0.249 N  
HETATM   12  C   UNL     1     -10.605  10.509  67.282  1.00  0.00    -0.264 C  
HETATM   13  C   UNL     1      -9.726   8.317  66.764  1.00  0.00    -0.239 C  
HETATM   14  C   UNL     1     -10.321   9.280  67.741  1.00  0.00    -0.292 C  
HETATM   15  O   UNL     1      -9.661  10.312  63.854  1.00  0.00    -0.307 OA 
HETATM   16  N   UNL     1      -9.568   8.768  65.486  1.00  0.00    -0.453 N  
HETATM   17  H   UNL     1      -9.206   8.103  64.803  1.00  0.00     0.000 HD 
HETATM   18  O   UNL     1      -9.397   7.177  67.083  1.00  0.00    -0.131 OA 
HETATM   19  C   UNL     1      -9.847  10.026  65.035  1.00  0.00    -0.304 C  
BRANCH  14  20
HETATM   20  C   UNL     1     -10.610   8.808  69.086  1.00  0.00    -0.200 C  
HETATM   21  C   UNL     1     -10.170   9.348  70.228  1.00  0.00    -0.247 C  
HETATM   22 BR   UNL     1     -10.557   8.652  71.907  1.00  0.00    -0.426 Br 
ENDBRANCH  14  20
ENDBRANCH   6  11
ENDBRANCH   3   4
TORSDOF 3
ENDMDL
MODEL       36
REMARK 921   NORMALIZED FREE ENERGY PREDICTED BY IDOCK:   -5.41 KCAL/MOL
REMARK 922        TOTAL FREE ENERGY PREDICTED BY IDOCK:   -6.96 KCAL/MOL
REMARK 923 INTER-LIGAND FREE ENERGY PREDICTED BY IDOCK:   -6.38 KCAL/MOL
REMARK 924 INTRA-LIGAND FREE ENERGY PREDICTED BY IDOCK:   -0.58 KCAL/MOL
REMARK 927      BINDING AFFINITY PREDICTED BY RF-SCORE:    0.00 PKD
ROOT
HETATM    1  O5* UNL     1     -11.981  15.617  63.826  1.00  0.00    -1.007 OA 
HETATM    2  H5* UNL     1     -12.060  15.684  62.882  1.00  0.00     0.000 HD 
HETATM    3  C5* UNL     1     -12.257  14.291  64.277  1.00  0.00    -0.423 C  
ENDROOT
BRANCH   3   4
HETATM    4  C4* UNL     1     -12.130  14.183  65.795  1.00  0.00    -0.420 C  
HETATM    5  O4* UNL     1     -12.265  12.814  66.219  1.00  0.00    -0.515 OA 
HETATM    6  C1* UNL     1     -11.649  12.758  67.512  1.00  0.00    -0.356 C  
HETATM    7  C2* UNL     1     -10.442  13.688  67.448  1.00  0.00    -0.251 C  
HETATM    8  H3* UNL     1     -10.059  16.290  67.169  1.00  0.00     0.000 HD 
HETATM    9  O3* UNL     1     -10.896  15.993  66.833  1.00  0.00    -0.296 OA 
HETATM   10  C3* UNL     1     -10.783  14.662  66.335  1.00  0.00    -0.309 C  
BRANCH   6  11
HETATM   11  N   UNL     1     -11.316  11.388  67.878  1.00  0.00    -0.287 N  
HETATM   12  C   UNL     1     -10.671  10.538  66.992  1.00  0.00    -0.250 C  
HETATM   13  C   UNL     1     -10.751   8.781  68.650  1.00  0.00    -0.068 C  
HETATM   14  C   UNL     1     -10.380   9.261  67.284  1.00  0.00    -0.332 C  
HETATM   15  O   UNL     1     -12.126  11.731  70.016  1.00  0.00    -0.319 OA 
HETATM   16  N   UNL     1     -11.314   9.702  69.485  1.00  0.00    -0.434 N  
HETATM   17  H   UNL     1     -11.527   9.395  70.435  1.00  0.00     0.000 HD 
HETATM   18  O   UNL     1     -10.561   7.623  69.013  1.00  0.00    -0.216 OA 
HETATM   19  C   UNL     1     -11.619  10.994  69.171  1.00  0.00    -0.319 C  
BRANCH  14  20
HETATM   20  C   UNL     1      -9.677   8.345  66.399  1.00  0.00    -0.312 C  
HETATM   21  C   UNL     1      -8.438   8.502  65.918  1.00  0.00    -0.152 C  
HETATM   22 BR   UNL     1      -7.631   7.297  64.756  1.00  0.00    -0.111 Br 
ENDBRANCH  14  20
ENDBRANCH   6  11
ENDBRANCH   3   4
TORSDOF 3
ENDMDL
MODEL       37
REMARK 921   NORMALIZED FREE ENERGY PREDICTED BY IDOCK:   -5.22 KCAL/MOL
REMARK 922        TOTAL FREE ENERGY PREDICTED BY IDOCK:   -6.75 KCAL/MOL
REMARK 923 INTER-LIGAND FREE ENERGY PREDICTED BY IDOCK:   -6.14 KCAL/MOL
REMARK 924 INTRA-LIGAND FREE ENERGY PREDICTED BY IDOCK:   -0.60 KCAL/MOL
REMARK 927      BINDING AFFINITY PREDICTED BY RF-SCORE:    0.00 PKD
ROOT
HETATM    1  O5* UNL     1     -11.293   6.191  71.121  1.00  0.00    -0.299 OA 
HETATM    2  H5* UNL     1     -10.608   5.570  70.900  1.00  0.00     0.000 HD 
HETATM    3  C5* UNL     1     -10.752   7.366  71.727  1.00  0.00    -0.214 C  
ENDROOT
BRANCH   3   4
HETATM    4  C4* UNL     1     -11.852   8.363  72.083  1.00  0.00    -0.375 C  
HETATM    5  O4* UNL     1     -11.452   9.703  71.743  1.00  0.00    -0.365 OA 
HETATM    6  C1* UNL     1     -12.673  10.445  71.638  1.00  0.00    -0.455 C  
HETATM    7  C2* UNL     1     -13.693   9.500  71.012  1.00  0.00    -0.083 C  
HETATM    8  H3* UNL     1     -14.897   7.257  71.731  1.00  0.00     0.000 HD 
HETATM    9  O3* UNL     1     -14.078   7.411  72.188  1.00  0.00    -0.200 OA 
HETATM   10  C3* UNL     1     -13.168   8.116  71.348  1.00  0.00    -0.217 C  
BRANCH   6  11
HETATM   11  N   UNL     1     -12.477  11.678  70.886  1.00  0.00    -0.377 N  
HETATM   12  C   UNL     1     -11.905  11.672  69.623  1.00  0.00    -0.352 C  
HETATM   13  C   UNL     1     -12.111  14.079  69.540  1.00  0.00    -0.347 C  
HETATM   14  C   UNL     1     -11.679  12.791  68.917  1.00  0.00    -0.370 C  
HETATM   15  O   UNL     1     -13.519  12.895  72.552  1.00  0.00    -0.540 OA 
HETATM   16  N   UNL     1     -12.733  13.989  70.752  1.00  0.00    -0.334 N  
HETATM   17  H   UNL     1     -13.072  14.859  71.162  1.00  0.00     0.000 HD 
HETATM   18  O   UNL     1     -11.924  15.166  68.999  1.00  0.00    -0.309 OA 
HETATM   19  C   UNL     1     -12.943  12.846  71.466  1.00  0.00    -0.294 C  
BRANCH  14  20
HETATM   20  C   UNL     1     -11.112  12.829  67.578  1.00  0.00    -0.300 C  
HETATM   21  C   UNL     1     -11.554  12.154  66.510  1.00  0.00    -0.359 C  
HETATM   22 BR   UNL     1     -10.742  12.231  64.841  1.00  0.00    -0.352 Br 
ENDBRANCH  14  20
ENDBRANCH   6  11
ENDBRANCH   3   4
TORSDOF 3
ENDMDL
MODEL       38
REMARK 921   NORMALIZED FREE ENERGY PREDICTED BY IDOCK:   -5.18 KCAL/MOL
REMARK 922        TOTAL FREE ENERGY PREDICTED BY IDOCK:   -6.70 KCAL/MOL
REMARK 923 INTER-LIGAND FREE ENERGY PREDICTED BY IDOCK:   -6.10 KCAL/MOL
REMARK 924 INTRA-LIGAND FREE ENERGY PREDICTED BY IDOCK:   -0.61 KCAL/MOL
REMARK 927      BINDING AFFINITY PREDICTED BY RF-SCORE:    0.00 PKD
ROOT
HETATM    1  O5* UNL     1      -7.632  18.654  68.557  1.00  0.00    -0.292 OA 
HETATM    2  H5* UNL     1      -6.760  18.658  68.935  1.00  0.00     0.000 HD 
HETATM    3  C5* UNL     1      -7.653  17.961  67.309  1.00  0.00    -0.202 C  
ENDROOT
BRANCH   3   4
HETATM    4  C4* UNL     1      -9.055  17.955  66.701  1.00  0.00    -0.267 C  
HETATM    5  O4* UNL     1      -9.222  16.826  65.824  1.00  0.00    -0.520 OA 
HETATM    6  C1* UNL     1     -10.639  16.634  65.725  1.00  0.00    -0.268 C  
HETATM    7  C2* UNL     1     -11.208  16.942  67.105  1.00  0.00     0.294 C  
HETATM    8  H3* UNL     1     -11.415  19.085  68.642  1.00  0.00     0.000 HD 
HETATM    9  O3* UNL     1     -10.719  19.147  67.998  1.00  0.00    -0.353 OA 
HETATM   10  C3* UNL     1     -10.174  17.856  67.736  1.00  0.00    -0.368 C  
BRANCH   6  11
HETATM   11  N   UNL     1     -10.958  15.296  65.243  1.00  0.00    -0.372 N  
HETATM   12  C   UNL     1     -10.297  14.177  65.727  1.00  0.00    -0.325 C  
HETATM   13  C   UNL     1     -11.606  12.788  64.243  1.00  0.00    -0.376 C  
HETATM   14  C   UNL     1     -10.541  12.934  65.283  1.00  0.00    -0.316 C  
HETATM   15  O   UNL     1     -12.651  16.143  63.919  1.00  0.00    -0.703 OA 
HETATM   16  N   UNL     1     -12.257  13.930  63.877  1.00  0.00    -0.798 N  
HETATM   17  H   UNL     1     -13.017  13.832  63.203  1.00  0.00     0.000 HD 
HETATM   18  O   UNL     1     -11.889  11.703  63.742  1.00  0.00    -0.396 OA 
HETATM   19  C   UNL     1     -11.989  15.190  64.326  1.00  0.00    -0.262 C  
BRANCH  14  20
HETATM   20  C   UNL     1      -9.897  11.731  65.784  1.00  0.00    -0.267 C  
HETATM   21  C   UNL     1      -9.127  11.638  66.875  1.00  0.00    -0.188 C  
HETATM   22 BR   UNL     1      -8.308  10.063  67.420  1.00  0.00    -0.118 Br 
ENDBRANCH  14  20
ENDBRANCH   6  11
ENDBRANCH   3   4
TORSDOF 3
ENDMDL
MODEL       39
REMARK 921   NORMALIZED FREE ENERGY PREDICTED BY IDOCK:   -5.17 KCAL/MOL
REMARK 922        TOTAL FREE ENERGY PREDICTED BY IDOCK:   -6.68 KCAL/MOL
REMARK 923 INTER-LIGAND FREE ENERGY PREDICTED BY IDOCK:   -6.29 KCAL/MOL
REMARK 924 INTRA-LIGAND FREE ENERGY PREDICTED BY IDOCK:   -0.39 KCAL/MOL
REMARK 927      BINDING AFFINITY PREDICTED BY RF-SCORE:    0.00 PKD
ROOT
HETATM    1  O5* UNL     1      -8.382  20.754  66.484  1.00  0.00    -0.521 OA 
HETATM    2  H5* UNL     1      -8.506  21.460  65.861  1.00  0.00     0.000 HD 
HETATM    3  C5* UNL     1      -9.630  20.300  67.008  1.00  0.00    -0.435 C  
ENDROOT
BRANCH   3   4
HETATM    4  C4* UNL     1      -9.431  19.166  68.012  1.00  0.00    -0.330 C  
HETATM    5  O4* UNL     1     -10.419  18.137  67.816  1.00  0.00    -0.380 OA 
HETATM    6  C1* UNL     1      -9.860  16.961  68.417  1.00  0.00    -0.266 C  
HETATM    7  C2* UNL     1      -8.365  17.003  68.124  1.00  0.00    -0.222 C  
HETATM    8  H3* UNL     1      -6.334  18.551  68.817  1.00  0.00     0.000 HD 
HETATM    9  O3* UNL     1      -7.179  18.980  68.887  1.00  0.00    -0.311 OA 
HETATM   10  C3* UNL     1      -8.073  18.475  67.898  1.00  0.00    -0.256 C  
BRANCH   6  11
HETATM   11  N   UNL     1     -10.521  15.757  67.930  1.00  0.00    -0.263 N  
HETATM   12  C   UNL     1      -9.923  14.936  66.985  1.00  0.00    -0.240 C  
HETATM   13  C   UNL     1     -11.868  13.500  67.034  1.00  0.00    -0.402 C  
HETATM   14  C   UNL     1     -10.517  13.838  66.490  1.00  0.00    -0.282 C  
HETATM   15  O   UNL     1     -12.282  16.097  69.387  1.00  0.00    -0.150 OA 
HETATM   16  N   UNL     1     -12.350  14.318  68.014  1.00  0.00    -0.564 N  
HETATM   17  H   UNL     1     -13.250  14.067  68.423  1.00  0.00     0.000 HD 
HETATM   18  O   UNL     1     -12.516  12.538  66.630  1.00  0.00    -0.352 OA 
HETATM   19  C   UNL     1     -11.743  15.440  68.498  1.00  0.00    -0.338 C  
BRANCH  14  20
HETATM   20  C   UNL     1      -9.915  12.932  65.525  1.00  0.00    -0.226 C  
HETATM   21  C   UNL     1     -10.367  12.674  64.292  1.00  0.00    -0.374 C  
HETATM   22 BR   UNL     1      -9.556  11.466  63.136  1.00  0.00    -0.380 Br 
ENDBRANCH  14  20
ENDBRANCH   6  11
ENDBRANCH   3   4
TORSDOF 3
ENDMDL
MODEL       40
REMARK 921   NORMALIZED FREE ENERGY PREDICTED BY IDOCK:   -5.11 KCAL/MOL
REMARK 922        TOTAL FREE ENERGY PREDICTED BY IDOCK:   -6.62 KCAL/MOL
REMARK 923 INTER-LIGAND FREE ENERGY PREDICTED BY IDOCK:   -6.03 KCAL/MOL
REMARK 924 INTRA-LIGAND FREE ENERGY PREDICTED BY IDOCK:   -0.59 KCAL/MOL
REMARK 927      BINDING AFFINITY PREDICTED BY RF-SCORE:    0.00 PKD
ROOT
HETATM    1  O5* UNL     1     -11.302  13.942  63.766  1.00  0.00    -0.560 OA 
HETATM    2  H5* UNL     1     -11.733  13.780  62.935  1.00  0.00     0.000 HD 
HETATM    3  C5* UNL     1     -12.247  14.268  64.786  1.00  0.00    -0.443 C  
ENDROOT
BRANCH   3   4
HETATM    4  C4* UNL     1     -11.554  14.530  66.121  1.00  0.00    -0.365 C  
HETATM    5  O4* UNL     1     -12.155  13.743  67.167  1.00  0.00    -0.398 OA 
HETATM    6  C1* UNL     1     -11.163  13.671  68.199  1.00  0.00    -0.275 C  
HETATM    7  C2* UNL     1      -9.818  13.561  67.490  1.00  0.00    -0.227 C  
HETATM    8  H3* UNL     1      -8.356  15.123  65.935  1.00  0.00     0.000 HD 
HETATM    9  O3* UNL     1      -9.279  15.345  65.933  1.00  0.00    -0.327 OA 
HETATM   10  C3* UNL     1     -10.069  14.173  66.124  1.00  0.00    -0.313 C  
BRANCH   6  11
HETATM   11  N   UNL     1     -11.436  12.570  69.115  1.00  0.00    -0.288 N  
HETATM   12  C   UNL     1     -10.901  11.308  68.908  1.00  0.00    -0.208 C  
HETATM   13  C   UNL     1     -12.038  10.524  70.893  1.00  0.00    -0.383 C  
HETATM   14  C   UNL     1     -11.158  10.264  69.712  1.00  0.00    -0.340 C  
HETATM   15  O   UNL     1     -12.644  13.978  70.494  1.00  0.00    -0.335 OA 
HETATM   16  N   UNL     1     -12.461  11.809  71.063  1.00  0.00    -0.359 N  
HETATM   17  H   UNL     1     -13.023  12.005  71.892  1.00  0.00     0.000 HD 
HETATM   18  O   UNL     1     -12.366   9.635  71.675  1.00  0.00    -0.356 OA 
HETATM   19  C   UNL     1     -12.204  12.860  70.230  1.00  0.00    -0.289 C  
BRANCH  14  20
HETATM   20  C   UNL     1     -10.594   8.933  69.552  1.00  0.00    -0.233 C  
HETATM   21  C   UNL     1     -10.280   8.338  68.395  1.00  0.00    -0.209 C  
HETATM   22 BR   UNL     1      -9.599   6.613  68.282  1.00  0.00    -0.125 Br 
ENDBRANCH  14  20
ENDBRANCH   6  11
ENDBRANCH   3   4
TORSDOF 3
ENDMDL
MODEL       41
REMARK 921   NORMALIZED FREE ENERGY PREDICTED BY IDOCK:   -5.09 KCAL/MOL
REMARK 922        TOTAL FREE ENERGY PREDICTED BY IDOCK:   -6.59 KCAL/MOL
REMARK 923 INTER-LIGAND FREE ENERGY PREDICTED BY IDOCK:   -6.13 KCAL/MOL
REMARK 924 INTRA-LIGAND FREE ENERGY PREDICTED BY IDOCK:   -0.46 KCAL/MOL
REMARK 927      BINDING AFFINITY PREDICTED BY RF-SCORE:    0.00 PKD
ROOT
HETATM    1  O5* UNL     1     -11.436   6.572  67.192  1.00  0.00    -0.768 OA 
HETATM    2  H5* UNL     1     -11.889   5.858  67.626  1.00  0.00     0.000 HD 
HETATM    3  C5* UNL     1     -10.083   6.673  67.636  1.00  0.00    -0.155 C  
ENDROOT
BRANCH   3   4
HETATM    4  C4* UNL     1      -9.355   7.821  66.939  1.00  0.00    -0.169 C  
HETATM    5  O4* UNL     1     -10.297   8.737  66.352  1.00  0.00    -0.271 OA 
HETATM    6  C1* UNL     1      -9.576   9.965  66.190  1.00  0.00    -0.218 C  
HETATM    7  C2* UNL     1      -8.664  10.086  67.406  1.00  0.00    -0.125 C  
HETATM    8  H3* UNL     1      -6.578   8.768  68.356  1.00  0.00     0.000 HD 
HETATM    9  O3* UNL     1      -7.120   8.249  67.774  1.00  0.00    -0.079 OA 
HETATM   10  C3* UNL     1      -8.482   8.655  67.876  1.00  0.00    -0.129 C  
BRANCH   6  11
HETATM   11  N   UNL     1     -10.486  11.091  66.024  1.00  0.00    -0.256 N  
HETATM   12  C   UNL     1     -10.880  11.868  67.102  1.00  0.00    -0.255 C  
HETATM   13  C   UNL     1     -12.249  13.197  65.618  1.00  0.00    -0.466 C  
HETATM   14  C   UNL     1     -11.742  12.891  66.991  1.00  0.00    -0.447 C  
HETATM   15  O   UNL     1     -10.513  10.769  63.735  1.00  0.00    -0.319 OA 
HETATM   16  N   UNL     1     -11.755  12.431  64.603  1.00  0.00    -0.350 N  
HETATM   17  H   UNL     1     -12.060  12.664  63.657  1.00  0.00     0.000 HD 
HETATM   18  O   UNL     1     -13.067  14.089  65.404  1.00  0.00    -0.763 OA 
HETATM   19  C   UNL     1     -10.889  11.384  64.731  1.00  0.00    -0.273 C  
BRANCH  14  20
HETATM   20  C   UNL     1     -12.157  13.752  68.087  1.00  0.00    -0.316 C  
HETATM   21  C   UNL     1     -11.790  13.637  69.368  1.00  0.00    -0.339 C  
HETATM   22 BR   UNL     1     -12.403  14.761  70.715  1.00  0.00    -0.429 Br 
ENDBRANCH  14  20
ENDBRANCH   6  11
ENDBRANCH   3   4
TORSDOF 3
ENDMDL
MODEL       42
REMARK 921   NORMALIZED FREE ENERGY PREDICTED BY IDOCK:   -5.07 KCAL/MOL
REMARK 922        TOTAL FREE ENERGY PREDICTED BY IDOCK:   -6.57 KCAL/MOL
REMARK 923 INTER-LIGAND FREE ENERGY PREDICTED BY IDOCK:   -6.25 KCAL/MOL
REMARK 924 INTRA-LIGAND FREE ENERGY PREDICTED BY IDOCK:   -0.32 KCAL/MOL
REMARK 927      BINDING AFFINITY PREDICTED BY RF-SCORE:    0.00 PKD
ROOT
HETATM    1  O5* UNL     1      -8.301   9.737  70.874  1.00  0.00    -0.377 OA 
HETATM    2  H5* UNL     1      -7.447   9.468  71.190  1.00  0.00     0.000 HD 
HETATM    3  C5* UNL     1      -8.923   8.700  70.114  1.00  0.00    -0.154 C  
ENDROOT
BRANCH   3   4
HETATM    4  C4* UNL     1     -10.297   9.132  69.605  1.00  0.00    -0.219 C  
HETATM    5  O4* UNL     1     -10.830  10.191  70.421  1.00  0.00    -0.292 OA 
HETATM    6  C1* UNL     1     -11.814  10.837  69.604  1.00  0.00    -0.320 C  
HETATM    7  C2* UNL     1     -11.258  10.830  68.184  1.00  0.00    -0.365 C  
HETATM    8  H3* UNL     1     -10.691   8.987  66.374  1.00  0.00     0.000 HD 
HETATM    9  O3* UNL     1     -10.699   8.654  67.263  1.00  0.00    -0.271 OA 
HETATM   10  C3* UNL     1     -10.283   9.668  68.174  1.00  0.00    -0.190 C  
BRANCH   6  11
HETATM   11  N   UNL     1     -12.124  12.169  70.107  1.00  0.00    -0.319 N  
HETATM   12  C   UNL     1     -11.810  13.308  69.380  1.00  0.00    -0.329 C  
HETATM   13  C   UNL     1     -12.722  14.668  71.158  1.00  0.00    -0.339 C  
HETATM   14  C   UNL     1     -12.050  14.550  69.827  1.00  0.00    -0.380 C  
HETATM   15  O   UNL     1     -13.161  11.260  71.961  1.00  0.00    -0.506 OA 
HETATM   16  N   UNL     1     -13.063  13.499  71.772  1.00  0.00    -0.380 N  
HETATM   17  H   UNL     1     -13.563  13.571  72.658  1.00  0.00     0.000 HD 
HETATM   18  O   UNL     1     -12.960  15.755  71.679  1.00  0.00    -0.464 OA 
HETATM   19  C   UNL     1     -12.799  12.241  71.313  1.00  0.00    -0.239 C  
BRANCH  14  20
HETATM   20  C   UNL     1     -11.768  15.770  69.087  1.00  0.00    -0.398 C  
HETATM   21  C   UNL     1     -10.642  16.490  69.144  1.00  0.00    -0.319 C  
HETATM   22 BR   UNL     1     -10.381  18.063  68.191  1.00  0.00    -0.387 Br 
ENDBRANCH  14  20
ENDBRANCH   6  11
ENDBRANCH   3   4
TORSDOF 3
ENDMDL
MODEL       43
REMARK 921   NORMALIZED FREE ENERGY PREDICTED BY IDOCK:   -5.07 KCAL/MOL
REMARK 922        TOTAL FREE ENERGY PREDICTED BY IDOCK:   -6.57 KCAL/MOL
REMARK 923 INTER-LIGAND FREE ENERGY PREDICTED BY IDOCK:   -6.04 KCAL/MOL
REMARK 924 INTRA-LIGAND FREE ENERGY PREDICTED BY IDOCK:   -0.53 KCAL/MOL
REMARK 927      BINDING AFFINITY PREDICTED BY RF-SCORE:    0.00 PKD
ROOT
HETATM    1  O5* UNL     1      -8.884  20.260  65.835  1.00  0.00    -0.577 OA 
HETATM    2  H5* UNL     1      -9.006  20.735  65.021  1.00  0.00     0.000 HD 
HETATM    3  C5* UNL     1     -10.136  19.903  66.420  1.00  0.00    -0.499 C  
ENDROOT
BRANCH   3   4
HETATM    4  C4* UNL     1      -9.940  19.139  67.728  1.00  0.00    -0.357 C  
HETATM    5  O4* UNL     1     -10.796  17.983  67.774  1.00  0.00    -0.383 OA 
HETATM    6  C1* UNL     1     -10.196  17.110  68.739  1.00  0.00    -0.332 C  
HETATM    7  C2* UNL     1      -8.688  17.251  68.562  1.00  0.00    -0.273 C  
HETATM    8  H3* UNL     1      -6.906  19.173  68.914  1.00  0.00     0.000 HD 
HETATM    9  O3* UNL     1      -7.790  19.496  68.789  1.00  0.00    -0.355 OA 
HETATM   10  C3* UNL     1      -8.518  18.621  67.930  1.00  0.00    -0.276 C  
BRANCH   6  11
HETATM   11  N   UNL     1     -10.680  15.743  68.585  1.00  0.00    -0.250 N  
HETATM   12  C   UNL     1      -9.950  14.792  67.889  1.00  0.00    -0.213 C  
HETATM   13  C   UNL     1     -11.695  13.174  68.313  1.00  0.00    -0.349 C  
HETATM   14  C   UNL     1     -10.381  13.535  67.699  1.00  0.00    -0.239 C  
HETATM   15  O   UNL     1     -12.519  16.214  69.904  1.00  0.00    -0.134 OA 
HETATM   16  N   UNL     1     -12.312  14.146  69.044  1.00  0.00    -0.537 N  
HETATM   17  H   UNL     1     -13.186  13.894  69.506  1.00  0.00     0.000 HD 
HETATM   18  O   UNL     1     -12.200  12.062  68.176  1.00  0.00    -0.428 OA 
HETATM   19  C   UNL     1     -11.870  15.426  69.217  1.00  0.00    -0.343 C  
BRANCH  14  20
HETATM   20  C   UNL     1      -9.636  12.497  67.004  1.00  0.00    -0.216 C  
HETATM   21  C   UNL     1      -8.939  11.506  67.573  1.00  0.00    -0.159 C  
HETATM   22 BR   UNL     1      -7.980  10.242  66.606  1.00  0.00    -0.119 Br 
ENDBRANCH  14  20
ENDBRANCH   6  11
ENDBRANCH   3   4
TORSDOF 3
ENDMDL
MODEL       44
REMARK 921   NORMALIZED FREE ENERGY PREDICTED BY IDOCK:   -5.05 KCAL/MOL
REMARK 922        TOTAL FREE ENERGY PREDICTED BY IDOCK:   -6.55 KCAL/MOL
REMARK 923 INTER-LIGAND FREE ENERGY PREDICTED BY IDOCK:   -6.09 KCAL/MOL
REMARK 924 INTRA-LIGAND FREE ENERGY PREDICTED BY IDOCK:   -0.46 KCAL/MOL
REMARK 927      BINDING AFFINITY PREDICTED BY RF-SCORE:    0.00 PKD
ROOT
HETATM    1  O5* UNL     1     -12.986   8.383  72.733  1.00  0.00    -0.626 OA 
HETATM    2  H5* UNL     1     -13.396   8.283  73.585  1.00  0.00     0.000 HD 
HETATM    3  C5* UNL     1     -11.633   7.924  72.753  1.00  0.00    -0.329 C  
ENDROOT
BRANCH   3   4
HETATM    4  C4* UNL     1     -10.973   8.085  71.385  1.00  0.00    -0.234 C  
HETATM    5  O4* UNL     1     -11.672   9.065  70.596  1.00  0.00    -0.272 OA 
HETATM    6  C1* UNL     1     -10.730   9.492  69.605  1.00  0.00    -0.238 C  
HETATM    7  C2* UNL     1      -9.371   9.525  70.296  1.00  0.00    -0.305 C  
HETATM    8  H3* UNL     1      -7.733   7.739  71.356  1.00  0.00     0.000 HD 
HETATM    9  O3* UNL     1      -8.636   7.446  71.313  1.00  0.00    -0.117 OA 
HETATM   10  C3* UNL     1      -9.521   8.555  71.453  1.00  0.00    -0.213 C  
BRANCH   6  11
HETATM   11  N   UNL     1     -11.122  10.768  69.020  1.00  0.00    -0.233 N  
HETATM   12  C   UNL     1     -11.473  11.850  69.813  1.00  0.00    -0.229 C  
HETATM   13  C   UNL     1     -11.889  13.151  67.818  1.00  0.00    -0.348 C  
HETATM   14  C   UNL     1     -11.871  13.028  69.308  1.00  0.00    -0.370 C  
HETATM   15  O   UNL     1     -10.699   9.959  66.897  1.00  0.00    -0.203 OA 
HETATM   16  N   UNL     1     -11.458  12.064  67.114  1.00  0.00    -0.334 N  
HETATM   17  H   UNL     1     -11.423  12.156  66.099  1.00  0.00     0.000 HD 
HETATM   18  O   UNL     1     -12.267  14.171  67.248  1.00  0.00    -0.402 OA 
HETATM   19  C   UNL     1     -11.070  10.866  67.640  1.00  0.00    -0.313 C  
BRANCH  14  20
HETATM   20  C   UNL     1     -12.217  14.198  70.100  1.00  0.00    -0.415 C  
HETATM   21  C   UNL     1     -12.321  14.251  71.433  1.00  0.00    -0.353 C  
HETATM   22 BR   UNL     1     -12.809  15.783  72.363  1.00  0.00    -0.553 Br 
ENDBRANCH  14  20
ENDBRANCH   6  11
ENDBRANCH   3   4
TORSDOF 3
ENDMDL
MODEL       45
REMARK 921   NORMALIZED FREE ENERGY PREDICTED BY IDOCK:   -5.02 KCAL/MOL
REMARK 922        TOTAL FREE ENERGY PREDICTED BY IDOCK:   -6.51 KCAL/MOL
REMARK 923 INTER-LIGAND FREE ENERGY PREDICTED BY IDOCK:   -6.09 KCAL/MOL
REMARK 924 INTRA-LIGAND FREE ENERGY PREDICTED BY IDOCK:   -0.41 KCAL/MOL
REMARK 927      BINDING AFFINITY PREDICTED BY RF-SCORE:    0.00 PKD
ROOT
HETATM    1  O5* UNL     1     -12.255  11.873  65.396  1.00  0.00    -0.377 OA 
HETATM    2  H5* UNL     1     -12.201  10.956  65.638  1.00  0.00     0.000 HD 
HETATM    3  C5* UNL     1     -12.004  12.722  66.516  1.00  0.00    -0.358 C  
ENDROOT
BRANCH   3   4
HETATM    4  C4* UNL     1     -12.092  14.196  66.126  1.00  0.00    -0.435 C  
HETATM    5  O4* UNL     1     -11.320  15.007  67.031  1.00  0.00    -0.346 OA 
HETATM    6  C1* UNL     1     -11.060  16.223  66.318  1.00  0.00     0.137 C  
HETATM    7  C2* UNL     1     -10.829  15.822  64.865  1.00  0.00    -0.433 C  
HETATM    8  H3* UNL     1     -12.293  14.777  62.926  1.00  0.00     0.000 HD 
HETATM    9  O3* UNL     1     -12.628  14.590  63.795  1.00  0.00    -0.825 OA 
HETATM   10  C3* UNL     1     -11.554  14.496  64.728  1.00  0.00    -0.413 C  
BRANCH   6  11
HETATM   11  N   UNL     1      -9.945  16.952  66.910  1.00  0.00    -0.270 N  
HETATM   12  C   UNL     1      -9.044  16.330  67.760  1.00  0.00    -0.195 C  
HETATM   13  C   UNL     1      -7.871  18.428  68.018  1.00  0.00    -0.274 C  
HETATM   14  C   UNL     1      -8.027  16.978  68.349  1.00  0.00    -0.239 C  
HETATM   15  O   UNL     1     -10.526  18.854  65.732  1.00  0.00    -0.554 OA 
HETATM   16  N   UNL     1      -8.755  18.944  67.116  1.00  0.00    -0.279 N  
HETATM   17  H   UNL     1      -8.627  19.920  66.849  1.00  0.00     0.000 HD 
HETATM   18  O   UNL     1      -6.996  19.127  68.524  1.00  0.00    -0.260 OA 
HETATM   19  C   UNL     1      -9.795  18.277  66.536  1.00  0.00    -0.361 C  
BRANCH  14  20
HETATM   20  C   UNL     1      -7.040  16.361  69.220  1.00  0.00    -0.222 C  
HETATM   21  C   UNL     1      -7.032  15.087  69.632  1.00  0.00    -0.191 C  
HETATM   22 BR   UNL     1      -5.751  14.390  70.783  1.00  0.00    -0.195 Br 
ENDBRANCH  14  20
ENDBRANCH   6  11
ENDBRANCH   3   4
TORSDOF 3
ENDMDL
MODEL       46
REMARK 921   NORMALIZED FREE ENERGY PREDICTED BY IDOCK:   -5.01 KCAL/MOL
REMARK 922        TOTAL FREE ENERGY PREDICTED BY IDOCK:   -6.50 KCAL/MOL
REMARK 923 INTER-LIGAND FREE ENERGY PREDICTED BY IDOCK:   -6.03 KCAL/MOL
REMARK 924 INTRA-LIGAND FREE ENERGY PREDICTED BY IDOCK:   -0.47 KCAL/MOL
REMARK 927      BINDING AFFINITY PREDICTED BY RF-SCORE:    0.00 PKD
ROOT
HETATM    1  O5* UNL     1     -10.020   9.267  69.992  1.00  0.00    -0.185 OA 
HETATM    2  H5* UNL     1     -10.493   9.067  70.791  1.00  0.00     0.000 HD 
HETATM    3  C5* UNL     1     -10.406  10.537  69.465  1.00  0.00    -0.221 C  
ENDROOT
BRANCH   3   4
HETATM    4  C4* UNL     1      -9.645  10.859  68.180  1.00  0.00    -0.164 C  
HETATM    5  O4* UNL     1     -10.435  11.701  67.320  1.00  0.00    -0.206 OA 
HETATM    6  C1* UNL     1      -9.493  12.331  66.442  1.00  0.00    -0.237 C  
HETATM    7  C2* UNL     1      -8.253  12.615  67.282  1.00  0.00    -0.184 C  
HETATM    8  H3* UNL     1      -6.419  11.163  68.516  1.00  0.00     0.000 HD 
HETATM    9  O3* UNL     1      -7.235  10.698  68.371  1.00  0.00    -0.079 OA 
HETATM   10  C3* UNL     1      -8.333  11.606  68.413  1.00  0.00    -0.157 C  
BRANCH   6  11
HETATM   11  N   UNL     1     -10.066  13.517  65.820  1.00  0.00    -0.293 N  
HETATM   12  C   UNL     1      -9.976  14.764  66.420  1.00  0.00    -0.277 C  
HETATM   13  C   UNL     1     -11.216  15.718  64.577  1.00  0.00    -0.322 C  
HETATM   14  C   UNL     1     -10.521  15.871  65.892  1.00  0.00    -0.373 C  
HETATM   15  O   UNL     1     -10.692  12.281  63.970  1.00  0.00    -0.328 OA 
HETATM   16  N   UNL     1     -11.194  14.473  64.020  1.00  0.00    -0.441 N  
HETATM   17  H   UNL     1     -11.625  14.370  63.101  1.00  0.00     0.000 HD 
HETATM   18  O   UNL     1     -11.778  16.657  64.019  1.00  0.00    -1.143 OA 
HETATM   19  C   UNL     1     -10.649  13.351  64.575  1.00  0.00    -0.425 C  
BRANCH  14  20
HETATM   20  C   UNL     1     -10.424  17.202  66.470  1.00  0.00    -0.255 C  
HETATM   21  C   UNL     1      -9.340  17.988  66.474  1.00  0.00    -0.285 C  
HETATM   22 BR   UNL     1      -9.293  19.664  67.274  1.00  0.00    -0.458 Br 
ENDBRANCH  14  20
ENDBRANCH   6  11
ENDBRANCH   3   4
TORSDOF 3
ENDMDL
MODEL       47
REMARK 921   NORMALIZED FREE ENERGY PREDICTED BY IDOCK:   -4.96 KCAL/MOL
REMARK 922        TOTAL FREE ENERGY PREDICTED BY IDOCK:   -6.44 KCAL/MOL
REMARK 923 INTER-LIGAND FREE ENERGY PREDICTED BY IDOCK:   -5.95 KCAL/MOL
REMARK 924 INTRA-LIGAND FREE ENERGY PREDICTED BY IDOCK:   -0.49 KCAL/MOL
REMARK 927      BINDING AFFINITY PREDICTED BY RF-SCORE:    0.00 PKD
ROOT
HETATM    1  O5* UNL     1     -12.671  12.410  71.217  1.00  0.00    -0.360 OA 
HETATM    2  H5* UNL     1     -13.024  12.575  72.084  1.00  0.00     0.000 HD 
HETATM    3  C5* UNL     1     -12.456  11.015  71.001  1.00  0.00    -0.409 C  
ENDROOT
BRANCH   3   4
HETATM    4  C4* UNL     1     -11.888  10.751  69.608  1.00  0.00    -0.320 C  
HETATM    5  O4* UNL     1     -12.088  11.891  68.753  1.00  0.00    -0.303 OA 
HETATM    6  C1* UNL     1     -11.121  11.750  67.705  1.00  0.00    -0.243 C  
HETATM    7  C2* UNL     1      -9.868  11.177  68.357  1.00  0.00    -0.188 C  
HETATM    8  H3* UNL     1      -9.206   8.901  69.531  1.00  0.00     0.000 HD 
HETATM    9  O3* UNL     1     -10.140   9.072  69.537  1.00  0.00    -0.186 OA 
HETATM   10  C3* UNL     1     -10.385  10.475  69.599  1.00  0.00    -0.193 C  
BRANCH   6  11
HETATM   11  N   UNL     1     -10.900  13.017  67.019  1.00  0.00    -0.258 N  
HETATM   12  C   UNL     1      -9.944  13.920  67.459  1.00  0.00    -0.240 C  
HETATM   13  C   UNL     1     -10.570  15.421  65.670  1.00  0.00    -0.364 C  
HETATM   14  C   UNL     1      -9.737  15.109  66.872  1.00  0.00    -0.248 C  
HETATM   15  O   UNL     1     -12.454  12.449  65.406  1.00  0.00    -0.637 OA 
HETATM   16  N   UNL     1     -11.434  14.447  65.260  1.00  0.00    -0.338 N  
HETATM   17  H   UNL     1     -11.972  14.633  64.414  1.00  0.00     0.000 HD 
HETATM   18  O   UNL     1     -10.488  16.492  65.074  1.00  0.00    -0.652 OA 
HETATM   19  C   UNL     1     -11.646  13.247  65.875  1.00  0.00    -0.347 C  
BRANCH  14  20
HETATM   20  C   UNL     1      -8.726  16.073  67.278  1.00  0.00    -0.204 C  
HETATM   21  C   UNL     1      -8.576  16.597  68.500  1.00  0.00    -0.234 C  
HETATM   22 BR   UNL     1      -7.278  17.857  68.922  1.00  0.00    -0.228 Br 
ENDBRANCH  14  20
ENDBRANCH   6  11
ENDBRANCH   3   4
TORSDOF 3
ENDMDL
MODEL       48
REMARK 921   NORMALIZED FREE ENERGY PREDICTED BY IDOCK:   -4.84 KCAL/MOL
REMARK 922        TOTAL FREE ENERGY PREDICTED BY IDOCK:   -6.30 KCAL/MOL
REMARK 923 INTER-LIGAND FREE ENERGY PREDICTED BY IDOCK:   -6.65 KCAL/MOL
REMARK 924 INTRA-LIGAND FREE ENERGY PREDICTED BY IDOCK:    0.34 KCAL/MOL
REMARK 927      BINDING AFFINITY PREDICTED BY RF-SCORE:    0.00 PKD
ROOT
HETATM    1  O5* UNL     1     -12.617  11.388  63.203  1.00  0.00    -0.835 OA 
HETATM    2  H5* UNL     1     -12.545  10.998  62.340  1.00  0.00     0.000 HD 
HETATM    3  C5* UNL     1     -12.009  12.680  63.241  1.00  0.00    -0.441 C  
ENDROOT
BRANCH   3   4
HETATM    4  C4* UNL     1     -12.124  13.307  64.629  1.00  0.00    -0.408 C  
HETATM    5  O4* UNL     1     -12.103  12.290  65.648  1.00  0.00    -0.557 OA 
HETATM    6  C1* UNL     1     -11.713  12.969  66.848  1.00  0.00    -0.383 C  
HETATM    7  C2* UNL     1     -10.681  14.011  66.431  1.00  0.00    -0.278 C  
HETATM    8  H3* UNL     1     -10.687  16.212  64.964  1.00  0.00     0.000 HD 
HETATM    9  O3* UNL     1     -11.395  15.615  64.753  1.00  0.00    -0.409 OA 
HETATM   10  C3* UNL     1     -10.984  14.267  64.966  1.00  0.00    -0.387 C  
BRANCH   6  11
HETATM   11  N   UNL     1     -11.227  12.030  67.850  1.00  0.00    -0.245 N  
HETATM   12  C   UNL     1     -12.008  11.661  68.935  1.00  0.00    -0.292 C  
HETATM   13  C   UNL     1     -10.206  10.259  69.729  1.00  0.00    -0.220 C  
HETATM   14  C   UNL     1     -11.580  10.825  69.894  1.00  0.00    -0.410 C  
HETATM   15  O   UNL     1      -9.273  11.720  66.655  1.00  0.00    -0.187 OA 
HETATM   16  N   UNL     1      -9.534  10.615  68.597  1.00  0.00    -0.169 N  
HETATM   17  H   UNL     1      -8.614  10.197  68.454  1.00  0.00     0.000 HD 
HETATM   18  O   UNL     1      -9.700   9.510  70.562  1.00  0.00    -0.250 OA 
HETATM   19  C   UNL     1      -9.975  11.479  67.636  1.00  0.00    -0.184 C  
BRANCH  14  20
HETATM   20  C   UNL     1     -12.375  10.385  71.030  1.00  0.00    -0.490 C  
HETATM   21  C   UNL     1     -13.143   9.291  71.084  1.00  0.00    -0.190 C  
HETATM   22 BR   UNL     1     -14.160   8.826  72.567  1.00  0.00    -0.310 Br 
ENDBRANCH  14  20
ENDBRANCH   6  11
ENDBRANCH   3   4
TORSDOF 3
ENDMDL
MODEL       49
REMARK 921   NORMALIZED FREE ENERGY PREDICTED BY IDOCK:   -4.82 KCAL/MOL
REMARK 922        TOTAL FREE ENERGY PREDICTED BY IDOCK:   -6.28 KCAL/MOL
REMARK 923 INTER-LIGAND FREE ENERGY PREDICTED BY IDOCK:   -5.91 KCAL/MOL
REMARK 924 INTRA-LIGAND FREE ENERGY PREDICTED BY IDOCK:   -0.37 KCAL/MOL
REMARK 927      BINDING AFFINITY PREDICTED BY RF-SCORE:    0.00 PKD
ROOT
HETATM    1  O5* UNL     1     -11.864  11.605  65.052  1.00  0.00    -0.114 OA 
HETATM    2  H5* UNL     1     -11.686  10.683  65.195  1.00  0.00     0.000 HD 
HETATM    3  C5* UNL     1     -11.669  12.363  66.246  1.00  0.00    -0.395 C  
ENDROOT
BRANCH   3   4
HETATM    4  C4* UNL     1     -11.955  13.846  66.015  1.00  0.00    -0.412 C  
HETATM    5  O4* UNL     1     -11.210  14.656  66.942  1.00  0.00    -0.325 OA 
HETATM    6  C1* UNL     1     -11.148  15.956  66.340  1.00  0.00    -0.015 C  
HETATM    7  C2* UNL     1     -10.993  15.723  64.841  1.00  0.00    -0.443 C  
HETATM    8  H3* UNL     1     -12.483  14.692  62.913  1.00  0.00     0.000 HD 
HETATM    9  O3* UNL     1     -12.722  14.387  63.781  1.00  0.00    -0.785 OA 
HETATM   10  C3* UNL     1     -11.571  14.337  64.621  1.00  0.00    -0.408 C  
BRANCH   6  11
HETATM   11  N   UNL     1     -10.080  16.756  66.924  1.00  0.00    -0.278 N  
HETATM   12  C   UNL     1      -9.020  17.216  66.158  1.00  0.00    -0.182 C  
HETATM   13  C   UNL     1      -8.070  18.247  68.128  1.00  0.00    -0.285 C  
HETATM   14  C   UNL     1      -8.002  17.927  66.669  1.00  0.00    -0.278 C  
HETATM   15  O   UNL     1     -11.159  16.760  68.968  1.00  0.00    -0.277 OA 
HETATM   16  N   UNL     1      -9.183  17.820  68.792  1.00  0.00    -0.255 N  
HETATM   17  H   UNL     1      -9.259  18.075  69.777  1.00  0.00     0.000 HD 
HETATM   18  O   UNL     1      -7.179  18.862  68.707  1.00  0.00    -0.297 OA 
HETATM   19  C   UNL     1     -10.204  17.085  68.263  1.00  0.00    -0.326 C  
BRANCH  14  20
HETATM   20  C   UNL     1      -6.888  18.457  65.898  1.00  0.00    -0.317 C  
HETATM   21  C   UNL     1      -6.755  19.714  65.459  1.00  0.00    -0.285 C  
HETATM   22 BR   UNL     1      -5.313  20.296  64.443  1.00  0.00    -0.233 Br 
ENDBRANCH  14  20
ENDBRANCH   6  11
ENDBRANCH   3   4
TORSDOF 3
ENDMDL
MODEL       50
REMARK 921   NORMALIZED FREE ENERGY PREDICTED BY IDOCK:   -4.82 KCAL/MOL
REMARK 922        TOTAL FREE ENERGY PREDICTED BY IDOCK:   -6.27 KCAL/MOL
REMARK 923 INTER-LIGAND FREE ENERGY PREDICTED BY IDOCK:   -6.59 KCAL/MOL
REMARK 924 INTRA-LIGAND FREE ENERGY PREDICTED BY IDOCK:    0.32 KCAL/MOL
REMARK 927      BINDING AFFINITY PREDICTED BY RF-SCORE:    0.00 PKD
ROOT
HETATM    1  O5* UNL     1     -10.782  16.904  64.943  1.00  0.00    -0.725 OA 
HETATM    2  H5* UNL     1     -10.517  17.723  65.345  1.00  0.00     0.000 HD 
HETATM    3  C5* UNL     1     -10.186  15.786  65.602  1.00  0.00    -0.380 C  
ENDROOT
BRANCH   3   4
HETATM    4  C4* UNL     1     -10.611  14.469  64.956  1.00  0.00    -0.437 C  
HETATM    5  O4* UNL     1     -10.085  13.350  65.692  1.00  0.00    -0.289 OA 
HETATM    6  C1* UNL     1     -10.918  12.240  65.334  1.00  0.00    -0.301 C  
HETATM    7  C2* UNL     1     -12.332  12.795  65.202  1.00  0.00    -0.555 C  
HETATM    8  H3* UNL     1     -13.567  14.485  63.586  1.00  0.00     0.000 HD 
HETATM    9  O3* UNL     1     -12.626  14.610  63.617  1.00  0.00    -0.773 OA 
HETATM   10  C3* UNL     1     -12.124  14.269  64.907  1.00  0.00    -0.435 C  
BRANCH   6  11
HETATM   11  N   UNL     1     -10.800  11.159  66.304  1.00  0.00    -0.242 N  
HETATM   12  C   UNL     1     -10.160   9.970  65.988  1.00  0.00    -0.248 C  
HETATM   13  C   UNL     1     -10.652   9.140  68.205  1.00  0.00    -0.183 C  
HETATM   14  C   UNL     1     -10.062   8.941  66.845  1.00  0.00    -0.343 C  
HETATM   15  O   UNL     1     -11.816  12.460  67.922  1.00  0.00    -0.351 OA 
HETATM   16  N   UNL     1     -11.196  10.365  68.458  1.00  0.00    -0.377 N  
HETATM   17  H   UNL     1     -11.559  10.525  69.398  1.00  0.00     0.000 HD 
HETATM   18  O   UNL     1     -10.649   8.255  69.057  1.00  0.00    -0.215 OA 
HETATM   19  C   UNL     1     -11.303  11.398  67.572  1.00  0.00    -0.292 C  
BRANCH  14  20
HETATM   20  C   UNL     1      -9.373   7.691  66.569  1.00  0.00    -0.241 C  
HETATM   21  C   UNL     1      -8.312   7.208  67.225  1.00  0.00    -0.119 C  
HETATM   22 BR   UNL     1      -7.467   5.616  66.776  1.00  0.00    -0.088 Br 
ENDBRANCH  14  20
ENDBRANCH   6  11
ENDBRANCH   3   4
TORSDOF 3
ENDMDL
MODEL       51
REMARK 921   NORMALIZED FREE ENERGY PREDICTED BY IDOCK:   -4.81 KCAL/MOL
REMARK 922        TOTAL FREE ENERGY PREDICTED BY IDOCK:   -6.26 KCAL/MOL
REMARK 923 INTER-LIGAND FREE ENERGY PREDICTED BY IDOCK:   -5.67 KCAL/MOL
REMARK 924 INTRA-LIGAND FREE ENERGY PREDICTED BY IDOCK:   -0.59 KCAL/MOL
REMARK 927      BINDING AFFINITY PREDICTED BY RF-SCORE:    0.00 PKD
ROOT
HETATM    1  O5* UNL     1     -14.327   7.748  72.169  1.00  0.00    -0.550 OA 
HETATM    2  H5* UNL     1     -14.836   6.946  72.151  1.00  0.00     0.000 HD 
HETATM    3  C5* UNL     1     -13.086   7.591  71.480  1.00  0.00    -0.356 C  
ENDROOT
BRANCH   3   4
HETATM    4  C4* UNL     1     -12.268   8.880  71.509  1.00  0.00    -0.327 C  
HETATM    5  O4* UNL     1     -11.183   8.813  70.565  1.00  0.00    -0.255 OA 
HETATM    6  C1* UNL     1     -10.821  10.177  70.313  1.00  0.00    -0.310 C  
HETATM    7  C2* UNL     1     -12.123  10.970  70.309  1.00  0.00    -0.448 C  
HETATM    8  H3* UNL     1     -13.973  11.595  72.094  1.00  0.00     0.000 HD 
HETATM    9  O3* UNL     1     -13.473  10.819  72.322  1.00  0.00    -0.330 OA 
HETATM   10  C3* UNL     1     -13.071  10.127  71.143  1.00  0.00    -0.392 C  
BRANCH   6  11
HETATM   11  N   UNL     1     -10.056  10.298  69.078  1.00  0.00    -0.201 N  
HETATM   12  C   UNL     1     -10.662  10.661  67.885  1.00  0.00    -0.248 C  
HETATM   13  C   UNL     1      -8.527  10.471  66.767  1.00  0.00    -0.127 C  
HETATM   14  C   UNL     1      -9.996  10.750  66.723  1.00  0.00    -0.249 C  
HETATM   15  O   UNL     1      -8.096   9.838  70.212  1.00  0.00    -0.176 OA 
HETATM   16  N   UNL     1      -7.998  10.194  67.993  1.00  0.00    -0.100 N  
HETATM   17  H   UNL     1      -6.989  10.050  68.039  1.00  0.00     0.000 HD 
HETATM   18  O   UNL     1      -7.825  10.491  65.759  1.00  0.00    -0.149 OA 
HETATM   19  C   UNL     1      -8.690  10.093  69.165  1.00  0.00    -0.170 C  
BRANCH  14  20
HETATM   20  C   UNL     1     -10.582  11.157  65.456  1.00  0.00    -0.289 C  
HETATM   21  C   UNL     1     -11.394  12.203  65.258  1.00  0.00    -0.336 C  
HETATM   22 BR   UNL     1     -12.133  12.628  63.608  1.00  0.00    -0.657 Br 
ENDBRANCH  14  20
ENDBRANCH   6  11
ENDBRANCH   3   4
TORSDOF 3
ENDMDL
MODEL       52
REMARK 921   NORMALIZED FREE ENERGY PREDICTED BY IDOCK:   -4.80 KCAL/MOL
REMARK 922        TOTAL FREE ENERGY PREDICTED BY IDOCK:   -6.25 KCAL/MOL
REMARK 923 INTER-LIGAND FREE ENERGY PREDICTED BY IDOCK:   -5.76 KCAL/MOL
REMARK 924 INTRA-LIGAND FREE ENERGY PREDICTED BY IDOCK:   -0.49 KCAL/MOL
REMARK 927      BINDING AFFINITY PREDICTED BY RF-SCORE:    0.00 PKD
ROOT
HETATM    1  O5* UNL     1      -9.979  20.463  65.606  1.00  0.00    -0.588 OA 
HETATM    2  H5* UNL     1     -10.694  21.045  65.377  1.00  0.00     0.000 HD 
HETATM    3  C5* UNL     1     -10.108  19.987  66.946  1.00  0.00    -0.467 C  
ENDROOT
BRANCH   3   4
HETATM    4  C4* UNL     1      -8.959  19.050  67.315  1.00  0.00    -0.284 C  
HETATM    5  O4* UNL     1      -9.463  17.771  67.740  1.00  0.00    -0.255 OA 
HETATM    6  C1* UNL     1      -8.369  16.860  67.571  1.00  0.00    -0.189 C  
HETATM    7  C2* UNL     1      -7.645  17.297  66.303  1.00  0.00    -0.360 C  
HETATM    8  H3* UNL     1      -6.249  19.411  65.542  1.00  0.00     0.000 HD 
HETATM    9  O3* UNL     1      -6.844  19.589  66.261  1.00  0.00    -0.203 OA 
HETATM   10  C3* UNL     1      -8.002  18.765  66.159  1.00  0.00    -0.217 C  
BRANCH   6  11
HETATM   11  N   UNL     1      -8.834  15.480  67.537  1.00  0.00    -0.178 N  
HETATM   12  C   UNL     1      -9.430  14.945  66.405  1.00  0.00    -0.300 C  
HETATM   13  C   UNL     1      -9.720  12.849  67.573  1.00  0.00    -0.205 C  
HETATM   14  C   UNL     1      -9.899  13.689  66.349  1.00  0.00    -0.302 C  
HETATM   15  O   UNL     1      -8.013  15.119  69.667  1.00  0.00    -0.218 OA 
HETATM   16  N   UNL     1      -9.058  13.428  68.616  1.00  0.00    -0.377 N  
HETATM   17  H   UNL     1      -8.891  12.846  69.437  1.00  0.00     0.000 HD 
HETATM   18  O   UNL     1     -10.141  11.696  67.646  1.00  0.00    -0.184 OA 
HETATM   19  C   UNL     1      -8.599  14.712  68.665  1.00  0.00    -0.172 C  
BRANCH  14  20
HETATM   20  C   UNL     1     -10.501  13.077  65.175  1.00  0.00    -0.335 C  
HETATM   21  C   UNL     1     -11.798  12.794  65.004  1.00  0.00    -0.382 C  
HETATM   22 BR   UNL     1     -12.475  11.971  63.483  1.00  0.00    -0.545 Br 
ENDBRANCH  14  20
ENDBRANCH   6  11
ENDBRANCH   3   4
TORSDOF 3
ENDMDL
MODEL       53
REMARK 921   NORMALIZED FREE ENERGY PREDICTED BY IDOCK:   -4.77 KCAL/MOL
REMARK 922        TOTAL FREE ENERGY PREDICTED BY IDOCK:   -6.22 KCAL/MOL
REMARK 923 INTER-LIGAND FREE ENERGY PREDICTED BY IDOCK:   -5.73 KCAL/MOL
REMARK 924 INTRA-LIGAND FREE ENERGY PREDICTED BY IDOCK:   -0.49 KCAL/MOL
REMARK 927      BINDING AFFINITY PREDICTED BY RF-SCORE:    0.00 PKD
ROOT
HETATM    1  O5* UNL     1     -12.694  14.020  64.919  1.00  0.00    -0.647 OA 
HETATM    2  H5* UNL     1     -13.385  14.266  64.314  1.00  0.00     0.000 HD 
HETATM    3  C5* UNL     1     -12.405  12.624  64.837  1.00  0.00    -0.498 C  
ENDROOT
BRANCH   3   4
HETATM    4  C4* UNL     1     -11.296  12.229  65.810  1.00  0.00    -0.355 C  
HETATM    5  O4* UNL     1     -10.157  13.096  65.659  1.00  0.00    -0.284 OA 
HETATM    6  C1* UNL     1      -9.432  12.981  66.890  1.00  0.00    -0.242 C  
HETATM    7  C2* UNL     1     -10.480  12.862  67.992  1.00  0.00    -0.237 C  
HETATM    8  H3* UNL     1     -12.314  11.088  68.687  1.00  0.00     0.000 HD 
HETATM    9  O3* UNL     1     -12.060  11.031  67.773  1.00  0.00    -0.534 OA 
HETATM   10  C3* UNL     1     -11.705  12.320  67.279  1.00  0.00    -0.324 C  
BRANCH   6  11
HETATM   11  N   UNL     1      -8.517  14.101  67.069  1.00  0.00    -0.192 N  
HETATM   12  C   UNL     1      -8.904  15.403  66.791  1.00  0.00    -0.269 C  
HETATM   13  C   UNL     1      -6.696  16.169  67.407  1.00  0.00    -0.184 C  
HETATM   14  C   UNL     1      -8.078  16.454  66.912  1.00  0.00    -0.262 C  
HETATM   15  O   UNL     1      -6.899  12.683  67.913  1.00  0.00    -0.085 OA 
HETATM   16  N   UNL     1      -6.420  14.872  67.727  1.00  0.00    -0.158 N  
HETATM   17  H   UNL     1      -5.495  14.677  68.110  1.00  0.00     0.000 HD 
HETATM   18  O   UNL     1      -5.846  17.050  67.524  1.00  0.00    -0.121 OA 
HETATM   19  C   UNL     1      -7.265  13.810  67.585  1.00  0.00    -0.173 C  
BRANCH  14  20
HETATM   20  C   UNL     1      -8.450  17.838  66.664  1.00  0.00    -0.283 C  
HETATM   21  C   UNL     1      -9.314  18.567  67.379  1.00  0.00    -0.279 C  
HETATM   22 BR   UNL     1      -9.762  20.322  66.965  1.00  0.00    -0.599 Br 
ENDBRANCH  14  20
ENDBRANCH   6  11
ENDBRANCH   3   4
TORSDOF 3
ENDMDL
MODEL       54
REMARK 921   NORMALIZED FREE ENERGY PREDICTED BY IDOCK:   -4.77 KCAL/MOL
REMARK 922        TOTAL FREE ENERGY PREDICTED BY IDOCK:   -6.21 KCAL/MOL
REMARK 923 INTER-LIGAND FREE ENERGY PREDICTED BY IDOCK:   -5.78 KCAL/MOL
REMARK 924 INTRA-LIGAND FREE ENERGY PREDICTED BY IDOCK:   -0.43 KCAL/MOL
REMARK 927      BINDING AFFINITY PREDICTED BY RF-SCORE:    0.00 PKD
ROOT
HETATM    1  O5* UNL     1     -11.211   3.908  73.286  1.00  0.00    -0.208 OA 
HETATM    2  H5* UNL     1     -11.907   3.412  73.701  1.00  0.00     0.000 HD 
HETATM    3  C5* UNL     1     -11.586   5.274  73.102  1.00  0.00    -0.178 C  
ENDROOT
BRANCH   3   4
HETATM    4  C4* UNL     1     -10.468   6.071  72.434  1.00  0.00    -0.201 C  
HETATM    5  O4* UNL     1     -10.970   6.794  71.295  1.00  0.00    -0.237 OA 
HETATM    6  C1* UNL     1     -10.024   7.848  71.072  1.00  0.00    -0.181 C  
HETATM    7  C2* UNL     1      -9.572   8.313  72.452  1.00  0.00    -0.364 C  
HETATM    8  H3* UNL     1      -8.210   7.261  74.460  1.00  0.00     0.000 HD 
HETATM    9  O3* UNL     1      -8.609   6.612  73.893  1.00  0.00    -0.130 OA 
HETATM   10  C3* UNL     1      -9.826   7.115  73.348  1.00  0.00    -0.259 C  
BRANCH   6  11
HETATM   11  N   UNL     1     -10.601   8.908  70.255  1.00  0.00    -0.210 N  
HETATM   12  C   UNL     1     -11.096  10.071  70.823  1.00  0.00    -0.334 C  
HETATM   13  C   UNL     1     -11.712  10.860  68.623  1.00  0.00    -0.263 C  
HETATM   14  C   UNL     1     -11.664  11.053  70.105  1.00  0.00    -0.442 C  
HETATM   15  O   UNL     1     -10.084   7.743  68.327  1.00  0.00    -0.179 OA 
HETATM   16  N   UNL     1     -11.136   9.722  68.139  1.00  0.00    -0.504 N  
HETATM   17  H   UNL     1     -11.123   9.605  67.126  1.00  0.00     0.000 HD 
HETATM   18  O   UNL     1     -12.238  11.678  67.871  1.00  0.00    -0.560 OA 
HETATM   19  C   UNL     1     -10.575   8.724  68.882  1.00  0.00    -0.155 C  
BRANCH  14  20
HETATM   20  C   UNL     1     -12.166  12.302  70.654  1.00  0.00    -0.378 C  
HETATM   21  C   UNL     1     -13.048  12.431  71.652  1.00  0.00    -0.307 C  
HETATM   22 BR   UNL     1     -13.668  14.072  72.265  1.00  0.00    -0.691 Br 
ENDBRANCH  14  20
ENDBRANCH   6  11
ENDBRANCH   3   4
TORSDOF 3
ENDMDL
MODEL       55
REMARK 921   NORMALIZED FREE ENERGY PREDICTED BY IDOCK:   -4.76 KCAL/MOL
REMARK 922        TOTAL FREE ENERGY PREDICTED BY IDOCK:   -6.21 KCAL/MOL
REMARK 923 INTER-LIGAND FREE ENERGY PREDICTED BY IDOCK:   -5.70 KCAL/MOL
REMARK 924 INTRA-LIGAND FREE ENERGY PREDICTED BY IDOCK:   -0.51 KCAL/MOL
REMARK 927      BINDING AFFINITY PREDICTED BY RF-SCORE:    0.00 PKD
ROOT
HETATM    1  O5* UNL     1      -7.680  18.491  67.501  1.00  0.00    -0.226 OA 
HETATM    2  H5* UNL     1      -6.792  18.815  67.594  1.00  0.00     0.000 HD 
HETATM    3  C5* UNL     1      -7.784  17.572  66.413  1.00  0.00    -0.297 C  
ENDROOT
BRANCH   3   4
HETATM    4  C4* UNL     1      -9.212  17.050  66.262  1.00  0.00    -0.247 C  
HETATM    5  O4* UNL     1      -9.208  15.646  65.946  1.00  0.00    -0.340 OA 
HETATM    6  C1* UNL     1     -10.509  15.173  66.319  1.00  0.00    -0.307 C  
HETATM    7  C2* UNL     1     -10.888  15.927  67.589  1.00  0.00    -0.312 C  
HETATM    8  H3* UNL     1     -11.413  18.441  68.221  1.00  0.00     0.000 HD 
HETATM    9  O3* UNL     1     -10.888  18.351  67.435  1.00  0.00    -0.403 OA 
HETATM   10  C3* UNL     1     -10.057  17.196  67.527  1.00  0.00    -0.301 C  
BRANCH   6  11
HETATM   11  N   UNL     1     -10.518  13.723  66.472  1.00  0.00    -0.279 N  
HETATM   12  C   UNL     1     -10.641  13.129  67.718  1.00  0.00    -0.234 C  
HETATM   13  C   UNL     1     -10.492  10.954  66.672  1.00  0.00    -0.254 C  
HETATM   14  C   UNL     1     -10.619  11.799  67.900  1.00  0.00    -0.231 C  
HETATM   15  O   UNL     1     -10.419  13.451  64.179  1.00  0.00    -0.393 OA 
HETATM   16  N   UNL     1     -10.451  11.617  65.480  1.00  0.00    -0.264 N  
HETATM   17  H   UNL     1     -10.411  11.047  64.636  1.00  0.00     0.000 HD 
HETATM   18  O   UNL     1     -10.428   9.728  66.723  1.00  0.00    -0.231 OA 
HETATM   19  C   UNL     1     -10.459  12.971  65.311  1.00  0.00    -0.304 C  
BRANCH  14  20
HETATM   20  C   UNL     1     -10.777  11.131  69.182  1.00  0.00    -0.262 C  
HETATM   21  C   UNL     1     -11.935  10.807  69.770  1.00  0.00    -0.325 C  
HETATM   22 BR   UNL     1     -12.045   9.989  71.434  1.00  0.00    -0.494 Br 
ENDBRANCH  14  20
ENDBRANCH   6  11
ENDBRANCH   3   4
TORSDOF 3
ENDMDL
MODEL       56
REMARK 921   NORMALIZED FREE ENERGY PREDICTED BY IDOCK:   -4.73 KCAL/MOL
REMARK 922        TOTAL FREE ENERGY PREDICTED BY IDOCK:   -6.17 KCAL/MOL
REMARK 923 INTER-LIGAND FREE ENERGY PREDICTED BY IDOCK:   -5.80 KCAL/MOL
REMARK 924 INTRA-LIGAND FREE ENERGY PREDICTED BY IDOCK:   -0.37 KCAL/MOL
REMARK 927      BINDING AFFINITY PREDICTED BY RF-SCORE:    0.00 PKD
ROOT
HETATM    1  O5* UNL     1     -13.356  14.149  65.312  1.00  0.00    -0.715 OA 
HETATM    2  H5* UNL     1     -13.855  14.241  64.509  1.00  0.00     0.000 HD 
HETATM    3  C5* UNL     1     -12.501  13.006  65.263  1.00  0.00    -0.499 C  
ENDROOT
BRANCH   3   4
HETATM    4  C4* UNL     1     -11.698  12.857  66.554  1.00  0.00    -0.393 C  
HETATM    5  O4* UNL     1     -12.065  11.648  67.244  1.00  0.00    -0.595 OA 
HETATM    6  C1* UNL     1     -10.959  11.359  68.109  1.00  0.00    -0.232 C  
HETATM    7  C2* UNL     1      -9.703  11.747  67.337  1.00  0.00    -0.186 C  
HETATM    8  H3* UNL     1      -8.648  13.997  66.431  1.00  0.00     0.000 HD 
HETATM    9  O3* UNL     1      -9.586  14.047  66.568  1.00  0.00    -0.277 OA 
HETATM   10  C3* UNL     1     -10.188  12.777  66.334  1.00  0.00    -0.253 C  
BRANCH   6  11
HETATM   11  N   UNL     1     -10.978   9.966  68.539  1.00  0.00    -0.210 N  
HETATM   12  C   UNL     1     -10.468   8.956  67.738  1.00  0.00    -0.239 C  
HETATM   13  C   UNL     1     -11.086   7.337  69.424  1.00  0.00    -0.068 C  
HETATM   14  C   UNL     1     -10.500   7.660  68.087  1.00  0.00    -0.233 C  
HETATM   15  O   UNL     1     -11.871  10.578  70.581  1.00  0.00    -0.305 OA 
HETATM   16  N   UNL     1     -11.496   8.397  70.180  1.00  0.00    -0.460 N  
HETATM   17  H   UNL     1     -11.854   8.189  71.112  1.00  0.00     0.000 HD 
HETATM   18  O   UNL     1     -11.195   6.183  69.832  1.00  0.00    -0.375 OA 
HETATM   19  C   UNL     1     -11.472   9.710  69.806  1.00  0.00    -0.052 C  
BRANCH  14  20
HETATM   20  C   UNL     1      -9.949   6.571  67.296  1.00  0.00    -0.189 C  
HETATM   21  C   UNL     1     -10.646   5.646  66.626  1.00  0.00    -0.295 C  
HETATM   22 BR   UNL     1      -9.858   4.262  65.671  1.00  0.00    -0.229 Br 
ENDBRANCH  14  20
ENDBRANCH   6  11
ENDBRANCH   3   4
TORSDOF 3
ENDMDL
MODEL       57
REMARK 921   NORMALIZED FREE ENERGY PREDICTED BY IDOCK:   -4.73 KCAL/MOL
REMARK 922        TOTAL FREE ENERGY PREDICTED BY IDOCK:   -6.16 KCAL/MOL
REMARK 923 INTER-LIGAND FREE ENERGY PREDICTED BY IDOCK:   -5.61 KCAL/MOL
REMARK 924 INTRA-LIGAND FREE ENERGY PREDICTED BY IDOCK:   -0.56 KCAL/MOL
REMARK 927      BINDING AFFINITY PREDICTED BY RF-SCORE:    0.00 PKD
ROOT
HETATM    1  O5* UNL     1     -12.107  15.010  63.743  1.00  0.00    -0.918 OA 
HETATM    2  H5* UNL     1     -12.224  14.818  62.820  1.00  0.00     0.000 HD 
HETATM    3  C5* UNL     1     -12.118  13.817  64.528  1.00  0.00    -0.428 C  
ENDROOT
BRANCH   3   4
HETATM    4  C4* UNL     1     -11.930  14.127  66.012  1.00  0.00    -0.413 C  
HETATM    5  O4* UNL     1     -12.055  12.930  66.800  1.00  0.00    -0.399 OA 
HETATM    6  C1* UNL     1     -11.387  13.220  68.034  1.00  0.00    -0.291 C  
HETATM    7  C2* UNL     1     -10.178  14.077  67.672  1.00  0.00    -0.241 C  
HETATM    8  H3* UNL     1      -9.793  16.496  66.675  1.00  0.00     0.000 HD 
HETATM    9  O3* UNL     1     -10.645  16.132  66.465  1.00  0.00    -0.308 OA 
HETATM   10  C3* UNL     1     -10.560  14.714  66.348  1.00  0.00    -0.301 C  
BRANCH   6  11
HETATM   11  N   UNL     1     -11.046  11.997  68.750  1.00  0.00    -0.234 N  
HETATM   12  C   UNL     1     -10.134  11.089  68.236  1.00  0.00    -0.177 C  
HETATM   13  C   UNL     1     -10.485   9.676  70.166  1.00  0.00    -0.273 C  
HETATM   14  C   UNL     1      -9.822   9.937  68.851  1.00  0.00    -0.179 C  
HETATM   15  O   UNL     1     -12.392  12.624  70.521  1.00  0.00    -0.337 OA 
HETATM   16  N   UNL     1     -11.312  10.655  70.634  1.00  0.00    -0.409 N  
HETATM   17  H   UNL     1     -11.731  10.505  71.552  1.00  0.00     0.000 HD 
HETATM   18  O   UNL     1     -10.299   8.640  70.800  1.00  0.00    -0.191 OA 
HETATM   19  C   UNL     1     -11.632  11.815  69.991  1.00  0.00    -0.236 C  
BRANCH  14  20
HETATM   20  C   UNL     1      -8.848   8.972  68.366  1.00  0.00    -0.134 C  
HETATM   21  C   UNL     1      -7.517   9.070  68.467  1.00  0.00    -0.085 C  
HETATM   22 BR   UNL     1      -6.343   7.805  67.780  1.00  0.00    -0.052 Br 
ENDBRANCH  14  20
ENDBRANCH   6  11
ENDBRANCH   3   4
TORSDOF 3
ENDMDL
MODEL       58
REMARK 921   NORMALIZED FREE ENERGY PREDICTED BY IDOCK:   -4.71 KCAL/MOL
REMARK 922        TOTAL FREE ENERGY PREDICTED BY IDOCK:   -6.15 KCAL/MOL
REMARK 923 INTER-LIGAND FREE ENERGY PREDICTED BY IDOCK:   -5.64 KCAL/MOL
REMARK 924 INTRA-LIGAND FREE ENERGY PREDICTED BY IDOCK:   -0.51 KCAL/MOL
REMARK 927      BINDING AFFINITY PREDICTED BY RF-SCORE:    0.00 PKD
ROOT
HETATM    1  O5* UNL     1     -12.626  15.591  69.023  1.00  0.00    -0.553 OA 
HETATM    2  H5* UNL     1     -12.967  16.337  69.503  1.00  0.00     0.000 HD 
HETATM    3  C5* UNL     1     -11.388  15.908  68.384  1.00  0.00    -0.361 C  
ENDROOT
BRANCH   3   4
HETATM    4  C4* UNL     1     -10.840  14.709  67.613  1.00  0.00    -0.284 C  
HETATM    5  O4* UNL     1     -10.181  13.791  68.503  1.00  0.00    -0.233 OA 
HETATM    6  C1* UNL     1     -10.166  12.538  67.807  1.00  0.00    -0.217 C  
HETATM    7  C2* UNL     1     -11.490  12.452  67.056  1.00  0.00    -0.423 C  
HETATM    8  H3* UNL     1     -12.632  13.762  65.061  1.00  0.00     0.000 HD 
HETATM    9  O3* UNL     1     -11.964  14.266  65.512  1.00  0.00    -0.364 OA 
HETATM   10  C3* UNL     1     -11.914  13.900  66.889  1.00  0.00    -0.433 C  
BRANCH   6  11
HETATM   11  N   UNL     1      -9.938  11.428  68.724  1.00  0.00    -0.201 N  
HETATM   12  C   UNL     1     -10.992  10.777  69.347  1.00  0.00    -0.254 C  
HETATM   13  C   UNL     1      -9.409   9.346  70.483  1.00  0.00    -0.262 C  
HETATM   14  C   UNL     1     -10.817   9.775  70.222  1.00  0.00    -0.356 C  
HETATM   15  O   UNL     1      -7.665  11.517  68.314  1.00  0.00    -0.108 OA 
HETATM   16  N   UNL     1      -8.437   9.989  69.773  1.00  0.00    -0.247 N  
HETATM   17  H   UNL     1      -7.478   9.671  69.911  1.00  0.00     0.000 HD 
HETATM   18  O   UNL     1      -9.130   8.462  71.289  1.00  0.00    -0.149 OA 
HETATM   19  C   UNL     1      -8.627  11.018  68.897  1.00  0.00    -0.119 C  
BRANCH  14  20
HETATM   20  C   UNL     1     -11.892   9.042  70.874  1.00  0.00    -0.302 C  
HETATM   21  C   UNL     1     -13.004   9.568  71.401  1.00  0.00    -0.368 C  
HETATM   22 BR   UNL     1     -14.310   8.559  72.253  1.00  0.00    -0.406 Br 
ENDBRANCH  14  20
ENDBRANCH   6  11
ENDBRANCH   3   4
TORSDOF 3
ENDMDL
MODEL       59
REMARK 921   NORMALIZED FREE ENERGY PREDICTED BY IDOCK:   -4.70 KCAL/MOL
REMARK 922        TOTAL FREE ENERGY PREDICTED BY IDOCK:   -6.14 KCAL/MOL
REMARK 923 INTER-LIGAND FREE ENERGY PREDICTED BY IDOCK:   -5.66 KCAL/MOL
REMARK 924 INTRA-LIGAND FREE ENERGY PREDICTED BY IDOCK:   -0.48 KCAL/MOL
REMARK 927      BINDING AFFINITY PREDICTED BY RF-SCORE:    0.00 PKD
ROOT
HETATM    1  O5* UNL     1      -8.038   7.966  73.740  1.00  0.00    -0.163 OA 
HETATM    2  H5* UNL     1      -7.128   7.880  74.001  1.00  0.00     0.000 HD 
HETATM    3  C5* UNL     1      -8.789   6.801  74.085  1.00  0.00    -0.165 C  
ENDROOT
BRANCH   3   4
HETATM    4  C4* UNL     1     -10.251   6.939  73.665  1.00  0.00    -0.340 C  
HETATM    5  O4* UNL     1     -10.463   8.181  72.969  1.00  0.00    -0.325 OA 
HETATM    6  C1* UNL     1     -11.665   7.986  72.212  1.00  0.00    -0.371 C  
HETATM    7  C2* UNL     1     -11.632   6.541  71.726  1.00  0.00    -0.359 C  
HETATM    8  H3* UNL     1     -11.733   4.152  72.858  1.00  0.00     0.000 HD 
HETATM    9  O3* UNL     1     -11.437   4.837  73.446  1.00  0.00    -0.338 OA 
HETATM   10  C3* UNL     1     -10.726   5.837  72.720  1.00  0.00    -0.241 C  
BRANCH   6  11
HETATM   11  N   UNL     1     -11.775   8.964  71.137  1.00  0.00    -0.287 N  
HETATM   12  C   UNL     1     -10.953   8.909  70.022  1.00  0.00    -0.206 C  
HETATM   13  C   UNL     1     -12.032  10.891  69.155  1.00  0.00    -0.288 C  
HETATM   14  C   UNL     1     -11.004   9.812  69.030  1.00  0.00    -0.193 C  
HETATM   15  O   UNL     1     -13.575   9.961  72.189  1.00  0.00    -0.409 OA 
HETATM   16  N   UNL     1     -12.849  10.829  70.246  1.00  0.00    -0.348 N  
HETATM   17  H   UNL     1     -13.583  11.533  70.314  1.00  0.00     0.000 HD 
HETATM   18  O   UNL     1     -12.146  11.788  68.323  1.00  0.00    -0.525 OA 
HETATM   19  C   UNL     1     -12.777   9.913  71.255  1.00  0.00    -0.383 C  
BRANCH  14  20
HETATM   20  C   UNL     1     -10.185   9.775  67.829  1.00  0.00    -0.254 C  
HETATM   21  C   UNL     1      -9.937   8.700  67.071  1.00  0.00    -0.249 C  
HETATM   22 BR   UNL     1      -8.843   8.735  65.571  1.00  0.00    -0.217 Br 
ENDBRANCH  14  20
ENDBRANCH   6  11
ENDBRANCH   3   4
TORSDOF 3
ENDMDL
MODEL       60
REMARK 921   NORMALIZED FREE ENERGY PREDICTED BY IDOCK:   -4.69 KCAL/MOL
REMARK 922        TOTAL FREE ENERGY PREDICTED BY IDOCK:   -6.13 KCAL/MOL
REMARK 923 INTER-LIGAND FREE ENERGY PREDICTED BY IDOCK:   -5.71 KCAL/MOL
REMARK 924 INTRA-LIGAND FREE ENERGY PREDICTED BY IDOCK:   -0.42 KCAL/MOL
REMARK 927      BINDING AFFINITY PREDICTED BY RF-SCORE:    0.00 PKD
ROOT
HETATM    1  O5* UNL     1      -9.502   7.676  72.854  1.00  0.00    -0.167 OA 
HETATM    2  H5* UNL     1      -9.014   6.861  72.824  1.00  0.00     0.000 HD 
HETATM    3  C5* UNL     1     -10.608   7.651  71.950  1.00  0.00    -0.218 C  
ENDROOT
BRANCH   3   4
HETATM    4  C4* UNL     1     -11.392   8.961  71.996  1.00  0.00    -0.357 C  
HETATM    5  O4* UNL     1     -10.867   9.901  71.041  1.00  0.00    -0.321 OA 
HETATM    6  C1* UNL     1     -11.929  10.837  70.812  1.00  0.00    -0.362 C  
HETATM    7  C2* UNL     1     -13.221  10.028  70.837  1.00  0.00    -0.336 C  
HETATM    8  H3* UNL     1     -14.569   8.655  72.652  1.00  0.00     0.000 HD 
HETATM    9  O3* UNL     1     -13.647   8.753  72.860  1.00  0.00    -0.294 OA 
HETATM   10  C3* UNL     1     -12.875   8.803  71.663  1.00  0.00    -0.348 C  
BRANCH   6  11
HETATM   11  N   UNL     1     -11.722  11.574  69.572  1.00  0.00    -0.316 N  
HETATM   12  C   UNL     1     -11.297  10.940  68.415  1.00  0.00    -0.304 C  
HETATM   13  C   UNL     1     -11.321  13.066  67.265  1.00  0.00    -0.306 C  
HETATM   14  C   UNL     1     -11.064  11.593  67.266  1.00  0.00    -0.346 C  
HETATM   15  O   UNL     1     -12.473  13.519  70.570  1.00  0.00    -0.332 OA 
HETATM   16  N   UNL     1     -11.809  13.598  68.423  1.00  0.00    -0.358 N  
HETATM   17  H   UNL     1     -12.032  14.594  68.416  1.00  0.00     0.000 HD 
HETATM   18  O   UNL     1     -11.111  13.769  66.279  1.00  0.00    -0.299 OA 
HETATM   19  C   UNL     1     -12.027  12.925  69.590  1.00  0.00    -0.292 C  
BRANCH  14  20
HETATM   20  C   UNL     1     -10.649  10.965  66.021  1.00  0.00    -0.254 C  
HETATM   21  C   UNL     1      -9.396  10.864  65.563  1.00  0.00    -0.206 C  
HETATM   22 BR   UNL     1      -8.960  10.079  63.937  1.00  0.00    -0.295 Br 
ENDBRANCH  14  20
ENDBRANCH   6  11
ENDBRANCH   3   4
TORSDOF 3
ENDMDL
MODEL       61
REMARK 921   NORMALIZED FREE ENERGY PREDICTED BY IDOCK:   -4.69 KCAL/MOL
REMARK 922        TOTAL FREE ENERGY PREDICTED BY IDOCK:   -6.12 KCAL/MOL
REMARK 923 INTER-LIGAND FREE ENERGY PREDICTED BY IDOCK:   -5.84 KCAL/MOL
REMARK 924 INTRA-LIGAND FREE ENERGY PREDICTED BY IDOCK:   -0.29 KCAL/MOL
REMARK 927      BINDING AFFINITY PREDICTED BY RF-SCORE:    0.00 PKD
ROOT
HETATM    1  O5* UNL     1     -12.532  13.900  63.491  1.00  0.00    -0.981 OA 
HETATM    2  H5* UNL     1     -13.264  14.506  63.474  1.00  0.00     0.000 HD 
HETATM    3  C5* UNL     1     -11.750  14.066  64.674  1.00  0.00    -0.405 C  
ENDROOT
BRANCH   3   4
HETATM    4  C4* UNL     1     -10.574  13.092  64.703  1.00  0.00    -0.378 C  
HETATM    5  O4* UNL     1     -10.178  12.813  66.058  1.00  0.00    -0.267 OA 
HETATM    6  C1* UNL     1      -9.464  11.572  65.994  1.00  0.00    -0.229 C  
HETATM    7  C2* UNL     1     -10.179  10.723  64.949  1.00  0.00    -0.388 C  
HETATM    8  H3* UNL     1     -10.568  10.852  62.336  1.00  0.00     0.000 HD 
HETATM    9  O3* UNL     1     -10.377  11.694  62.732  1.00  0.00    -0.160 OA 
HETATM   10  C3* UNL     1     -10.881  11.738  64.065  1.00  0.00    -0.385 C  
BRANCH   6  11
HETATM   11  N   UNL     1      -9.382  10.943  67.306  1.00  0.00    -0.155 N  
HETATM   12  C   UNL     1     -10.457  10.952  68.181  1.00  0.00    -0.182 C  
HETATM   13  C   UNL     1      -9.123   9.749  69.799  1.00  0.00    -0.225 C  
HETATM   14  C   UNL     1     -10.405  10.413  69.409  1.00  0.00    -0.259 C  
HETATM   15  O   UNL     1      -7.246  10.191  66.844  1.00  0.00    -0.089 OA 
HETATM   16  N   UNL     1      -8.142   9.720  68.852  1.00  0.00    -0.096 N  
HETATM   17  H   UNL     1      -7.281   9.229  69.094  1.00  0.00     0.000 HD 
HETATM   18  O   UNL     1      -8.953   9.252  70.910  1.00  0.00    -0.235 OA 
HETATM   19  C   UNL     1      -8.201  10.287  67.612  1.00  0.00    -0.114 C  
BRANCH  14  20
HETATM   20  C   UNL     1     -11.517  10.370  70.346  1.00  0.00    -0.420 C  
HETATM   21  C   UNL     1     -11.963   9.290  70.999  1.00  0.00    -0.300 C  
HETATM   22 BR   UNL     1     -13.420   9.318  72.150  1.00  0.00    -0.570 Br 
ENDBRANCH  14  20
ENDBRANCH   6  11
ENDBRANCH   3   4
TORSDOF 3
ENDMDL
MODEL       62
REMARK 921   NORMALIZED FREE ENERGY PREDICTED BY IDOCK:   -4.68 KCAL/MOL
REMARK 922        TOTAL FREE ENERGY PREDICTED BY IDOCK:   -6.11 KCAL/MOL
REMARK 923 INTER-LIGAND FREE ENERGY PREDICTED BY IDOCK:   -5.67 KCAL/MOL
REMARK 924 INTRA-LIGAND FREE ENERGY PREDICTED BY IDOCK:   -0.44 KCAL/MOL
REMARK 927      BINDING AFFINITY PREDICTED BY RF-SCORE:    0.00 PKD
ROOT
HETATM    1  O5* UNL     1      -9.968  16.528  66.136  1.00  0.00    -0.306 OA 
HETATM    2  H5* UNL     1      -9.996  17.086  66.905  1.00  0.00     0.000 HD 
HETATM    3  C5* UNL     1     -10.888  15.442  66.249  1.00  0.00    -0.301 C  
ENDROOT
BRANCH   3   4
HETATM    4  C4* UNL     1     -10.842  14.545  65.014  1.00  0.00    -0.412 C  
HETATM    5  O4* UNL     1      -9.955  13.432  65.228  1.00  0.00    -0.259 OA 
HETATM    6  C1* UNL     1     -10.360  12.440  64.276  1.00  0.00    -0.362 C  
HETATM    7  C2* UNL     1     -11.880  12.527  64.192  1.00  0.00    -0.487 C  
HETATM    8  H3* UNL     1     -13.639  14.318  63.358  1.00  0.00     0.000 HD 
HETATM    9  O3* UNL     1     -12.798  14.693  63.590  1.00  0.00    -0.637 OA 
HETATM   10  C3* UNL     1     -12.195  13.942  64.641  1.00  0.00    -0.419 C  
BRANCH   6  11
HETATM   11  N   UNL     1      -9.867  11.120  64.648  1.00  0.00    -0.261 N  
HETATM   12  C   UNL     1      -9.904  10.678  65.962  1.00  0.00    -0.228 C  
HETATM   13  C   UNL     1      -8.874   8.603  65.270  1.00  0.00    -0.135 C  
HETATM   14  C   UNL     1      -9.428   9.483  66.345  1.00  0.00    -0.251 C  
HETATM   15  O   UNL     1      -9.428  10.627  62.433  1.00  0.00    -0.257 OA 
HETATM   16  N   UNL     1      -8.943   9.084  63.996  1.00  0.00    -0.424 N  
HETATM   17  H   UNL     1      -8.610   8.471  63.252  1.00  0.00     0.000 HD 
HETATM   18  O   UNL     1      -8.382   7.504  65.511  1.00  0.00    -0.130 OA 
HETATM   19  C   UNL     1      -9.416  10.308  63.621  1.00  0.00    -0.299 C  
BRANCH  14  20
HETATM   20  C   UNL     1      -9.476   8.966  67.703  1.00  0.00    -0.164 C  
HETATM   21  C   UNL     1     -10.537   8.418  68.306  1.00  0.00    -0.109 C  
HETATM   22 BR   UNL     1     -10.521   7.818  70.065  1.00  0.00    -0.233 Br 
ENDBRANCH  14  20
ENDBRANCH   6  11
ENDBRANCH   3   4
TORSDOF 3
ENDMDL
MODEL       63
REMARK 921   NORMALIZED FREE ENERGY PREDICTED BY IDOCK:   -4.64 KCAL/MOL
REMARK 922        TOTAL FREE ENERGY PREDICTED BY IDOCK:   -6.07 KCAL/MOL
REMARK 923 INTER-LIGAND FREE ENERGY PREDICTED BY IDOCK:   -5.71 KCAL/MOL
REMARK 924 INTRA-LIGAND FREE ENERGY PREDICTED BY IDOCK:   -0.36 KCAL/MOL
REMARK 927      BINDING AFFINITY PREDICTED BY RF-SCORE:    0.00 PKD
ROOT
HETATM    1  O5* UNL     1      -8.796   5.463  72.778  1.00  0.00    -0.123 OA 
HETATM    2  H5* UNL     1      -8.165   5.255  73.458  1.00  0.00     0.000 HD 
HETATM    3  C5* UNL     1     -10.051   5.853  73.338  1.00  0.00    -0.198 C  
ENDROOT
BRANCH   3   4
HETATM    4  C4* UNL     1     -11.065   6.188  72.246  1.00  0.00    -0.277 C  
HETATM    5  O4* UNL     1     -11.723   7.436  72.530  1.00  0.00    -0.286 OA 
HETATM    6  C1* UNL     1     -12.236   7.887  71.270  1.00  0.00    -0.294 C  
HETATM    7  C2* UNL     1     -11.194   7.502  70.225  1.00  0.00    -0.253 C  
HETATM    8  H3* UNL     1     -10.233   5.243  69.240  1.00  0.00     0.000 HD 
HETATM    9  O3* UNL     1     -10.618   5.146  70.103  1.00  0.00    -0.272 OA 
HETATM   10  C3* UNL     1     -10.446   6.343  70.858  1.00  0.00    -0.228 C  
BRANCH   6  11
HETATM   11  N   UNL     1     -12.537   9.312  71.302  1.00  0.00    -0.317 N  
HETATM   12  C   UNL     1     -11.908  10.204  70.447  1.00  0.00    -0.288 C  
HETATM   13  C   UNL     1     -13.147  12.016  71.459  1.00  0.00    -0.261 C  
HETATM   14  C   UNL     1     -12.135  11.526  70.473  1.00  0.00    -0.472 C  
HETATM   15  O   UNL     1     -14.156   8.964  72.914  1.00  0.00    -0.461 OA 
HETATM   16  N   UNL     1     -13.772  11.065  72.211  1.00  0.00    -0.366 N  
HETATM   17  H   UNL     1     -14.497  11.386  72.852  1.00  0.00     0.000 HD 
HETATM   18  O   UNL     1     -13.410  13.209  71.592  1.00  0.00    -0.370 OA 
HETATM   19  C   UNL     1     -13.521   9.724  72.185  1.00  0.00    -0.399 C  
BRANCH  14  20
HETATM   20  C   UNL     1     -11.524  12.493  69.574  1.00  0.00    -0.299 C  
HETATM   21  C   UNL     1     -11.362  12.355  68.253  1.00  0.00    -0.284 C  
HETATM   22 BR   UNL     1     -10.531  13.628  67.185  1.00  0.00    -0.265 Br 
ENDBRANCH  14  20
ENDBRANCH   6  11
ENDBRANCH   3   4
TORSDOF 3
ENDMDL
MODEL       64
REMARK 921   NORMALIZED FREE ENERGY PREDICTED BY IDOCK:   -4.64 KCAL/MOL
REMARK 922        TOTAL FREE ENERGY PREDICTED BY IDOCK:   -6.06 KCAL/MOL
REMARK 923 INTER-LIGAND FREE ENERGY PREDICTED BY IDOCK:   -5.44 KCAL/MOL
REMARK 924 INTRA-LIGAND FREE ENERGY PREDICTED BY IDOCK:   -0.62 KCAL/MOL
REMARK 927      BINDING AFFINITY PREDICTED BY RF-SCORE:    0.00 PKD
ROOT
HETATM    1  O5* UNL     1      -7.176  10.811  65.316  1.00  0.00    -0.342 OA 
HETATM    2  H5* UNL     1      -6.305  11.035  65.009  1.00  0.00     0.000 HD 
HETATM    3  C5* UNL     1      -7.312  11.062  66.715  1.00  0.00    -0.139 C  
ENDROOT
BRANCH   3   4
HETATM    4  C4* UNL     1      -8.712  10.702  67.209  1.00  0.00    -0.129 C  
HETATM    5  O4* UNL     1      -9.119  11.587  68.269  1.00  0.00    -0.173 OA 
HETATM    6  C1* UNL     1     -10.549  11.505  68.300  1.00  0.00    -0.200 C  
HETATM    7  C2* UNL     1     -10.999  11.385  66.848  1.00  0.00    -0.355 C  
HETATM    8  H3* UNL     1     -10.749   9.590  64.922  1.00  0.00     0.000 HD 
HETATM    9  O3* UNL     1     -10.078   9.523  65.591  1.00  0.00    -0.285 OA 
HETATM   10  C3* UNL     1      -9.791  10.810  66.132  1.00  0.00    -0.221 C  
BRANCH   6  11
HETATM   11  N   UNL     1     -11.127  12.644  69.002  1.00  0.00    -0.254 N  
HETATM   12  C   UNL     1     -11.063  13.925  68.477  1.00  0.00    -0.265 C  
HETATM   13  C   UNL     1     -12.226  14.759  70.425  1.00  0.00    -0.336 C  
HETATM   14  C   UNL     1     -11.554  15.001  69.112  1.00  0.00    -0.333 C  
HETATM   15  O   UNL     1     -11.939  11.249  70.657  1.00  0.00    -0.345 OA 
HETATM   16  N   UNL     1     -12.312  13.460  70.834  1.00  0.00    -0.384 N  
HETATM   17  H   UNL     1     -12.810  13.282  71.706  1.00  0.00     0.000 HD 
HETATM   18  O   UNL     1     -12.682  15.673  71.108  1.00  0.00    -0.433 OA 
HETATM   19  C   UNL     1     -11.794  12.376  70.186  1.00  0.00    -0.262 C  
BRANCH  14  20
HETATM   20  C   UNL     1     -11.538  16.357  68.585  1.00  0.00    -0.127 C  
HETATM   21  C   UNL     1     -10.453  17.064  68.249  1.00  0.00    -0.363 C  
HETATM   22 BR   UNL     1     -10.523  18.811  67.621  1.00  0.00    -0.499 Br 
ENDBRANCH  14  20
ENDBRANCH   6  11
ENDBRANCH   3   4
TORSDOF 3
ENDMDL
MODEL       65
REMARK 921   NORMALIZED FREE ENERGY PREDICTED BY IDOCK:   -4.64 KCAL/MOL
REMARK 922        TOTAL FREE ENERGY PREDICTED BY IDOCK:   -6.06 KCAL/MOL
REMARK 923 INTER-LIGAND FREE ENERGY PREDICTED BY IDOCK:   -5.51 KCAL/MOL
REMARK 924 INTRA-LIGAND FREE ENERGY PREDICTED BY IDOCK:   -0.54 KCAL/MOL
REMARK 927      BINDING AFFINITY PREDICTED BY RF-SCORE:    0.00 PKD
ROOT
HETATM    1  O5* UNL     1     -11.932  15.807  73.551  1.00  0.00    -0.432 OA 
HETATM    2  H5* UNL     1     -11.462  16.434  74.089  1.00  0.00     0.000 HD 
HETATM    3  C5* UNL     1     -11.882  16.168  72.170  1.00  0.00    -0.536 C  
ENDROOT
BRANCH   3   4
HETATM    4  C4* UNL     1     -12.637  15.160  71.306  1.00  0.00    -0.353 C  
HETATM    5  O4* UNL     1     -11.914  14.891  70.091  1.00  0.00    -0.279 OA 
HETATM    6  C1* UNL     1     -12.411  13.629  69.628  1.00  0.00    -0.203 C  
HETATM    7  C2* UNL     1     -12.653  12.785  70.875  1.00  0.00    -0.342 C  
HETATM    8  H3* UNL     1     -14.291  12.883  72.949  1.00  0.00     0.000 HD 
HETATM    9  O3* UNL     1     -14.160  13.725  72.530  1.00  0.00    -0.686 OA 
HETATM   10  C3* UNL     1     -12.847  13.806  71.981  1.00  0.00    -0.288 C  
BRANCH   6  11
HETATM   11  N   UNL     1     -11.493  13.019  68.675  1.00  0.00    -0.283 N  
HETATM   12  C   UNL     1     -10.696  11.940  69.026  1.00  0.00    -0.156 C  
HETATM   13  C   UNL     1      -9.748  11.942  66.803  1.00  0.00    -0.204 C  
HETATM   14  C   UNL     1      -9.816  11.375  68.185  1.00  0.00    -0.195 C  
HETATM   15  O   UNL     1     -12.235  14.437  67.008  1.00  0.00    -0.400 OA 
HETATM   16  N   UNL     1     -10.618  12.953  66.517  1.00  0.00    -0.257 N  
HETATM   17  H   UNL     1     -10.611  13.314  65.563  1.00  0.00     0.000 HD 
HETATM   18  O   UNL     1      -8.957  11.525  65.960  1.00  0.00    -0.208 OA 
HETATM   19  C   UNL     1     -11.498  13.529  67.387  1.00  0.00    -0.336 C  
BRANCH  14  20
HETATM   20  C   UNL     1      -8.985  10.224  68.499  1.00  0.00    -0.134 C  
HETATM   21  C   UNL     1      -8.143  10.113  69.533  1.00  0.00    -0.170 C  
HETATM   22 BR   UNL     1      -7.086   8.615  69.837  1.00  0.00    -0.052 Br 
ENDBRANCH  14  20
ENDBRANCH   6  11
ENDBRANCH   3   4
TORSDOF 3
ENDMDL
MODEL       66
REMARK 921   NORMALIZED FREE ENERGY PREDICTED BY IDOCK:   -4.62 KCAL/MOL
REMARK 922        TOTAL FREE ENERGY PREDICTED BY IDOCK:   -6.04 KCAL/MOL
REMARK 923 INTER-LIGAND FREE ENERGY PREDICTED BY IDOCK:   -5.62 KCAL/MOL
REMARK 924 INTRA-LIGAND FREE ENERGY PREDICTED BY IDOCK:   -0.43 KCAL/MOL
REMARK 927      BINDING AFFINITY PREDICTED BY RF-SCORE:    0.00 PKD
ROOT
HETATM    1  O5* UNL     1      -8.599   5.794  67.407  1.00  0.00    -0.108 OA 
HETATM    2  H5* UNL     1      -8.087   5.865  66.610  1.00  0.00     0.000 HD 
HETATM    3  C5* UNL     1      -8.465   6.964  68.215  1.00  0.00    -0.125 C  
ENDROOT
BRANCH   3   4
HETATM    4  C4* UNL     1      -9.286   6.849  69.498  1.00  0.00    -0.147 C  
HETATM    5  O4* UNL     1      -9.643   8.154  69.990  1.00  0.00    -0.170 OA 
HETATM    6  C1* UNL     1     -10.775   7.938  70.842  1.00  0.00    -0.221 C  
HETATM    7  C2* UNL     1     -11.602   6.841  70.181  1.00  0.00    -0.397 C  
HETATM    8  H3* UNL     1     -11.273   4.271  69.650  1.00  0.00     0.000 HD 
HETATM    9  O3* UNL     1     -10.455   4.742  69.760  1.00  0.00    -0.164 OA 
HETATM   10  C3* UNL     1     -10.601   6.091  69.321  1.00  0.00    -0.299 C  
BRANCH   6  11
HETATM   11  N   UNL     1     -11.511   9.176  71.063  1.00  0.00    -0.286 N  
HETATM   12  C   UNL     1     -11.365  10.265  70.218  1.00  0.00    -0.323 C  
HETATM   13  C   UNL     1     -12.930  11.506  71.581  1.00  0.00    -0.394 C  
HETATM   14  C   UNL     1     -12.002  11.431  70.411  1.00  0.00    -0.465 C  
HETATM   15  O   UNL     1     -12.624   8.229  72.854  1.00  0.00    -0.166 OA 
HETATM   16  N   UNL     1     -13.072  10.366  72.318  1.00  0.00    -0.529 N  
HETATM   17  H   UNL     1     -13.738  10.395  73.089  1.00  0.00     0.000 HD 
HETATM   18  O   UNL     1     -13.538  12.533  71.872  1.00  0.00    -0.368 OA 
HETATM   19  C   UNL     1     -12.407   9.191  72.120  1.00  0.00    -0.354 C  
BRANCH  14  20
HETATM   20  C   UNL     1     -11.904  12.588  69.534  1.00  0.00    -0.375 C  
HETATM   21  C   UNL     1     -11.564  12.574  68.240  1.00  0.00    -0.328 C  
HETATM   22 BR   UNL     1     -11.424  14.109  67.202  1.00  0.00    -0.396 Br 
ENDBRANCH  14  20
ENDBRANCH   6  11
ENDBRANCH   3   4
TORSDOF 3
ENDMDL
MODEL       67
REMARK 921   NORMALIZED FREE ENERGY PREDICTED BY IDOCK:   -4.61 KCAL/MOL
REMARK 922        TOTAL FREE ENERGY PREDICTED BY IDOCK:   -6.03 KCAL/MOL
REMARK 923 INTER-LIGAND FREE ENERGY PREDICTED BY IDOCK:   -5.58 KCAL/MOL
REMARK 924 INTRA-LIGAND FREE ENERGY PREDICTED BY IDOCK:   -0.44 KCAL/MOL
REMARK 927      BINDING AFFINITY PREDICTED BY RF-SCORE:    0.00 PKD
ROOT
HETATM    1  O5* UNL     1     -12.503  10.634  70.453  1.00  0.00    -0.317 OA 
HETATM    2  H5* UNL     1     -12.698  10.591  71.382  1.00  0.00     0.000 HD 
HETATM    3  C5* UNL     1     -12.070  11.940  70.073  1.00  0.00    -0.291 C  
ENDROOT
BRANCH   3   4
HETATM    4  C4* UNL     1     -11.758  12.010  68.580  1.00  0.00    -0.332 C  
HETATM    5  O4* UNL     1     -11.920  13.353  68.090  1.00  0.00    -0.349 OA 
HETATM    6  C1* UNL     1     -11.149  13.408  66.882  1.00  0.00    -0.292 C  
HETATM    7  C2* UNL     1      -9.907  12.559  67.132  1.00  0.00    -0.210 C  
HETATM    8  H3* UNL     1      -9.409   9.997  67.557  1.00  0.00     0.000 HD 
HETATM    9  O3* UNL     1     -10.298  10.251  67.774  1.00  0.00    -0.179 OA 
HETATM   10  C3* UNL     1     -10.329  11.601  68.230  1.00  0.00    -0.200 C  
BRANCH   6  11
HETATM   11  N   UNL     1     -10.854  14.785  66.508  1.00  0.00    -0.313 N  
HETATM   12  C   UNL     1     -10.150  15.629  67.353  1.00  0.00    -0.251 C  
HETATM   13  C   UNL     1     -10.367  17.404  65.726  1.00  0.00    -0.216 C  
HETATM   14  C   UNL     1      -9.890  16.912  67.055  1.00  0.00    -0.270 C  
HETATM   15  O   UNL     1     -11.822  14.460  64.435  1.00  0.00    -0.425 OA 
HETATM   16  N   UNL     1     -10.985  16.489  64.926  1.00  0.00    -0.317 N  
HETATM   17  H   UNL     1     -11.272  16.805  63.999  1.00  0.00     0.000 HD 
HETATM   18  O   UNL     1     -10.213  18.568  65.364  1.00  0.00    -0.396 OA 
HETATM   19  C   UNL     1     -11.257  15.191  65.247  1.00  0.00    -0.358 C  
BRANCH  14  20
HETATM   20  C   UNL     1      -9.128  17.823  67.895  1.00  0.00    -0.259 C  
HETATM   21  C   UNL     1      -7.821  18.092  67.791  1.00  0.00    -0.223 C  
HETATM   22 BR   UNL     1      -6.918  19.242  68.937  1.00  0.00    -0.383 Br 
ENDBRANCH  14  20
ENDBRANCH   6  11
ENDBRANCH   3   4
TORSDOF 3
ENDMDL
MODEL       68
REMARK 921   NORMALIZED FREE ENERGY PREDICTED BY IDOCK:   -4.61 KCAL/MOL
REMARK 922        TOTAL FREE ENERGY PREDICTED BY IDOCK:   -6.03 KCAL/MOL
REMARK 923 INTER-LIGAND FREE ENERGY PREDICTED BY IDOCK:   -6.23 KCAL/MOL
REMARK 924 INTRA-LIGAND FREE ENERGY PREDICTED BY IDOCK:    0.20 KCAL/MOL
REMARK 927      BINDING AFFINITY PREDICTED BY RF-SCORE:    0.00 PKD
ROOT
HETATM    1  O5* UNL     1     -12.622  13.456  63.445  1.00  0.00    -0.738 OA 
HETATM    2  H5* UNL     1     -12.787  13.834  62.589  1.00  0.00     0.000 HD 
HETATM    3  C5* UNL     1     -12.394  14.471  64.424  1.00  0.00    -0.413 C  
ENDROOT
BRANCH   3   4
HETATM    4  C4* UNL     1     -12.129  13.864  65.801  1.00  0.00    -0.425 C  
HETATM    5  O4* UNL     1     -12.051  12.429  65.716  1.00  0.00    -0.561 OA 
HETATM    6  C1* UNL     1     -11.327  12.022  66.885  1.00  0.00    -0.341 C  
HETATM    7  C2* UNL     1     -10.260  13.087  67.116  1.00  0.00    -0.243 C  
HETATM    8  H3* UNL     1     -10.241  15.650  67.766  1.00  0.00     0.000 HD 
HETATM    9  O3* UNL     1     -11.058  15.366  67.373  1.00  0.00    -0.321 OA 
HETATM   10  C3* UNL     1     -10.816  14.322  66.432  1.00  0.00    -0.307 C  
BRANCH   6  11
HETATM   11  N   UNL     1     -10.791  10.676  66.730  1.00  0.00    -0.211 N  
HETATM   12  C   UNL     1     -10.906   9.731  67.738  1.00  0.00    -0.246 C  
HETATM   13  C   UNL     1      -9.708   8.147  66.361  1.00  0.00    -0.205 C  
HETATM   14  C   UNL     1     -10.395   8.494  67.643  1.00  0.00    -0.317 C  
HETATM   15  O   UNL     1     -10.150  11.150  64.561  1.00  0.00    -0.259 OA 
HETATM   16  N   UNL     1      -9.703   9.109  65.394  1.00  0.00    -0.457 N  
HETATM   17  H   UNL     1      -9.278   8.864  64.500  1.00  0.00     0.000 HD 
HETATM   18  O   UNL     1      -9.175   7.055  66.177  1.00  0.00    -0.152 OA 
HETATM   19  C   UNL     1     -10.214  10.369  65.509  1.00  0.00    -0.246 C  
BRANCH  14  20
HETATM   20  C   UNL     1     -10.521   7.461  68.659  1.00  0.00    -0.211 C  
HETATM   21  C   UNL     1     -10.729   7.657  69.966  1.00  0.00    -0.241 C  
HETATM   22 BR   UNL     1     -10.836   6.276  71.205  1.00  0.00    -0.335 Br 
ENDBRANCH  14  20
ENDBRANCH   6  11
ENDBRANCH   3   4
TORSDOF 3
ENDMDL
MODEL       69
REMARK 921   NORMALIZED FREE ENERGY PREDICTED BY IDOCK:   -4.60 KCAL/MOL
REMARK 922        TOTAL FREE ENERGY PREDICTED BY IDOCK:   -6.02 KCAL/MOL
REMARK 923 INTER-LIGAND FREE ENERGY PREDICTED BY IDOCK:   -6.18 KCAL/MOL
REMARK 924 INTRA-LIGAND FREE ENERGY PREDICTED BY IDOCK:    0.16 KCAL/MOL
REMARK 927      BINDING AFFINITY PREDICTED BY RF-SCORE:    0.00 PKD
ROOT
HETATM    1  O5* UNL     1     -11.673   6.963  70.579  1.00  0.00    -0.341 OA 
HETATM    2  H5* UNL     1     -11.300   6.119  70.354  1.00  0.00     0.000 HD 
HETATM    3  C5* UNL     1     -10.664   7.878  71.010  1.00  0.00    -0.220 C  
ENDROOT
BRANCH   3   4
HETATM    4  C4* UNL     1     -11.263   9.235  71.372  1.00  0.00    -0.362 C  
HETATM    5  O4* UNL     1     -10.846  10.241  70.431  1.00  0.00    -0.294 OA 
HETATM    6  C1* UNL     1     -11.816  11.290  70.548  1.00  0.00    -0.324 C  
HETATM    7  C2* UNL     1     -13.159  10.604  70.773  1.00  0.00    -0.299 C  
HETATM    8  H3* UNL     1     -14.245   9.131  72.683  1.00  0.00     0.000 HD 
HETATM    9  O3* UNL     1     -13.295   9.118  72.689  1.00  0.00    -0.454 OA 
HETATM   10  C3* UNL     1     -12.791   9.255  71.362  1.00  0.00    -0.328 C  
BRANCH   6  11
HETATM   11  N   UNL     1     -11.791  12.163  69.381  1.00  0.00    -0.313 N  
HETATM   12  C   UNL     1     -11.665  13.537  69.508  1.00  0.00    -0.322 C  
HETATM   13  C   UNL     1     -11.786  13.750  67.103  1.00  0.00    -0.385 C  
HETATM   14  C   UNL     1     -11.672  14.373  68.458  1.00  0.00    -0.370 C  
HETATM   15  O   UNL     1     -11.879  10.332  67.973  1.00  0.00    -0.214 OA 
HETATM   16  N   UNL     1     -11.830  12.387  67.063  1.00  0.00    -0.353 N  
HETATM   17  H   UNL     1     -11.861  11.953  66.140  1.00  0.00     0.000 HD 
HETATM   18  O   UNL     1     -11.835  14.421  66.075  1.00  0.00    -0.373 OA 
HETATM   19  C   UNL     1     -11.838  11.549  68.140  1.00  0.00    -0.236 C  
BRANCH  14  20
HETATM   20  C   UNL     1     -11.510  15.816  68.542  1.00  0.00    -0.381 C  
HETATM   21  C   UNL     1     -10.353  16.488  68.510  1.00  0.00    -0.289 C  
HETATM   22 BR   UNL     1     -10.236  18.335  68.665  1.00  0.00    -0.318 Br 
ENDBRANCH  14  20
ENDBRANCH   6  11
ENDBRANCH   3   4
TORSDOF 3
ENDMDL
MODEL       70
REMARK 921   NORMALIZED FREE ENERGY PREDICTED BY IDOCK:   -4.60 KCAL/MOL
REMARK 922        TOTAL FREE ENERGY PREDICTED BY IDOCK:   -6.02 KCAL/MOL
REMARK 923 INTER-LIGAND FREE ENERGY PREDICTED BY IDOCK:   -6.21 KCAL/MOL
REMARK 924 INTRA-LIGAND FREE ENERGY PREDICTED BY IDOCK:    0.19 KCAL/MOL
REMARK 927      BINDING AFFINITY PREDICTED BY RF-SCORE:    0.00 PKD
ROOT
HETATM    1  O5* UNL     1     -12.612  13.659  63.099  1.00  0.00    -0.969 OA 
HETATM    2  H5* UNL     1     -13.369  13.626  62.525  1.00  0.00     0.000 HD 
HETATM    3  C5* UNL     1     -12.027  12.366  63.259  1.00  0.00    -0.416 C  
ENDROOT
BRANCH   3   4
HETATM    4  C4* UNL     1     -10.811  12.418  64.183  1.00  0.00    -0.372 C  
HETATM    5  O4* UNL     1     -10.641  13.742  64.722  1.00  0.00    -0.386 OA 
HETATM    6  C1* UNL     1      -9.844  13.568  65.901  1.00  0.00    -0.241 C  
HETATM    7  C2* UNL     1     -10.308  12.262  66.538  1.00  0.00    -0.250 C  
HETATM    8  H3* UNL     1     -10.242   9.700  65.886  1.00  0.00     0.000 HD 
HETATM    9  O3* UNL     1     -10.180  10.282  65.138  1.00  0.00    -0.314 OA 
HETATM   10  C3* UNL     1     -10.911  11.481  65.385  1.00  0.00    -0.259 C  
BRANCH   6  11
HETATM   11  N   UNL     1      -9.950  14.722  66.784  1.00  0.00    -0.246 N  
HETATM   12  C   UNL     1      -8.849  15.511  67.078  1.00  0.00    -0.230 C  
HETATM   13  C   UNL     1     -10.239  16.883  68.503  1.00  0.00    -0.310 C  
HETATM   14  C   UNL     1      -8.904  16.561  67.913  1.00  0.00    -0.193 C  
HETATM   15  O   UNL     1     -12.231  14.401  66.978  1.00  0.00    -0.400 OA 
HETATM   16  N   UNL     1     -11.284  16.102  68.104  1.00  0.00    -0.339 N  
HETATM   17  H   UNL     1     -12.207  16.344  68.466  1.00  0.00     0.000 HD 
HETATM   18  O   UNL     1     -10.399  17.801  69.305  1.00  0.00    -0.318 OA 
HETATM   19  C   UNL     1     -11.212  15.027  67.265  1.00  0.00    -0.338 C  
BRANCH  14  20
HETATM   20  C   UNL     1      -7.784  17.435  68.225  1.00  0.00    -0.241 C  
HETATM   21  C   UNL     1      -6.987  18.049  67.342  1.00  0.00    -0.191 C  
HETATM   22 BR   UNL     1      -5.549  19.119  67.830  1.00  0.00    -0.196 Br 
ENDBRANCH  14  20
ENDBRANCH   6  11
ENDBRANCH   3   4
TORSDOF 3
ENDMDL
MODEL       71
REMARK 921   NORMALIZED FREE ENERGY PREDICTED BY IDOCK:   -4.59 KCAL/MOL
REMARK 922        TOTAL FREE ENERGY PREDICTED BY IDOCK:   -6.01 KCAL/MOL
REMARK 923 INTER-LIGAND FREE ENERGY PREDICTED BY IDOCK:   -5.44 KCAL/MOL
REMARK 924 INTRA-LIGAND FREE ENERGY PREDICTED BY IDOCK:   -0.57 KCAL/MOL
REMARK 927      BINDING AFFINITY PREDICTED BY RF-SCORE:    0.00 PKD
ROOT
HETATM    1  O5* UNL     1      -7.417   7.827  68.443  1.00  0.00    -0.098 OA 
HETATM    2  H5* UNL     1      -7.379   7.413  69.298  1.00  0.00     0.000 HD 
HETATM    3  C5* UNL     1      -8.684   7.614  67.820  1.00  0.00    -0.127 C  
ENDROOT
BRANCH   3   4
HETATM    4  C4* UNL     1      -8.746   8.279  66.446  1.00  0.00    -0.142 C  
HETATM    5  O4* UNL     1      -9.941   9.070  66.319  1.00  0.00    -0.280 OA 
HETATM    6  C1* UNL     1      -9.663  10.005  65.269  1.00  0.00    -0.306 C  
HETATM    7  C2* UNL     1      -8.198  10.396  65.425  1.00  0.00    -0.159 C  
HETATM    8  H3* UNL     1      -5.868   9.165  65.201  1.00  0.00     0.000 HD 
HETATM    9  O3* UNL     1      -6.592   8.575  65.374  1.00  0.00    -0.058 OA 
HETATM   10  C3* UNL     1      -7.580   9.227  66.169  1.00  0.00    -0.096 C  
BRANCH   6  11
HETATM   11  N   UNL     1     -10.581  11.137  65.315  1.00  0.00    -0.263 N  
HETATM   12  C   UNL     1     -10.908  11.755  66.512  1.00  0.00    -0.282 C  
HETATM   13  C   UNL     1     -12.365  13.264  65.310  1.00  0.00    -0.476 C  
HETATM   14  C   UNL     1     -11.774  12.777  66.594  1.00  0.00    -0.459 C  
HETATM   15  O   UNL     1     -10.748  11.132  63.009  1.00  0.00    -0.167 OA 
HETATM   16  N   UNL     1     -11.933  12.649  64.171  1.00  0.00    -0.392 N  
HETATM   17  H   UNL     1     -12.296  13.007  63.287  1.00  0.00     0.000 HD 
HETATM   18  O   UNL     1     -13.193  14.171  65.271  1.00  0.00    -0.760 OA 
HETATM   19  C   UNL     1     -11.062  11.601  64.102  1.00  0.00    -0.364 C  
BRANCH  14  20
HETATM   20  C   UNL     1     -12.121  13.476  67.822  1.00  0.00    -0.316 C  
HETATM   21  C   UNL     1     -11.558  14.600  68.281  1.00  0.00    -0.326 C  
HETATM   22 BR   UNL     1     -12.037  15.405  69.885  1.00  0.00    -0.372 Br 
ENDBRANCH  14  20
ENDBRANCH   6  11
ENDBRANCH   3   4
TORSDOF 3
ENDMDL
MODEL       72
REMARK 921   NORMALIZED FREE ENERGY PREDICTED BY IDOCK:   -4.56 KCAL/MOL
REMARK 922        TOTAL FREE ENERGY PREDICTED BY IDOCK:   -5.97 KCAL/MOL
REMARK 923 INTER-LIGAND FREE ENERGY PREDICTED BY IDOCK:   -5.54 KCAL/MOL
REMARK 924 INTRA-LIGAND FREE ENERGY PREDICTED BY IDOCK:   -0.43 KCAL/MOL
REMARK 927      BINDING AFFINITY PREDICTED BY RF-SCORE:    0.00 PKD
ROOT
HETATM    1  O5* UNL     1     -13.389  11.977  71.785  1.00  0.00    -0.406 OA 
HETATM    2  H5* UNL     1     -13.839  12.389  72.513  1.00  0.00     0.000 HD 
HETATM    3  C5* UNL     1     -13.094  10.608  72.065  1.00  0.00    -0.396 C  
ENDROOT
BRANCH   3   4
HETATM    4  C4* UNL     1     -12.370   9.945  70.895  1.00  0.00    -0.310 C  
HETATM    5  O4* UNL     1     -12.474  10.755  69.710  1.00  0.00    -0.309 OA 
HETATM    6  C1* UNL     1     -11.394  10.331  68.869  1.00  0.00    -0.173 C  
HETATM    7  C2* UNL     1     -10.221  10.038  69.799  1.00  0.00    -0.286 C  
HETATM    8  H3* UNL     1      -9.693   8.266  71.690  1.00  0.00     0.000 HD 
HETATM    9  O3* UNL     1     -10.622   8.395  71.542  1.00  0.00    -0.214 OA 
HETATM   10  C3* UNL     1     -10.875   9.737  71.135  1.00  0.00    -0.263 C  
BRANCH   6  11
HETATM   11  N   UNL     1     -11.098  11.329  67.849  1.00  0.00    -0.245 N  
HETATM   12  C   UNL     1     -11.297  12.682  68.081  1.00  0.00    -0.290 C  
HETATM   13  C   UNL     1     -10.540  13.157  65.835  1.00  0.00    -0.280 C  
HETATM   14  C   UNL     1     -11.068  13.624  67.153  1.00  0.00    -0.311 C  
HETATM   15  O   UNL     1     -10.295   9.688  66.434  1.00  0.00    -0.237 OA 
HETATM   16  N   UNL     1     -10.303  11.819  65.715  1.00  0.00    -0.244 N  
HETATM   17  H   UNL     1      -9.898  11.498  64.835  1.00  0.00     0.000 HD 
HETATM   18  O   UNL     1     -10.325  13.928  64.903  1.00  0.00    -0.397 OA 
HETATM   19  C   UNL     1     -10.554  10.868  66.662  1.00  0.00    -0.249 C  
BRANCH  14  20
HETATM   20  C   UNL     1     -11.231  15.054  67.363  1.00  0.00    -0.337 C  
HETATM   21  C   UNL     1     -10.340  15.880  67.924  1.00  0.00    -0.269 C  
HETATM   22 BR   UNL     1     -10.649  17.693  68.190  1.00  0.00    -0.318 Br 
ENDBRANCH  14  20
ENDBRANCH   6  11
ENDBRANCH   3   4
TORSDOF 3
ENDMDL
MODEL       73
REMARK 921   NORMALIZED FREE ENERGY PREDICTED BY IDOCK:   -4.54 KCAL/MOL
REMARK 922        TOTAL FREE ENERGY PREDICTED BY IDOCK:   -5.94 KCAL/MOL
REMARK 923 INTER-LIGAND FREE ENERGY PREDICTED BY IDOCK:   -5.45 KCAL/MOL
REMARK 924 INTRA-LIGAND FREE ENERGY PREDICTED BY IDOCK:   -0.49 KCAL/MOL
REMARK 927      BINDING AFFINITY PREDICTED BY RF-SCORE:    0.00 PKD
ROOT
HETATM    1  O5* UNL     1     -13.291   8.606  71.318  1.00  0.00    -0.498 OA 
HETATM    2  H5* UNL     1     -14.168   8.455  71.652  1.00  0.00     0.000 HD 
HETATM    3  C5* UNL     1     -12.469   7.450  71.478  1.00  0.00    -0.361 C  
ENDROOT
BRANCH   3   4
HETATM    4  C4* UNL     1     -11.060   7.693  70.941  1.00  0.00    -0.263 C  
HETATM    5  O4* UNL     1     -11.078   7.824  69.508  1.00  0.00    -0.142 OA 
HETATM    6  C1* UNL     1      -9.871   8.523  69.179  1.00  0.00    -0.186 C  
HETATM    7  C2* UNL     1      -9.656   9.545  70.290  1.00  0.00    -0.314 C  
HETATM    8  H3* UNL     1      -9.120   9.454  72.879  1.00  0.00     0.000 HD 
HETATM    9  O3* UNL     1      -9.524   8.661  72.548  1.00  0.00    -0.276 OA 
HETATM   10  C3* UNL     1     -10.410   8.969  71.474  1.00  0.00    -0.342 C  
BRANCH   6  11
HETATM   11  N   UNL     1      -9.949   9.111  67.848  1.00  0.00    -0.176 N  
HETATM   12  C   UNL     1     -10.442  10.392  67.651  1.00  0.00    -0.233 C  
HETATM   13  C   UNL     1     -10.094  10.137  65.272  1.00  0.00    -0.274 C  
HETATM   14  C   UNL     1     -10.559  10.952  66.436  1.00  0.00    -0.289 C  
HETATM   15  O   UNL     1      -8.945   7.242  66.931  1.00  0.00    -0.125 OA 
HETATM   16  N   UNL     1      -9.555   8.918  65.561  1.00  0.00    -0.459 N  
HETATM   17  H   UNL     1      -9.192   8.376  64.776  1.00  0.00     0.000 HD 
HETATM   18  O   UNL     1     -10.185  10.536  64.113  1.00  0.00    -0.342 OA 
HETATM   19  C   UNL     1      -9.454   8.354  66.799  1.00  0.00    -0.197 C  
BRANCH  14  20
HETATM   20  C   UNL     1     -11.038  12.302  66.185  1.00  0.00    -0.349 C  
HETATM   21  C   UNL     1     -10.294  13.414  66.151  1.00  0.00    -0.295 C  
HETATM   22 BR   UNL     1     -10.998  15.109  65.863  1.00  0.00    -0.327 Br 
ENDBRANCH  14  20
ENDBRANCH   6  11
ENDBRANCH   3   4
TORSDOF 3
ENDMDL
MODEL       74
REMARK 921   NORMALIZED FREE ENERGY PREDICTED BY IDOCK:   -4.49 KCAL/MOL
REMARK 922        TOTAL FREE ENERGY PREDICTED BY IDOCK:   -5.89 KCAL/MOL
REMARK 923 INTER-LIGAND FREE ENERGY PREDICTED BY IDOCK:   -6.21 KCAL/MOL
REMARK 924 INTRA-LIGAND FREE ENERGY PREDICTED BY IDOCK:    0.31 KCAL/MOL
REMARK 927      BINDING AFFINITY PREDICTED BY RF-SCORE:    0.00 PKD
ROOT
HETATM    1  O5* UNL     1     -11.675  16.300  63.810  1.00  0.00    -1.511 OA 
HETATM    2  H5* UNL     1     -11.423  17.111  63.385  1.00  0.00     0.000 HD 
HETATM    3  C5* UNL     1     -11.013  16.144  65.065  1.00  0.00    -0.344 C  
ENDROOT
BRANCH   3   4
HETATM    4  C4* UNL     1     -11.418  14.839  65.748  1.00  0.00    -0.322 C  
HETATM    5  O4* UNL     1     -11.128  13.712  64.901  1.00  0.00    -0.320 OA 
HETATM    6  C1* UNL     1     -11.063  12.585  65.784  1.00  0.00    -0.308 C  
HETATM    7  C2* UNL     1     -10.409  13.087  67.067  1.00  0.00    -0.247 C  
HETATM    8  H3* UNL     1     -11.049  14.792  68.985  1.00  0.00     0.000 HD 
HETATM    9  O3* UNL     1     -11.505  14.954  68.167  1.00  0.00    -0.304 OA 
HETATM   10  C3* UNL     1     -10.685  14.579  67.063  1.00  0.00    -0.291 C  
BRANCH   6  11
HETATM   11  N   UNL     1     -10.359  11.470  65.164  1.00  0.00    -0.266 N  
HETATM   12  C   UNL     1      -9.615  10.575  65.917  1.00  0.00    -0.204 C  
HETATM   13  C   UNL     1      -9.022   9.394  63.893  1.00  0.00    -0.126 C  
HETATM   14  C   UNL     1      -8.927   9.557  65.376  1.00  0.00    -0.244 C  
HETATM   15  O   UNL     1     -11.221  12.038  63.096  1.00  0.00    -0.324 OA 
HETATM   16  N   UNL     1      -9.834  10.273  63.236  1.00  0.00    -0.483 N  
HETATM   17  H   UNL     1      -9.941  10.139  62.230  1.00  0.00     0.000 HD 
HETATM   18  O   UNL     1      -8.409   8.519  63.288  1.00  0.00    -0.172 OA 
HETATM   19  C   UNL     1     -10.517  11.313  63.797  1.00  0.00    -0.399 C  
BRANCH  14  20
HETATM   20  C   UNL     1      -8.162   8.576  66.129  1.00  0.00    -0.115 C  
HETATM   21  C   UNL     1      -8.558   7.946  67.242  1.00  0.00    -0.128 C  
HETATM   22 BR   UNL     1      -7.495   6.734  68.165  1.00  0.00    -0.101 Br 
ENDBRANCH  14  20
ENDBRANCH   6  11
ENDBRANCH   3   4
TORSDOF 3
ENDMDL
MODEL       75
REMARK 921   NORMALIZED FREE ENERGY PREDICTED BY IDOCK:   -4.49 KCAL/MOL
REMARK 922        TOTAL FREE ENERGY PREDICTED BY IDOCK:   -5.88 KCAL/MOL
REMARK 923 INTER-LIGAND FREE ENERGY PREDICTED BY IDOCK:   -6.08 KCAL/MOL
REMARK 924 INTRA-LIGAND FREE ENERGY PREDICTED BY IDOCK:    0.20 KCAL/MOL
REMARK 927      BINDING AFFINITY PREDICTED BY RF-SCORE:    0.00 PKD
ROOT
HETATM    1  O5* UNL     1      -8.591  17.948  68.229  1.00  0.00    -0.260 OA 
HETATM    2  H5* UNL     1      -7.960  18.606  68.496  1.00  0.00     0.000 HD 
HETATM    3  C5* UNL     1      -7.942  16.756  67.786  1.00  0.00    -0.178 C  
ENDROOT
BRANCH   3   4
HETATM    4  C4* UNL     1      -8.957  15.698  67.356  1.00  0.00    -0.194 C  
HETATM    5  O4* UNL     1      -9.380  14.912  68.485  1.00  0.00    -0.183 OA 
HETATM    6  C1* UNL     1     -10.634  14.338  68.095  1.00  0.00    -0.245 C  
HETATM    7  C2* UNL     1     -11.352  15.403  67.272  1.00  0.00    -0.220 C  
HETATM    8  H3* UNL     1     -10.957  16.592  64.943  1.00  0.00     0.000 HD 
HETATM    9  O3* UNL     1     -10.164  16.230  65.322  1.00  0.00    -0.548 OA 
HETATM   10  C3* UNL     1     -10.231  16.281  66.745  1.00  0.00    -0.280 C  
BRANCH   6  11
HETATM   11  N   UNL     1     -11.390  13.885  69.256  1.00  0.00    -0.263 N  
HETATM   12  C   UNL     1     -11.643  12.540  69.474  1.00  0.00    -0.281 C  
HETATM   13  C   UNL     1     -12.867  13.117  71.477  1.00  0.00    -0.307 C  
HETATM   14  C   UNL     1     -12.363  12.090  70.514  1.00  0.00    -0.369 C  
HETATM   15  O   UNL     1     -11.530  16.053  70.047  1.00  0.00    -0.323 OA 
HETATM   16  N   UNL     1     -12.510  14.410  71.229  1.00  0.00    -0.331 N  
HETATM   17  H   UNL     1     -12.810  15.110  71.907  1.00  0.00     0.000 HD 
HETATM   18  O   UNL     1     -13.564  12.822  72.446  1.00  0.00    -0.565 OA 
HETATM   19  C   UNL     1     -11.789  14.856  70.159  1.00  0.00    -0.308 C  
BRANCH  14  20
HETATM   20  C   UNL     1     -12.626  10.689  70.800  1.00  0.00    -0.479 C  
HETATM   21  C   UNL     1     -11.912   9.897  71.609  1.00  0.00    -0.346 C  
HETATM   22 BR   UNL     1     -12.297   8.101  71.886  1.00  0.00    -0.399 Br 
ENDBRANCH  14  20
ENDBRANCH   6  11
ENDBRANCH   3   4
TORSDOF 3
ENDMDL
MODEL       76
REMARK 921   NORMALIZED FREE ENERGY PREDICTED BY IDOCK:   -4.47 KCAL/MOL
REMARK 922        TOTAL FREE ENERGY PREDICTED BY IDOCK:   -5.86 KCAL/MOL
REMARK 923 INTER-LIGAND FREE ENERGY PREDICTED BY IDOCK:   -5.45 KCAL/MOL
REMARK 924 INTRA-LIGAND FREE ENERGY PREDICTED BY IDOCK:   -0.41 KCAL/MOL
REMARK 927      BINDING AFFINITY PREDICTED BY RF-SCORE:    0.00 PKD
ROOT
HETATM    1  O5* UNL     1     -10.522   5.259  69.646  1.00  0.00    -0.281 OA 
HETATM    2  H5* UNL     1     -11.168   4.623  69.929  1.00  0.00     0.000 HD 
HETATM    3  C5* UNL     1     -11.104   6.554  69.487  1.00  0.00    -0.365 C  
ENDROOT
BRANCH   3   4
HETATM    4  C4* UNL     1     -10.066   7.577  69.033  1.00  0.00    -0.192 C  
HETATM    5  O4* UNL     1     -10.644   8.506  68.098  1.00  0.00    -0.200 OA 
HETATM    6  C1* UNL     1      -9.791   9.658  68.135  1.00  0.00    -0.150 C  
HETATM    7  C2* UNL     1      -9.355   9.816  69.588  1.00  0.00    -0.237 C  
HETATM    8  H3* UNL     1      -7.879   8.433  71.291  1.00  0.00     0.000 HD 
HETATM    9  O3* UNL     1      -8.233   7.907  70.584  1.00  0.00    -0.110 OA 
HETATM   10  C3* UNL     1      -9.496   8.422  70.171  1.00  0.00    -0.164 C  
BRANCH   6  11
HETATM   11  N   UNL     1     -10.466  10.830  67.593  1.00  0.00    -0.200 N  
HETATM   12  C   UNL     1     -10.973  11.820  68.420  1.00  0.00    -0.231 C  
HETATM   13  C   UNL     1     -11.766  13.013  66.473  1.00  0.00    -0.382 C  
HETATM   14  C   UNL     1     -11.629  12.896  67.957  1.00  0.00    -0.385 C  
HETATM   15  O   UNL     1     -10.026  10.122  65.437  1.00  0.00    -0.290 OA 
HETATM   16  N   UNL     1     -11.173  12.035  65.729  1.00  0.00    -0.329 N  
HETATM   17  H   UNL     1     -11.221  12.132  64.715  1.00  0.00     0.000 HD 
HETATM   18  O   UNL     1     -12.374  13.938  65.941  1.00  0.00    -0.436 OA 
HETATM   19  C   UNL     1     -10.522  10.937  66.213  1.00  0.00    -0.245 C  
BRANCH  14  20
HETATM   20  C   UNL     1     -12.149  13.973  68.784  1.00  0.00    -0.338 C  
HETATM   21  C   UNL     1     -12.334  13.936  70.109  1.00  0.00    -0.334 C  
HETATM   22 BR   UNL     1     -13.045  15.350  71.084  1.00  0.00    -0.581 Br 
ENDBRANCH  14  20
ENDBRANCH   6  11
ENDBRANCH   3   4
TORSDOF 3
ENDMDL
MODEL       77
REMARK 921   NORMALIZED FREE ENERGY PREDICTED BY IDOCK:   -4.44 KCAL/MOL
REMARK 922        TOTAL FREE ENERGY PREDICTED BY IDOCK:   -5.83 KCAL/MOL
REMARK 923 INTER-LIGAND FREE ENERGY PREDICTED BY IDOCK:   -5.34 KCAL/MOL
REMARK 924 INTRA-LIGAND FREE ENERGY PREDICTED BY IDOCK:   -0.48 KCAL/MOL
REMARK 927      BINDING AFFINITY PREDICTED BY RF-SCORE:    0.00 PKD
ROOT
HETATM    1  O5* UNL     1     -14.312   7.367  70.994  1.00  0.00    -0.622 OA 
HETATM    2  H5* UNL     1     -15.152   6.937  70.881  1.00  0.00     0.000 HD 
HETATM    3  C5* UNL     1     -14.404   8.451  71.919  1.00  0.00    -0.473 C  
ENDROOT
BRANCH   3   4
HETATM    4  C4* UNL     1     -13.054   9.142  72.101  1.00  0.00    -0.446 C  
HETATM    5  O4* UNL     1     -11.979   8.191  71.990  1.00  0.00    -0.301 OA 
HETATM    6  C1* UNL     1     -10.819   8.971  71.673  1.00  0.00    -0.366 C  
HETATM    7  C2* UNL     1     -11.294  10.081  70.741  1.00  0.00    -0.439 C  
HETATM    8  H3* UNL     1     -12.885  12.184  70.946  1.00  0.00     0.000 HD 
HETATM    9  O3* UNL     1     -13.061  11.512  71.594  1.00  0.00    -0.452 OA 
HETATM   10  C3* UNL     1     -12.771  10.223  71.059  1.00  0.00    -0.396 C  
BRANCH   6  11
HETATM   11  N   UNL     1      -9.764   8.140  71.106  1.00  0.00    -0.159 N  
HETATM   12  C   UNL     1      -9.932   7.484  69.896  1.00  0.00    -0.189 C  
HETATM   13  C   UNL     1      -7.713   6.550  70.120  1.00  0.00    -0.102 C  
HETATM   14  C   UNL     1      -8.995   6.685  69.362  1.00  0.00    -0.133 C  
HETATM   15  O   UNL     1      -8.347   8.703  72.843  1.00  0.00    -0.400 OA 
HETATM   16  N   UNL     1      -7.603   7.287  71.263  1.00  0.00    -0.082 N  
HETATM   17  H   UNL     1      -6.714   7.237  71.761  1.00  0.00     0.000 HD 
HETATM   18  O   UNL     1      -6.801   5.819  69.741  1.00  0.00    -0.056 OA 
HETATM   19  C   UNL     1      -8.569   8.085  71.803  1.00  0.00    -0.133 C  
BRANCH  14  20
HETATM   20  C   UNL     1      -9.114   6.004  68.082  1.00  0.00    -0.118 C  
HETATM   21  C   UNL     1     -10.253   5.665  67.468  1.00  0.00    -0.202 C  
HETATM   22 BR   UNL     1     -10.312   4.757  65.848  1.00  0.00    -0.272 Br 
ENDBRANCH  14  20
ENDBRANCH   6  11
ENDBRANCH   3   4
TORSDOF 3
ENDMDL
MODEL       78
REMARK 921   NORMALIZED FREE ENERGY PREDICTED BY IDOCK:   -4.43 KCAL/MOL
REMARK 922        TOTAL FREE ENERGY PREDICTED BY IDOCK:   -5.81 KCAL/MOL
REMARK 923 INTER-LIGAND FREE ENERGY PREDICTED BY IDOCK:   -5.39 KCAL/MOL
REMARK 924 INTRA-LIGAND FREE ENERGY PREDICTED BY IDOCK:   -0.43 KCAL/MOL
REMARK 927      BINDING AFFINITY PREDICTED BY RF-SCORE:    0.00 PKD
ROOT
HETATM    1  O5* UNL     1     -11.447   4.670  65.311  1.00  0.00    -1.070 OA 
HETATM    2  H5* UNL     1     -11.157   4.001  64.702  1.00  0.00     0.000 HD 
HETATM    3  C5* UNL     1     -10.377   5.105  66.152  1.00  0.00    -0.236 C  
ENDROOT
BRANCH   3   4
HETATM    4  C4* UNL     1     -10.843   6.180  67.131  1.00  0.00    -0.360 C  
HETATM    5  O4* UNL     1     -11.159   5.599  68.410  1.00  0.00    -0.104 OA 
HETATM    6  C1* UNL     1     -11.086   6.684  69.344  1.00  0.00    -0.310 C  
HETATM    7  C2* UNL     1      -9.927   7.563  68.885  1.00  0.00    -0.168 C  
HETATM    8  H3* UNL     1      -9.412   9.087  66.786  1.00  0.00     0.000 HD 
HETATM    9  O3* UNL     1     -10.063   8.417  66.616  1.00  0.00    -0.266 OA 
HETATM   10  C3* UNL     1      -9.796   7.259  67.404  1.00  0.00    -0.159 C  
BRANCH   6  11
HETATM   11  N   UNL     1     -10.947   6.194  70.709  1.00  0.00    -0.285 N  
HETATM   12  C   UNL     1      -9.819   5.498  71.117  1.00  0.00    -0.181 C  
HETATM   13  C   UNL     1     -10.783   5.269  73.322  1.00  0.00    -0.277 C  
HETATM   14  C   UNL     1      -9.673   5.004  72.356  1.00  0.00    -0.190 C  
HETATM   15  O   UNL     1     -12.951   7.182  71.299  1.00  0.00    -0.383 OA 
HETATM   16  N   UNL     1     -11.822   6.025  72.861  1.00  0.00    -0.509 N  
HETATM   17  H   UNL     1     -12.561   6.249  73.527  1.00  0.00     0.000 HD 
HETATM   18  O   UNL     1     -10.770   4.837  74.472  1.00  0.00    -0.355 OA 
HETATM   19  C   UNL     1     -11.965   6.509  71.593  1.00  0.00    -0.335 C  
BRANCH  14  20
HETATM   20  C   UNL     1      -8.496   4.298  72.837  1.00  0.00    -0.101 C  
HETATM   21  C   UNL     1      -8.322   2.971  72.861  1.00  0.00    -0.076 C  
HETATM   22 BR   UNL     1      -6.797   2.150  73.532  1.00  0.00    -0.023 Br 
ENDBRANCH  14  20
ENDBRANCH   6  11
ENDBRANCH   3   4
TORSDOF 3
ENDMDL
MODEL       79
REMARK 921   NORMALIZED FREE ENERGY PREDICTED BY IDOCK:   -4.42 KCAL/MOL
REMARK 922        TOTAL FREE ENERGY PREDICTED BY IDOCK:   -5.81 KCAL/MOL
REMARK 923 INTER-LIGAND FREE ENERGY PREDICTED BY IDOCK:   -5.41 KCAL/MOL
REMARK 924 INTRA-LIGAND FREE ENERGY PREDICTED BY IDOCK:   -0.40 KCAL/MOL
REMARK 927      BINDING AFFINITY PREDICTED BY RF-SCORE:    0.00 PKD
ROOT
HETATM    1  O5* UNL     1      -7.177  19.460  67.794  1.00  0.00    -0.242 OA 
HETATM    2  H5* UNL     1      -6.279  19.676  68.015  1.00  0.00     0.000 HD 
HETATM    3  C5* UNL     1      -7.236  18.518  66.723  1.00  0.00    -0.211 C  
ENDROOT
BRANCH   3   4
HETATM    4  C4* UNL     1      -8.680  18.171  66.367  1.00  0.00    -0.231 C  
HETATM    5  O4* UNL     1      -8.771  16.822  65.875  1.00  0.00    -0.504 OA 
HETATM    6  C1* UNL     1     -10.143  16.448  66.055  1.00  0.00    -0.353 C  
HETATM    7  C2* UNL     1     -10.588  17.084  67.368  1.00  0.00    -0.289 C  
HETATM    8  H3* UNL     1     -10.946  19.547  68.262  1.00  0.00     0.000 HD 
HETATM    9  O3* UNL     1     -10.347  19.495  67.526  1.00  0.00    -0.387 OA 
HETATM   10  C3* UNL     1      -9.642  18.256  67.550  1.00  0.00    -0.280 C  
BRANCH   6  11
HETATM   11  N   UNL     1     -10.303  15.000  66.019  1.00  0.00    -0.294 N  
HETATM   12  C   UNL     1      -9.568  14.170  66.851  1.00  0.00    -0.270 C  
HETATM   13  C   UNL     1     -10.650  12.250  65.858  1.00  0.00    -0.256 C  
HETATM   14  C   UNL     1      -9.666  12.832  66.822  1.00  0.00    -0.243 C  
HETATM   15  O   UNL     1     -11.991  15.196  64.452  1.00  0.00    -0.430 OA 
HETATM   16  N   UNL     1     -11.385  13.139  65.130  1.00  0.00    -0.292 N  
HETATM   17  H   UNL     1     -12.092  12.751  64.505  1.00  0.00     0.000 HD 
HETATM   18  O   UNL     1     -10.799  11.038  65.723  1.00  0.00    -0.201 OA 
HETATM   19  C   UNL     1     -11.266  14.498  65.159  1.00  0.00    -0.367 C  
BRANCH  14  20
HETATM   20  C   UNL     1      -8.940  11.925  67.697  1.00  0.00    -0.169 C  
HETATM   21  C   UNL     1      -9.478  11.041  68.546  1.00  0.00    -0.188 C  
HETATM   22 BR   UNL     1      -8.471   9.948  69.660  1.00  0.00    -0.203 Br 
ENDBRANCH  14  20
ENDBRANCH   6  11
ENDBRANCH   3   4
TORSDOF 3
ENDMDL
MODEL       80
REMARK 921   NORMALIZED FREE ENERGY PREDICTED BY IDOCK:   -4.40 KCAL/MOL
REMARK 922        TOTAL FREE ENERGY PREDICTED BY IDOCK:   -5.78 KCAL/MOL
REMARK 923 INTER-LIGAND FREE ENERGY PREDICTED BY IDOCK:   -5.27 KCAL/MOL
REMARK 924 INTRA-LIGAND FREE ENERGY PREDICTED BY IDOCK:   -0.51 KCAL/MOL
REMARK 927      BINDING AFFINITY PREDICTED BY RF-SCORE:    0.00 PKD
ROOT
HETATM    1  O5* UNL     1     -12.843  11.847  62.997  1.00  0.00    -0.798 OA 
HETATM    2  H5* UNL     1     -12.795  11.029  62.516  1.00  0.00     0.000 HD 
HETATM    3  C5* UNL     1     -12.244  11.724  64.288  1.00  0.00    -0.128 C  
ENDROOT
BRANCH   3   4
HETATM    4  C4* UNL     1     -12.320  13.039  65.062  1.00  0.00    -0.473 C  
HETATM    5  O4* UNL     1     -11.524  12.969  66.259  1.00  0.00    -0.308 OA 
HETATM    6  C1* UNL     1     -11.261  14.332  66.616  1.00  0.00    -0.334 C  
HETATM    7  C2* UNL     1     -11.061  15.084  65.304  1.00  0.00    -0.391 C  
HETATM    8  H3* UNL     1     -12.571  15.720  63.227  1.00  0.00     0.000 HD 
HETATM    9  O3* UNL     1     -12.892  14.970  63.714  1.00  0.00    -0.651 OA 
HETATM   10  C3* UNL     1     -11.803  14.245  64.280  1.00  0.00    -0.379 C  
BRANCH   6  11
HETATM   11  N   UNL     1     -10.128  14.429  67.527  1.00  0.00    -0.231 N  
HETATM   12  C   UNL     1      -9.112  13.486  67.521  1.00  0.00    -0.214 C  
HETATM   13  C   UNL     1      -8.025  14.676  69.323  1.00  0.00    -0.055 C  
HETATM   14  C   UNL     1      -8.072  13.526  68.369  1.00  0.00    -0.145 C  
HETATM   15  O   UNL     1     -10.924  16.437  68.350  1.00  0.00    -0.326 OA 
HETATM   16  N   UNL     1      -9.024  15.598  69.212  1.00  0.00    -0.256 N  
HETATM   17  H   UNL     1      -8.974  16.410  69.828  1.00  0.00     0.000 HD 
HETATM   18  O   UNL     1      -7.137  14.795  70.164  1.00  0.00    -0.126 OA 
HETATM   19  C   UNL     1     -10.085  15.538  68.355  1.00  0.00    -0.214 C  
BRANCH  14  20
HETATM   20  C   UNL     1      -6.969  12.578  68.377  1.00  0.00    -0.096 C  
HETATM   21  C   UNL     1      -6.900  11.448  69.090  1.00  0.00    -0.111 C  
HETATM   22 BR   UNL     1      -5.430  10.312  69.070  1.00  0.00    -0.037 Br 
ENDBRANCH  14  20
ENDBRANCH   6  11
ENDBRANCH   3   4
TORSDOF 3
ENDMDL
MODEL       81
REMARK 921   NORMALIZED FREE ENERGY PREDICTED BY IDOCK:   -4.40 KCAL/MOL
REMARK 922        TOTAL FREE ENERGY PREDICTED BY IDOCK:   -5.78 KCAL/MOL
REMARK 923 INTER-LIGAND FREE ENERGY PREDICTED BY IDOCK:   -5.33 KCAL/MOL
REMARK 924 INTRA-LIGAND FREE ENERGY PREDICTED BY IDOCK:   -0.45 KCAL/MOL
REMARK 927      BINDING AFFINITY PREDICTED BY RF-SCORE:    0.00 PKD
ROOT
HETATM    1  O5* UNL     1      -8.438   7.380  64.040  1.00  0.00    -0.364 OA 
HETATM    2  H5* UNL     1      -8.245   6.491  63.766  1.00  0.00     0.000 HD 
HETATM    3  C5* UNL     1      -8.462   7.491  65.464  1.00  0.00    -0.119 C  
ENDROOT
BRANCH   3   4
HETATM    4  C4* UNL     1      -8.773   8.920  65.905  1.00  0.00    -0.170 C  
HETATM    5  O4* UNL     1      -9.902   8.940  66.797  1.00  0.00    -0.196 OA 
HETATM    6  C1* UNL     1      -9.791  10.176  67.515  1.00  0.00    -0.177 C  
HETATM    7  C2* UNL     1      -8.301  10.396  67.755  1.00  0.00    -0.114 C  
HETATM    8  H3* UNL     1      -6.181  10.865  66.245  1.00  0.00     0.000 HD 
HETATM    9  O3* UNL     1      -6.893  10.444  65.777  1.00  0.00    -0.121 OA 
HETATM   10  C3* UNL     1      -7.628   9.595  66.656  1.00  0.00    -0.098 C  
BRANCH   6  11
HETATM   11  N   UNL     1     -10.585  10.148  68.737  1.00  0.00    -0.203 N  
HETATM   12  C   UNL     1     -10.176   9.429  69.849  1.00  0.00    -0.222 C  
HETATM   13  C   UNL     1     -12.179  10.125  71.011  1.00  0.00    -0.374 C  
HETATM   14  C   UNL     1     -10.898   9.354  70.978  1.00  0.00    -0.406 C  
HETATM   15  O   UNL     1     -12.102  11.631  67.820  1.00  0.00    -0.613 OA 
HETATM   16  N   UNL     1     -12.470  10.865  69.902  1.00  0.00    -0.377 N  
HETATM   17  H   UNL     1     -13.318  11.431  69.934  1.00  0.00     0.000 HD 
HETATM   18  O   UNL     1     -12.934  10.102  71.979  1.00  0.00    -0.424 OA 
HETATM   19  C   UNL     1     -11.734  10.921  68.754  1.00  0.00    -0.286 C  
BRANCH  14  20
HETATM   20  C   UNL     1     -10.494   8.639  72.179  1.00  0.00    -0.411 C  
HETATM   21  C   UNL     1     -10.811   7.378  72.496  1.00  0.00    -0.283 C  
HETATM   22 BR   UNL     1     -10.283   6.555  74.076  1.00  0.00    -0.377 Br 
ENDBRANCH  14  20
ENDBRANCH   6  11
ENDBRANCH   3   4
TORSDOF 3
ENDMDL
MODEL       82
REMARK 921   NORMALIZED FREE ENERGY PREDICTED BY IDOCK:   -4.39 KCAL/MOL
REMARK 922        TOTAL FREE ENERGY PREDICTED BY IDOCK:   -5.77 KCAL/MOL
REMARK 923 INTER-LIGAND FREE ENERGY PREDICTED BY IDOCK:   -5.95 KCAL/MOL
REMARK 924 INTRA-LIGAND FREE ENERGY PREDICTED BY IDOCK:    0.18 KCAL/MOL
REMARK 927      BINDING AFFINITY PREDICTED BY RF-SCORE:    0.00 PKD
ROOT
HETATM    1  O5* UNL     1      -9.557  13.095  66.114  1.00  0.00    -0.341 OA 
HETATM    2  H5* UNL     1      -8.785  12.968  65.576  1.00  0.00     0.000 HD 
HETATM    3  C5* UNL     1      -9.402  14.214  66.988  1.00  0.00    -0.246 C  
ENDROOT
BRANCH   3   4
HETATM    4  C4* UNL     1     -10.644  14.418  67.854  1.00  0.00    -0.240 C  
HETATM    5  O4* UNL     1     -11.160  13.153  68.307  1.00  0.00    -0.242 OA 
HETATM    6  C1* UNL     1     -11.955  13.462  69.459  1.00  0.00    -0.319 C  
HETATM    7  C2* UNL     1     -11.224  14.582  70.192  1.00  0.00    -0.196 C  
HETATM    8  H3* UNL     1     -10.629  17.110  69.690  1.00  0.00     0.000 HD 
HETATM    9  O3* UNL     1     -10.789  16.596  68.907  1.00  0.00    -0.311 OA 
HETATM   10  C3* UNL     1     -10.386  15.244  69.113  1.00  0.00    -0.248 C  
BRANCH   6  11
HETATM   11  N   UNL     1     -12.181  12.276  70.276  1.00  0.00    -0.301 N  
HETATM   12  C   UNL     1     -11.525  11.083  70.016  1.00  0.00    -0.314 C  
HETATM   13  C   UNL     1     -12.701  10.059  71.864  1.00  0.00    -0.398 C  
HETATM   14  C   UNL     1     -11.735   9.963  70.726  1.00  0.00    -0.424 C  
HETATM   15  O   UNL     1     -13.587  13.469  71.670  1.00  0.00    -0.340 OA 
HETATM   16  N   UNL     1     -13.246  11.288  72.096  1.00  0.00    -0.559 N  
HETATM   17  H   UNL     1     -13.870  11.372  72.899  1.00  0.00     0.000 HD 
HETATM   18  O   UNL     1     -12.994   9.089  72.559  1.00  0.00    -0.418 OA 
HETATM   19  C   UNL     1     -13.036  12.416  71.357  1.00  0.00    -0.250 C  
BRANCH  14  20
HETATM   20  C   UNL     1     -11.046   8.701  70.511  1.00  0.00    -0.268 C  
HETATM   21  C   UNL     1     -11.619   7.500  70.365  1.00  0.00    -0.149 C  
HETATM   22 BR   UNL     1     -10.658   5.927  70.134  1.00  0.00    -0.388 Br 
ENDBRANCH  14  20
ENDBRANCH   6  11
ENDBRANCH   3   4
TORSDOF 3
ENDMDL
MODEL       83
REMARK 921   NORMALIZED FREE ENERGY PREDICTED BY IDOCK:   -4.37 KCAL/MOL
REMARK 922        TOTAL FREE ENERGY PREDICTED BY IDOCK:   -5.75 KCAL/MOL
REMARK 923 INTER-LIGAND FREE ENERGY PREDICTED BY IDOCK:   -5.31 KCAL/MOL
REMARK 924 INTRA-LIGAND FREE ENERGY PREDICTED BY IDOCK:   -0.44 KCAL/MOL
REMARK 927      BINDING AFFINITY PREDICTED BY RF-SCORE:    0.00 PKD
ROOT
HETATM    1  O5* UNL     1      -9.585   8.053  69.238  1.00  0.00    -0.156 OA 
HETATM    2  H5* UNL     1      -8.846   7.541  69.547  1.00  0.00     0.000 HD 
HETATM    3  C5* UNL     1      -9.843   9.163  70.099  1.00  0.00    -0.198 C  
ENDROOT
BRANCH   3   4
HETATM    4  C4* UNL     1     -11.031   9.985  69.604  1.00  0.00    -0.264 C  
HETATM    5  O4* UNL     1     -11.329  11.051  70.525  1.00  0.00    -0.253 OA 
HETATM    6  C1* UNL     1     -12.069  12.012  69.760  1.00  0.00    -0.248 C  
HETATM    7  C2* UNL     1     -11.448  12.016  68.368  1.00  0.00    -0.356 C  
HETATM    8  H3* UNL     1     -11.252  10.296  66.368  1.00  0.00     0.000 HD 
HETATM    9  O3* UNL     1     -11.398   9.882  67.210  1.00  0.00    -0.072 OA 
HETATM   10  C3* UNL     1     -10.796  10.651  68.249  1.00  0.00    -0.241 C  
BRANCH   6  11
HETATM   11  N   UNL     1     -12.064  13.317  70.409  1.00  0.00    -0.352 N  
HETATM   12  C   UNL     1     -11.379  14.392  69.866  1.00  0.00    -0.222 C  
HETATM   13  C   UNL     1     -12.084  15.757  71.733  1.00  0.00    -0.464 C  
HETATM   14  C   UNL     1     -11.326  15.598  70.454  1.00  0.00    -0.373 C  
HETATM   15  O   UNL     1     -13.505  12.542  72.042  1.00  0.00    -0.493 OA 
HETATM   16  N   UNL     1     -12.791  14.671  72.159  1.00  0.00    -0.319 N  
HETATM   17  H   UNL     1     -13.348  14.786  73.006  1.00  0.00     0.000 HD 
HETATM   18  O   UNL     1     -12.078  16.806  72.374  1.00  0.00    -0.233 OA 
HETATM   19  C   UNL     1     -12.825  13.445  71.560  1.00  0.00    -0.337 C  
BRANCH  14  20
HETATM   20  C   UNL     1     -10.648  16.762  69.905  1.00  0.00    -0.104 C  
HETATM   21  C   UNL     1     -10.860  17.309  68.702  1.00  0.00    -0.199 C  
HETATM   22 BR   UNL     1      -9.916  18.776  68.063  1.00  0.00    -0.432 Br 
ENDBRANCH  14  20
ENDBRANCH   6  11
ENDBRANCH   3   4
TORSDOF 3
ENDMDL
MODEL       84
REMARK 921   NORMALIZED FREE ENERGY PREDICTED BY IDOCK:   -4.37 KCAL/MOL
REMARK 922        TOTAL FREE ENERGY PREDICTED BY IDOCK:   -5.75 KCAL/MOL
REMARK 923 INTER-LIGAND FREE ENERGY PREDICTED BY IDOCK:   -5.14 KCAL/MOL
REMARK 924 INTRA-LIGAND FREE ENERGY PREDICTED BY IDOCK:   -0.61 KCAL/MOL
REMARK 927      BINDING AFFINITY PREDICTED BY RF-SCORE:    0.00 PKD
ROOT
HETATM    1  O5* UNL     1      -6.683   6.764  66.015  1.00  0.00    -0.049 OA 
HETATM    2  H5* UNL     1      -5.788   6.861  65.711  1.00  0.00     0.000 HD 
HETATM    3  C5* UNL     1      -6.945   7.606  67.138  1.00  0.00    -0.080 C  
ENDROOT
BRANCH   3   4
HETATM    4  C4* UNL     1      -8.383   7.450  67.626  1.00  0.00    -0.118 C  
HETATM    5  O4* UNL     1      -8.793   8.607  68.377  1.00  0.00    -0.140 OA 
HETATM    6  C1* UNL     1     -10.226   8.590  68.343  1.00  0.00    -0.203 C  
HETATM    7  C2* UNL     1     -10.612   8.090  66.955  1.00  0.00    -0.364 C  
HETATM    8  H3* UNL     1     -10.364   5.825  65.613  1.00  0.00     0.000 HD 
HETATM    9  O3* UNL     1      -9.730   5.920  66.314  1.00  0.00    -0.154 OA 
HETATM   10  C3* UNL     1      -9.402   7.295  66.499  1.00  0.00    -0.170 C  
BRANCH   6  11
HETATM   11  N   UNL     1     -10.776   9.899  68.670  1.00  0.00    -0.223 N  
HETATM   12  C   UNL     1     -11.051  10.835  67.685  1.00  0.00    -0.319 C  
HETATM   13  C   UNL     1     -11.792  12.381  69.389  1.00  0.00    -0.304 C  
HETATM   14  C   UNL     1     -11.526  12.061  67.953  1.00  0.00    -0.396 C  
HETATM   15  O   UNL     1     -10.906   9.319  70.904  1.00  0.00    -0.246 OA 
HETATM   16  N   UNL     1     -11.564  11.379  70.287  1.00  0.00    -0.475 N  
HETATM   17  H   UNL     1     -11.787  11.574  71.263  1.00  0.00     0.000 HD 
HETATM   18  O   UNL     1     -12.196  13.483  69.753  1.00  0.00    -0.313 OA 
HETATM   19  C   UNL     1     -11.066  10.140  70.003  1.00  0.00    -0.308 C  
BRANCH  14  20
HETATM   20  C   UNL     1     -11.860  13.061  66.951  1.00  0.00    -0.442 C  
HETATM   21  C   UNL     1     -11.875  12.881  65.625  1.00  0.00    -0.417 C  
HETATM   22 BR   UNL     1     -12.275  14.230  64.412  1.00  0.00    -0.418 Br 
ENDBRANCH  14  20
ENDBRANCH   6  11
ENDBRANCH   3   4
TORSDOF 3
ENDMDL
MODEL       85
REMARK 921   NORMALIZED FREE ENERGY PREDICTED BY IDOCK:   -4.36 KCAL/MOL
REMARK 922        TOTAL FREE ENERGY PREDICTED BY IDOCK:   -5.74 KCAL/MOL
REMARK 923 INTER-LIGAND FREE ENERGY PREDICTED BY IDOCK:   -6.28 KCAL/MOL
REMARK 924 INTRA-LIGAND FREE ENERGY PREDICTED BY IDOCK:    0.55 KCAL/MOL
REMARK 927      BINDING AFFINITY PREDICTED BY RF-SCORE:    0.00 PKD
ROOT
HETATM    1  O5* UNL     1     -11.224  11.072  62.756  1.00  0.00    -0.680 OA 
HETATM    2  H5* UNL     1     -10.871  10.715  61.950  1.00  0.00     0.000 HD 
HETATM    3  C5* UNL     1     -10.230  11.794  63.483  1.00  0.00    -0.450 C  
ENDROOT
BRANCH   3   4
HETATM    4  C4* UNL     1     -10.797  12.367  64.780  1.00  0.00    -0.304 C  
HETATM    5  O4* UNL     1      -9.808  13.163  65.459  1.00  0.00    -0.237 OA 
HETATM    6  C1* UNL     1     -10.552  14.023  66.332  1.00  0.00    -0.280 C  
HETATM    7  C2* UNL     1     -11.818  14.406  65.574  1.00  0.00    -0.357 C  
HETATM    8  H3* UNL     1     -13.963  13.134  64.691  1.00  0.00     0.000 HD 
HETATM    9  O3* UNL     1     -13.213  12.566  64.820  1.00  0.00    -0.839 OA 
HETATM   10  C3* UNL     1     -12.004  13.281  64.573  1.00  0.00    -0.400 C  
BRANCH   6  11
HETATM   11  N   UNL     1      -9.751  15.165  66.753  1.00  0.00    -0.233 N  
HETATM   12  C   UNL     1      -8.886  15.084  67.833  1.00  0.00    -0.171 C  
HETATM   13  C   UNL     1      -8.290  17.403  67.504  1.00  0.00    -0.206 C  
HETATM   14  C   UNL     1      -8.159  16.125  68.269  1.00  0.00    -0.153 C  
HETATM   15  O   UNL     1     -10.549  16.415  64.980  1.00  0.00    -0.651 OA 
HETATM   16  N   UNL     1      -9.105  17.377  66.410  1.00  0.00    -0.262 N  
HETATM   17  H   UNL     1      -9.163  18.231  65.856  1.00  0.00     0.000 HD 
HETATM   18  O   UNL     1      -7.697  18.428  67.833  1.00  0.00    -0.241 OA 
HETATM   19  C   UNL     1      -9.850  16.315  65.987  1.00  0.00    -0.343 C  
BRANCH  14  20
HETATM   20  C   UNL     1      -7.217  16.077  69.375  1.00  0.00    -0.213 C  
HETATM   21  C   UNL     1      -6.427  15.046  69.700  1.00  0.00    -0.154 C  
HETATM   22 BR   UNL     1      -5.279  15.056  71.160  1.00  0.00    -0.111 Br 
ENDBRANCH  14  20
ENDBRANCH   6  11
ENDBRANCH   3   4
TORSDOF 3
ENDMDL
MODEL       86
REMARK 921   NORMALIZED FREE ENERGY PREDICTED BY IDOCK:   -4.34 KCAL/MOL
REMARK 922        TOTAL FREE ENERGY PREDICTED BY IDOCK:   -5.71 KCAL/MOL
REMARK 923 INTER-LIGAND FREE ENERGY PREDICTED BY IDOCK:   -5.24 KCAL/MOL
REMARK 924 INTRA-LIGAND FREE ENERGY PREDICTED BY IDOCK:   -0.47 KCAL/MOL
REMARK 927      BINDING AFFINITY PREDICTED BY RF-SCORE:    0.00 PKD
ROOT
HETATM    1  O5* UNL     1     -13.189  12.604  64.700  1.00  0.00    -0.828 OA 
HETATM    2  H5* UNL     1     -14.065  12.973  64.719  1.00  0.00     0.000 HD 
HETATM    3  C5* UNL     1     -12.216  13.556  65.130  1.00  0.00    -0.428 C  
ENDROOT
BRANCH   3   4
HETATM    4  C4* UNL     1     -10.808  12.963  65.100  1.00  0.00    -0.296 C  
HETATM    5  O4* UNL     1     -10.337  12.707  66.435  1.00  0.00    -0.242 OA 
HETATM    6  C1* UNL     1      -9.295  11.734  66.286  1.00  0.00    -0.225 C  
HETATM    7  C2* UNL     1      -9.745  10.797  65.170  1.00  0.00    -0.319 C  
HETATM    8  H3* UNL     1     -10.179  11.010  62.569  1.00  0.00     0.000 HD 
HETATM    9  O3* UNL     1     -10.235  11.838  63.031  1.00  0.00    -0.366 OA 
HETATM   10  C3* UNL     1     -10.718  11.632  64.357  1.00  0.00    -0.330 C  
BRANCH   6  11
HETATM   11  N   UNL     1      -9.023  11.056  67.547  1.00  0.00    -0.137 N  
HETATM   12  C   UNL     1      -9.625   9.848  67.864  1.00  0.00    -0.138 C  
HETATM   13  C   UNL     1      -8.471   9.854  69.988  1.00  0.00    -0.165 C  
HETATM   14  C   UNL     1      -9.423   9.214  69.029  1.00  0.00    -0.152 C  
HETATM   15  O   UNL     1      -7.479  12.678  68.119  1.00  0.00    -0.102 OA 
HETATM   16  N   UNL     1      -7.865  11.002  69.567  1.00  0.00    -0.374 N  
HETATM   17  H   UNL     1      -7.179  11.419  70.196  1.00  0.00     0.000 HD 
HETATM   18  O   UNL     1      -8.236   9.378  71.096  1.00  0.00    -0.314 OA 
HETATM   19  C   UNL     1      -8.091  11.645  68.385  1.00  0.00    -0.153 C  
BRANCH  14  20
HETATM   20  C   UNL     1     -10.007   7.932  69.390  1.00  0.00    -0.189 C  
HETATM   21  C   UNL     1      -9.424   6.733  69.271  1.00  0.00    -0.142 C  
HETATM   22 BR   UNL     1     -10.262   5.137  69.720  1.00  0.00    -0.333 Br 
ENDBRANCH  14  20
ENDBRANCH   6  11
ENDBRANCH   3   4
TORSDOF 3
ENDMDL
MODEL       87
REMARK 921   NORMALIZED FREE ENERGY PREDICTED BY IDOCK:   -4.33 KCAL/MOL
REMARK 922        TOTAL FREE ENERGY PREDICTED BY IDOCK:   -5.70 KCAL/MOL
REMARK 923 INTER-LIGAND FREE ENERGY PREDICTED BY IDOCK:   -5.45 KCAL/MOL
REMARK 924 INTRA-LIGAND FREE ENERGY PREDICTED BY IDOCK:   -0.25 KCAL/MOL
REMARK 927      BINDING AFFINITY PREDICTED BY RF-SCORE:    0.00 PKD
ROOT
HETATM    1  O5* UNL     1     -11.242  11.064  62.769  1.00  0.00    -0.680 OA 
HETATM    2  H5* UNL     1     -10.957  10.965  61.868  1.00  0.00     0.000 HD 
HETATM    3  C5* UNL     1     -10.532  12.116  63.424  1.00  0.00    -0.412 C  
ENDROOT
BRANCH   3   4
HETATM    4  C4* UNL     1     -10.990  12.276  64.872  1.00  0.00    -0.302 C  
HETATM    5  O4* UNL     1      -9.862  12.248  65.766  1.00  0.00    -0.249 OA 
HETATM    6  C1* UNL     1     -10.317  12.888  66.965  1.00  0.00    -0.242 C  
HETATM    7  C2* UNL     1     -11.233  14.023  66.520  1.00  0.00    -0.326 C  
HETATM    8  H3* UNL     1     -13.576  14.210  65.307  1.00  0.00     0.000 HD 
HETATM    9  O3* UNL     1     -13.125  13.391  65.136  1.00  0.00    -0.724 OA 
HETATM   10  C3* UNL     1     -11.714  13.593  65.147  1.00  0.00    -0.331 C  
BRANCH   6  11
HETATM   11  N   UNL     1      -9.195  13.327  67.786  1.00  0.00    -0.199 N  
HETATM   12  C   UNL     1      -8.998  14.666  68.085  1.00  0.00    -0.179 C  
HETATM   13  C   UNL     1      -7.012  14.074  69.330  1.00  0.00    -0.084 C  
HETATM   14  C   UNL     1      -7.958  15.108  68.810  1.00  0.00    -0.162 C  
HETATM   15  O   UNL     1      -8.547  11.134  68.123  1.00  0.00    -0.128 OA 
HETATM   16  N   UNL     1      -7.320  12.774  69.052  1.00  0.00    -0.294 N  
HETATM   17  H   UNL     1      -6.705  12.060  69.443  1.00  0.00     0.000 HD 
HETATM   18  O   UNL     1      -6.008  14.367  69.975  1.00  0.00    -0.118 OA 
HETATM   19  C   UNL     1      -8.373  12.338  68.301  1.00  0.00    -0.174 C  
BRANCH  14  20
HETATM   20  C   UNL     1      -7.729  16.497  69.175  1.00  0.00    -0.205 C  
HETATM   21  C   UNL     1      -7.512  17.513  68.331  1.00  0.00    -0.247 C  
HETATM   22 BR   UNL     1      -7.188  19.256  68.888  1.00  0.00    -0.393 Br 
ENDBRANCH  14  20
ENDBRANCH   6  11
ENDBRANCH   3   4
TORSDOF 3
ENDMDL
MODEL       88
REMARK 921   NORMALIZED FREE ENERGY PREDICTED BY IDOCK:   -4.32 KCAL/MOL
REMARK 922        TOTAL FREE ENERGY PREDICTED BY IDOCK:   -5.69 KCAL/MOL
REMARK 923 INTER-LIGAND FREE ENERGY PREDICTED BY IDOCK:   -5.33 KCAL/MOL
REMARK 924 INTRA-LIGAND FREE ENERGY PREDICTED BY IDOCK:   -0.36 KCAL/MOL
REMARK 927      BINDING AFFINITY PREDICTED BY RF-SCORE:    0.00 PKD
ROOT
HETATM    1  O5* UNL     1      -9.172   6.157  73.027  1.00  0.00    -0.135 OA 
HETATM    2  H5* UNL     1      -8.455   6.028  73.637  1.00  0.00     0.000 HD 
HETATM    3  C5* UNL     1      -9.840   7.396  73.266  1.00  0.00    -0.272 C  
ENDROOT
BRANCH   3   4
HETATM    4  C4* UNL     1     -10.993   7.603  72.286  1.00  0.00    -0.279 C  
HETATM    5  O4* UNL     1     -11.253   9.006  72.098  1.00  0.00    -0.351 OA 
HETATM    6  C1* UNL     1     -11.951   9.095  70.849  1.00  0.00    -0.242 C  
HETATM    7  C2* UNL     1     -11.325   8.046  69.936  1.00  0.00     0.052 C  
HETATM    8  H3* UNL     1     -11.189   5.405  69.889  1.00  0.00     0.000 HD 
HETATM    9  O3* UNL     1     -11.354   5.760  70.754  1.00  0.00    -0.216 OA 
HETATM   10  C3* UNL     1     -10.727   7.032  70.894  1.00  0.00    -0.235 C  
BRANCH   6  11
HETATM   11  N   UNL     1     -11.898  10.448  70.311  1.00  0.00    -0.291 N  
HETATM   12  C   UNL     1     -11.340  10.712  69.070  1.00  0.00    -0.277 C  
HETATM   13  C   UNL     1     -11.810  13.063  69.381  1.00  0.00    -0.322 C  
HETATM   14  C   UNL     1     -11.245  11.949  68.558  1.00  0.00    -0.308 C  
HETATM   15  O   UNL     1     -13.052  11.254  72.144  1.00  0.00    -0.458 OA 
HETATM   16  N   UNL     1     -12.406  12.708  70.555  1.00  0.00    -0.314 N  
HETATM   17  H   UNL     1     -12.836  13.456  71.100  1.00  0.00     0.000 HD 
HETATM   18  O   UNL     1     -11.748  14.238  69.026  1.00  0.00    -0.278 OA 
HETATM   19  C   UNL     1     -12.484  11.447  71.071  1.00  0.00    -0.383 C  
BRANCH  14  20
HETATM   20  C   UNL     1     -10.698  12.268  67.249  1.00  0.00    -0.263 C  
HETATM   21  C   UNL     1     -11.390  12.394  66.110  1.00  0.00    -0.352 C  
HETATM   22 BR   UNL     1     -10.602  12.765  64.469  1.00  0.00    -0.410 Br 
ENDBRANCH  14  20
ENDBRANCH   6  11
ENDBRANCH   3   4
TORSDOF 3
ENDMDL
MODEL       89
REMARK 921   NORMALIZED FREE ENERGY PREDICTED BY IDOCK:   -4.30 KCAL/MOL
REMARK 922        TOTAL FREE ENERGY PREDICTED BY IDOCK:   -5.66 KCAL/MOL
REMARK 923 INTER-LIGAND FREE ENERGY PREDICTED BY IDOCK:   -5.18 KCAL/MOL
REMARK 924 INTRA-LIGAND FREE ENERGY PREDICTED BY IDOCK:   -0.48 KCAL/MOL
REMARK 927      BINDING AFFINITY PREDICTED BY RF-SCORE:    0.00 PKD
ROOT
HETATM    1  O5* UNL     1      -7.938   9.737  65.318  1.00  0.00    -0.114 OA 
HETATM    2  H5* UNL     1      -7.554  10.515  64.930  1.00  0.00     0.000 HD 
HETATM    3  C5* UNL     1      -7.698   9.686  66.725  1.00  0.00    -0.098 C  
ENDROOT
BRANCH   3   4
HETATM    4  C4* UNL     1      -8.315   8.435  67.348  1.00  0.00    -0.124 C  
HETATM    5  O4* UNL     1      -8.938   8.750  68.606  1.00  0.00    -0.137 OA 
HETATM    6  C1* UNL     1      -9.875   7.690  68.837  1.00  0.00    -0.164 C  
HETATM    7  C2* UNL     1     -10.459   7.335  67.474  1.00  0.00    -0.337 C  
HETATM    8  H3* UNL     1      -9.540   6.287  65.226  1.00  0.00     0.000 HD 
HETATM    9  O3* UNL     1      -8.865   6.688  65.761  1.00  0.00    -0.148 OA 
HETATM   10  C3* UNL     1      -9.401   7.791  66.488  1.00  0.00    -0.189 C  
BRANCH   6  11
HETATM   11  N   UNL     1     -10.876   8.077  69.823  1.00  0.00    -0.229 N  
HETATM   12  C   UNL     1     -11.182   9.409  70.059  1.00  0.00    -0.190 C  
HETATM   13  C   UNL     1     -12.774   8.724  71.744  1.00  0.00    -0.359 C  
HETATM   14  C   UNL     1     -12.073   9.803  70.982  1.00  0.00    -0.434 C  
HETATM   15  O   UNL     1     -11.364   5.858  70.243  1.00  0.00    -0.322 OA 
HETATM   16  N   UNL     1     -12.469   7.440  71.398  1.00  0.00    -0.353 N  
HETATM   17  H   UNL     1     -12.977   6.698  71.880  1.00  0.00     0.000 HD 
HETATM   18  O   UNL     1     -13.584   8.969  72.634  1.00  0.00    -0.465 OA 
HETATM   19  C   UNL     1     -11.549   7.053  70.467  1.00  0.00    -0.319 C  
BRANCH  14  20
HETATM   20  C   UNL     1     -12.448  11.184  71.240  1.00  0.00    -0.466 C  
HETATM   21  C   UNL     1     -12.066  12.255  70.534  1.00  0.00    -0.282 C  
HETATM   22 BR   UNL     1     -12.561  13.994  70.961  1.00  0.00    -0.453 Br 
ENDBRANCH  14  20
ENDBRANCH   6  11
ENDBRANCH   3   4
TORSDOF 3
ENDMDL
MODEL       90
REMARK 921   NORMALIZED FREE ENERGY PREDICTED BY IDOCK:   -4.29 KCAL/MOL
REMARK 922        TOTAL FREE ENERGY PREDICTED BY IDOCK:   -5.65 KCAL/MOL
REMARK 923 INTER-LIGAND FREE ENERGY PREDICTED BY IDOCK:   -5.87 KCAL/MOL
REMARK 924 INTRA-LIGAND FREE ENERGY PREDICTED BY IDOCK:    0.22 KCAL/MOL
REMARK 927      BINDING AFFINITY PREDICTED BY RF-SCORE:    0.00 PKD
ROOT
HETATM    1  O5* UNL     1     -10.561  18.396  66.500  1.00  0.00    -0.378 OA 
HETATM    2  H5* UNL     1     -10.700  19.315  66.697  1.00  0.00     0.000 HD 
HETATM    3  C5* UNL     1     -10.519  17.610  67.692  1.00  0.00    -0.372 C  
ENDROOT
BRANCH   3   4
HETATM    4  C4* UNL     1     -10.294  16.133  67.375  1.00  0.00    -0.294 C  
HETATM    5  O4* UNL     1     -10.463  15.329  68.558  1.00  0.00    -0.227 OA 
HETATM    6  C1* UNL     1     -10.731  14.006  68.078  1.00  0.00    -0.246 C  
HETATM    7  C2* UNL     1     -11.593  14.172  66.830  1.00  0.00    -0.410 C  
HETATM    8  H3* UNL     1     -11.259  15.186  64.410  1.00  0.00     0.000 HD 
HETATM    9  O3* UNL     1     -10.654  15.536  65.054  1.00  0.00    -0.413 OA 
HETATM   10  C3* UNL     1     -11.267  15.571  66.340  1.00  0.00    -0.098 C  
BRANCH   6  11
HETATM   11  N   UNL     1     -11.348  13.185  69.112  1.00  0.00    -0.279 N  
HETATM   12  C   UNL     1     -11.080  11.829  69.214  1.00  0.00    -0.218 C  
HETATM   13  C   UNL     1     -12.594  11.693  71.094  1.00  0.00    -0.335 C  
HETATM   14  C   UNL     1     -11.656  11.037  70.133  1.00  0.00    -0.421 C  
HETATM   15  O   UNL     1     -12.377  15.046  70.016  1.00  0.00    -0.323 OA 
HETATM   16  N   UNL     1     -12.744  13.044  70.971  1.00  0.00    -0.309 N  
HETATM   17  H   UNL     1     -13.346  13.506  71.653  1.00  0.00     0.000 HD 
HETATM   18  O   UNL     1     -13.202  11.060  71.954  1.00  0.00    -0.473 OA 
HETATM   19  C   UNL     1     -12.164  13.835  70.022  1.00  0.00    -0.342 C  
BRANCH  14  20
HETATM   20  C   UNL     1     -11.381   9.618  70.297  1.00  0.00    -0.311 C  
HETATM   21  C   UNL     1     -10.743   8.828  69.426  1.00  0.00    -0.169 C  
HETATM   22 BR   UNL     1     -10.471   7.010  69.700  1.00  0.00    -0.252 Br 
ENDBRANCH  14  20
ENDBRANCH   6  11
ENDBRANCH   3   4
TORSDOF 3
ENDMDL
MODEL       91
REMARK 921   NORMALIZED FREE ENERGY PREDICTED BY IDOCK:   -4.28 KCAL/MOL
REMARK 922        TOTAL FREE ENERGY PREDICTED BY IDOCK:   -5.64 KCAL/MOL
REMARK 923 INTER-LIGAND FREE ENERGY PREDICTED BY IDOCK:   -5.20 KCAL/MOL
REMARK 924 INTRA-LIGAND FREE ENERGY PREDICTED BY IDOCK:   -0.44 KCAL/MOL
REMARK 927      BINDING AFFINITY PREDICTED BY RF-SCORE:    0.00 PKD
ROOT
HETATM    1  O5* UNL     1     -11.413   4.439  64.998  1.00  0.00    -1.090 OA 
HETATM    2  H5* UNL     1     -11.621   3.512  64.997  1.00  0.00     0.000 HD 
HETATM    3  C5* UNL     1     -10.396   4.742  65.954  1.00  0.00    -0.270 C  
ENDROOT
BRANCH   3   4
HETATM    4  C4* UNL     1     -10.063   6.233  65.956  1.00  0.00     0.300 C  
HETATM    5  O4* UNL     1     -10.907   6.939  66.883  1.00  0.00    -0.351 OA 
HETATM    6  C1* UNL     1     -10.209   8.156  67.175  1.00  0.00    -0.296 C  
HETATM    7  C2* UNL     1      -8.728   7.796  67.221  1.00  0.00    -0.128 C  
HETATM    8  H3* UNL     1      -6.922   6.956  65.481  1.00  0.00     0.000 HD 
HETATM    9  O3* UNL     1      -7.815   6.763  65.221  1.00  0.00    -0.105 OA 
HETATM   10  C3* UNL     1      -8.626   6.542  66.373  1.00  0.00    -0.136 C  
BRANCH   6  11
HETATM   11  N   UNL     1     -10.703   8.765  68.404  1.00  0.00    -0.123 N  
HETATM   12  C   UNL     1     -10.509   8.164  69.638  1.00  0.00    -0.224 C  
HETATM   13  C   UNL     1     -11.709   9.981  70.688  1.00  0.00    -0.337 C  
HETATM   14  C   UNL     1     -10.979   8.680  70.785  1.00  0.00    -0.286 C  
HETATM   15  O   UNL     1     -11.455  10.605  67.224  1.00  0.00    -0.412 OA 
HETATM   16  N   UNL     1     -11.791  10.541  69.447  1.00  0.00    -0.478 N  
HETATM   17  H   UNL     1     -12.246  11.451  69.380  1.00  0.00     0.000 HD 
HETATM   18  O   UNL     1     -12.210  10.527  71.668  1.00  0.00    -0.331 OA 
HETATM   19  C   UNL     1     -11.321   9.999  68.286  1.00  0.00    -0.049 C  
BRANCH  14  20
HETATM   20  C   UNL     1     -10.772   8.102  72.103  1.00  0.00    -0.360 C  
HETATM   21  C   UNL     1     -10.438   6.833  72.369  1.00  0.00    -0.204 C  
HETATM   22 BR   UNL     1     -10.233   6.168  74.092  1.00  0.00    -0.324 Br 
ENDBRANCH  14  20
ENDBRANCH   6  11
ENDBRANCH   3   4
TORSDOF 3
ENDMDL
MODEL       92
REMARK 921   NORMALIZED FREE ENERGY PREDICTED BY IDOCK:   -4.27 KCAL/MOL
REMARK 922        TOTAL FREE ENERGY PREDICTED BY IDOCK:   -5.63 KCAL/MOL
REMARK 923 INTER-LIGAND FREE ENERGY PREDICTED BY IDOCK:   -5.52 KCAL/MOL
REMARK 924 INTRA-LIGAND FREE ENERGY PREDICTED BY IDOCK:   -0.10 KCAL/MOL
REMARK 927      BINDING AFFINITY PREDICTED BY RF-SCORE:    0.00 PKD
ROOT
HETATM    1  O5* UNL     1     -12.544  13.571  62.714  1.00  0.00    -0.740 OA 
HETATM    2  H5* UNL     1     -12.914  13.191  61.925  1.00  0.00     0.000 HD 
HETATM    3  C5* UNL     1     -12.597  12.652  63.806  1.00  0.00    -0.339 C  
ENDROOT
BRANCH   3   4
HETATM    4  C4* UNL     1     -12.004  13.263  65.074  1.00  0.00    -0.371 C  
HETATM    5  O4* UNL     1     -11.738  12.241  66.053  1.00  0.00    -0.399 OA 
HETATM    6  C1* UNL     1     -10.766  12.812  66.938  1.00  0.00    -0.253 C  
HETATM    7  C2* UNL     1      -9.837  13.649  66.065  1.00  0.00    -0.290 C  
HETATM    8  H3* UNL     1     -10.066  15.839  64.600  1.00  0.00     0.000 HD 
HETATM    9  O3* UNL     1     -10.891  15.390  64.741  1.00  0.00    -0.422 OA 
HETATM   10  C3* UNL     1     -10.677  13.985  64.846  1.00  0.00    -0.418 C  
BRANCH   6  11
HETATM   11  N   UNL     1     -10.080  11.779  67.703  1.00  0.00    -0.191 N  
HETATM   12  C   UNL     1     -10.374  10.435  67.530  1.00  0.00    -0.224 C  
HETATM   13  C   UNL     1      -8.746   9.881  69.230  1.00  0.00    -0.169 C  
HETATM   14  C   UNL     1      -9.786   9.460  68.241  1.00  0.00    -0.180 C  
HETATM   15  O   UNL     1      -8.735  13.371  68.703  1.00  0.00    -0.110 OA 
HETATM   16  N   UNL     1      -8.465  11.215  69.284  1.00  0.00    -0.382 N  
HETATM   17  H   UNL     1      -7.724  11.505  69.922  1.00  0.00     0.000 HD 
HETATM   18  O   UNL     1      -8.168   9.078  69.957  1.00  0.00    -0.105 OA 
HETATM   19  C   UNL     1      -9.081  12.199  68.565  1.00  0.00    -0.090 C  
BRANCH  14  20
HETATM   20  C   UNL     1     -10.039   8.038  68.071  1.00  0.00    -0.238 C  
HETATM   21  C   UNL     1     -10.224   7.399  66.910  1.00  0.00    -0.276 C  
HETATM   22 BR   UNL     1     -10.584   5.581  66.787  1.00  0.00    -0.328 Br 
ENDBRANCH  14  20
ENDBRANCH   6  11
ENDBRANCH   3   4
TORSDOF 3
ENDMDL
MODEL       93
REMARK 921   NORMALIZED FREE ENERGY PREDICTED BY IDOCK:   -4.21 KCAL/MOL
REMARK 922        TOTAL FREE ENERGY PREDICTED BY IDOCK:   -5.56 KCAL/MOL
REMARK 923 INTER-LIGAND FREE ENERGY PREDICTED BY IDOCK:   -5.18 KCAL/MOL
REMARK 924 INTRA-LIGAND FREE ENERGY PREDICTED BY IDOCK:   -0.38 KCAL/MOL
REMARK 927      BINDING AFFINITY PREDICTED BY RF-SCORE:    0.00 PKD
ROOT
HETATM    1  O5* UNL     1      -9.318   7.376  68.757  1.00  0.00    -0.144 OA 
HETATM    2  H5* UNL     1      -8.970   7.188  69.621  1.00  0.00     0.000 HD 
HETATM    3  C5* UNL     1      -8.999   8.706  68.347  1.00  0.00    -0.142 C  
ENDROOT
BRANCH   3   4
HETATM    4  C4* UNL     1      -9.559   9.008  66.959  1.00  0.00    -0.176 C  
HETATM    5  O4* UNL     1     -10.193  10.300  66.937  1.00  0.00    -0.210 OA 
HETATM    6  C1* UNL     1     -10.218  10.683  65.556  1.00  0.00    -0.262 C  
HETATM    7  C2* UNL     1      -8.911  10.182  64.952  1.00  0.00    -0.214 C  
HETATM    8  H3* UNL     1      -7.821   7.821  64.471  1.00  0.00     0.000 HD 
HETATM    9  O3* UNL     1      -8.481   7.801  65.154  1.00  0.00    -0.134 OA 
HETATM   10  C3* UNL     1      -8.497   9.039  65.860  1.00  0.00    -0.140 C  
BRANCH   6  11
HETATM   11  N   UNL     1     -10.419  12.120  65.412  1.00  0.00    -0.261 N  
HETATM   12  C   UNL     1      -9.866  13.021  66.308  1.00  0.00    -0.278 C  
HETATM   13  C   UNL     1     -10.883  14.837  65.078  1.00  0.00    -0.425 C  
HETATM   14  C   UNL     1     -10.059  14.347  66.225  1.00  0.00    -0.308 C  
HETATM   15  O   UNL     1     -11.587  11.788  63.445  1.00  0.00    -0.410 OA 
HETATM   16  N   UNL     1     -11.327  13.890  64.201  1.00  0.00    -0.600 N  
HETATM   17  H   UNL     1     -11.850  14.221  63.390  1.00  0.00     0.000 HD 
HETATM   18  O   UNL     1     -11.151  16.026  64.922  1.00  0.00    -0.431 OA 
HETATM   19  C   UNL     1     -11.137  12.543  64.306  1.00  0.00    -0.356 C  
BRANCH  14  20
HETATM   20  C   UNL     1      -9.473  15.330  67.122  1.00  0.00    -0.223 C  
HETATM   21  C   UNL     1      -8.400  16.091  66.874  1.00  0.00    -0.243 C  
HETATM   22 BR   UNL     1      -7.693  17.296  68.097  1.00  0.00    -0.226 Br 
ENDBRANCH  14  20
ENDBRANCH   6  11
ENDBRANCH   3   4
TORSDOF 3
ENDMDL
MODEL       94
REMARK 921   NORMALIZED FREE ENERGY PREDICTED BY IDOCK:   -4.21 KCAL/MOL
REMARK 922        TOTAL FREE ENERGY PREDICTED BY IDOCK:   -5.56 KCAL/MOL
REMARK 923 INTER-LIGAND FREE ENERGY PREDICTED BY IDOCK:   -5.71 KCAL/MOL
REMARK 924 INTRA-LIGAND FREE ENERGY PREDICTED BY IDOCK:    0.15 KCAL/MOL
REMARK 927      BINDING AFFINITY PREDICTED BY RF-SCORE:    0.00 PKD
ROOT
HETATM    1  O5* UNL     1     -13.213  10.134  70.322  1.00  0.00    -0.571 OA 
HETATM    2  H5* UNL     1     -13.481   9.298  69.958  1.00  0.00     0.000 HD 
HETATM    3  C5* UNL     1     -12.157  10.718  69.557  1.00  0.00    -0.272 C  
ENDROOT
BRANCH   3   4
HETATM    4  C4* UNL     1     -11.727  12.062  70.141  1.00  0.00    -0.233 C  
HETATM    5  O4* UNL     1     -11.007  12.833  69.162  1.00  0.00    -0.216 OA 
HETATM    6  C1* UNL     1     -11.100  14.191  69.611  1.00  0.00    -0.141 C  
HETATM    7  C2* UNL     1     -12.497  14.349  70.202  1.00  0.00    -0.395 C  
HETATM    8  H3* UNL     1     -13.801  13.373  72.286  1.00  0.00     0.000 HD 
HETATM    9  O3* UNL     1     -13.075  12.828  72.004  1.00  0.00    -0.405 OA 
HETATM   10  C3* UNL     1     -12.894  12.938  70.594  1.00  0.00     0.026 C  
BRANCH   6  11
HETATM   11  N   UNL     1     -10.811  15.124  68.529  1.00  0.00    -0.239 N  
HETATM   12  C   UNL     1     -10.094  16.290  68.751  1.00  0.00    -0.243 C  
HETATM   13  C   UNL     1     -10.338  16.860  66.414  1.00  0.00    -0.300 C  
HETATM   14  C   UNL     1      -9.839  17.187  67.785  1.00  0.00    -0.274 C  
HETATM   15  O   UNL     1     -11.813  13.708  67.001  1.00  0.00    -0.365 OA 
HETATM   16  N   UNL     1     -10.969  15.659  66.267  1.00  0.00    -0.257 N  
HETATM   17  H   UNL     1     -11.270  15.408  65.326  1.00  0.00     0.000 HD 
HETATM   18  O   UNL     1     -10.190  17.623  65.463  1.00  0.00    -0.600 OA 
HETATM   19  C   UNL     1     -11.235  14.762  67.261  1.00  0.00    -0.346 C  
BRANCH  14  20
HETATM   20  C   UNL     1      -9.065  18.404  67.965  1.00  0.00    -0.308 C  
HETATM   21  C   UNL     1      -7.730  18.505  67.947  1.00  0.00    -0.251 C  
HETATM   22 BR   UNL     1      -6.819  20.100  68.227  1.00  0.00    -0.319 Br 
ENDBRANCH  14  20
ENDBRANCH   6  11
ENDBRANCH   3   4
TORSDOF 3
ENDMDL
MODEL       95
REMARK 921   NORMALIZED FREE ENERGY PREDICTED BY IDOCK:   -4.19 KCAL/MOL
REMARK 922        TOTAL FREE ENERGY PREDICTED BY IDOCK:   -5.54 KCAL/MOL
REMARK 923 INTER-LIGAND FREE ENERGY PREDICTED BY IDOCK:   -5.76 KCAL/MOL
REMARK 924 INTRA-LIGAND FREE ENERGY PREDICTED BY IDOCK:    0.22 KCAL/MOL
REMARK 927      BINDING AFFINITY PREDICTED BY RF-SCORE:    0.00 PKD
ROOT
HETATM    1  O5* UNL     1     -11.545   4.841  65.329  1.00  0.00    -1.065 OA 
HETATM    2  H5* UNL     1     -11.894   4.009  65.029  1.00  0.00     0.000 HD 
HETATM    3  C5* UNL     1     -10.390   4.653  66.149  1.00  0.00    -0.275 C  
ENDROOT
BRANCH   3   4
HETATM    4  C4* UNL     1      -9.829   5.989  66.631  1.00  0.00    -0.164 C  
HETATM    5  O4* UNL     1     -10.799   6.686  67.435  1.00  0.00    -0.286 OA 
HETATM    6  C1* UNL     1     -10.040   7.617  68.216  1.00  0.00    -0.186 C  
HETATM    7  C2* UNL     1      -8.740   6.907  68.580  1.00  0.00    -0.125 C  
HETATM    8  H3* UNL     1      -6.632   6.007  67.260  1.00  0.00     0.000 HD 
HETATM    9  O3* UNL     1      -7.409   6.091  66.720  1.00  0.00    -0.076 OA 
HETATM   10  C3* UNL     1      -8.579   5.854  67.499  1.00  0.00    -0.102 C  
BRANCH   6  11
HETATM   11  N   UNL     1     -10.800   8.078  69.371  1.00  0.00    -0.155 N  
HETATM   12  C   UNL     1     -11.119   9.417  69.540  1.00  0.00    -0.112 C  
HETATM   13  C   UNL     1     -12.223   8.870  71.620  1.00  0.00    -0.343 C  
HETATM   14  C   UNL     1     -11.788   9.881  70.607  1.00  0.00    -0.386 C  
HETATM   15  O   UNL     1     -11.043   5.904  70.116  1.00  0.00    -0.348 OA 
HETATM   16  N   UNL     1     -11.934   7.567  71.340  1.00  0.00    -0.297 N  
HETATM   17  H   UNL     1     -12.269   6.867  72.003  1.00  0.00     0.000 HD 
HETATM   18  O   UNL     1     -12.812   9.186  72.651  1.00  0.00    -0.361 OA 
HETATM   19  C   UNL     1     -11.239   7.110  70.258  1.00  0.00    -0.276 C  
BRANCH  14  20
HETATM   20  C   UNL     1     -12.171  11.269  70.809  1.00  0.00    -0.479 C  
HETATM   21  C   UNL     1     -11.852  12.303  70.022  1.00  0.00    -0.296 C  
HETATM   22 BR   UNL     1     -12.352  14.056  70.380  1.00  0.00    -0.429 Br 
ENDBRANCH  14  20
ENDBRANCH   6  11
ENDBRANCH   3   4
TORSDOF 3
ENDMDL
MODEL       96
REMARK 921   NORMALIZED FREE ENERGY PREDICTED BY IDOCK:   -4.16 KCAL/MOL
REMARK 922        TOTAL FREE ENERGY PREDICTED BY IDOCK:   -5.50 KCAL/MOL
REMARK 923 INTER-LIGAND FREE ENERGY PREDICTED BY IDOCK:   -5.16 KCAL/MOL
REMARK 924 INTRA-LIGAND FREE ENERGY PREDICTED BY IDOCK:   -0.34 KCAL/MOL
REMARK 927      BINDING AFFINITY PREDICTED BY RF-SCORE:    0.00 PKD
ROOT
HETATM    1  O5* UNL     1      -6.565  16.803  69.774  1.00  0.00    -0.207 OA 
HETATM    2  H5* UNL     1      -6.111  17.291  70.451  1.00  0.00     0.000 HD 
HETATM    3  C5* UNL     1      -6.186  17.249  68.471  1.00  0.00    -0.160 C  
ENDROOT
BRANCH   3   4
HETATM    4  C4* UNL     1      -6.917  16.466  67.382  1.00  0.00    -0.165 C  
HETATM    5  O4* UNL     1      -7.536  15.289  67.932  1.00  0.00    -0.122 OA 
HETATM    6  C1* UNL     1      -8.562  14.932  66.997  1.00  0.00    -0.238 C  
HETATM    7  C2* UNL     1      -9.148  16.245  66.487  1.00  0.00    -0.302 C  
HETATM    8  H3* UNL     1      -8.275  18.280  65.041  1.00  0.00     0.000 HD 
HETATM    9  O3* UNL     1      -7.580  17.791  65.463  1.00  0.00    -0.489 OA 
HETATM   10  C3* UNL     1      -8.035  17.254  66.703  1.00  0.00    -0.261 C  
BRANCH   6  11
HETATM   11  N   UNL     1      -9.547  14.048  67.608  1.00  0.00    -0.216 N  
HETATM   12  C   UNL     1     -10.470  14.520  68.528  1.00  0.00    -0.250 C  
HETATM   13  C   UNL     1     -11.364  12.285  68.747  1.00  0.00    -0.289 C  
HETATM   14  C   UNL     1     -11.369  13.729  69.135  1.00  0.00    -0.329 C  
HETATM   15  O   UNL     1      -8.802  12.280  66.319  1.00  0.00    -0.136 OA 
HETATM   16  N   UNL     1     -10.472  11.918  67.781  1.00  0.00    -0.198 N  
HETATM   17  H   UNL     1     -10.495  10.945  67.477  1.00  0.00     0.000 HD 
HETATM   18  O   UNL     1     -12.119  11.464  69.262  1.00  0.00    -0.325 OA 
HETATM   19  C   UNL     1      -9.554  12.731  67.182  1.00  0.00    -0.219 C  
BRANCH  14  20
HETATM   20  C   UNL     1     -12.376  14.185  70.080  1.00  0.00    -0.403 C  
HETATM   21  C   UNL     1     -12.460  13.850  71.372  1.00  0.00    -0.340 C  
HETATM   22 BR   UNL     1     -13.809  14.450  72.500  1.00  0.00    -0.510 Br 
ENDBRANCH  14  20
ENDBRANCH   6  11
ENDBRANCH   3   4
TORSDOF 3
ENDMDL
MODEL       97
REMARK 921   NORMALIZED FREE ENERGY PREDICTED BY IDOCK:   -4.15 KCAL/MOL
REMARK 922        TOTAL FREE ENERGY PREDICTED BY IDOCK:   -5.49 KCAL/MOL
REMARK 923 INTER-LIGAND FREE ENERGY PREDICTED BY IDOCK:   -5.13 KCAL/MOL
REMARK 924 INTRA-LIGAND FREE ENERGY PREDICTED BY IDOCK:   -0.37 KCAL/MOL
REMARK 927      BINDING AFFINITY PREDICTED BY RF-SCORE:    0.00 PKD
ROOT
HETATM    1  O5* UNL     1      -6.795   8.208  73.109  1.00  0.00    -0.098 OA 
HETATM    2  H5* UNL     1      -5.960   7.758  73.066  1.00  0.00     0.000 HD 
HETATM    3  C5* UNL     1      -7.844   7.411  72.557  1.00  0.00    -0.096 C  
ENDROOT
BRANCH   3   4
HETATM    4  C4* UNL     1      -9.187   8.135  72.627  1.00  0.00    -0.263 C  
HETATM    5  O4* UNL     1      -9.277   9.138  71.598  1.00  0.00    -0.320 OA 
HETATM    6  C1* UNL     1     -10.680   9.379  71.430  1.00  0.00    -0.337 C  
HETATM    7  C2* UNL     1     -11.367   8.028  71.596  1.00  0.00    -0.306 C  
HETATM    8  H3* UNL     1     -11.708   6.297  73.567  1.00  0.00     0.000 HD 
HETATM    9  O3* UNL     1     -10.959   6.868  73.690  1.00  0.00    -0.249 OA 
HETATM   10  C3* UNL     1     -10.392   7.217  72.429  1.00  0.00    -0.201 C  
BRANCH   6  11
HETATM   11  N   UNL     1     -10.954  10.025  70.153  1.00  0.00    -0.288 N  
HETATM   12  C   UNL     1     -10.347   9.598  68.982  1.00  0.00    -0.205 C  
HETATM   13  C   UNL     1     -11.510  11.337  67.770  1.00  0.00    -0.275 C  
HETATM   14  C   UNL     1     -10.550  10.191  67.795  1.00  0.00    -0.304 C  
HETATM   15  O   UNL     1     -12.509  11.411  71.154  1.00  0.00    -0.382 OA 
HETATM   16  N   UNL     1     -12.120  11.644  68.951  1.00  0.00    -0.270 N  
HETATM   17  H   UNL     1     -12.811  12.394  68.933  1.00  0.00     0.000 HD 
HETATM   18  O   UNL     1     -11.747  11.973  66.746  1.00  0.00    -0.523 OA 
HETATM   19  C   UNL     1     -11.893  11.043  70.156  1.00  0.00    -0.357 C  
BRANCH  14  20
HETATM   20  C   UNL     1      -9.961   9.758  66.537  1.00  0.00    -0.304 C  
HETATM   21  C   UNL     1      -8.978  10.373  65.869  1.00  0.00    -0.162 C  
HETATM   22 BR   UNL     1      -8.312   9.770  64.243  1.00  0.00    -0.187 Br 
ENDBRANCH  14  20
ENDBRANCH   6  11
ENDBRANCH   3   4
TORSDOF 3
ENDMDL
MODEL       98
REMARK 921   NORMALIZED FREE ENERGY PREDICTED BY IDOCK:   -4.13 KCAL/MOL
REMARK 922        TOTAL FREE ENERGY PREDICTED BY IDOCK:   -5.46 KCAL/MOL
REMARK 923 INTER-LIGAND FREE ENERGY PREDICTED BY IDOCK:   -5.78 KCAL/MOL
REMARK 924 INTRA-LIGAND FREE ENERGY PREDICTED BY IDOCK:    0.32 KCAL/MOL
REMARK 927      BINDING AFFINITY PREDICTED BY RF-SCORE:    0.00 PKD
ROOT
HETATM    1  O5* UNL     1      -7.491   6.250  72.509  1.00  0.00    -0.091 OA 
HETATM    2  H5* UNL     1      -6.569   6.023  72.499  1.00  0.00     0.000 HD 
HETATM    3  C5* UNL     1      -7.923   6.613  73.821  1.00  0.00    -0.102 C  
ENDROOT
BRANCH   3   4
HETATM    4  C4* UNL     1      -9.406   6.978  73.837  1.00  0.00    -0.228 C  
HETATM    5  O4* UNL     1      -9.642   8.173  73.070  1.00  0.00    -0.272 OA 
HETATM    6  C1* UNL     1     -11.035   8.136  72.735  1.00  0.00    -0.330 C  
HETATM    7  C2* UNL     1     -11.369   6.673  72.465  1.00  0.00    -0.290 C  
HETATM    8  H3* UNL     1     -11.459   4.449  73.895  1.00  0.00     0.000 HD 
HETATM    9  O3* UNL     1     -10.896   5.117  74.269  1.00  0.00    -0.309 OA 
HETATM   10  C3* UNL     1     -10.310   5.904  73.235  1.00  0.00    -0.217 C  
BRANCH   6  11
HETATM   11  N   UNL     1     -11.332   9.022  71.617  1.00  0.00    -0.335 N  
HETATM   12  C   UNL     1     -11.932  10.256  71.811  1.00  0.00     0.005 C  
HETATM   13  C   UNL     1     -11.891  10.629  69.423  1.00  0.00    -0.253 C  
HETATM   14  C   UNL     1     -12.250  11.082  70.802  1.00  0.00    -0.480 C  
HETATM   15  O   UNL     1     -10.335   7.545  70.145  1.00  0.00    -0.207 OA 
HETATM   16  N   UNL     1     -11.236   9.436  69.327  1.00  0.00    -0.442 N  
HETATM   17  H   UNL     1     -10.946   9.142  68.394  1.00  0.00     0.000 HD 
HETATM   18  O   UNL     1     -12.164  11.289  68.423  1.00  0.00    -0.604 OA 
HETATM   19  C   UNL     1     -10.932   8.598  70.360  1.00  0.00    -0.235 C  
BRANCH  14  20
HETATM   20  C   UNL     1     -12.850  12.398  70.961  1.00  0.00    -0.245 C  
HETATM   21  C   UNL     1     -13.327  12.919  72.097  1.00  0.00    -0.515 C  
HETATM   22 BR   UNL     1     -14.116  14.598  72.202  1.00  0.00    -0.630 Br 
ENDBRANCH  14  20
ENDBRANCH   6  11
ENDBRANCH   3   4
TORSDOF 3
ENDMDL
MODEL       99
REMARK 921   NORMALIZED FREE ENERGY PREDICTED BY IDOCK:   -4.11 KCAL/MOL
REMARK 922        TOTAL FREE ENERGY PREDICTED BY IDOCK:   -5.44 KCAL/MOL
REMARK 923 INTER-LIGAND FREE ENERGY PREDICTED BY IDOCK:   -4.83 KCAL/MOL
REMARK 924 INTRA-LIGAND FREE ENERGY PREDICTED BY IDOCK:   -0.61 KCAL/MOL
REMARK 927      BINDING AFFINITY PREDICTED BY RF-SCORE:    0.00 PKD
ROOT
HETATM    1  O5* UNL     1      -6.956   6.102  66.983  1.00  0.00    -0.067 OA 
HETATM    2  H5* UNL     1      -6.235   6.518  66.524  1.00  0.00     0.000 HD 
HETATM    3  C5* UNL     1      -7.244   6.771  68.211  1.00  0.00    -0.088 C  
ENDROOT
BRANCH   3   4
HETATM    4  C4* UNL     1      -8.402   6.102  68.949  1.00  0.00    -0.115 C  
HETATM    5  O4* UNL     1      -8.994   7.011  69.894  1.00  0.00    -0.142 OA 
HETATM    6  C1* UNL     1     -10.310   6.497  70.138  1.00  0.00    -0.201 C  
HETATM    7  C2* UNL     1     -10.807   5.952  68.803  1.00  0.00    -0.353 C  
HETATM    8  H3* UNL     1     -10.127   3.973  67.186  1.00  0.00     0.000 HD 
HETATM    9  O3* UNL     1      -9.422   4.255  67.756  1.00  0.00    -0.150 OA 
HETATM   10  C3* UNL     1      -9.536   5.649  68.031  1.00  0.00    -0.120 C  
BRANCH   6  11
HETATM   11  N   UNL     1     -11.176   7.517  70.715  1.00  0.00    -0.266 N  
HETATM   12  C   UNL     1     -11.243   8.794  70.182  1.00  0.00    -0.152 C  
HETATM   13  C   UNL     1     -12.828   9.406  71.902  1.00  0.00    -0.412 C  
HETATM   14  C   UNL     1     -12.004   9.767  70.708  1.00  0.00    -0.382 C  
HETATM   15  O   UNL     1     -11.998   5.993  72.247  1.00  0.00    -0.318 OA 
HETATM   16  N   UNL     1     -12.759   8.108  72.317  1.00  0.00    -0.507 N  
HETATM   17  H   UNL     1     -13.354   7.842  73.102  1.00  0.00     0.000 HD 
HETATM   18  O   UNL     1     -13.535  10.225  72.484  1.00  0.00    -0.195 OA 
HETATM   19  C   UNL     1     -11.970   7.132  71.782  1.00  0.00    -0.313 C  
BRANCH  14  20
HETATM   20  C   UNL     1     -12.130  11.110  70.164  1.00  0.00    -0.443 C  
HETATM   21  C   UNL     1     -11.218  11.757  69.429  1.00  0.00    -0.234 C  
HETATM   22 BR   UNL     1     -11.447  13.493  68.807  1.00  0.00    -0.376 Br 
ENDBRANCH  14  20
ENDBRANCH   6  11
ENDBRANCH   3   4
TORSDOF 3
ENDMDL
MODEL      100
REMARK 921   NORMALIZED FREE ENERGY PREDICTED BY IDOCK:   -4.11 KCAL/MOL
REMARK 922        TOTAL FREE ENERGY PREDICTED BY IDOCK:   -5.44 KCAL/MOL
REMARK 923 INTER-LIGAND FREE ENERGY PREDICTED BY IDOCK:   -5.05 KCAL/MOL
REMARK 924 INTRA-LIGAND FREE ENERGY PREDICTED BY IDOCK:   -0.39 KCAL/MOL
REMARK 927      BINDING AFFINITY PREDICTED BY RF-SCORE:    0.00 PKD
ROOT
HETATM    1  O5* UNL     1      -6.194  10.476  63.914  1.00  0.00    -0.308 OA 
HETATM    2  H5* UNL     1      -5.248  10.387  63.926  1.00  0.00     0.000 HD 
HETATM    3  C5* UNL     1      -6.749  10.287  65.216  1.00  0.00    -0.126 C  
ENDROOT
BRANCH   3   4
HETATM    4  C4* UNL     1      -8.270  10.429  65.196  1.00  0.00    -0.158 C  
HETATM    5  O4* UNL     1      -8.711  11.307  66.249  1.00  0.00    -0.179 OA 
HETATM    6  C1* UNL     1     -10.010  11.757  65.843  1.00  0.00    -0.236 C  
HETATM    7  C2* UNL     1      -9.944  11.937  64.330  1.00  0.00    -0.260 C  
HETATM    8  H3* UNL     1      -9.635  10.348  62.239  1.00  0.00     0.000 HD 
HETATM    9  O3* UNL     1      -9.295   9.981  63.046  1.00  0.00    -0.287 OA 
HETATM   10  C3* UNL     1      -8.816  11.019  63.897  1.00  0.00     0.021 C  
BRANCH   6  11
HETATM   11  N   UNL     1     -10.396  12.964  66.562  1.00  0.00    -0.260 N  
HETATM   12  C   UNL     1      -9.452  13.784  67.160  1.00  0.00    -0.244 C  
HETATM   13  C   UNL     1     -11.228  15.226  67.940  1.00  0.00    -0.331 C  
HETATM   14  C   UNL     1      -9.775  14.884  67.858  1.00  0.00    -0.206 C  
HETATM   15  O   UNL     1     -12.611  12.628  65.994  1.00  0.00    -0.468 OA 
HETATM   16  N   UNL     1     -12.084  14.409  67.262  1.00  0.00    -0.573 N  
HETATM   17  H   UNL     1     -13.072  14.663  67.274  1.00  0.00     0.000 HD 
HETATM   18  O   UNL     1     -11.640  16.191  68.580  1.00  0.00    -0.377 OA 
HETATM   19  C   UNL     1     -11.744  13.284  66.568  1.00  0.00    -0.377 C  
BRANCH  14  20
HETATM   20  C   UNL     1      -8.817  15.789  68.474  1.00  0.00    -0.193 C  
HETATM   21  C   UNL     1      -8.414  16.968  67.985  1.00  0.00    -0.216 C  
HETATM   22 BR   UNL     1      -7.152  18.045  68.821  1.00  0.00    -0.278 Br 
ENDBRANCH  14  20
ENDBRANCH   6  11
ENDBRANCH   3   4
TORSDOF 3
ENDMDL
MODEL      101
REMARK 921   NORMALIZED FREE ENERGY PREDICTED BY IDOCK:   -4.11 KCAL/MOL
REMARK 922        TOTAL FREE ENERGY PREDICTED BY IDOCK:   -5.44 KCAL/MOL
REMARK 923 INTER-LIGAND FREE ENERGY PREDICTED BY IDOCK:   -5.88 KCAL/MOL
REMARK 924 INTRA-LIGAND FREE ENERGY PREDICTED BY IDOCK:    0.45 KCAL/MOL
REMARK 927      BINDING AFFINITY PREDICTED BY RF-SCORE:    0.00 PKD
ROOT
HETATM    1  O5* UNL     1     -14.404  14.215  72.559  1.00  0.00    -0.595 OA 
HETATM    2  H5* UNL     1     -15.208  13.734  72.720  1.00  0.00     0.000 HD 
HETATM    3  C5* UNL     1     -13.412  13.380  71.960  1.00  0.00    -0.494 C  
ENDROOT
BRANCH   3   4
HETATM    4  C4* UNL     1     -12.119  14.153  71.703  1.00  0.00    -0.107 C  
HETATM    5  O4* UNL     1     -11.639  13.908  70.368  1.00  0.00    -0.227 OA 
HETATM    6  C1* UNL     1     -10.773  15.010  70.072  1.00  0.00    -0.192 C  
HETATM    7  C2* UNL     1     -11.413  16.238  70.712  1.00  0.00    -0.327 C  
HETATM    8  H3* UNL     1     -11.915  17.050  73.179  1.00  0.00     0.000 HD 
HETATM    9  O3* UNL     1     -11.820  16.108  73.103  1.00  0.00    -0.450 OA 
HETATM   10  C3* UNL     1     -12.273  15.668  71.825  1.00  0.00    -0.421 C  
BRANCH   6  11
HETATM   11  N   UNL     1     -10.560  15.141  68.636  1.00  0.00    -0.228 N  
HETATM   12  C   UNL     1      -9.488  15.858  68.127  1.00  0.00    -0.203 C  
HETATM   13  C   UNL     1     -10.251  15.367  65.886  1.00  0.00    -0.344 C  
HETATM   14  C   UNL     1      -9.280  16.027  66.811  1.00  0.00    -0.264 C  
HETATM   15  O   UNL     1     -12.366  13.763  68.212  1.00  0.00    -0.242 OA 
HETATM   16  N   UNL     1     -11.233  14.620  66.468  1.00  0.00    -0.341 N  
HETATM   17  H   UNL     1     -11.871  14.127  65.843  1.00  0.00     0.000 HD 
HETATM   18  O   UNL     1     -10.177  15.482  64.665  1.00  0.00    -0.262 OA 
HETATM   19  C   UNL     1     -11.442  14.468  67.809  1.00  0.00    -0.340 C  
BRANCH  14  20
HETATM   20  C   UNL     1      -8.153  16.742  66.232  1.00  0.00    -0.365 C  
HETATM   21  C   UNL     1      -6.953  16.920  66.796  1.00  0.00    -0.235 C  
HETATM   22 BR   UNL     1      -5.580  17.885  66.000  1.00  0.00    -0.246 Br 
ENDBRANCH  14  20
ENDBRANCH   6  11
ENDBRANCH   3   4
TORSDOF 3
ENDMDL
MODEL      102
REMARK 921   NORMALIZED FREE ENERGY PREDICTED BY IDOCK:   -4.10 KCAL/MOL
REMARK 922        TOTAL FREE ENERGY PREDICTED BY IDOCK:   -5.43 KCAL/MOL
REMARK 923 INTER-LIGAND FREE ENERGY PREDICTED BY IDOCK:   -4.91 KCAL/MOL
REMARK 924 INTRA-LIGAND FREE ENERGY PREDICTED BY IDOCK:   -0.52 KCAL/MOL
REMARK 927      BINDING AFFINITY PREDICTED BY RF-SCORE:    0.00 PKD
ROOT
HETATM    1  O5* UNL     1     -11.345  12.962  64.445  1.00  0.00    -0.325 OA 
HETATM    2  H5* UNL     1     -11.601  12.689  63.572  1.00  0.00     0.000 HD 
HETATM    3  C5* UNL     1     -11.893  12.097  65.441  1.00  0.00    -0.295 C  
ENDROOT
BRANCH   3   4
HETATM    4  C4* UNL     1     -11.482  12.537  66.845  1.00  0.00    -0.353 C  
HETATM    5  O4* UNL     1     -12.001  11.628  67.833  1.00  0.00    -0.599 OA 
HETATM    6  C1* UNL     1     -11.177  11.821  68.990  1.00  0.00    -0.265 C  
HETATM    7  C2* UNL     1      -9.763  12.059  68.471  1.00  0.00    -0.165 C  
HETATM    8  H3* UNL     1      -8.547  13.936  67.059  1.00  0.00     0.000 HD 
HETATM    9  O3* UNL     1      -9.487  13.911  66.925  1.00  0.00    -0.240 OA 
HETATM   10  C3* UNL     1      -9.970  12.577  67.059  1.00  0.00    -0.214 C  
BRANCH   6  11
HETATM   11  N   UNL     1     -11.284  10.693  69.906  1.00  0.00    -0.288 N  
HETATM   12  C   UNL     1     -10.284   9.737  69.997  1.00  0.00    -0.263 C  
HETATM   13  C   UNL     1     -11.589   8.559  71.656  1.00  0.00    -0.299 C  
HETATM   14  C   UNL     1     -10.365   8.668  70.805  1.00  0.00    -0.249 C  
HETATM   15  O   UNL     1     -13.281  11.514  70.730  1.00  0.00     0.030 OA 
HETATM   16  N   UNL     1     -12.489   9.580  71.560  1.00  0.00    -0.351 N  
HETATM   17  H   UNL     1     -13.304   9.537  72.172  1.00  0.00     0.000 HD 
HETATM   18  O   UNL     1     -11.784   7.606  72.408  1.00  0.00    -0.311 OA 
HETATM   19  C   UNL     1     -12.402  10.655  70.723  1.00  0.00    -0.376 C  
BRANCH  14  20
HETATM   20  C   UNL     1      -9.328   7.659  70.956  1.00  0.00    -0.156 C  
HETATM   21  C   UNL     1      -8.341   7.666  71.859  1.00  0.00    -0.109 C  
HETATM   22 BR   UNL     1      -7.031   6.353  71.955  1.00  0.00    -0.081 Br 
ENDBRANCH  14  20
ENDBRANCH   6  11
ENDBRANCH   3   4
TORSDOF 3
ENDMDL
MODEL      103
REMARK 921   NORMALIZED FREE ENERGY PREDICTED BY IDOCK:   -4.06 KCAL/MOL
REMARK 922        TOTAL FREE ENERGY PREDICTED BY IDOCK:   -5.39 KCAL/MOL
REMARK 923 INTER-LIGAND FREE ENERGY PREDICTED BY IDOCK:   -5.21 KCAL/MOL
REMARK 924 INTRA-LIGAND FREE ENERGY PREDICTED BY IDOCK:   -0.18 KCAL/MOL
REMARK 927      BINDING AFFINITY PREDICTED BY RF-SCORE:    0.00 PKD
ROOT
HETATM    1  O5* UNL     1     -12.327  14.027  63.292  1.00  0.00    -1.133 OA 
HETATM    2  H5* UNL     1     -12.730  13.496  62.616  1.00  0.00     0.000 HD 
HETATM    3  C5* UNL     1     -12.159  13.286  64.502  1.00  0.00    -0.408 C  
ENDROOT
BRANCH   3   4
HETATM    4  C4* UNL     1     -11.511  14.140  65.590  1.00  0.00    -0.325 C  
HETATM    5  O4* UNL     1     -10.843  13.308  66.557  1.00  0.00    -0.278 OA 
HETATM    6  C1* UNL     1      -9.891  14.167  67.197  1.00  0.00    -0.253 C  
HETATM    7  C2* UNL     1      -9.355  15.093  66.111  1.00  0.00    -0.346 C  
HETATM    8  H3* UNL     1     -10.350  17.016  64.592  1.00  0.00     0.000 HD 
HETATM    9  O3* UNL     1     -11.008  16.414  64.919  1.00  0.00    -0.600 OA 
HETATM   10  C3* UNL     1     -10.454  15.109  65.063  1.00  0.00    -0.389 C  
BRANCH   6  11
HETATM   11  N   UNL     1      -8.857  13.394  67.873  1.00  0.00    -0.184 N  
HETATM   12  C   UNL     1      -8.813  12.011  67.786  1.00  0.00    -0.165 C  
HETATM   13  C   UNL     1      -6.869  12.002  69.222  1.00  0.00    -0.066 C  
HETATM   14  C   UNL     1      -7.895  11.267  68.422  1.00  0.00    -0.136 C  
HETATM   15  O   UNL     1      -7.842  15.338  68.604  1.00  0.00    -0.127 OA 
HETATM   16  N   UNL     1      -6.939  13.365  69.195  1.00  0.00    -0.227 N  
HETATM   17  H   UNL     1      -6.214  13.875  69.700  1.00  0.00     0.000 HD 
HETATM   18  O   UNL     1      -6.002  11.421  69.871  1.00  0.00    -0.091 OA 
HETATM   19  C   UNL     1      -7.887  14.110  68.555  1.00  0.00    -0.140 C  
BRANCH  14  20
HETATM   20  C   UNL     1      -7.792   9.819  68.332  1.00  0.00    -0.081 C  
HETATM   21  C   UNL     1      -8.415   8.930  69.115  1.00  0.00    -0.132 C  
HETATM   22 BR   UNL     1      -8.193   7.092  68.956  1.00  0.00    -0.126 Br 
ENDBRANCH  14  20
ENDBRANCH   6  11
ENDBRANCH   3   4
TORSDOF 3
ENDMDL
MODEL      104
REMARK 921   NORMALIZED FREE ENERGY PREDICTED BY IDOCK:   -4.02 KCAL/MOL
REMARK 922        TOTAL FREE ENERGY PREDICTED BY IDOCK:   -5.33 KCAL/MOL
REMARK 923 INTER-LIGAND FREE ENERGY PREDICTED BY IDOCK:   -5.87 KCAL/MOL
REMARK 924 INTRA-LIGAND FREE ENERGY PREDICTED BY IDOCK:    0.54 KCAL/MOL
REMARK 927      BINDING AFFINITY PREDICTED BY RF-SCORE:    0.00 PKD
ROOT
HETATM    1  O5* UNL     1     -12.083  16.470  71.765  1.00  0.00    -0.618 OA 
HETATM    2  H5* UNL     1     -11.527  17.238  71.704  1.00  0.00     0.000 HD 
HETATM    3  C5* UNL     1     -11.947  15.640  70.610  1.00  0.00    -0.402 C  
ENDROOT
BRANCH   3   4
HETATM    4  C4* UNL     1     -12.841  14.405  70.707  1.00  0.00    -0.353 C  
HETATM    5  O4* UNL     1     -12.239  13.289  70.026  1.00  0.00    -0.317 OA 
HETATM    6  C1* UNL     1     -12.863  12.126  70.586  1.00  0.00     0.051 C  
HETATM    7  C2* UNL     1     -13.064  12.424  72.068  1.00  0.00    -0.470 C  
HETATM    8  H3* UNL     1     -14.519  14.118  73.486  1.00  0.00     0.000 HD 
HETATM    9  O3* UNL     1     -14.361  14.408  72.595  1.00  0.00    -0.480 OA 
HETATM   10  C3* UNL     1     -13.094  13.939  72.140  1.00  0.00    -0.406 C  
BRANCH   6  11
HETATM   11  N   UNL     1     -12.071  10.929  70.330  1.00  0.00    -0.332 N  
HETATM   12  C   UNL     1     -11.258  10.825  69.213  1.00  0.00    -0.272 C  
HETATM   13  C   UNL     1     -10.625   8.597  69.906  1.00  0.00    -0.224 C  
HETATM   14  C   UNL     1     -10.542   9.726  68.928  1.00  0.00    -0.240 C  
HETATM   15  O   UNL     1     -12.776  10.001  72.326  1.00  0.00    -0.318 OA 
HETATM   16  N   UNL     1     -11.390   8.810  71.015  1.00  0.00    -0.267 N  
HETATM   17  H   UNL     1     -11.415   8.063  71.710  1.00  0.00     0.000 HD 
HETATM   18  O   UNL     1     -10.039   7.532  69.730  1.00  0.00    -0.187 OA 
HETATM   19  C   UNL     1     -12.125   9.928  71.285  1.00  0.00    -0.394 C  
BRANCH  14  20
HETATM   20  C   UNL     1      -9.651   9.585  67.787  1.00  0.00    -0.156 C  
HETATM   21  C   UNL     1      -9.983   9.733  66.499  1.00  0.00    -0.239 C  
HETATM   22 BR   UNL     1      -8.787   9.494  65.099  1.00  0.00    -0.242 Br 
ENDBRANCH  14  20
ENDBRANCH   6  11
ENDBRANCH   3   4
TORSDOF 3
ENDMDL
MODEL      105
REMARK 921   NORMALIZED FREE ENERGY PREDICTED BY IDOCK:   -3.94 KCAL/MOL
REMARK 922        TOTAL FREE ENERGY PREDICTED BY IDOCK:   -5.24 KCAL/MOL
REMARK 923 INTER-LIGAND FREE ENERGY PREDICTED BY IDOCK:   -5.47 KCAL/MOL
REMARK 924 INTRA-LIGAND FREE ENERGY PREDICTED BY IDOCK:    0.23 KCAL/MOL
REMARK 927      BINDING AFFINITY PREDICTED BY RF-SCORE:    0.00 PKD
ROOT
HETATM    1  O5* UNL     1     -11.212   5.442  65.983  1.00  0.00    -0.783 OA 
HETATM    2  H5* UNL     1     -11.641   4.622  65.765  1.00  0.00     0.000 HD 
HETATM    3  C5* UNL     1     -10.499   5.341  67.217  1.00  0.00    -0.173 C  
ENDROOT
BRANCH   3   4
HETATM    4  C4* UNL     1      -9.810   6.658  67.568  1.00  0.00    -0.129 C  
HETATM    5  O4* UNL     1     -10.775   7.638  67.994  1.00  0.00    -0.178 OA 
HETATM    6  C1* UNL     1     -10.027   8.599  68.749  1.00  0.00    -0.183 C  
HETATM    7  C2* UNL     1      -8.974   7.810  69.518  1.00  0.00    -0.142 C  
HETATM    8  H3* UNL     1      -6.847   6.366  68.892  1.00  0.00     0.000 HD 
HETATM    9  O3* UNL     1      -7.476   6.440  68.184  1.00  0.00    -0.090 OA 
HETATM   10  C3* UNL     1      -8.799   6.539  68.707  1.00  0.00    -0.125 C  
BRANCH   6  11
HETATM   11  N   UNL     1     -10.902   9.396  69.600  1.00  0.00    -0.238 N  
HETATM   12  C   UNL     1     -11.022  10.767  69.432  1.00  0.00    -0.254 C  
HETATM   13  C   UNL     1     -12.566  10.838  71.291  1.00  0.00    -0.426 C  
HETATM   14  C   UNL     1     -11.791  11.536  70.219  1.00  0.00    -0.431 C  
HETATM   15  O   UNL     1     -11.631   7.490  70.685  1.00  0.00    -0.288 OA 
HETATM   16  N   UNL     1     -12.447   9.480  71.340  1.00  0.00    -0.341 N  
HETATM   17  H   UNL     1     -13.009   8.993  72.039  1.00  0.00     0.000 HD 
HETATM   18  O   UNL     1     -13.275  11.446  72.089  1.00  0.00    -0.490 OA 
HETATM   19  C   UNL     1     -11.649   8.711  70.543  1.00  0.00    -0.139 C  
BRANCH  14  20
HETATM   20  C   UNL     1     -11.973  12.970  70.059  1.00  0.00    -0.383 C  
HETATM   21  C   UNL     1     -11.517  13.719  69.048  1.00  0.00    -0.305 C  
HETATM   22 BR   UNL     1     -11.761  15.558  68.945  1.00  0.00    -0.370 Br 
ENDBRANCH  14  20
ENDBRANCH   6  11
ENDBRANCH   3   4
TORSDOF 3
ENDMDL
MODEL      106
REMARK 921   NORMALIZED FREE ENERGY PREDICTED BY IDOCK:   -3.93 KCAL/MOL
REMARK 922        TOTAL FREE ENERGY PREDICTED BY IDOCK:   -5.23 KCAL/MOL
REMARK 923 INTER-LIGAND FREE ENERGY PREDICTED BY IDOCK:   -4.65 KCAL/MOL
REMARK 924 INTRA-LIGAND FREE ENERGY PREDICTED BY IDOCK:   -0.58 KCAL/MOL
REMARK 927      BINDING AFFINITY PREDICTED BY RF-SCORE:    0.00 PKD
ROOT
HETATM    1  O5* UNL     1      -8.548  17.560  67.594  1.00  0.00    -0.216 OA 
HETATM    2  H5* UNL     1      -7.717  17.967  67.810  1.00  0.00     0.000 HD 
HETATM    3  C5* UNL     1      -8.356  16.317  66.917  1.00  0.00    -0.232 C  
ENDROOT
BRANCH   3   4
HETATM    4  C4* UNL     1      -9.691  15.662  66.570  1.00  0.00    -0.266 C  
HETATM    5  O4* UNL     1      -9.499  14.287  66.190  1.00  0.00    -0.281 OA 
HETATM    6  C1* UNL     1     -10.775  13.663  66.379  1.00  0.00    -0.281 C  
HETATM    7  C2* UNL     1     -11.378  14.297  67.627  1.00  0.00    -0.344 C  
HETATM    8  H3* UNL     1     -12.243  16.702  68.309  1.00  0.00     0.000 HD 
HETATM    9  O3* UNL     1     -11.623  16.712  67.590  1.00  0.00     0.124 OA 
HETATM   10  C3* UNL     1     -10.688  15.645  67.727  1.00  0.00    -0.297 C  
BRANCH   6  11
HETATM   11  N   UNL     1     -10.645  12.213  66.461  1.00  0.00    -0.231 N  
HETATM   12  C   UNL     1     -10.686  11.551  67.678  1.00  0.00    -0.211 C  
HETATM   13  C   UNL     1     -10.354   9.453  66.524  1.00  0.00    -0.198 C  
HETATM   14  C   UNL     1     -10.536  10.222  67.793  1.00  0.00    -0.269 C  
HETATM   15  O   UNL     1     -10.567  12.061  64.156  1.00  0.00    -0.297 OA 
HETATM   16  N   UNL     1     -10.400  10.172  65.366  1.00  0.00    -0.201 N  
HETATM   17  H   UNL     1     -10.324   9.649  64.493  1.00  0.00     0.000 HD 
HETATM   18  O   UNL     1     -10.175   8.237  66.513  1.00  0.00    -0.288 OA 
HETATM   19  C   UNL     1     -10.538  11.526  65.263  1.00  0.00    -0.283 C  
BRANCH  14  20
HETATM   20  C   UNL     1     -10.604   9.483  69.044  1.00  0.00    -0.238 C  
HETATM   21  C   UNL     1      -9.787   9.624  70.094  1.00  0.00    -0.262 C  
HETATM   22 BR   UNL     1      -9.923   8.605  71.642  1.00  0.00    -0.380 Br 
ENDBRANCH  14  20
ENDBRANCH   6  11
ENDBRANCH   3   4
TORSDOF 3
ENDMDL
MODEL      107
REMARK 921   NORMALIZED FREE ENERGY PREDICTED BY IDOCK:   -3.91 KCAL/MOL
REMARK 922        TOTAL FREE ENERGY PREDICTED BY IDOCK:   -5.21 KCAL/MOL
REMARK 923 INTER-LIGAND FREE ENERGY PREDICTED BY IDOCK:   -5.39 KCAL/MOL
REMARK 924 INTRA-LIGAND FREE ENERGY PREDICTED BY IDOCK:    0.18 KCAL/MOL
REMARK 927      BINDING AFFINITY PREDICTED BY RF-SCORE:    0.00 PKD
ROOT
HETATM    1  O5* UNL     1      -8.142  19.706  68.923  1.00  0.00    -0.330 OA 
HETATM    2  H5* UNL     1      -7.472  20.171  69.410  1.00  0.00     0.000 HD 
HETATM    3  C5* UNL     1      -7.625  18.508  68.343  1.00  0.00    -0.292 C  
ENDROOT
BRANCH   3   4
HETATM    4  C4* UNL     1      -8.702  17.761  67.560  1.00  0.00    -0.239 C  
HETATM    5  O4* UNL     1      -8.884  16.434  68.087  1.00  0.00    -0.185 OA 
HETATM    6  C1* UNL     1     -10.189  16.032  67.652  1.00  0.00    -0.262 C  
HETATM    7  C2* UNL     1     -11.062  17.281  67.718  1.00  0.00    -0.037 C  
HETATM    8  H3* UNL     1     -11.152  19.606  66.461  1.00  0.00     0.000 HD 
HETATM    9  O3* UNL     1     -10.298  19.191  66.429  1.00  0.00    -0.391 OA 
HETATM   10  C3* UNL     1     -10.075  18.428  67.612  1.00  0.00    -0.360 C  
BRANCH   6  11
HETATM   11  N   UNL     1     -10.692  14.921  68.450  1.00  0.00    -0.239 N  
HETATM   12  C   UNL     1     -10.805  13.645  67.922  1.00  0.00    -0.250 C  
HETATM   13  C   UNL     1     -11.692  12.872  70.034  1.00  0.00    -0.212 C  
HETATM   14  C   UNL     1     -11.295  12.606  68.618  1.00  0.00    -0.331 C  
HETATM   15  O   UNL     1     -10.844  16.287  70.308  1.00  0.00    -0.319 OA 
HETATM   16  N   UNL     1     -11.479  14.138  70.497  1.00  0.00    -0.506 N  
HETATM   17  H   UNL     1     -11.703  14.316  71.477  1.00  0.00     0.000 HD 
HETATM   18  O   UNL     1     -12.182  12.005  70.753  1.00  0.00    -0.377 OA 
HETATM   19  C   UNL     1     -10.993  15.189  69.775  1.00  0.00    -0.280 C  
BRANCH  14  20
HETATM   20  C   UNL     1     -11.402  11.245  68.116  1.00  0.00    -0.372 C  
HETATM   21  C   UNL     1     -10.396  10.484  67.668  1.00  0.00    -0.217 C  
HETATM   22 BR   UNL     1     -10.629   8.765  67.005  1.00  0.00    -0.192 Br 
ENDBRANCH  14  20
ENDBRANCH   6  11
ENDBRANCH   3   4
TORSDOF 3
ENDMDL
MODEL      108
REMARK 921   NORMALIZED FREE ENERGY PREDICTED BY IDOCK:   -3.90 KCAL/MOL
REMARK 922        TOTAL FREE ENERGY PREDICTED BY IDOCK:   -5.20 KCAL/MOL
REMARK 923 INTER-LIGAND FREE ENERGY PREDICTED BY IDOCK:   -5.35 KCAL/MOL
REMARK 924 INTRA-LIGAND FREE ENERGY PREDICTED BY IDOCK:    0.15 KCAL/MOL
REMARK 927      BINDING AFFINITY PREDICTED BY RF-SCORE:    0.00 PKD
ROOT
HETATM    1  O5* UNL     1     -11.783   7.503  72.915  1.00  0.00    -0.570 OA 
HETATM    2  H5* UNL     1     -11.652   6.577  73.080  1.00  0.00     0.000 HD 
HETATM    3  C5* UNL     1     -11.101   7.922  71.732  1.00  0.00    -0.253 C  
ENDROOT
BRANCH   3   4
HETATM    4  C4* UNL     1     -11.313   9.411  71.467  1.00  0.00    -0.394 C  
HETATM    5  O4* UNL     1     -10.541   9.838  70.330  1.00  0.00    -0.265 OA 
HETATM    6  C1* UNL     1     -11.173  11.043  69.878  1.00  0.00    -0.252 C  
HETATM    7  C2* UNL     1     -12.671  10.834  70.068  1.00  0.00    -0.176 C  
HETATM    8  H3* UNL     1     -14.301  10.529  72.129  1.00  0.00     0.000 HD 
HETATM    9  O3* UNL     1     -13.400  10.299  72.322  1.00  0.00    -0.407 OA 
HETATM   10  C3* UNL     1     -12.762   9.781  71.157  1.00  0.00    -0.340 C  
BRANCH   6  11
HETATM   11  N   UNL     1     -10.793  11.354  68.506  1.00  0.00    -0.197 N  
HETATM   12  C   UNL     1     -10.444  12.640  68.126  1.00  0.00    -0.231 C  
HETATM   13  C   UNL     1     -10.116  11.860  65.861  1.00  0.00    -0.234 C  
HETATM   14  C   UNL     1     -10.122  12.969  66.864  1.00  0.00    -0.243 C  
HETATM   15  O   UNL     1     -10.973   9.125  67.920  1.00  0.00    -0.141 OA 
HETATM   16  N   UNL     1     -10.399  10.612  66.333  1.00  0.00    -0.237 N  
HETATM   17  H   UNL     1     -10.352   9.843  65.664  1.00  0.00     0.000 HD 
HETATM   18  O   UNL     1      -9.869  12.051  64.673  1.00  0.00    -0.237 OA 
HETATM   19  C   UNL     1     -10.740  10.294  67.616  1.00  0.00    -0.288 C  
BRANCH  14  20
HETATM   20  C   UNL     1      -9.718  14.296  66.428  1.00  0.00    -0.315 C  
HETATM   21  C   UNL     1      -8.685  15.005  66.898  1.00  0.00    -0.256 C  
HETATM   22 BR   UNL     1      -8.265  16.716  66.309  1.00  0.00    -0.312 Br 
ENDBRANCH  14  20
ENDBRANCH   6  11
ENDBRANCH   3   4
TORSDOF 3
ENDMDL
MODEL      109
REMARK 921   NORMALIZED FREE ENERGY PREDICTED BY IDOCK:   -3.87 KCAL/MOL
REMARK 922        TOTAL FREE ENERGY PREDICTED BY IDOCK:   -5.16 KCAL/MOL
REMARK 923 INTER-LIGAND FREE ENERGY PREDICTED BY IDOCK:   -4.84 KCAL/MOL
REMARK 924 INTRA-LIGAND FREE ENERGY PREDICTED BY IDOCK:   -0.31 KCAL/MOL
REMARK 927      BINDING AFFINITY PREDICTED BY RF-SCORE:    0.00 PKD
ROOT
HETATM    1  O5* UNL     1     -13.084   7.717  71.399  1.00  0.00    -0.402 OA 
HETATM    2  H5* UNL     1     -13.327   6.875  71.766  1.00  0.00     0.000 HD 
HETATM    3  C5* UNL     1     -12.028   8.324  72.145  1.00  0.00    -0.369 C  
ENDROOT
BRANCH   3   4
HETATM    4  C4* UNL     1     -11.639   9.678  71.556  1.00  0.00    -0.381 C  
HETATM    5  O4* UNL     1     -10.695   9.511  70.482  1.00  0.00    -0.250 OA 
HETATM    6  C1* UNL     1     -10.791  10.713  69.707  1.00  0.00    -0.261 C  
HETATM    7  C2* UNL     1     -12.264  11.107  69.713  1.00  0.00    -0.369 C  
HETATM    8  H3* UNL     1     -14.009  11.914  71.530  1.00  0.00     0.000 HD 
HETATM    9  O3* UNL     1     -13.277  11.432  71.896  1.00  0.00    -0.484 OA 
HETATM   10  C3* UNL     1     -12.816  10.454  70.967  1.00  0.00    -0.401 C  
BRANCH   6  11
HETATM   11  N   UNL     1     -10.239  10.525  68.372  1.00  0.00    -0.165 N  
HETATM   12  C   UNL     1     -10.064   9.259  67.833  1.00  0.00    -0.200 C  
HETATM   13  C   UNL     1      -9.148  10.259  65.832  1.00  0.00    -0.163 C  
HETATM   14  C   UNL     1      -9.528   9.047  66.621  1.00  0.00    -0.251 C  
HETATM   15  O   UNL     1     -10.156  12.812  68.051  1.00  0.00    -0.217 OA 
HETATM   16  N   UNL     1      -9.422  11.467  66.405  1.00  0.00    -0.198 N  
HETATM   17  H   UNL     1      -9.209  12.298  65.853  1.00  0.00     0.000 HD 
HETATM   18  O   UNL     1      -8.619  10.183  64.726  1.00  0.00    -0.160 OA 
HETATM   19  C   UNL     1      -9.954  11.669  67.645  1.00  0.00    -0.188 C  
BRANCH  14  20
HETATM   20  C   UNL     1      -9.356   7.741  66.004  1.00  0.00    -0.102 C  
HETATM   21  C   UNL     1      -9.784   6.571  66.493  1.00  0.00    -0.126 C  
HETATM   22 BR   UNL     1      -9.484   4.940  65.656  1.00  0.00    -0.154 Br 
ENDBRANCH  14  20
ENDBRANCH   6  11
ENDBRANCH   3   4
TORSDOF 3
ENDMDL
MODEL      110
REMARK 921   NORMALIZED FREE ENERGY PREDICTED BY IDOCK:   -3.86 KCAL/MOL
REMARK 922        TOTAL FREE ENERGY PREDICTED BY IDOCK:   -5.15 KCAL/MOL
REMARK 923 INTER-LIGAND FREE ENERGY PREDICTED BY IDOCK:   -5.57 KCAL/MOL
REMARK 924 INTRA-LIGAND FREE ENERGY PREDICTED BY IDOCK:    0.42 KCAL/MOL
REMARK 927      BINDING AFFINITY PREDICTED BY RF-SCORE:    0.00 PKD
ROOT
HETATM    1  O5* UNL     1     -14.318  14.972  72.881  1.00  0.00    -0.298 OA 
HETATM    2  H5* UNL     1     -15.178  14.922  73.280  1.00  0.00     0.000 HD 
HETATM    3  C5* UNL     1     -14.016  13.786  72.145  1.00  0.00    -0.544 C  
ENDROOT
BRANCH   3   4
HETATM    4  C4* UNL     1     -12.633  13.867  71.504  1.00  0.00    -0.334 C  
HETATM    5  O4* UNL     1     -12.200  12.566  71.065  1.00  0.00    -0.307 OA 
HETATM    6  C1* UNL     1     -11.194  12.818  70.076  1.00  0.00     0.298 C  
HETATM    7  C2* UNL     1     -11.656  14.050  69.304  1.00  0.00    -0.356 C  
HETATM    8  H3* UNL     1     -12.025  16.610  69.854  1.00  0.00     0.000 HD 
HETATM    9  O3* UNL     1     -12.059  16.050  70.620  1.00  0.00    -0.361 OA 
HETATM   10  C3* UNL     1     -12.578  14.768  70.272  1.00  0.00    -0.315 C  
BRANCH   6  11
HETATM   11  N   UNL     1     -10.975  11.647  69.237  1.00  0.00    -0.220 N  
HETATM   12  C   UNL     1     -10.445  11.761  67.961  1.00  0.00    -0.199 C  
HETATM   13  C   UNL     1     -10.624   9.364  67.696  1.00  0.00    -0.271 C  
HETATM   14  C   UNL     1     -10.262  10.708  67.148  1.00  0.00    -0.261 C  
HETATM   15  O   UNL     1     -11.670  10.256  70.946  1.00  0.00    -0.333 OA 
HETATM   16  N   UNL     1     -11.068   9.334  68.985  1.00  0.00    -0.445 N  
HETATM   17  H   UNL     1     -11.273   8.416  69.382  1.00  0.00     0.000 HD 
HETATM   18  O   UNL     1     -10.529   8.336  67.030  1.00  0.00    -0.310 OA 
HETATM   19  C   UNL     1     -11.265  10.414  69.796  1.00  0.00    -0.293 C  
BRANCH  14  20
HETATM   20  C   UNL     1      -9.680  10.776  65.817  1.00  0.00    -0.278 C  
HETATM   21  C   UNL     1     -10.351  10.871  64.663  1.00  0.00    -0.338 C  
HETATM   22 BR   UNL     1      -9.525  10.911  62.999  1.00  0.00    -0.405 Br 
ENDBRANCH  14  20
ENDBRANCH   6  11
ENDBRANCH   3   4
TORSDOF 3
ENDMDL
MODEL      111
REMARK 921   NORMALIZED FREE ENERGY PREDICTED BY IDOCK:   -3.83 KCAL/MOL
REMARK 922        TOTAL FREE ENERGY PREDICTED BY IDOCK:   -5.11 KCAL/MOL
REMARK 923 INTER-LIGAND FREE ENERGY PREDICTED BY IDOCK:   -5.18 KCAL/MOL
REMARK 924 INTRA-LIGAND FREE ENERGY PREDICTED BY IDOCK:    0.07 KCAL/MOL
REMARK 927      BINDING AFFINITY PREDICTED BY RF-SCORE:    0.00 PKD
ROOT
HETATM    1  O5* UNL     1      -7.321  10.871  65.435  1.00  0.00    -0.354 OA 
HETATM    2  H5* UNL     1      -6.548  10.836  64.884  1.00  0.00     0.000 HD 
HETATM    3  C5* UNL     1      -7.485   9.661  66.176  1.00  0.00    -0.098 C  
ENDROOT
BRANCH   3   4
HETATM    4  C4* UNL     1      -8.727   9.717  67.063  1.00  0.00    -0.135 C  
HETATM    5  O4* UNL     1      -8.863  11.018  67.664  1.00  0.00    -0.130 OA 
HETATM    6  C1* UNL     1     -10.245  11.121  68.030  1.00  0.00    -0.181 C  
HETATM    7  C2* UNL     1     -11.031  10.425  66.923  1.00  0.00    -0.167 C  
HETATM    8  H3* UNL     1     -11.258   7.950  66.021  1.00  0.00     0.000 HD 
HETATM    9  O3* UNL     1     -10.447   8.109  66.488  1.00  0.00    -0.252 OA 
HETATM   10  C3* UNL     1     -10.032   9.461  66.311  1.00  0.00    -0.283 C  
BRANCH   6  11
HETATM   11  N   UNL     1     -10.632  12.510  68.242  1.00  0.00    -0.224 N  
HETATM   12  C   UNL     1     -11.381  12.892  69.344  1.00  0.00    -0.201 C  
HETATM   13  C   UNL     1     -11.352  15.174  68.545  1.00  0.00    -0.309 C  
HETATM   14  C   UNL     1     -11.783  14.156  69.552  1.00  0.00    -0.364 C  
HETATM   15  O   UNL     1      -9.441  13.157  66.369  1.00  0.00    -0.257 OA 
HETATM   16  N   UNL     1     -10.555  14.727  67.532  1.00  0.00    -0.256 N  
HETATM   17  H   UNL     1     -10.218  15.423  66.868  1.00  0.00     0.000 HD 
HETATM   18  O   UNL     1     -11.690  16.353  68.618  1.00  0.00    -0.255 OA 
HETATM   19  C   UNL     1     -10.166  13.435  67.323  1.00  0.00    -0.241 C  
BRANCH  14  20
HETATM   20  C   UNL     1     -12.541  14.607  70.708  1.00  0.00    -0.415 C  
HETATM   21  C   UNL     1     -12.035  15.015  71.878  1.00  0.00    -0.382 C  
HETATM   22 BR   UNL     1     -13.082  15.538  73.321  1.00  0.00    -0.677 Br 
ENDBRANCH  14  20
ENDBRANCH   6  11
ENDBRANCH   3   4
TORSDOF 3
ENDMDL
MODEL      112
REMARK 921   NORMALIZED FREE ENERGY PREDICTED BY IDOCK:   -3.79 KCAL/MOL
REMARK 922        TOTAL FREE ENERGY PREDICTED BY IDOCK:   -5.06 KCAL/MOL
REMARK 923 INTER-LIGAND FREE ENERGY PREDICTED BY IDOCK:   -5.28 KCAL/MOL
REMARK 924 INTRA-LIGAND FREE ENERGY PREDICTED BY IDOCK:    0.22 KCAL/MOL
REMARK 927      BINDING AFFINITY PREDICTED BY RF-SCORE:    0.00 PKD
ROOT
HETATM    1  O5* UNL     1     -11.479  14.290  70.739  1.00  0.00    -0.505 OA 
HETATM    2  H5* UNL     1     -11.739  14.931  71.391  1.00  0.00     0.000 HD 
HETATM    3  C5* UNL     1     -11.154  14.916  69.497  1.00  0.00    -0.281 C  
ENDROOT
BRANCH   3   4
HETATM    4  C4* UNL     1     -10.736  13.886  68.450  1.00  0.00    -0.257 C  
HETATM    5  O4* UNL     1     -10.430  12.625  69.072  1.00  0.00    -0.135 OA 
HETATM    6  C1* UNL     1     -10.550  11.651  68.028  1.00  0.00    -0.202 C  
HETATM    7  C2* UNL     1     -11.722  12.099  67.162  1.00  0.00    -0.372 C  
HETATM    8  H3* UNL     1     -12.236  14.147  65.569  1.00  0.00     0.000 HD 
HETATM    9  O3* UNL     1     -11.565  14.329  66.216  1.00  0.00    -0.349 OA 
HETATM   10  C3* UNL     1     -11.816  13.593  67.410  1.00  0.00    -0.393 C  
BRANCH   6  11
HETATM   11  N   UNL     1     -10.702  10.309  68.574  1.00  0.00    -0.214 N  
HETATM   12  C   UNL     1     -10.244   9.193  67.891  1.00  0.00    -0.216 C  
HETATM   13  C   UNL     1     -11.067   7.787  69.677  1.00  0.00    -0.042 C  
HETATM   14  C   UNL     1     -10.398   7.940  68.348  1.00  0.00    -0.235 C  
HETATM   15  O   UNL     1     -11.630  11.170  70.508  1.00  0.00    -0.306 OA 
HETATM   16  N   UNL     1     -11.420   8.939  70.316  1.00  0.00    -0.438 N  
HETATM   17  H   UNL     1     -11.834   8.844  71.243  1.00  0.00     0.000 HD 
HETATM   18  O   UNL     1     -11.289   6.686  70.176  1.00  0.00    -0.327 OA 
HETATM   19  C   UNL     1     -11.271  10.207  69.833  1.00  0.00    -0.287 C  
BRANCH  14  20
HETATM   20  C   UNL     1      -9.905   6.745  67.682  1.00  0.00    -0.155 C  
HETATM   21  C   UNL     1     -10.607   5.941  66.875  1.00  0.00    -0.315 C  
HETATM   22 BR   UNL     1      -9.906   4.406  66.097  1.00  0.00    -0.256 Br 
ENDBRANCH  14  20
ENDBRANCH   6  11
ENDBRANCH   3   4
TORSDOF 3
ENDMDL
MODEL      113
REMARK 921   NORMALIZED FREE ENERGY PREDICTED BY IDOCK:   -3.77 KCAL/MOL
REMARK 922        TOTAL FREE ENERGY PREDICTED BY IDOCK:   -5.04 KCAL/MOL
REMARK 923 INTER-LIGAND FREE ENERGY PREDICTED BY IDOCK:   -5.27 KCAL/MOL
REMARK 924 INTRA-LIGAND FREE ENERGY PREDICTED BY IDOCK:    0.23 KCAL/MOL
REMARK 927      BINDING AFFINITY PREDICTED BY RF-SCORE:    0.00 PKD
ROOT
HETATM    1  O5* UNL     1      -8.669   7.285  65.758  1.00  0.00    -0.191 OA 
HETATM    2  H5* UNL     1      -8.679   6.610  65.090  1.00  0.00     0.000 HD 
HETATM    3  C5* UNL     1      -8.972   8.566  65.205  1.00  0.00    -0.050 C  
ENDROOT
BRANCH   3   4
HETATM    4  C4* UNL     1      -8.956   9.652  66.280  1.00  0.00    -0.155 C  
HETATM    5  O4* UNL     1      -8.864  10.957  65.680  1.00  0.00    -0.185 OA 
HETATM    6  C1* UNL     1      -9.353  11.864  66.677  1.00  0.00    -0.205 C  
HETATM    7  C2* UNL     1     -10.502  11.147  67.377  1.00  0.00    -0.255 C  
HETATM    8  H3* UNL     1     -10.752   9.016  68.923  1.00  0.00     0.000 HD 
HETATM    9  O3* UNL     1      -9.971   9.001  68.383  1.00  0.00    -0.168 OA 
HETATM   10  C3* UNL     1     -10.212   9.675  67.150  1.00  0.00    -0.243 C  
BRANCH   6  11
HETATM   11  N   UNL     1      -9.731  13.142  66.086  1.00  0.00    -0.271 N  
HETATM   12  C   UNL     1      -9.036  14.306  66.375  1.00  0.00    -0.141 C  
HETATM   13  C   UNL     1     -10.544  15.537  64.940  1.00  0.00    -0.342 C  
HETATM   14  C   UNL     1      -9.377  15.505  65.876  1.00  0.00    -0.355 C  
HETATM   15  O   UNL     1     -11.379  12.109  64.837  1.00  0.00    -0.315 OA 
HETATM   16  N   UNL     1     -11.124  14.336  64.652  1.00  0.00    -0.499 N  
HETATM   17  H   UNL     1     -11.891  14.344  63.979  1.00  0.00     0.000 HD 
HETATM   18  O   UNL     1     -10.964  16.582  64.451  1.00  0.00    -0.872 OA 
HETATM   19  C   UNL     1     -10.777  13.126  65.179  1.00  0.00    -0.315 C  
BRANCH  14  20
HETATM   20  C   UNL     1      -8.659  16.745  66.125  1.00  0.00    -0.299 C  
HETATM   21  C   UNL     1      -7.655  16.919  66.992  1.00  0.00    -0.195 C  
HETATM   22 BR   UNL     1      -6.819  18.553  67.276  1.00  0.00    -0.214 Br 
ENDBRANCH  14  20
ENDBRANCH   6  11
ENDBRANCH   3   4
TORSDOF 3
ENDMDL
MODEL      114
REMARK 921   NORMALIZED FREE ENERGY PREDICTED BY IDOCK:   -3.77 KCAL/MOL
REMARK 922        TOTAL FREE ENERGY PREDICTED BY IDOCK:   -5.04 KCAL/MOL
REMARK 923 INTER-LIGAND FREE ENERGY PREDICTED BY IDOCK:   -4.91 KCAL/MOL
REMARK 924 INTRA-LIGAND FREE ENERGY PREDICTED BY IDOCK:   -0.14 KCAL/MOL
REMARK 927      BINDING AFFINITY PREDICTED BY RF-SCORE:    0.00 PKD
ROOT
HETATM    1  O5* UNL     1     -11.380  16.876  64.510  1.00  0.00    -1.006 OA 
HETATM    2  H5* UNL     1     -11.533  17.724  64.911  1.00  0.00     0.000 HD 
HETATM    3  C5* UNL     1     -11.095  15.881  65.495  1.00  0.00    -0.146 C  
ENDROOT
BRANCH   3   4
HETATM    4  C4* UNL     1     -10.848  14.518  64.851  1.00  0.00    -0.421 C  
HETATM    5  O4* UNL     1      -9.747  13.847  65.491  1.00  0.00    -0.211 OA 
HETATM    6  C1* UNL     1      -9.923  12.459  65.183  1.00  0.00    -0.198 C  
HETATM    7  C2* UNL     1     -11.426  12.203  65.216  1.00  0.00    -0.388 C  
HETATM    8  H3* UNL     1     -13.518  12.977  63.794  1.00  0.00     0.000 HD 
HETATM    9  O3* UNL     1     -12.778  13.570  63.732  1.00  0.00    -0.682 OA 
HETATM   10  C3* UNL     1     -12.039  13.566  64.951  1.00  0.00    -0.397 C  
BRANCH   6  11
HETATM   11  N   UNL     1      -9.164  11.616  66.099  1.00  0.00    -0.219 N  
HETATM   12  C   UNL     1      -8.573  12.137  67.239  1.00  0.00    -0.180 C  
HETATM   13  C   UNL     1      -7.708   9.943  67.769  1.00  0.00    -0.091 C  
HETATM   14  C   UNL     1      -7.839  11.398  68.086  1.00  0.00    -0.130 C  
HETATM   15  O   UNL     1      -9.680   9.742  64.848  1.00  0.00    -0.296 OA 
HETATM   16  N   UNL     1      -8.383   9.498  66.669  1.00  0.00    -0.115 N  
HETATM   17  H   UNL     1      -8.337   8.498  66.473  1.00  0.00     0.000 HD 
HETATM   18  O   UNL     1      -7.034   9.179  68.456  1.00  0.00    -0.066 OA 
HETATM   19  C   UNL     1      -9.114  10.263  65.808  1.00  0.00    -0.170 C  
BRANCH  14  20
HETATM   20  C   UNL     1      -7.228  11.894  69.309  1.00  0.00     0.039 C  
HETATM   21  C   UNL     1      -6.443  12.972  69.422  1.00  0.00    -0.094 C  
HETATM   22 BR   UNL     1      -5.669  13.512  71.022  1.00  0.00    -0.136 Br 
ENDBRANCH  14  20
ENDBRANCH   6  11
ENDBRANCH   3   4
TORSDOF 3
ENDMDL
MODEL      115
REMARK 921   NORMALIZED FREE ENERGY PREDICTED BY IDOCK:   -3.77 KCAL/MOL
REMARK 922        TOTAL FREE ENERGY PREDICTED BY IDOCK:   -5.04 KCAL/MOL
REMARK 923 INTER-LIGAND FREE ENERGY PREDICTED BY IDOCK:   -5.89 KCAL/MOL
REMARK 924 INTRA-LIGAND FREE ENERGY PREDICTED BY IDOCK:    0.85 KCAL/MOL
REMARK 927      BINDING AFFINITY PREDICTED BY RF-SCORE:    0.00 PKD
ROOT
HETATM    1  O5* UNL     1     -14.262  14.475  71.990  1.00  0.00    -0.461 OA 
HETATM    2  H5* UNL     1     -15.053  14.207  72.444  1.00  0.00     0.000 HD 
HETATM    3  C5* UNL     1     -13.441  13.351  71.673  1.00  0.00    -0.299 C  
ENDROOT
BRANCH   3   4
HETATM    4  C4* UNL     1     -12.170  13.781  70.943  1.00  0.00    -0.349 C  
HETATM    5  O4* UNL     1     -11.843  12.845  69.899  1.00  0.00    -0.323 OA 
HETATM    6  C1* UNL     1     -10.993  13.568  68.999  1.00  0.00    -0.225 C  
HETATM    7  C2* UNL     1     -11.536  14.993  68.955  1.00  0.00    -0.333 C  
HETATM    8  H3* UNL     1     -11.750  17.000  70.664  1.00  0.00     0.000 HD 
HETATM    9  O3* UNL     1     -11.681  16.151  71.084  1.00  0.00    -0.430 OA 
HETATM   10  C3* UNL     1     -12.280  15.146  70.268  1.00  0.00    -0.350 C  
BRANCH   6  11
HETATM   11  N   UNL     1     -10.935  12.921  67.695  1.00  0.00    -0.241 N  
HETATM   12  C   UNL     1     -10.669  11.566  67.571  1.00  0.00    -0.223 C  
HETATM   13  C   UNL     1     -10.811  11.778  65.167  1.00  0.00    -0.297 C  
HETATM   14  C   UNL     1     -10.575  10.944  66.386  1.00  0.00    -0.289 C  
HETATM   15  O   UNL     1     -11.529  14.897  66.655  1.00  0.00    -0.349 OA 
HETATM   16  N   UNL     1     -11.141  13.085  65.381  1.00  0.00    -0.273 N  
HETATM   17  H   UNL     1     -11.350  13.649  64.557  1.00  0.00     0.000 HD 
HETATM   18  O   UNL     1     -10.718  11.322  64.031  1.00  0.00    -0.353 OA 
HETATM   19  C   UNL     1     -11.218  13.709  66.592  1.00  0.00    -0.313 C  
BRANCH  14  20
HETATM   20  C   UNL     1     -10.329   9.521  66.209  1.00  0.00    -0.226 C  
HETATM   21  C   UNL     1     -10.317   8.593  67.174  1.00  0.00    -0.299 C  
HETATM   22 BR   UNL     1      -9.953   6.798  66.864  1.00  0.00    -0.257 Br 
ENDBRANCH  14  20
ENDBRANCH   6  11
ENDBRANCH   3   4
TORSDOF 3
ENDMDL
MODEL      116
REMARK 921   NORMALIZED FREE ENERGY PREDICTED BY IDOCK:   -3.77 KCAL/MOL
REMARK 922        TOTAL FREE ENERGY PREDICTED BY IDOCK:   -5.04 KCAL/MOL
REMARK 923 INTER-LIGAND FREE ENERGY PREDICTED BY IDOCK:   -5.10 KCAL/MOL
REMARK 924 INTRA-LIGAND FREE ENERGY PREDICTED BY IDOCK:    0.06 KCAL/MOL
REMARK 927      BINDING AFFINITY PREDICTED BY RF-SCORE:    0.00 PKD
ROOT
HETATM    1  O5* UNL     1     -12.583  14.930  69.033  1.00  0.00    -0.566 OA 
HETATM    2  H5* UNL     1     -12.873  15.489  69.743  1.00  0.00     0.000 HD 
HETATM    3  C5* UNL     1     -11.761  15.646  68.110  1.00  0.00    -0.199 C  
ENDROOT
BRANCH   3   4
HETATM    4  C4* UNL     1     -11.295  14.747  66.967  1.00  0.00    -0.353 C  
HETATM    5  O4* UNL     1     -10.272  13.841  67.420  1.00  0.00    -0.248 OA 
HETATM    6  C1* UNL     1     -10.278  12.765  66.473  1.00  0.00    -0.253 C  
HETATM    7  C2* UNL     1     -11.737  12.541  66.093  1.00  0.00    -0.466 C  
HETATM    8  H3* UNL     1     -13.603  13.918  64.821  1.00  0.00     0.000 HD 
HETATM    9  O3* UNL     1     -12.914  14.461  65.186  1.00  0.00    -0.631 OA 
HETATM   10  C3* UNL     1     -12.403  13.874  66.380  1.00  0.00    -0.426 C  
BRANCH   6  11
HETATM   11  N   UNL     1      -9.625  11.581  67.018  1.00  0.00    -0.184 N  
HETATM   12  C   UNL     1     -10.227  10.334  66.965  1.00  0.00    -0.228 C  
HETATM   13  C   UNL     1      -8.321   9.387  68.113  1.00  0.00    -0.119 C  
HETATM   14  C   UNL     1      -9.670   9.229  67.486  1.00  0.00    -0.201 C  
HETATM   15  O   UNL     1      -7.748  12.823  67.544  1.00  0.00    -0.146 OA 
HETATM   16  N   UNL     1      -7.768  10.633  68.057  1.00  0.00    -0.098 N  
HETATM   17  H   UNL     1      -6.829  10.739  68.440  1.00  0.00     0.000 HD 
HETATM   18  O   UNL     1      -7.733   8.452  68.650  1.00  0.00    -0.102 OA 
HETATM   19  C   UNL     1      -8.352  11.752  67.537  1.00  0.00    -0.154 C  
BRANCH  14  20
HETATM   20  C   UNL     1     -10.249   7.897  67.425  1.00  0.00    -0.320 C  
HETATM   21  C   UNL     1      -9.755   6.847  66.757  1.00  0.00    -0.177 C  
HETATM   22 BR   UNL     1     -10.585   5.186  66.699  1.00  0.00    -0.225 Br 
ENDBRANCH  14  20
ENDBRANCH   6  11
ENDBRANCH   3   4
TORSDOF 3
ENDMDL
MODEL      117
REMARK 921   NORMALIZED FREE ENERGY PREDICTED BY IDOCK:   -3.76 KCAL/MOL
REMARK 922        TOTAL FREE ENERGY PREDICTED BY IDOCK:   -5.03 KCAL/MOL
REMARK 923 INTER-LIGAND FREE ENERGY PREDICTED BY IDOCK:   -5.38 KCAL/MOL
REMARK 924 INTRA-LIGAND FREE ENERGY PREDICTED BY IDOCK:    0.35 KCAL/MOL
REMARK 927      BINDING AFFINITY PREDICTED BY RF-SCORE:    0.00 PKD
ROOT
HETATM    1  O5* UNL     1      -9.323   6.176  68.832  1.00  0.00    -0.124 OA 
HETATM    2  H5* UNL     1      -8.989   5.494  68.261  1.00  0.00     0.000 HD 
HETATM    3  C5* UNL     1      -9.984   5.622  69.970  1.00  0.00    -0.204 C  
ENDROOT
BRANCH   3   4
HETATM    4  C4* UNL     1     -10.521   6.719  70.888  1.00  0.00    -0.213 C  
HETATM    5  O4* UNL     1     -10.306   8.018  70.306  1.00  0.00    -0.205 OA 
HETATM    6  C1* UNL     1     -11.249   8.881  70.955  1.00  0.00    -0.279 C  
HETATM    7  C2* UNL     1     -12.514   8.054  71.156  1.00  0.00    -0.206 C  
HETATM    8  H3* UNL     1     -13.191   5.931  72.581  1.00  0.00     0.000 HD 
HETATM    9  O3* UNL     1     -12.258   5.993  72.415  1.00  0.00    -0.251 OA 
HETATM   10  C3* UNL     1     -12.021   6.618  71.156  1.00  0.00    -0.357 C  
BRANCH   6  11
HETATM   11  N   UNL     1     -11.461  10.101  70.186  1.00  0.00    -0.279 N  
HETATM   12  C   UNL     1     -11.896  11.270  70.791  1.00  0.00    -0.183 C  
HETATM   13  C   UNL     1     -11.870  12.369  68.638  1.00  0.00    -0.302 C  
HETATM   14  C   UNL     1     -12.134  12.402  70.109  1.00  0.00    -0.366 C  
HETATM   15  O   UNL     1     -10.696   9.061  68.269  1.00  0.00    -0.191 OA 
HETATM   16  N   UNL     1     -11.373  11.202  68.136  1.00  0.00    -0.289 N  
HETATM   17  H   UNL     1     -11.147  11.186  67.141  1.00  0.00     0.000 HD 
HETATM   18  O   UNL     1     -12.084  13.336  67.911  1.00  0.00    -0.331 OA 
HETATM   19  C   UNL     1     -11.150  10.053  68.838  1.00  0.00    -0.176 C  
BRANCH  14  20
HETATM   20  C   UNL     1     -12.559  13.658  70.706  1.00  0.00    -0.397 C  
HETATM   21  C   UNL     1     -12.974  13.838  71.965  1.00  0.00    -0.345 C  
HETATM   22 BR   UNL     1     -13.540  15.476  72.633  1.00  0.00    -0.679 Br 
ENDBRANCH  14  20
ENDBRANCH   6  11
ENDBRANCH   3   4
TORSDOF 3
ENDMDL
MODEL      118
REMARK 921   NORMALIZED FREE ENERGY PREDICTED BY IDOCK:   -3.74 KCAL/MOL
REMARK 922        TOTAL FREE ENERGY PREDICTED BY IDOCK:   -5.01 KCAL/MOL
REMARK 923 INTER-LIGAND FREE ENERGY PREDICTED BY IDOCK:   -4.46 KCAL/MOL
REMARK 924 INTRA-LIGAND FREE ENERGY PREDICTED BY IDOCK:   -0.55 KCAL/MOL
REMARK 927      BINDING AFFINITY PREDICTED BY RF-SCORE:    0.00 PKD
ROOT
HETATM    1  O5* UNL     1      -9.975   5.853  73.863  1.00  0.00    -0.176 OA 
HETATM    2  H5* UNL     1      -9.475   5.719  74.660  1.00  0.00     0.000 HD 
HETATM    3  C5* UNL     1     -10.264   7.236  73.658  1.00  0.00    -0.346 C  
ENDROOT
BRANCH   3   4
HETATM    4  C4* UNL     1     -11.069   7.451  72.378  1.00  0.00    -0.287 C  
HETATM    5  O4* UNL     1     -11.043   8.836  71.988  1.00  0.00    -0.341 OA 
HETATM    6  C1* UNL     1     -11.363   8.840  70.591  1.00  0.00    -0.254 C  
HETATM    7  C2* UNL     1     -10.695   7.604  69.998  1.00  0.00    -0.245 C  
HETATM    8  H3* UNL     1     -10.976   4.986  70.248  1.00  0.00     0.000 HD 
HETATM    9  O3* UNL     1     -11.304   5.475  70.993  1.00  0.00    -0.069 OA 
HETATM   10  C3* UNL     1     -10.541   6.664  71.179  1.00  0.00    -0.228 C  
BRANCH   6  11
HETATM   11  N   UNL     1     -10.954  10.088  69.960  1.00  0.00    -0.278 N  
HETATM   12  C   UNL     1      -9.850  10.149  69.125  1.00  0.00    -0.214 C  
HETATM   13  C   UNL     1     -10.229  12.518  68.829  1.00  0.00    -0.085 C  
HETATM   14  C   UNL     1      -9.425  11.288  68.555  1.00  0.00    -0.191 C  
HETATM   15  O   UNL     1     -12.782  11.177  70.863  1.00  0.00    -0.357 OA 
HETATM   16  N   UNL     1     -11.342  12.357  69.601  1.00  0.00    -0.476 N  
HETATM   17  H   UNL     1     -11.922  13.182  69.755  1.00  0.00     0.000 HD 
HETATM   18  O   UNL     1      -9.914  13.620  68.387  1.00  0.00    -0.231 OA 
HETATM   19  C   UNL     1     -11.755  11.195  70.188  1.00  0.00    -0.353 C  
BRANCH  14  20
HETATM   20  C   UNL     1      -8.294  11.392  67.647  1.00  0.00    -0.129 C  
HETATM   21  C   UNL     1      -7.000  11.296  67.978  1.00  0.00    -0.068 C  
HETATM   22 BR   UNL     1      -5.614  11.483  66.756  1.00  0.00    -0.132 Br 
ENDBRANCH  14  20
ENDBRANCH   6  11
ENDBRANCH   3   4
TORSDOF 3
ENDMDL
MODEL      119
REMARK 921   NORMALIZED FREE ENERGY PREDICTED BY IDOCK:   -3.73 KCAL/MOL
REMARK 922        TOTAL FREE ENERGY PREDICTED BY IDOCK:   -4.99 KCAL/MOL
REMARK 923 INTER-LIGAND FREE ENERGY PREDICTED BY IDOCK:   -5.28 KCAL/MOL
REMARK 924 INTRA-LIGAND FREE ENERGY PREDICTED BY IDOCK:    0.28 KCAL/MOL
REMARK 927      BINDING AFFINITY PREDICTED BY RF-SCORE:    0.00 PKD
ROOT
HETATM    1  O5* UNL     1      -9.109   8.489  66.471  1.00  0.00    -0.154 OA 
HETATM    2  H5* UNL     1      -9.093   7.838  65.778  1.00  0.00     0.000 HD 
HETATM    3  C5* UNL     1      -9.905   9.617  66.105  1.00  0.00    -0.265 C  
ENDROOT
BRANCH   3   4
HETATM    4  C4* UNL     1      -9.930  10.663  67.218  1.00  0.00    -0.188 C  
HETATM    5  O4* UNL     1      -9.547  11.954  66.709  1.00  0.00    -0.195 OA 
HETATM    6  C1* UNL     1     -10.075  12.899  67.649  1.00  0.00    -0.221 C  
HETATM    7  C2* UNL     1     -11.421  12.343  68.100  1.00  0.00    -0.370 C  
HETATM    8  H3* UNL     1     -12.245  10.237  69.471  1.00  0.00     0.000 HD 
HETATM    9  O3* UNL     1     -11.389  10.120  69.076  1.00  0.00    -0.211 OA 
HETATM   10  C3* UNL     1     -11.306  10.850  67.854  1.00  0.00    -0.308 C  
BRANCH   6  11
HETATM   11  N   UNL     1     -10.156  14.232  67.065  1.00  0.00    -0.257 N  
HETATM   12  C   UNL     1      -9.304  15.250  67.466  1.00  0.00    -0.204 C  
HETATM   13  C   UNL     1     -10.405  16.750  65.922  1.00  0.00    -0.328 C  
HETATM   14  C   UNL     1      -9.373  16.497  66.974  1.00  0.00    -0.242 C  
HETATM   15  O   UNL     1     -11.809  13.527  65.612  1.00  0.00    -0.338 OA 
HETATM   16  N   UNL     1     -11.151  15.676  65.532  1.00  0.00    -0.271 N  
HETATM   17  H   UNL     1     -11.824  15.829  64.782  1.00  0.00     0.000 HD 
HETATM   18  O   UNL     1     -10.578  17.861  65.426  1.00  0.00    -0.656 OA 
HETATM   19  C   UNL     1     -11.081  14.416  66.051  1.00  0.00    -0.324 C  
BRANCH  14  20
HETATM   20  C   UNL     1      -8.481  17.586  67.341  1.00  0.00    -0.222 C  
HETATM   21  C   UNL     1      -7.484  17.529  68.232  1.00  0.00    -0.237 C  
HETATM   22 BR   UNL     1      -6.417  18.985  68.670  1.00  0.00    -0.289 Br 
ENDBRANCH  14  20
ENDBRANCH   6  11
ENDBRANCH   3   4
TORSDOF 3
ENDMDL
MODEL      120
REMARK 921   NORMALIZED FREE ENERGY PREDICTED BY IDOCK:   -3.72 KCAL/MOL
REMARK 922        TOTAL FREE ENERGY PREDICTED BY IDOCK:   -4.99 KCAL/MOL
REMARK 923 INTER-LIGAND FREE ENERGY PREDICTED BY IDOCK:   -4.51 KCAL/MOL
REMARK 924 INTRA-LIGAND FREE ENERGY PREDICTED BY IDOCK:   -0.47 KCAL/MOL
REMARK 927      BINDING AFFINITY PREDICTED BY RF-SCORE:    0.00 PKD
ROOT
HETATM    1  O5* UNL     1      -9.779  12.248  64.913  1.00  0.00    -0.431 OA 
HETATM    2  H5* UNL     1     -10.538  12.591  64.456  1.00  0.00     0.000 HD 
HETATM    3  C5* UNL     1      -9.974  12.261  66.328  1.00  0.00    -0.232 C  
ENDROOT
BRANCH   3   4
HETATM    4  C4* UNL     1      -8.754  11.710  67.062  1.00  0.00    -0.173 C  
HETATM    5  O4* UNL     1      -9.078  11.411  68.432  1.00  0.00    -0.169 OA 
HETATM    6  C1* UNL     1      -8.080  10.475  68.859  1.00  0.00    -0.138 C  
HETATM    7  C2* UNL     1      -7.802   9.574  67.660  1.00  0.00    -0.102 C  
HETATM    8  H3* UNL     1      -6.752   9.883  65.253  1.00  0.00     0.000 HD 
HETATM    9  O3* UNL     1      -7.091  10.689  65.624  1.00  0.00    -0.136 OA 
HETATM   10  C3* UNL     1      -8.209  10.414  66.464  1.00  0.00    -0.131 C  
BRANCH   6  11
HETATM   11  N   UNL     1      -8.510   9.753  70.049  1.00  0.00    -0.205 N  
HETATM   12  C   UNL     1      -9.852   9.628  70.374  1.00  0.00    -0.256 C  
HETATM   13  C   UNL     1      -9.237   8.388  72.356  1.00  0.00    -0.275 C  
HETATM   14  C   UNL     1     -10.282   8.999  71.479  1.00  0.00    -0.414 C  
HETATM   15  O   UNL     1      -6.324   9.170  70.522  1.00  0.00    -0.041 OA 
HETATM   16  N   UNL     1      -7.946   8.492  71.925  1.00  0.00    -0.134 N  
HETATM   17  H   UNL     1      -7.231   8.037  72.493  1.00  0.00     0.000 HD 
HETATM   18  O   UNL     1      -9.513   7.818  73.408  1.00  0.00    -0.250 OA 
HETATM   19  C   UNL     1      -7.521   9.148  70.806  1.00  0.00    -0.122 C  
BRANCH  14  20
HETATM   20  C   UNL     1     -11.679   8.816  71.842  1.00  0.00    -0.429 C  
HETATM   21  C   UNL     1     -12.527   7.929  71.309  1.00  0.00    -0.264 C  
HETATM   22 BR   UNL     1     -14.312   7.791  71.806  1.00  0.00    -0.609 Br 
ENDBRANCH  14  20
ENDBRANCH   6  11
ENDBRANCH   3   4
TORSDOF 3
ENDMDL
MODEL      121
REMARK 921   NORMALIZED FREE ENERGY PREDICTED BY IDOCK:   -3.70 KCAL/MOL
REMARK 922        TOTAL FREE ENERGY PREDICTED BY IDOCK:   -4.96 KCAL/MOL
REMARK 923 INTER-LIGAND FREE ENERGY PREDICTED BY IDOCK:   -5.26 KCAL/MOL
REMARK 924 INTRA-LIGAND FREE ENERGY PREDICTED BY IDOCK:    0.30 KCAL/MOL
REMARK 927      BINDING AFFINITY PREDICTED BY RF-SCORE:    0.00 PKD
ROOT
HETATM    1  O5* UNL     1     -12.470   8.009  73.061  1.00  0.00    -0.625 OA 
HETATM    2  H5* UNL     1     -12.559   8.034  74.006  1.00  0.00     0.000 HD 
HETATM    3  C5* UNL     1     -11.500   7.042  72.656  1.00  0.00    -0.211 C  
ENDROOT
BRANCH   3   4
HETATM    4  C4* UNL     1     -11.356   7.003  71.136  1.00  0.00    -0.282 C  
HETATM    5  O4* UNL     1     -11.364   8.335  70.591  1.00  0.00    -0.264 OA 
HETATM    6  C1* UNL     1     -10.739   8.220  69.307  1.00  0.00    -0.128 C  
HETATM    7  C2* UNL     1      -9.622   7.195  69.468  1.00  0.00    -0.154 C  
HETATM    8  H3* UNL     1      -9.479   4.604  69.980  1.00  0.00     0.000 HD 
HETATM    9  O3* UNL     1     -10.287   5.004  70.277  1.00  0.00    -0.266 OA 
HETATM   10  C3* UNL     1     -10.056   6.358  70.658  1.00  0.00    -0.187 C  
BRANCH   6  11
HETATM   11  N   UNL     1     -10.281   9.517  68.826  1.00  0.00    -0.191 N  
HETATM   12  C   UNL     1     -10.934  10.180  67.799  1.00  0.00    -0.277 C  
HETATM   13  C   UNL     1      -9.316  11.970  67.952  1.00  0.00    -0.190 C  
HETATM   14  C   UNL     1     -10.520  11.359  67.309  1.00  0.00    -0.241 C  
HETATM   15  O   UNL     1      -8.630   9.566  70.444  1.00  0.00    -0.200 OA 
HETATM   16  N   UNL     1      -8.778  11.288  69.004  1.00  0.00    -0.369 N  
HETATM   17  H   UNL     1      -7.985  11.721  69.478  1.00  0.00     0.000 HD 
HETATM   18  O   UNL     1      -8.830  13.029  67.563  1.00  0.00    -0.174 OA 
HETATM   19  C   UNL     1      -9.200  10.082  69.483  1.00  0.00    -0.221 C  
BRANCH  14  20
HETATM   20  C   UNL     1     -11.192  12.105  66.257  1.00  0.00    -0.382 C  
HETATM   21  C   UNL     1     -11.286  11.751  64.970  1.00  0.00    -0.257 C  
HETATM   22 BR   UNL     1     -12.131  12.788  63.681  1.00  0.00    -0.643 Br 
ENDBRANCH  14  20
ENDBRANCH   6  11
ENDBRANCH   3   4
TORSDOF 3
ENDMDL
MODEL      122
REMARK 921   NORMALIZED FREE ENERGY PREDICTED BY IDOCK:   -3.70 KCAL/MOL
REMARK 922        TOTAL FREE ENERGY PREDICTED BY IDOCK:   -4.96 KCAL/MOL
REMARK 923 INTER-LIGAND FREE ENERGY PREDICTED BY IDOCK:   -5.09 KCAL/MOL
REMARK 924 INTRA-LIGAND FREE ENERGY PREDICTED BY IDOCK:    0.13 KCAL/MOL
REMARK 927      BINDING AFFINITY PREDICTED BY RF-SCORE:    0.00 PKD
ROOT
HETATM    1  O5* UNL     1      -9.128  10.451  69.518  1.00  0.00    -0.310 OA 
HETATM    2  H5* UNL     1      -8.841   9.911  70.245  1.00  0.00     0.000 HD 
HETATM    3  C5* UNL     1     -10.545  10.628  69.531  1.00  0.00    -0.230 C  
ENDROOT
BRANCH   3   4
HETATM    4  C4* UNL     1     -11.007  11.495  68.362  1.00  0.00    -0.221 C  
HETATM    5  O4* UNL     1     -11.052  12.882  68.746  1.00  0.00    -0.243 OA 
HETATM    6  C1* UNL     1     -10.993  13.614  67.516  1.00  0.00    -0.268 C  
HETATM    7  C2* UNL     1     -10.044  12.842  66.605  1.00  0.00    -0.247 C  
HETATM    8  H3* UNL     1     -10.053  10.480  65.417  1.00  0.00     0.000 HD 
HETATM    9  O3* UNL     1     -10.623  10.524  66.175  1.00  0.00    -0.200 OA 
HETATM   10  C3* UNL     1     -10.089  11.424  67.143  1.00  0.00    -0.198 C  
BRANCH   6  11
HETATM   11  N   UNL     1     -10.593  14.997  67.745  1.00  0.00    -0.260 N  
HETATM   12  C   UNL     1      -9.708  15.644  66.895  1.00  0.00    -0.230 C  
HETATM   13  C   UNL     1      -9.859  17.621  68.278  1.00  0.00    -0.324 C  
HETATM   14  C   UNL     1      -9.292  16.904  67.095  1.00  0.00    -0.241 C  
HETATM   15  O   UNL     1     -12.023  15.142  69.554  1.00  0.00    -0.312 OA 
HETATM   16  N   UNL     1     -10.778  16.937  69.019  1.00  0.00    -0.328 N  
HETATM   17  H   UNL     1     -11.204  17.436  69.801  1.00  0.00     0.000 HD 
HETATM   18  O   UNL     1      -9.523  18.765  68.575  1.00  0.00    -0.327 OA 
HETATM   19  C   UNL     1     -11.182  15.650  68.814  1.00  0.00    -0.332 C  
BRANCH  14  20
HETATM   20  C   UNL     1      -8.393  17.632  66.214  1.00  0.00    -0.251 C  
HETATM   21  C   UNL     1      -7.097  17.885  66.436  1.00  0.00    -0.257 C  
HETATM   22 BR   UNL     1      -6.030  18.862  65.270  1.00  0.00    -0.310 Br 
ENDBRANCH  14  20
ENDBRANCH   6  11
ENDBRANCH   3   4
TORSDOF 3
ENDMDL
MODEL      123
REMARK 921   NORMALIZED FREE ENERGY PREDICTED BY IDOCK:   -3.70 KCAL/MOL
REMARK 922        TOTAL FREE ENERGY PREDICTED BY IDOCK:   -4.96 KCAL/MOL
REMARK 923 INTER-LIGAND FREE ENERGY PREDICTED BY IDOCK:   -4.51 KCAL/MOL
REMARK 924 INTRA-LIGAND FREE ENERGY PREDICTED BY IDOCK:   -0.45 KCAL/MOL
REMARK 927      BINDING AFFINITY PREDICTED BY RF-SCORE:    0.00 PKD
ROOT
HETATM    1  O5* UNL     1      -5.293   8.694  68.629  1.00  0.00    -0.035 OA 
HETATM    2  H5* UNL     1      -5.054   8.878  69.530  1.00  0.00     0.000 HD 
HETATM    3  C5* UNL     1      -6.682   8.933  68.400  1.00  0.00    -0.060 C  
ENDROOT
BRANCH   3   4
HETATM    4  C4* UNL     1      -7.065   8.637  66.952  1.00  0.00    -0.075 C  
HETATM    5  O4* UNL     1      -8.291   9.307  66.604  1.00  0.00    -0.120 OA 
HETATM    6  C1* UNL     1      -8.284   9.385  65.173  1.00  0.00    -0.135 C  
HETATM    7  C2* UNL     1      -6.836   9.641  64.768  1.00  0.00    -0.111 C  
HETATM    8  H3* UNL     1      -4.562   8.296  64.894  1.00  0.00     0.000 HD 
HETATM    9  O3* UNL     1      -5.208   8.007  65.528  1.00  0.00    -0.028 OA 
HETATM   10  C3* UNL     1      -6.026   9.102  65.933  1.00  0.00    -0.051 C  
BRANCH   6  11
HETATM   11  N   UNL     1      -9.214  10.401  64.696  1.00  0.00    -0.218 N  
HETATM   12  C   UNL     1      -9.647  11.429  65.520  1.00  0.00    -0.228 C  
HETATM   13  C   UNL     1     -11.015  12.272  63.713  1.00  0.00    -0.435 C  
HETATM   14  C   UNL     1     -10.528  12.361  65.124  1.00  0.00    -0.321 C  
HETATM   15  O   UNL     1      -9.188   9.473  62.580  1.00  0.00    -0.273 OA 
HETATM   16  N   UNL     1     -10.483  11.274  62.949  1.00  0.00    -0.743 N  
HETATM   17  H   UNL     1     -10.774  11.235  61.973  1.00  0.00     0.000 HD 
HETATM   18  O   UNL     1     -11.847  13.051  63.255  1.00  0.00    -0.534 OA 
HETATM   19  C   UNL     1      -9.598  10.323  63.368  1.00  0.00    -0.264 C  
BRANCH  14  20
HETATM   20  C   UNL     1     -10.984  13.474  65.942  1.00  0.00    -0.284 C  
HETATM   21  C   UNL     1     -10.262  14.138  66.852  1.00  0.00    -0.267 C  
HETATM   22 BR   UNL     1     -10.939  15.526  67.884  1.00  0.00    -0.324 Br 
ENDBRANCH  14  20
ENDBRANCH   6  11
ENDBRANCH   3   4
TORSDOF 3
ENDMDL
MODEL      124
REMARK 921   NORMALIZED FREE ENERGY PREDICTED BY IDOCK:   -3.68 KCAL/MOL
REMARK 922        TOTAL FREE ENERGY PREDICTED BY IDOCK:   -4.94 KCAL/MOL
REMARK 923 INTER-LIGAND FREE ENERGY PREDICTED BY IDOCK:   -4.48 KCAL/MOL
REMARK 924 INTRA-LIGAND FREE ENERGY PREDICTED BY IDOCK:   -0.46 KCAL/MOL
REMARK 927      BINDING AFFINITY PREDICTED BY RF-SCORE:    0.00 PKD
ROOT
HETATM    1  O5* UNL     1     -11.536   5.915  72.387  1.00  0.00    -0.302 OA 
HETATM    2  H5* UNL     1     -12.328   5.694  72.864  1.00  0.00     0.000 HD 
HETATM    3  C5* UNL     1     -11.763   6.990  71.475  1.00  0.00    -0.300 C  
ENDROOT
BRANCH   3   4
HETATM    4  C4* UNL     1     -10.491   7.346  70.708  1.00  0.00    -0.212 C  
HETATM    5  O4* UNL     1     -10.814   7.933  69.434  1.00  0.00    -0.205 OA 
HETATM    6  C1* UNL     1      -9.641   8.660  69.048  1.00  0.00    -0.163 C  
HETATM    7  C2* UNL     1      -9.072   9.261  70.329  1.00  0.00    -0.271 C  
HETATM    8  H3* UNL     1      -7.987   8.321  72.550  1.00  0.00     0.000 HD 
HETATM    9  O3* UNL     1      -8.539   7.691  72.103  1.00  0.00    -0.110 OA 
HETATM   10  C3* UNL     1      -9.602   8.359  71.428  1.00  0.00    -0.194 C  
BRANCH   6  11
HETATM   11  N   UNL     1      -9.948   9.649  68.022  1.00  0.00    -0.154 N  
HETATM   12  C   UNL     1     -10.207  10.972  68.347  1.00  0.00    -0.185 C  
HETATM   13  C   UNL     1     -10.559  11.456  66.004  1.00  0.00    -0.266 C  
HETATM   14  C   UNL     1     -10.526  11.900  67.431  1.00  0.00    -0.242 C  
HETATM   15  O   UNL     1      -9.619   8.073  66.364  1.00  0.00    -0.212 OA 
HETATM   16  N   UNL     1     -10.220  10.156  65.765  1.00  0.00    -0.246 N  
HETATM   17  H   UNL     1     -10.194   9.857  64.790  1.00  0.00     0.000 HD 
HETATM   18  O   UNL     1     -10.871  12.212  65.088  1.00  0.00    -0.282 OA 
HETATM   19  C   UNL     1      -9.911   9.217  66.707  1.00  0.00    -0.245 C  
BRANCH  14  20
HETATM   20  C   UNL     1     -10.773  13.304  67.722  1.00  0.00    -0.256 C  
HETATM   21  C   UNL     1     -11.614  13.787  68.644  1.00  0.00    -0.334 C  
HETATM   22 BR   UNL     1     -11.899  15.602  68.920  1.00  0.00    -0.298 Br 
ENDBRANCH  14  20
ENDBRANCH   6  11
ENDBRANCH   3   4
TORSDOF 3
ENDMDL
MODEL      125
REMARK 921   NORMALIZED FREE ENERGY PREDICTED BY IDOCK:   -3.67 KCAL/MOL
REMARK 922        TOTAL FREE ENERGY PREDICTED BY IDOCK:   -4.93 KCAL/MOL
REMARK 923 INTER-LIGAND FREE ENERGY PREDICTED BY IDOCK:   -4.44 KCAL/MOL
REMARK 924 INTRA-LIGAND FREE ENERGY PREDICTED BY IDOCK:   -0.48 KCAL/MOL
REMARK 927      BINDING AFFINITY PREDICTED BY RF-SCORE:    0.00 PKD
ROOT
HETATM    1  O5* UNL     1     -10.991   4.754  73.590  1.00  0.00    -0.281 OA 
HETATM    2  H5* UNL     1     -11.203   5.025  74.476  1.00  0.00     0.000 HD 
HETATM    3  C5* UNL     1     -11.406   5.732  72.636  1.00  0.00    -0.300 C  
ENDROOT
BRANCH   3   4
HETATM    4  C4* UNL     1     -11.066   5.297  71.211  1.00  0.00     0.108 C  
HETATM    5  O4* UNL     1     -11.401   6.333  70.271  1.00  0.00    -0.357 OA 
HETATM    6  C1* UNL     1     -10.613   6.054  69.107  1.00  0.00    -0.295 C  
HETATM    7  C2* UNL     1      -9.271   5.539  69.615  1.00  0.00    -0.163 C  
HETATM    8  H3* UNL     1      -8.429   3.404  70.929  1.00  0.00     0.000 HD 
HETATM    9  O3* UNL     1      -9.351   3.591  71.063  1.00  0.00    -0.117 OA 
HETATM   10  C3* UNL     1      -9.583   4.996  70.997  1.00  0.00    -0.170 C  
BRANCH   6  11
HETATM   11  N   UNL     1     -10.505   7.228  68.250  1.00  0.00    -0.203 N  
HETATM   12  C   UNL     1     -10.609   8.511  68.764  1.00  0.00    -0.133 C  
HETATM   13  C   UNL     1     -10.321   9.405  66.537  1.00  0.00    -0.198 C  
HETATM   14  C   UNL     1     -10.548   9.613  68.000  1.00  0.00    -0.292 C  
HETATM   15  O   UNL     1     -10.066   5.887  66.419  1.00  0.00    -0.164 OA 
HETATM   16  N   UNL     1     -10.156   8.115  66.125  1.00  0.00    -0.447 N  
HETATM   17  H   UNL     1      -9.954   7.968  65.136  1.00  0.00     0.000 HD 
HETATM   18  O   UNL     1     -10.281  10.339  65.739  1.00  0.00    -0.257 OA 
HETATM   19  C   UNL     1     -10.235   7.002  66.910  1.00  0.00    -0.248 C  
BRANCH  14  20
HETATM   20  C   UNL     1     -10.619  10.977  68.500  1.00  0.00    -0.218 C  
HETATM   21  C   UNL     1     -11.712  11.597  68.960  1.00  0.00    -0.324 C  
HETATM   22 BR   UNL     1     -11.720  13.361  69.543  1.00  0.00    -0.384 Br 
ENDBRANCH  14  20
ENDBRANCH   6  11
ENDBRANCH   3   4
TORSDOF 3
ENDMDL
MODEL      126
REMARK 921   NORMALIZED FREE ENERGY PREDICTED BY IDOCK:   -3.65 KCAL/MOL
REMARK 922        TOTAL FREE ENERGY PREDICTED BY IDOCK:   -4.90 KCAL/MOL
REMARK 923 INTER-LIGAND FREE ENERGY PREDICTED BY IDOCK:   -4.98 KCAL/MOL
REMARK 924 INTRA-LIGAND FREE ENERGY PREDICTED BY IDOCK:    0.07 KCAL/MOL
REMARK 927      BINDING AFFINITY PREDICTED BY RF-SCORE:    0.00 PKD
ROOT
HETATM    1  O5* UNL     1     -10.452  19.319  66.285  1.00  0.00    -0.426 OA 
HETATM    2  H5* UNL     1     -10.561  20.122  66.782  1.00  0.00     0.000 HD 
HETATM    3  C5* UNL     1      -9.978  18.256  67.113  1.00  0.00    -0.337 C  
ENDROOT
BRANCH   3   4
HETATM    4  C4* UNL     1      -9.801  16.967  66.314  1.00  0.00    -0.294 C  
HETATM    5  O4* UNL     1      -9.440  15.877  67.182  1.00  0.00    -0.209 OA 
HETATM    6  C1* UNL     1      -9.789  14.690  66.460  1.00  0.00    -0.275 C  
HETATM    7  C2* UNL     1     -11.080  15.010  65.713  1.00  0.00    -0.346 C  
HETATM    8  H3* UNL     1     -11.788  16.637  63.752  1.00  0.00     0.000 HD 
HETATM    9  O3* UNL     1     -11.003  16.915  64.209  1.00  0.00    -0.929 OA 
HETATM   10  C3* UNL     1     -11.064  16.521  65.578  1.00  0.00     0.038 C  
BRANCH   6  11
HETATM   11  N   UNL     1      -9.896  13.543  67.353  1.00  0.00    -0.224 N  
HETATM   12  C   UNL     1      -9.256  12.346  67.072  1.00  0.00    -0.208 C  
HETATM   13  C   UNL     1     -10.184  11.399  69.094  1.00  0.00    -0.059 C  
HETATM   14  C   UNL     1      -9.360  11.260  67.854  1.00  0.00    -0.161 C  
HETATM   15  O   UNL     1     -11.145  14.786  68.848  1.00  0.00    -0.231 OA 
HETATM   16  N   UNL     1     -10.718  12.632  69.332  1.00  0.00    -0.432 N  
HETATM   17  H   UNL     1     -11.243  12.748  70.199  1.00  0.00     0.000 HD 
HETATM   18  O   UNL     1     -10.375  10.462  69.865  1.00  0.00    -0.244 OA 
HETATM   19  C   UNL     1     -10.617  13.725  68.521  1.00  0.00    -0.253 C  
BRANCH  14  20
HETATM   20  C   UNL     1      -8.680   9.996  67.617  1.00  0.00    -0.121 C  
HETATM   21  C   UNL     1      -9.051   9.047  66.748  1.00  0.00    -0.145 C  
HETATM   22 BR   UNL     1      -8.144   7.439  66.539  1.00  0.00    -0.121 Br 
ENDBRANCH  14  20
ENDBRANCH   6  11
ENDBRANCH   3   4
TORSDOF 3
ENDMDL
MODEL      127
REMARK 921   NORMALIZED FREE ENERGY PREDICTED BY IDOCK:   -3.65 KCAL/MOL
REMARK 922        TOTAL FREE ENERGY PREDICTED BY IDOCK:   -4.90 KCAL/MOL
REMARK 923 INTER-LIGAND FREE ENERGY PREDICTED BY IDOCK:   -5.18 KCAL/MOL
REMARK 924 INTRA-LIGAND FREE ENERGY PREDICTED BY IDOCK:    0.28 KCAL/MOL
REMARK 927      BINDING AFFINITY PREDICTED BY RF-SCORE:    0.00 PKD
ROOT
HETATM    1  O5* UNL     1     -10.936  11.626  69.313  1.00  0.00    -0.286 OA 
HETATM    2  H5* UNL     1     -11.102  11.091  70.080  1.00  0.00     0.000 HD 
HETATM    3  C5* UNL     1     -12.021  12.521  69.060  1.00  0.00    -0.233 C  
ENDROOT
BRANCH   3   4
HETATM    4  C4* UNL     1     -11.755  13.380  67.826  1.00  0.00    -0.359 C  
HETATM    5  O4* UNL     1     -10.715  14.339  68.090  1.00  0.00    -0.236 OA 
HETATM    6  C1* UNL     1     -10.213  14.715  66.801  1.00  0.00    -0.268 C  
HETATM    7  C2* UNL     1     -10.236  13.450  65.951  1.00  0.00    -0.302 C  
HETATM    8  H3* UNL     1     -12.103  11.854  64.968  1.00  0.00     0.000 HD 
HETATM    9  O3* UNL     1     -12.390  12.350  65.726  1.00  0.00    -0.644 OA 
HETATM   10  C3* UNL     1     -11.294  12.582  66.608  1.00  0.00    -0.334 C  
BRANCH   6  11
HETATM   11  N   UNL     1      -8.895  15.328  66.907  1.00  0.00    -0.235 N  
HETATM   12  C   UNL     1      -8.661  16.622  66.470  1.00  0.00    -0.282 C  
HETATM   13  C   UNL     1      -6.343  16.401  67.117  1.00  0.00    -0.180 C  
HETATM   14  C   UNL     1      -7.453  17.205  66.521  1.00  0.00    -0.318 C  
HETATM   15  O   UNL     1      -8.079  13.453  67.985  1.00  0.00    -0.136 OA 
HETATM   16  N   UNL     1      -6.674  15.165  67.591  1.00  0.00    -0.167 N  
HETATM   17  H   UNL     1      -5.933  14.629  68.041  1.00  0.00     0.000 HD 
HETATM   18  O   UNL     1      -5.190  16.822  67.185  1.00  0.00    -0.129 OA 
HETATM   19  C   UNL     1      -7.904  14.578  67.519  1.00  0.00    -0.193 C  
BRANCH  14  20
HETATM   20  C   UNL     1      -7.170  18.569  66.105  1.00  0.00    -0.301 C  
HETATM   21  C   UNL     1      -6.394  18.941  65.080  1.00  0.00    -0.232 C  
HETATM   22 BR   UNL     1      -6.052  20.714  64.642  1.00  0.00    -0.342 Br 
ENDBRANCH  14  20
ENDBRANCH   6  11
ENDBRANCH   3   4
TORSDOF 3
ENDMDL
MODEL      128
REMARK 921   NORMALIZED FREE ENERGY PREDICTED BY IDOCK:   -3.65 KCAL/MOL
REMARK 922        TOTAL FREE ENERGY PREDICTED BY IDOCK:   -4.89 KCAL/MOL
REMARK 923 INTER-LIGAND FREE ENERGY PREDICTED BY IDOCK:   -5.10 KCAL/MOL
REMARK 924 INTRA-LIGAND FREE ENERGY PREDICTED BY IDOCK:    0.21 KCAL/MOL
REMARK 927      BINDING AFFINITY PREDICTED BY RF-SCORE:    0.00 PKD
ROOT
HETATM    1  O5* UNL     1     -10.684   5.753  66.081  1.00  0.00    -0.488 OA 
HETATM    2  H5* UNL     1     -11.240   4.985  66.138  1.00  0.00     0.000 HD 
HETATM    3  C5* UNL     1     -10.946   6.664  67.150  1.00  0.00    -0.408 C  
ENDROOT
BRANCH   3   4
HETATM    4  C4* UNL     1     -10.052   7.899  67.059  1.00  0.00    -0.277 C  
HETATM    5  O4* UNL     1     -10.815   9.096  67.299  1.00  0.00    -0.233 OA 
HETATM    6  C1* UNL     1      -9.851  10.084  67.685  1.00  0.00    -0.162 C  
HETATM    7  C2* UNL     1      -8.809   9.357  68.528  1.00  0.00    -0.128 C  
HETATM    8  H3* UNL     1      -6.994   7.480  68.104  1.00  0.00     0.000 HD 
HETATM    9  O3* UNL     1      -7.702   7.472  67.470  1.00  0.00    -0.112 OA 
HETATM   10  C3* UNL     1      -8.914   7.911  68.078  1.00  0.00    -0.127 C  
BRANCH   6  11
HETATM   11  N   UNL     1     -10.488  11.200  68.372  1.00  0.00    -0.180 N  
HETATM   12  C   UNL     1     -10.478  12.480  67.838  1.00  0.00    -0.217 C  
HETATM   13  C   UNL     1     -11.697  13.272  69.769  1.00  0.00    -0.284 C  
HETATM   14  C   UNL     1     -11.025  13.536  68.460  1.00  0.00    -0.291 C  
HETATM   15  O   UNL     1     -11.250   9.782  70.030  1.00  0.00    -0.242 OA 
HETATM   16  N   UNL     1     -11.726  11.974  70.187  1.00  0.00    -0.511 N  
HETATM   17  H   UNL     1     -12.224  11.779  71.056  1.00  0.00     0.000 HD 
HETATM   18  O   UNL     1     -12.202  14.169  70.440  1.00  0.00    -0.312 OA 
HETATM   19  C   UNL     1     -11.153  10.910  69.552  1.00  0.00    -0.268 C  
BRANCH  14  20
HETATM   20  C   UNL     1     -11.067  14.887  67.923  1.00  0.00    -0.304 C  
HETATM   21  C   UNL     1     -10.014  15.676  67.678  1.00  0.00    -0.237 C  
HETATM   22 BR   UNL     1     -10.162  17.410  67.027  1.00  0.00    -0.323 Br 
ENDBRANCH  14  20
ENDBRANCH   6  11
ENDBRANCH   3   4
TORSDOF 3
ENDMDL
MODEL      129
REMARK 921   NORMALIZED FREE ENERGY PREDICTED BY IDOCK:   -3.64 KCAL/MOL
REMARK 922        TOTAL FREE ENERGY PREDICTED BY IDOCK:   -4.88 KCAL/MOL
REMARK 923 INTER-LIGAND FREE ENERGY PREDICTED BY IDOCK:   -5.65 KCAL/MOL
REMARK 924 INTRA-LIGAND FREE ENERGY PREDICTED BY IDOCK:    0.76 KCAL/MOL
REMARK 927      BINDING AFFINITY PREDICTED BY RF-SCORE:    0.00 PKD
ROOT
HETATM    1  O5* UNL     1     -14.408  15.047  73.027  1.00  0.00    -0.245 OA 
HETATM    2  H5* UNL     1     -15.255  14.728  73.317  1.00  0.00     0.000 HD 
HETATM    3  C5* UNL     1     -13.621  13.993  72.470  1.00  0.00    -0.566 C  
ENDROOT
BRANCH   3   4
HETATM    4  C4* UNL     1     -12.259  14.505  72.005  1.00  0.00    -0.248 C  
HETATM    5  O4* UNL     1     -11.865  13.858  70.781  1.00  0.00    -0.288 OA 
HETATM    6  C1* UNL     1     -10.889  14.727  70.193  1.00  0.00    -0.074 C  
HETATM    7  C2* UNL     1     -11.356  16.149  70.486  1.00  0.00    -0.392 C  
HETATM    8  H3* UNL     1     -11.660  17.642  72.648  1.00  0.00     0.000 HD 
HETATM    9  O3* UNL     1     -11.678  16.710  72.827  1.00  0.00    -0.472 OA 
HETATM   10  C3* UNL     1     -12.231  16.005  71.718  1.00  0.00    -0.469 C  
BRANCH   6  11
HETATM   11  N   UNL     1     -10.721  14.446  68.773  1.00  0.00    -0.246 N  
HETATM   12  C   UNL     1     -10.690  13.146  68.292  1.00  0.00    -0.245 C  
HETATM   13  C   UNL     1     -10.361  14.003  66.056  1.00  0.00    -0.306 C  
HETATM   14  C   UNL     1     -10.503  12.849  66.997  1.00  0.00    -0.244 C  
HETATM   15  O   UNL     1     -10.744  16.706  68.292  1.00  0.00    -0.321 OA 
HETATM   16  N   UNL     1     -10.476  15.249  66.601  1.00  0.00    -0.284 N  
HETATM   17  H   UNL     1     -10.427  16.040  65.959  1.00  0.00     0.000 HD 
HETATM   18  O   UNL     1     -10.153  13.849  64.855  1.00  0.00    -0.369 OA 
HETATM   19  C   UNL     1     -10.652  15.537  67.923  1.00  0.00    -0.274 C  
BRANCH  14  20
HETATM   20  C   UNL     1     -10.497  11.504  66.443  1.00  0.00    -0.292 C  
HETATM   21  C   UNL     1      -9.419  10.739  66.231  1.00  0.00    -0.181 C  
HETATM   22 BR   UNL     1      -9.500   9.042  65.480  1.00  0.00    -0.132 Br 
ENDBRANCH  14  20
ENDBRANCH   6  11
ENDBRANCH   3   4
TORSDOF 3
ENDMDL
MODEL      130
REMARK 921   NORMALIZED FREE ENERGY PREDICTED BY IDOCK:   -3.61 KCAL/MOL
REMARK 922        TOTAL FREE ENERGY PREDICTED BY IDOCK:   -4.85 KCAL/MOL
REMARK 923 INTER-LIGAND FREE ENERGY PREDICTED BY IDOCK:   -4.48 KCAL/MOL
REMARK 924 INTRA-LIGAND FREE ENERGY PREDICTED BY IDOCK:   -0.37 KCAL/MOL
REMARK 927      BINDING AFFINITY PREDICTED BY RF-SCORE:    0.00 PKD
ROOT
HETATM    1  O5* UNL     1      -9.539   9.302  64.647  1.00  0.00    -0.412 OA 
HETATM    2  H5* UNL     1      -8.981   8.888  63.999  1.00  0.00     0.000 HD 
HETATM    3  C5* UNL     1      -9.267   8.806  65.959  1.00  0.00    -0.222 C  
ENDROOT
BRANCH   3   4
HETATM    4  C4* UNL     1     -10.164   9.471  67.001  1.00  0.00    -0.255 C  
HETATM    5  O4* UNL     1     -10.451   8.561  68.078  1.00  0.00    -0.221 OA 
HETATM    6  C1* UNL     1     -10.837   9.393  69.180  1.00  0.00    -0.155 C  
HETATM    7  C2* UNL     1      -9.954  10.634  69.105  1.00  0.00    -0.228 C  
HETATM    8  H3* UNL     1      -9.663  12.662  67.432  1.00  0.00     0.000 HD 
HETATM    9  O3* UNL     1     -10.048  11.892  67.030  1.00  0.00    -0.203 OA 
HETATM   10  C3* UNL     1      -9.544  10.709  67.646  1.00  0.00    -0.161 C  
BRANCH   6  11
HETATM   11  N   UNL     1     -10.734   8.675  70.444  1.00  0.00    -0.220 N  
HETATM   12  C   UNL     1      -9.840   7.628  70.610  1.00  0.00    -0.182 C  
HETATM   13  C   UNL     1     -10.630   7.340  72.877  1.00  0.00    -0.301 C  
HETATM   14  C   UNL     1      -9.742   6.923  71.748  1.00  0.00    -0.163 C  
HETATM   15  O   UNL     1     -12.283  10.092  71.409  1.00  0.00    -0.362 OA 
HETATM   16  N   UNL     1     -11.426   8.426  72.654  1.00  0.00    -0.357 N  
HETATM   17  H   UNL     1     -12.000   8.746  73.434  1.00  0.00     0.000 HD 
HETATM   18  O   UNL     1     -10.648   6.746  73.952  1.00  0.00    -0.350 OA 
HETATM   19  C   UNL     1     -11.527   9.125  71.486  1.00  0.00    -0.367 C  
BRANCH  14  20
HETATM   20  C   UNL     1      -8.798   5.841  71.978  1.00  0.00    -0.138 C  
HETATM   21  C   UNL     1      -8.974   4.554  71.656  1.00  0.00    -0.125 C  
HETATM   22 BR   UNL     1      -7.728   3.226  72.025  1.00  0.00    -0.055 Br 
ENDBRANCH  14  20
ENDBRANCH   6  11
ENDBRANCH   3   4
TORSDOF 3
ENDMDL
MODEL      131
REMARK 921   NORMALIZED FREE ENERGY PREDICTED BY IDOCK:   -3.61 KCAL/MOL
REMARK 922        TOTAL FREE ENERGY PREDICTED BY IDOCK:   -4.85 KCAL/MOL
REMARK 923 INTER-LIGAND FREE ENERGY PREDICTED BY IDOCK:   -4.40 KCAL/MOL
REMARK 924 INTRA-LIGAND FREE ENERGY PREDICTED BY IDOCK:   -0.44 KCAL/MOL
REMARK 927      BINDING AFFINITY PREDICTED BY RF-SCORE:    0.00 PKD
ROOT
HETATM    1  O5* UNL     1     -10.931   8.666  67.920  1.00  0.00    -0.488 OA 
HETATM    2  H5* UNL     1     -10.599   8.004  68.514  1.00  0.00     0.000 HD 
HETATM    3  C5* UNL     1      -9.871   9.291  67.195  1.00  0.00    -0.195 C  
ENDROOT
BRANCH   3   4
HETATM    4  C4* UNL     1     -10.405  10.357  66.240  1.00  0.00    -0.203 C  
HETATM    5  O4* UNL     1     -10.604  11.604  66.932  1.00  0.00    -0.222 OA 
HETATM    6  C1* UNL     1     -10.605  12.606  65.907  1.00  0.00    -0.273 C  
HETATM    7  C2* UNL     1      -9.565  12.168  64.883  1.00  0.00     0.000 C  
HETATM    8  H3* UNL     1      -9.300  10.161  63.181  1.00  0.00     0.000 HD 
HETATM    9  O3* UNL     1      -9.884   9.968  63.905  1.00  0.00    -0.201 OA 
HETATM   10  C3* UNL     1      -9.465  10.666  65.076  1.00  0.00    -0.243 C  
BRANCH   6  11
HETATM   11  N   UNL     1     -10.359  13.930  66.466  1.00  0.00    -0.281 N  
HETATM   12  C   UNL     1      -9.374  14.141  67.418  1.00  0.00    -0.215 C  
HETATM   13  C   UNL     1      -9.983  16.479  67.499  1.00  0.00    -0.255 C  
HETATM   14  C   UNL     1      -9.142  15.339  67.977  1.00  0.00    -0.176 C  
HETATM   15  O   UNL     1     -11.950  14.849  65.064  1.00  0.00    -0.336 OA 
HETATM   16  N   UNL     1     -10.878  16.200  66.508  1.00  0.00    -0.209 N  
HETATM   17  H   UNL     1     -11.422  16.982  66.143  1.00  0.00     0.000 HD 
HETATM   18  O   UNL     1      -9.880  17.612  67.964  1.00  0.00    -0.284 OA 
HETATM   19  C   UNL     1     -11.114  14.973  65.957  1.00  0.00    -0.329 C  
BRANCH  14  20
HETATM   20  C   UNL     1      -8.100  15.614  68.954  1.00  0.00    -0.197 C  
HETATM   21  C   UNL     1      -6.820  15.901  68.688  1.00  0.00    -0.125 C  
HETATM   22 BR   UNL     1      -5.542  16.199  70.003  1.00  0.00    -0.175 Br 
ENDBRANCH  14  20
ENDBRANCH   6  11
ENDBRANCH   3   4
TORSDOF 3
ENDMDL
MODEL      132
REMARK 921   NORMALIZED FREE ENERGY PREDICTED BY IDOCK:   -3.60 KCAL/MOL
REMARK 922        TOTAL FREE ENERGY PREDICTED BY IDOCK:   -4.84 KCAL/MOL
REMARK 923 INTER-LIGAND FREE ENERGY PREDICTED BY IDOCK:   -4.23 KCAL/MOL
REMARK 924 INTRA-LIGAND FREE ENERGY PREDICTED BY IDOCK:   -0.62 KCAL/MOL
REMARK 927      BINDING AFFINITY PREDICTED BY RF-SCORE:    0.00 PKD
ROOT
HETATM    1  O5* UNL     1      -7.382  14.323  69.680  1.00  0.00    -0.340 OA 
HETATM    2  H5* UNL     1      -6.718  14.525  70.330  1.00  0.00     0.000 HD 
HETATM    3  C5* UNL     1      -7.000  13.203  68.879  1.00  0.00    -0.093 C  
ENDROOT
BRANCH   3   4
HETATM    4  C4* UNL     1      -8.067  12.879  67.835  1.00  0.00    -0.161 C  
HETATM    5  O4* UNL     1      -8.094  11.466  67.560  1.00  0.00    -0.119 OA 
HETATM    6  C1* UNL     1      -9.389  11.217  67.000  1.00  0.00    -0.170 C  
HETATM    7  C2* UNL     1     -10.358  12.125  67.750  1.00  0.00    -0.217 C  
HETATM    8  H3* UNL     1     -10.743  14.733  67.960  1.00  0.00     0.000 HD 
HETATM    9  O3* UNL     1      -9.862  14.501  67.692  1.00  0.00    -0.220 OA 
HETATM   10  C3* UNL     1      -9.484  13.252  68.267  1.00  0.00    -0.209 C  
BRANCH   6  11
HETATM   11  N   UNL     1      -9.732   9.802  67.076  1.00  0.00    -0.175 N  
HETATM   12  C   UNL     1     -10.170   9.226  68.259  1.00  0.00    -0.201 C  
HETATM   13  C   UNL     1     -10.331   7.092  67.135  1.00  0.00    -0.281 C  
HETATM   14  C   UNL     1     -10.462   7.921  68.372  1.00  0.00    -0.207 C  
HETATM   15  O   UNL     1      -9.342   9.557  64.811  1.00  0.00    -0.245 OA 
HETATM   16  N   UNL     1      -9.966   7.751  65.998  1.00  0.00    -0.397 N  
HETATM   17  H   UNL     1      -9.920   7.202  65.140  1.00  0.00     0.000 HD 
HETATM   18  O   UNL     1     -10.540   5.881  67.131  1.00  0.00    -0.235 OA 
HETATM   19  C   UNL     1      -9.657   9.077  65.899  1.00  0.00    -0.247 C  
BRANCH  14  20
HETATM   20  C   UNL     1     -10.955   7.281  69.582  1.00  0.00    -0.204 C  
HETATM   21  C   UNL     1     -11.430   7.900  70.669  1.00  0.00    -0.238 C  
HETATM   22 BR   UNL     1     -12.002   7.002  72.191  1.00  0.00    -0.268 Br 
ENDBRANCH  14  20
ENDBRANCH   6  11
ENDBRANCH   3   4
TORSDOF 3
ENDMDL
MODEL      133
REMARK 921   NORMALIZED FREE ENERGY PREDICTED BY IDOCK:   -3.60 KCAL/MOL
REMARK 922        TOTAL FREE ENERGY PREDICTED BY IDOCK:   -4.84 KCAL/MOL
REMARK 923 INTER-LIGAND FREE ENERGY PREDICTED BY IDOCK:   -4.93 KCAL/MOL
REMARK 924 INTRA-LIGAND FREE ENERGY PREDICTED BY IDOCK:    0.09 KCAL/MOL
REMARK 927      BINDING AFFINITY PREDICTED BY RF-SCORE:    0.00 PKD
ROOT
HETATM    1  O5* UNL     1      -8.037   2.790  70.277  1.00  0.00    -0.042 OA 
HETATM    2  H5* UNL     1      -8.245   1.885  70.075  1.00  0.00     0.000 HD 
HETATM    3  C5* UNL     1      -9.184   3.630  70.137  1.00  0.00    -0.151 C  
ENDROOT
BRANCH   3   4
HETATM    4  C4* UNL     1      -8.849   5.084  70.461  1.00  0.00    -0.121 C  
HETATM    5  O4* UNL     1     -10.022   5.912  70.351  1.00  0.00    -0.178 OA 
HETATM    6  C1* UNL     1      -9.732   7.079  71.131  1.00  0.00    -0.172 C  
HETATM    7  C2* UNL     1      -8.938   6.597  72.340  1.00  0.00    -0.138 C  
HETATM    8  H3* UNL     1      -6.561   5.509  72.742  1.00  0.00     0.000 HD 
HETATM    9  O3* UNL     1      -6.892   5.379  71.861  1.00  0.00    -0.058 OA 
HETATM   10  C3* UNL     1      -8.315   5.293  71.877  1.00  0.00    -0.122 C  
BRANCH   6  11
HETATM   11  N   UNL     1     -10.953   7.796  71.478  1.00  0.00    -0.231 N  
HETATM   12  C   UNL     1     -11.106   9.144  71.193  1.00  0.00    -0.323 C  
HETATM   13  C   UNL     1     -13.300   9.088  72.207  1.00  0.00    -0.467 C  
HETATM   14  C   UNL     1     -12.201   9.843  71.528  1.00  0.00    -0.505 C  
HETATM   15  O   UNL     1     -11.912   5.844  72.259  1.00  0.00    -0.295 OA 
HETATM   16  N   UNL     1     -13.098   7.750  72.383  1.00  0.00    -0.514 N  
HETATM   17  H   UNL     1     -13.862   7.220  72.802  1.00  0.00     0.000 HD 
HETATM   18  O   UNL     1     -14.333   9.633  72.587  1.00  0.00    -0.207 OA 
HETATM   19  C   UNL     1     -11.973   7.054  72.050  1.00  0.00    -0.298 C  
BRANCH  14  20
HETATM   20  C   UNL     1     -12.418  11.248  71.221  1.00  0.00    -0.441 C  
HETATM   21  C   UNL     1     -11.960  11.905  70.149  1.00  0.00    -0.332 C  
HETATM   22 BR   UNL     1     -12.252  13.716  69.855  1.00  0.00    -0.333 Br 
ENDBRANCH  14  20
ENDBRANCH   6  11
ENDBRANCH   3   4
TORSDOF 3
ENDMDL
MODEL      134
REMARK 921   NORMALIZED FREE ENERGY PREDICTED BY IDOCK:   -3.59 KCAL/MOL
REMARK 922        TOTAL FREE ENERGY PREDICTED BY IDOCK:   -4.83 KCAL/MOL
REMARK 923 INTER-LIGAND FREE ENERGY PREDICTED BY IDOCK:   -4.96 KCAL/MOL
REMARK 924 INTRA-LIGAND FREE ENERGY PREDICTED BY IDOCK:    0.13 KCAL/MOL
REMARK 927      BINDING AFFINITY PREDICTED BY RF-SCORE:    0.00 PKD
ROOT
HETATM    1  O5* UNL     1      -9.433   7.464  74.285  1.00  0.00    -0.405 OA 
HETATM    2  H5* UNL     1      -8.809   6.874  74.692  1.00  0.00     0.000 HD 
HETATM    3  C5* UNL     1      -9.005   7.851  72.979  1.00  0.00    -0.225 C  
ENDROOT
BRANCH   3   4
HETATM    4  C4* UNL     1     -10.007   8.799  72.325  1.00  0.00    -0.232 C  
HETATM    5  O4* UNL     1      -9.523   9.246  71.045  1.00  0.00    -0.266 OA 
HETATM    6  C1* UNL     1     -10.688   9.681  70.333  1.00  0.00    -0.298 C  
HETATM    7  C2* UNL     1     -11.806   8.717  70.716  1.00  0.00    -0.209 C  
HETATM    8  H3* UNL     1     -13.141   8.136  72.924  1.00  0.00     0.000 HD 
HETATM    9  O3* UNL     1     -12.292   8.530  73.088  1.00  0.00    -0.092 OA 
HETATM   10  C3* UNL     1     -11.372   8.165  72.062  1.00  0.00    -0.316 C  
BRANCH   6  11
HETATM   11  N   UNL     1     -10.435   9.747  68.899  1.00  0.00    -0.207 N  
HETATM   12  C   UNL     1     -10.800  10.855  68.150  1.00  0.00    -0.234 C  
HETATM   13  C   UNL     1      -9.945   9.769  66.166  1.00  0.00    -0.268 C  
HETATM   14  C   UNL     1     -10.613  10.935  66.823  1.00  0.00    -0.313 C  
HETATM   15  O   UNL     1      -9.356   7.704  68.967  1.00  0.00    -0.147 OA 
HETATM   16  N   UNL     1      -9.552   8.753  66.987  1.00  0.00    -0.166 N  
HETATM   17  H   UNL     1      -9.053   7.975  66.553  1.00  0.00     0.000 HD 
HETATM   18  O   UNL     1      -9.753   9.720  64.954  1.00  0.00    -0.296 OA 
HETATM   19  C   UNL     1      -9.761   8.677  68.334  1.00  0.00    -0.162 C  
BRANCH  14  20
HETATM   20  C   UNL     1     -10.949  12.088  66.004  1.00  0.00    -0.346 C  
HETATM   21  C   UNL     1     -11.881  13.009  66.276  1.00  0.00    -0.408 C  
HETATM   22 BR   UNL     1     -12.274  14.433  65.148  1.00  0.00    -0.371 Br 
ENDBRANCH  14  20
ENDBRANCH   6  11
ENDBRANCH   3   4
TORSDOF 3
ENDMDL
MODEL      135
REMARK 921   NORMALIZED FREE ENERGY PREDICTED BY IDOCK:   -3.56 KCAL/MOL
REMARK 922        TOTAL FREE ENERGY PREDICTED BY IDOCK:   -4.80 KCAL/MOL
REMARK 923 INTER-LIGAND FREE ENERGY PREDICTED BY IDOCK:   -5.07 KCAL/MOL
REMARK 924 INTRA-LIGAND FREE ENERGY PREDICTED BY IDOCK:    0.28 KCAL/MOL
REMARK 927      BINDING AFFINITY PREDICTED BY RF-SCORE:    0.00 PKD
ROOT
HETATM    1  O5* UNL     1      -6.106  10.835  63.314  1.00  0.00    -0.353 OA 
HETATM    2  H5* UNL     1      -5.347  11.074  62.795  1.00  0.00     0.000 HD 
HETATM    3  C5* UNL     1      -5.720  10.289  64.576  1.00  0.00    -0.133 C  
ENDROOT
BRANCH   3   4
HETATM    4  C4* UNL     1      -6.941   9.904  65.410  1.00  0.00    -0.113 C  
HETATM    5  O4* UNL     1      -7.756  11.060  65.678  1.00  0.00    -0.056 OA 
HETATM    6  C1* UNL     1      -9.053  10.539  65.995  1.00  0.00    -0.168 C  
HETATM    7  C2* UNL     1      -9.264   9.337  65.081  1.00  0.00    -0.264 C  
HETATM    8  H3* UNL     1      -8.166   6.947  64.800  1.00  0.00     0.000 HD 
HETATM    9  O3* UNL     1      -7.596   7.578  65.223  1.00  0.00    -0.085 OA 
HETATM   10  C3* UNL     1      -7.857   8.889  64.729  1.00  0.00    -0.121 C  
BRANCH   6  11
HETATM   11  N   UNL     1     -10.080  11.565  65.861  1.00  0.00    -0.222 N  
HETATM   12  C   UNL     1     -10.646  12.171  66.972  1.00  0.00    -0.228 C  
HETATM   13  C   UNL     1     -12.053  13.487  65.512  1.00  0.00    -0.419 C  
HETATM   14  C   UNL     1     -11.616  13.095  66.887  1.00  0.00    -0.417 C  
HETATM   15  O   UNL     1      -9.896  11.490  63.559  1.00  0.00    -0.320 OA 
HETATM   16  N   UNL     1     -11.393  12.897  64.473  1.00  0.00    -0.324 N  
HETATM   17  H   UNL     1     -11.653  13.193  63.533  1.00  0.00     0.000 HD 
HETATM   18  O   UNL     1     -12.955  14.297  65.316  1.00  0.00    -0.679 OA 
HETATM   19  C   UNL     1     -10.418  11.947  64.574  1.00  0.00    -0.296 C  
BRANCH  14  20
HETATM   20  C   UNL     1     -12.215  13.780  68.022  1.00  0.00    -0.179 C  
HETATM   21  C   UNL     1     -11.610  14.663  68.824  1.00  0.00    -0.317 C  
HETATM   22 BR   UNL     1     -12.441  15.462  70.281  1.00  0.00    -0.377 Br 
ENDBRANCH  14  20
ENDBRANCH   6  11
ENDBRANCH   3   4
TORSDOF 3
ENDMDL
MODEL      136
REMARK 921   NORMALIZED FREE ENERGY PREDICTED BY IDOCK:   -3.53 KCAL/MOL
REMARK 922        TOTAL FREE ENERGY PREDICTED BY IDOCK:   -4.76 KCAL/MOL
REMARK 923 INTER-LIGAND FREE ENERGY PREDICTED BY IDOCK:   -4.44 KCAL/MOL
REMARK 924 INTRA-LIGAND FREE ENERGY PREDICTED BY IDOCK:   -0.32 KCAL/MOL
REMARK 927      BINDING AFFINITY PREDICTED BY RF-SCORE:    0.00 PKD
ROOT
HETATM    1  O5* UNL     1     -10.681   4.032  72.749  1.00  0.00    -0.165 OA 
HETATM    2  H5* UNL     1     -11.389   3.447  72.991  1.00  0.00     0.000 HD 
HETATM    3  C5* UNL     1     -11.143   5.377  72.612  1.00  0.00    -0.278 C  
ENDROOT
BRANCH   3   4
HETATM    4  C4* UNL     1     -10.005   6.317  72.222  1.00  0.00    -0.165 C  
HETATM    5  O4* UNL     1      -9.959   6.493  70.794  1.00  0.00    -0.183 OA 
HETATM    6  C1* UNL     1      -9.242   7.717  70.588  1.00  0.00    -0.161 C  
HETATM    7  C2* UNL     1      -9.669   8.653  71.714  1.00  0.00    -0.361 C  
HETATM    8  H3* UNL     1      -9.393   8.713  74.344  1.00  0.00     0.000 HD 
HETATM    9  O3* UNL     1      -9.313   7.842  73.975  1.00  0.00    -0.239 OA 
HETATM   10  C3* UNL     1     -10.134   7.719  72.816  1.00  0.00    -0.282 C  
BRANCH   6  11
HETATM   11  N   UNL     1      -9.486   8.252  69.255  1.00  0.00    -0.155 N  
HETATM   12  C   UNL     1     -10.279   9.373  69.059  1.00  0.00    -0.205 C  
HETATM   13  C   UNL     1      -9.924   9.182  66.676  1.00  0.00    -0.273 C  
HETATM   14  C   UNL     1     -10.552   9.873  67.844  1.00  0.00    -0.303 C  
HETATM   15  O   UNL     1      -8.074   6.674  68.331  1.00  0.00    -0.113 OA 
HETATM   16  N   UNL     1      -9.099   8.134  66.962  1.00  0.00    -0.138 N  
HETATM   17  H   UNL     1      -8.629   7.687  66.174  1.00  0.00     0.000 HD 
HETATM   18  O   UNL     1     -10.131   9.533  65.517  1.00  0.00    -0.260 OA 
HETATM   19  C   UNL     1      -8.841   7.626  68.202  1.00  0.00    -0.125 C  
BRANCH  14  20
HETATM   20  C   UNL     1     -11.350  11.062  67.594  1.00  0.00    -0.355 C  
HETATM   21  C   UNL     1     -10.884  12.290  67.336  1.00  0.00    -0.239 C  
HETATM   22 BR   UNL     1     -11.980  13.766  67.068  1.00  0.00    -0.444 Br 
ENDBRANCH  14  20
ENDBRANCH   6  11
ENDBRANCH   3   4
TORSDOF 3
ENDMDL
MODEL      137
REMARK 921   NORMALIZED FREE ENERGY PREDICTED BY IDOCK:   -3.53 KCAL/MOL
REMARK 922        TOTAL FREE ENERGY PREDICTED BY IDOCK:   -4.76 KCAL/MOL
REMARK 923 INTER-LIGAND FREE ENERGY PREDICTED BY IDOCK:   -5.06 KCAL/MOL
REMARK 924 INTRA-LIGAND FREE ENERGY PREDICTED BY IDOCK:    0.30 KCAL/MOL
REMARK 927      BINDING AFFINITY PREDICTED BY RF-SCORE:    0.00 PKD
ROOT
HETATM    1  O5* UNL     1     -10.802  19.377  66.484  1.00  0.00    -0.419 OA 
HETATM    2  H5* UNL     1     -11.427  20.093  66.490  1.00  0.00     0.000 HD 
HETATM    3  C5* UNL     1     -10.606  18.848  67.795  1.00  0.00    -0.398 C  
ENDROOT
BRANCH   3   4
HETATM    4  C4* UNL     1      -9.601  17.698  67.785  1.00  0.00    -0.267 C  
HETATM    5  O4* UNL     1     -10.171  16.520  68.385  1.00  0.00    -0.243 OA 
HETATM    6  C1* UNL     1      -9.389  15.428  67.886  1.00  0.00    -0.192 C  
HETATM    7  C2* UNL     1      -9.056  15.770  66.438  1.00  0.00    -0.357 C  
HETATM    8  H3* UNL     1      -7.613  17.613  65.204  1.00  0.00     0.000 HD 
HETATM    9  O3* UNL     1      -7.891  17.870  66.075  1.00  0.00    -0.459 OA 
HETATM   10  C3* UNL     1      -9.154  17.284  66.384  1.00  0.00    -0.253 C  
BRANCH   6  11
HETATM   11  N   UNL     1     -10.094  14.161  68.042  1.00  0.00    -0.228 N  
HETATM   12  C   UNL     1      -9.409  12.973  68.247  1.00  0.00    -0.199 C  
HETATM   13  C   UNL     1     -11.517  11.791  68.295  1.00  0.00    -0.307 C  
HETATM   14  C   UNL     1     -10.024  11.785  68.361  1.00  0.00    -0.202 C  
HETATM   15  O   UNL     1     -12.131  15.247  67.927  1.00  0.00    -0.133 OA 
HETATM   16  N   UNL     1     -12.115  13.011  68.166  1.00  0.00    -0.250 N  
HETATM   17  H   UNL     1     -13.135  13.028  68.167  1.00  0.00     0.000 HD 
HETATM   18  O   UNL     1     -12.181  10.759  68.355  1.00  0.00    -0.470 OA 
HETATM   19  C   UNL     1     -11.478  14.211  68.035  1.00  0.00    -0.312 C  
BRANCH  14  20
HETATM   20  C   UNL     1      -9.350  10.521  68.609  1.00  0.00    -0.172 C  
HETATM   21  C   UNL     1      -8.553  10.237  69.647  1.00  0.00    -0.107 C  
HETATM   22 BR   UNL     1      -7.698   8.602  69.864  1.00  0.00    -0.087 Br 
ENDBRANCH  14  20
ENDBRANCH   6  11
ENDBRANCH   3   4
TORSDOF 3
ENDMDL
MODEL      138
REMARK 921   NORMALIZED FREE ENERGY PREDICTED BY IDOCK:   -3.50 KCAL/MOL
REMARK 922        TOTAL FREE ENERGY PREDICTED BY IDOCK:   -4.73 KCAL/MOL
REMARK 923 INTER-LIGAND FREE ENERGY PREDICTED BY IDOCK:   -4.85 KCAL/MOL
REMARK 924 INTRA-LIGAND FREE ENERGY PREDICTED BY IDOCK:    0.12 KCAL/MOL
REMARK 927      BINDING AFFINITY PREDICTED BY RF-SCORE:    0.00 PKD
ROOT
HETATM    1  O5* UNL     1     -11.222  16.559  68.475  1.00  0.00    -0.360 OA 
HETATM    2  H5* UNL     1     -11.357  17.374  68.944  1.00  0.00     0.000 HD 
HETATM    3  C5* UNL     1     -10.926  15.487  69.370  1.00  0.00    -0.276 C  
ENDROOT
BRANCH   3   4
HETATM    4  C4* UNL     1     -10.710  14.177  68.616  1.00  0.00    -0.254 C  
HETATM    5  O4* UNL     1     -10.594  13.075  69.534  1.00  0.00     0.163 OA 
HETATM    6  C1* UNL     1     -10.899  11.907  68.761  1.00  0.00    -0.231 C  
HETATM    7  C2* UNL     1     -12.007  12.314  67.796  1.00  0.00    -0.229 C  
HETATM    8  H3* UNL     1     -12.228  13.963  65.740  1.00  0.00     0.000 HD 
HETATM    9  O3* UNL     1     -11.518  14.187  66.330  1.00  0.00    -0.331 OA 
HETATM   10  C3* UNL     1     -11.851  13.818  67.666  1.00  0.00    -0.378 C  
BRANCH   6  11
HETATM   11  N   UNL     1     -11.251  10.784  69.621  1.00  0.00    -0.269 N  
HETATM   12  C   UNL     1     -10.765   9.508  69.379  1.00  0.00    -0.225 C  
HETATM   13  C   UNL     1     -12.003   8.697  71.291  1.00  0.00    -0.293 C  
HETATM   14  C   UNL     1     -11.096   8.445  70.129  1.00  0.00    -0.183 C  
HETATM   15  O   UNL     1     -12.442  12.188  71.018  1.00  0.00    -0.370 OA 
HETATM   16  N   UNL     1     -12.374   9.993  71.501  1.00  0.00    -0.395 N  
HETATM   17  H   UNL     1     -12.955  10.180  72.319  1.00  0.00     0.000 HD 
HETATM   18  O   UNL     1     -12.396   7.794  72.025  1.00  0.00    -0.297 OA 
HETATM   19  C   UNL     1     -12.043  11.063  70.721  1.00  0.00    -0.366 C  
BRANCH  14  20
HETATM   20  C   UNL     1     -10.586   7.098  69.933  1.00  0.00    -0.246 C  
HETATM   21  C   UNL     1      -9.457   6.594  70.446  1.00  0.00    -0.166 C  
HETATM   22 BR   UNL     1      -8.858   4.868  70.108  1.00  0.00    -0.143 Br 
ENDBRANCH  14  20
ENDBRANCH   6  11
ENDBRANCH   3   4
TORSDOF 3
ENDMDL
MODEL      139
REMARK 921   NORMALIZED FREE ENERGY PREDICTED BY IDOCK:   -3.50 KCAL/MOL
REMARK 922        TOTAL FREE ENERGY PREDICTED BY IDOCK:   -4.72 KCAL/MOL
REMARK 923 INTER-LIGAND FREE ENERGY PREDICTED BY IDOCK:   -4.32 KCAL/MOL
REMARK 924 INTRA-LIGAND FREE ENERGY PREDICTED BY IDOCK:   -0.40 KCAL/MOL
REMARK 927      BINDING AFFINITY PREDICTED BY RF-SCORE:    0.00 PKD
ROOT
HETATM    1  O5* UNL     1      -6.547  10.937  65.102  1.00  0.00    -0.363 OA 
HETATM    2  H5* UNL     1      -5.664  10.656  64.893  1.00  0.00     0.000 HD 
HETATM    3  C5* UNL     1      -6.885  10.623  66.454  1.00  0.00    -0.129 C  
ENDROOT
BRANCH   3   4
HETATM    4  C4* UNL     1      -8.305  11.073  66.791  1.00  0.00    -0.147 C  
HETATM    5  O4* UNL     1      -8.938  10.133  67.678  1.00  0.00    -0.131 OA 
HETATM    6  C1* UNL     1      -9.999  10.865  68.305  1.00  0.00    -0.175 C  
HETATM    7  C2* UNL     1      -9.467  12.276  68.531  1.00  0.00    -0.115 C  
HETATM    8  H3* UNL     1      -8.727  14.298  66.995  1.00  0.00     0.000 HD 
HETATM    9  O3* UNL     1      -8.687  13.455  66.557  1.00  0.00    -0.071 OA 
HETATM   10  C3* UNL     1      -8.370  12.428  67.494  1.00  0.00    -0.173 C  
BRANCH   6  11
HETATM   11  N   UNL     1     -10.446  10.204  69.525  1.00  0.00    -0.224 N  
HETATM   12  C   UNL     1      -9.568   9.483  70.320  1.00  0.00    -0.265 C  
HETATM   13  C   UNL     1     -11.392   8.947  71.813  1.00  0.00    -0.361 C  
HETATM   14  C   UNL     1      -9.951   8.834  71.430  1.00  0.00    -0.354 C  
HETATM   15  O   UNL     1     -12.573  11.064  69.248  1.00  0.00    -0.361 OA 
HETATM   16  N   UNL     1     -12.171   9.735  71.017  1.00  0.00    -0.329 N  
HETATM   17  H   UNL     1     -13.145   9.856  71.297  1.00  0.00     0.000 HD 
HETATM   18  O   UNL     1     -11.860   8.368  72.790  1.00  0.00    -0.371 OA 
HETATM   19  C   UNL     1     -11.772  10.379  69.881  1.00  0.00    -0.264 C  
BRANCH  14  20
HETATM   20  C   UNL     1      -9.060   8.095  72.311  1.00  0.00    -0.263 C  
HETATM   21  C   UNL     1      -8.775   6.789  72.236  1.00  0.00    -0.128 C  
HETATM   22 BR   UNL     1      -7.654   5.916  73.432  1.00  0.00    -0.097 Br 
ENDBRANCH  14  20
ENDBRANCH   6  11
ENDBRANCH   3   4
TORSDOF 3
ENDMDL
MODEL      140
REMARK 921   NORMALIZED FREE ENERGY PREDICTED BY IDOCK:   -3.50 KCAL/MOL
REMARK 922        TOTAL FREE ENERGY PREDICTED BY IDOCK:   -4.72 KCAL/MOL
REMARK 923 INTER-LIGAND FREE ENERGY PREDICTED BY IDOCK:   -4.70 KCAL/MOL
REMARK 924 INTRA-LIGAND FREE ENERGY PREDICTED BY IDOCK:   -0.03 KCAL/MOL
REMARK 927      BINDING AFFINITY PREDICTED BY RF-SCORE:    0.00 PKD
ROOT
HETATM    1  O5* UNL     1      -5.922  18.958  70.306  1.00  0.00    -0.229 OA 
HETATM    2  H5* UNL     1      -6.099  19.585  70.998  1.00  0.00     0.000 HD 
HETATM    3  C5* UNL     1      -6.954  18.969  69.319  1.00  0.00    -0.267 C  
ENDROOT
BRANCH   3   4
HETATM    4  C4* UNL     1      -6.669  17.961  68.207  1.00  0.00    -0.205 C  
HETATM    5  O4* UNL     1      -7.148  16.654  68.573  1.00  0.00    -0.156 OA 
HETATM    6  C1* UNL     1      -7.295  15.947  67.335  1.00  0.00    -0.193 C  
HETATM    7  C2* UNL     1      -7.800  16.967  66.320  1.00  0.00    -0.346 C  
HETATM    8  H3* UNL     1      -6.837  19.149  65.178  1.00  0.00     0.000 HD 
HETATM    9  O3* UNL     1      -6.417  18.937  66.003  1.00  0.00    -0.193 OA 
HETATM   10  C3* UNL     1      -7.344  18.302  66.880  1.00  0.00    -0.208 C  
BRANCH   6  11
HETATM   11  N   UNL     1      -8.168  14.790  67.490  1.00  0.00    -0.171 N  
HETATM   12  C   UNL     1      -9.211  14.548  66.609  1.00  0.00    -0.266 C  
HETATM   13  C   UNL     1      -9.802  12.580  67.882  1.00  0.00    -0.207 C  
HETATM   14  C   UNL     1     -10.054  13.512  66.740  1.00  0.00    -0.268 C  
HETATM   15  O   UNL     1      -6.916  14.048  69.285  1.00  0.00    -0.115 OA 
HETATM   16  N   UNL     1      -8.711  12.849  68.656  1.00  0.00    -0.372 N  
HETATM   17  H   UNL     1      -8.505  12.191  69.408  1.00  0.00     0.000 HD 
HETATM   18  O   UNL     1     -10.529  11.618  68.117  1.00  0.00    -0.183 OA 
HETATM   19  C   UNL     1      -7.870  13.915  68.520  1.00  0.00    -0.139 C  
BRANCH  14  20
HETATM   20  C   UNL     1     -11.140  13.202  65.823  1.00  0.00    -0.293 C  
HETATM   21  C   UNL     1     -11.045  12.485  64.697  1.00  0.00    -0.306 C  
HETATM   22 BR   UNL     1     -12.481  12.171  63.560  1.00  0.00    -0.579 Br 
ENDBRANCH  14  20
ENDBRANCH   6  11
ENDBRANCH   3   4
TORSDOF 3
ENDMDL
MODEL      141
REMARK 921   NORMALIZED FREE ENERGY PREDICTED BY IDOCK:   -3.49 KCAL/MOL
REMARK 922        TOTAL FREE ENERGY PREDICTED BY IDOCK:   -4.71 KCAL/MOL
REMARK 923 INTER-LIGAND FREE ENERGY PREDICTED BY IDOCK:   -4.23 KCAL/MOL
REMARK 924 INTRA-LIGAND FREE ENERGY PREDICTED BY IDOCK:   -0.48 KCAL/MOL
REMARK 927      BINDING AFFINITY PREDICTED BY RF-SCORE:    0.00 PKD
ROOT
HETATM    1  O5* UNL     1     -12.362  13.222  66.549  1.00  0.00    -0.358 OA 
HETATM    2  H5* UNL     1     -12.939  13.831  66.997  1.00  0.00     0.000 HD 
HETATM    3  C5* UNL     1     -11.085  13.808  66.296  1.00  0.00    -0.302 C  
ENDROOT
BRANCH   3   4
HETATM    4  C4* UNL     1     -10.158  12.831  65.576  1.00  0.00    -0.264 C  
HETATM    5  O4* UNL     1      -9.493  11.973  66.522  1.00  0.00    -0.216 OA 
HETATM    6  C1* UNL     1      -9.080  10.828  65.765  1.00  0.00    -0.188 C  
HETATM    7  C2* UNL     1     -10.193  10.560  64.757  1.00  0.00    -0.373 C  
HETATM    8  H3* UNL     1     -11.201  11.818  62.660  1.00  0.00     0.000 HD 
HETATM    9  O3* UNL     1     -10.752  12.395  63.267  1.00  0.00    -0.416 OA 
HETATM   10  C3* UNL     1     -10.880  11.904  64.600  1.00  0.00    -0.311 C  
BRANCH   6  11
HETATM   11  N   UNL     1      -8.792   9.696  66.636  1.00  0.00    -0.137 N  
HETATM   12  C   UNL     1      -9.576   9.420  67.746  1.00  0.00    -0.134 C  
HETATM   13  C   UNL     1      -8.149   7.537  68.260  1.00  0.00    -0.124 C  
HETATM   14  C   UNL     1      -9.320   8.407  68.589  1.00  0.00    -0.143 C  
HETATM   15  O   UNL     1      -7.058   9.038  65.258  1.00  0.00    -0.082 OA 
HETATM   16  N   UNL     1      -7.477   7.833  67.110  1.00  0.00    -0.094 N  
HETATM   17  H   UNL     1      -6.706   7.216  66.854  1.00  0.00     0.000 HD 
HETATM   18  O   UNL     1      -7.804   6.602  68.978  1.00  0.00    -0.107 OA 
HETATM   19  C   UNL     1      -7.738   8.876  66.270  1.00  0.00    -0.098 C  
BRANCH  14  20
HETATM   20  C   UNL     1     -10.133   8.062  69.745  1.00  0.00    -0.196 C  
HETATM   21  C   UNL     1     -10.514   8.892  70.723  1.00  0.00    -0.227 C  
HETATM   22 BR   UNL     1     -11.521   8.355  72.189  1.00  0.00    -0.458 Br 
ENDBRANCH  14  20
ENDBRANCH   6  11
ENDBRANCH   3   4
TORSDOF 3
ENDMDL
MODEL      142
REMARK 921   NORMALIZED FREE ENERGY PREDICTED BY IDOCK:   -3.48 KCAL/MOL
REMARK 922        TOTAL FREE ENERGY PREDICTED BY IDOCK:   -4.70 KCAL/MOL
REMARK 923 INTER-LIGAND FREE ENERGY PREDICTED BY IDOCK:   -4.16 KCAL/MOL
REMARK 924 INTRA-LIGAND FREE ENERGY PREDICTED BY IDOCK:   -0.55 KCAL/MOL
REMARK 927      BINDING AFFINITY PREDICTED BY RF-SCORE:    0.00 PKD
ROOT
HETATM    1  O5* UNL     1      -9.773   4.225  67.697  1.00  0.00    -0.170 OA 
HETATM    2  H5* UNL     1     -10.357   3.548  68.021  1.00  0.00     0.000 HD 
HETATM    3  C5* UNL     1     -10.463   5.462  67.518  1.00  0.00    -0.170 C  
ENDROOT
BRANCH   3   4
HETATM    4  C4* UNL     1      -9.525   6.550  66.997  1.00  0.00    -0.138 C  
HETATM    5  O4* UNL     1     -10.254   7.760  66.725  1.00  0.00    -0.273 OA 
HETATM    6  C1* UNL     1      -9.270   8.803  66.742  1.00  0.00    -0.169 C  
HETATM    7  C2* UNL     1      -8.282   8.438  67.844  1.00  0.00    -0.127 C  
HETATM    8  H3* UNL     1      -6.519   6.509  68.254  1.00  0.00     0.000 HD 
HETATM    9  O3* UNL     1      -7.205   6.271  67.642  1.00  0.00    -0.078 OA 
HETATM   10  C3* UNL     1      -8.421   6.933  67.981  1.00  0.00    -0.124 C  
BRANCH   6  11
HETATM   11  N   UNL     1      -9.891  10.110  66.919  1.00  0.00    -0.187 N  
HETATM   12  C   UNL     1     -10.694  10.386  68.015  1.00  0.00    -0.249 C  
HETATM   13  C   UNL     1     -11.060  12.617  67.157  1.00  0.00    -0.280 C  
HETATM   14  C   UNL     1     -11.308  11.567  68.192  1.00  0.00    -0.367 C  
HETATM   15  O   UNL     1      -8.832  10.902  65.024  1.00  0.00    -0.194 OA 
HETATM   16  N   UNL     1     -10.199  12.287  66.151  1.00  0.00    -0.234 N  
HETATM   17  H   UNL     1      -9.988  13.013  65.466  1.00  0.00     0.000 HD 
HETATM   18  O   UNL     1     -11.596  13.721  67.201  1.00  0.00    -0.326 OA 
HETATM   19  C   UNL     1      -9.593  11.077  65.974  1.00  0.00    -0.215 C  
BRANCH  14  20
HETATM   20  C   UNL     1     -12.131  11.912  69.340  1.00  0.00    -0.277 C  
HETATM   21  C   UNL     1     -11.914  11.548  70.610  1.00  0.00    -0.292 C  
HETATM   22 BR   UNL     1     -13.044  12.001  72.013  1.00  0.00    -0.288 Br 
ENDBRANCH  14  20
ENDBRANCH   6  11
ENDBRANCH   3   4
TORSDOF 3
ENDMDL
MODEL      143
REMARK 921   NORMALIZED FREE ENERGY PREDICTED BY IDOCK:   -3.43 KCAL/MOL
REMARK 922        TOTAL FREE ENERGY PREDICTED BY IDOCK:   -4.64 KCAL/MOL
REMARK 923 INTER-LIGAND FREE ENERGY PREDICTED BY IDOCK:   -4.83 KCAL/MOL
REMARK 924 INTRA-LIGAND FREE ENERGY PREDICTED BY IDOCK:    0.20 KCAL/MOL
REMARK 927      BINDING AFFINITY PREDICTED BY RF-SCORE:    0.00 PKD
ROOT
HETATM    1  O5* UNL     1     -10.732   7.438  66.645  1.00  0.00    -0.498 OA 
HETATM    2  H5* UNL     1     -11.076   6.919  65.927  1.00  0.00     0.000 HD 
HETATM    3  C5* UNL     1      -9.867   8.470  66.171  1.00  0.00    -0.157 C  
ENDROOT
BRANCH   3   4
HETATM    4  C4* UNL     1      -9.312   9.303  67.325  1.00  0.00    -0.131 C  
HETATM    5  O4* UNL     1      -9.609  10.699  67.132  1.00  0.00    -0.161 OA 
HETATM    6  C1* UNL     1      -9.514  11.287  68.435  1.00  0.00    -0.192 C  
HETATM    7  C2* UNL     1     -10.071  10.255  69.410  1.00  0.00    -0.255 C  
HETATM    8  H3* UNL     1      -9.361   7.846  70.239  1.00  0.00     0.000 HD 
HETATM    9  O3* UNL     1      -8.999   8.077  69.392  1.00  0.00    -0.147 OA 
HETATM   10  C3* UNL     1      -9.896   8.932  68.688  1.00  0.00    -0.167 C  
BRANCH   6  11
HETATM   11  N   UNL     1     -10.200  12.572  68.484  1.00  0.00    -0.225 N  
HETATM   12  C   UNL     1      -9.498  13.766  68.540  1.00  0.00    -0.162 C  
HETATM   13  C   UNL     1     -11.592  14.971  68.610  1.00  0.00    -0.325 C  
HETATM   14  C   UNL     1     -10.097  14.964  68.620  1.00  0.00    -0.237 C  
HETATM   15  O   UNL     1     -12.248  11.518  68.292  1.00  0.00    -0.561 OA 
HETATM   16  N   UNL     1     -12.204  13.759  68.478  1.00  0.00    -0.444 N  
HETATM   17  H   UNL     1     -13.223  13.759  68.423  1.00  0.00     0.000 HD 
HETATM   18  O   UNL     1     -12.244  16.007  68.711  1.00  0.00    -0.136 OA 
HETATM   19  C   UNL     1     -11.583  12.545  68.413  1.00  0.00    -0.322 C  
BRANCH  14  20
HETATM   20  C   UNL     1      -9.402  16.241  68.647  1.00  0.00    -0.219 C  
HETATM   21  C   UNL     1      -8.076  16.423  68.670  1.00  0.00    -0.218 C  
HETATM   22 BR   UNL     1      -7.272  18.095  68.746  1.00  0.00    -0.276 Br 
ENDBRANCH  14  20
ENDBRANCH   6  11
ENDBRANCH   3   4
TORSDOF 3
ENDMDL
MODEL      144
REMARK 921   NORMALIZED FREE ENERGY PREDICTED BY IDOCK:   -3.42 KCAL/MOL
REMARK 922        TOTAL FREE ENERGY PREDICTED BY IDOCK:   -4.63 KCAL/MOL
REMARK 923 INTER-LIGAND FREE ENERGY PREDICTED BY IDOCK:   -4.14 KCAL/MOL
REMARK 924 INTRA-LIGAND FREE ENERGY PREDICTED BY IDOCK:   -0.49 KCAL/MOL
REMARK 927      BINDING AFFINITY PREDICTED BY RF-SCORE:    0.00 PKD
ROOT
HETATM    1  O5* UNL     1     -11.359  13.964  65.009  1.00  0.00    -0.313 OA 
HETATM    2  H5* UNL     1     -11.633  14.429  64.226  1.00  0.00     0.000 HD 
HETATM    3  C5* UNL     1     -12.424  13.871  65.956  1.00  0.00    -0.461 C  
ENDROOT
BRANCH   3   4
HETATM    4  C4* UNL     1     -11.984  13.124  67.214  1.00  0.00    -0.335 C  
HETATM    5  O4* UNL     1     -11.679  11.751  66.908  1.00  0.00    -0.557 OA 
HETATM    6  C1* UNL     1     -10.833  11.308  67.976  1.00  0.00    -0.218 C  
HETATM    7  C2* UNL     1      -9.941  12.492  68.332  1.00  0.00    -0.212 C  
HETATM    8  H3* UNL     1     -10.301  14.901  69.365  1.00  0.00     0.000 HD 
HETATM    9  O3* UNL     1     -11.082  14.542  68.961  1.00  0.00    -0.241 OA 
HETATM   10  C3* UNL     1     -10.729  13.702  67.864  1.00  0.00    -0.247 C  
BRANCH   6  11
HETATM   11  N   UNL     1     -10.094  10.109  67.600  1.00  0.00    -0.180 N  
HETATM   12  C   UNL     1      -9.190  10.116  66.549  1.00  0.00    -0.153 C  
HETATM   13  C   UNL     1      -8.757   7.769  66.932  1.00  0.00    -0.132 C  
HETATM   14  C   UNL     1      -8.518   9.023  66.154  1.00  0.00    -0.135 C  
HETATM   15  O   UNL     1     -11.031   8.943  69.362  1.00  0.00    -0.173 OA 
HETATM   16  N   UNL     1      -9.605   7.867  67.996  1.00  0.00    -0.149 N  
HETATM   17  H   UNL     1      -9.738   7.027  68.560  1.00  0.00     0.000 HD 
HETATM   18  O   UNL     1      -8.222   6.703  66.639  1.00  0.00    -0.108 OA 
HETATM   19  C   UNL     1     -10.294   8.981  68.379  1.00  0.00    -0.205 C  
BRANCH  14  20
HETATM   20  C   UNL     1      -7.538   8.992  65.081  1.00  0.00    -0.098 C  
HETATM   21  C   UNL     1      -7.626   9.630  63.908  1.00  0.00    -0.127 C  
HETATM   22 BR   UNL     1      -6.341   9.501  62.572  1.00  0.00    -0.098 Br 
ENDBRANCH  14  20
ENDBRANCH   6  11
ENDBRANCH   3   4
TORSDOF 3
ENDMDL
MODEL      145
REMARK 921   NORMALIZED FREE ENERGY PREDICTED BY IDOCK:   -3.42 KCAL/MOL
REMARK 922        TOTAL FREE ENERGY PREDICTED BY IDOCK:   -4.62 KCAL/MOL
REMARK 923 INTER-LIGAND FREE ENERGY PREDICTED BY IDOCK:   -4.03 KCAL/MOL
REMARK 924 INTRA-LIGAND FREE ENERGY PREDICTED BY IDOCK:   -0.60 KCAL/MOL
REMARK 927      BINDING AFFINITY PREDICTED BY RF-SCORE:    0.00 PKD
ROOT
HETATM    1  O5* UNL     1      -6.373   8.965  70.114  1.00  0.00    -0.039 OA 
HETATM    2  H5* UNL     1      -5.612   8.983  70.682  1.00  0.00     0.000 HD 
HETATM    3  C5* UNL     1      -7.275  10.029  70.420  1.00  0.00    -0.108 C  
ENDROOT
BRANCH   3   4
HETATM    4  C4* UNL     1      -8.499   9.999  69.507  1.00  0.00    -0.176 C  
HETATM    5  O4* UNL     1      -8.990  11.331  69.272  1.00  0.00     0.050 OA 
HETATM    6  C1* UNL     1      -9.762  11.241  68.067  1.00  0.00    -0.179 C  
HETATM    7  C2* UNL     1      -9.029  10.254  67.165  1.00  0.00    -0.145 C  
HETATM    8  H3* UNL     1      -8.476   7.668  67.229  1.00  0.00     0.000 HD 
HETATM    9  O3* UNL     1      -8.647   8.040  68.086  1.00  0.00    -0.126 OA 
HETATM   10  C3* UNL     1      -8.224   9.400  68.128  1.00  0.00    -0.118 C  
BRANCH   6  11
HETATM   11  N   UNL     1      -9.956  12.554  67.466  1.00  0.00    -0.199 N  
HETATM   12  C   UNL     1      -8.936  13.493  67.435  1.00  0.00    -0.219 C  
HETATM   13  C   UNL     1     -10.426  15.043  66.330  1.00  0.00    -0.294 C  
HETATM   14  C   UNL     1      -9.090  14.723  66.920  1.00  0.00    -0.268 C  
HETATM   15  O   UNL     1     -12.096  11.973  66.816  1.00  0.00    -0.613 OA 
HETATM   16  N   UNL     1     -11.349  14.039  66.335  1.00  0.00    -0.323 N  
HETATM   17  H   UNL     1     -12.247  14.234  65.893  1.00  0.00     0.000 HD 
HETATM   18  O   UNL     1     -10.688  16.148  65.861  1.00  0.00    -0.314 OA 
HETATM   19  C   UNL     1     -11.185  12.796  66.876  1.00  0.00    -0.296 C  
BRANCH  14  20
HETATM   20  C   UNL     1      -8.041  15.726  66.836  1.00  0.00    -0.292 C  
HETATM   21  C   UNL     1      -6.903  15.745  67.541  1.00  0.00    -0.189 C  
HETATM   22 BR   UNL     1      -5.633  17.093  67.400  1.00  0.00    -0.179 Br 
ENDBRANCH  14  20
ENDBRANCH   6  11
ENDBRANCH   3   4
TORSDOF 3
ENDMDL
MODEL      146
REMARK 921   NORMALIZED FREE ENERGY PREDICTED BY IDOCK:   -3.40 KCAL/MOL
REMARK 922        TOTAL FREE ENERGY PREDICTED BY IDOCK:   -4.60 KCAL/MOL
REMARK 923 INTER-LIGAND FREE ENERGY PREDICTED BY IDOCK:   -4.13 KCAL/MOL
REMARK 924 INTRA-LIGAND FREE ENERGY PREDICTED BY IDOCK:   -0.47 KCAL/MOL
REMARK 927      BINDING AFFINITY PREDICTED BY RF-SCORE:    0.00 PKD
ROOT
HETATM    1  O5* UNL     1      -7.192  11.069  67.472  1.00  0.00    -0.090 OA 
HETATM    2  H5* UNL     1      -6.362  11.529  67.434  1.00  0.00     0.000 HD 
HETATM    3  C5* UNL     1      -7.950  11.266  66.277  1.00  0.00    -0.086 C  
ENDROOT
BRANCH   3   4
HETATM    4  C4* UNL     1      -9.285  10.526  66.338  1.00  0.00    -0.166 C  
HETATM    5  O4* UNL     1      -9.142   9.280  67.043  1.00  0.00    -0.128 OA 
HETATM    6  C1* UNL     1     -10.466   8.937  67.472  1.00  0.00    -0.269 C  
HETATM    7  C2* UNL     1     -11.142  10.249  67.855  1.00  0.00    -0.341 C  
HETATM    8  H3* UNL     1     -11.918  12.431  66.577  1.00  0.00     0.000 HD 
HETATM    9  O3* UNL     1     -11.234  11.950  66.125  1.00  0.00    -0.319 OA 
HETATM   10  C3* UNL     1     -10.384  11.300  67.065  1.00  0.00    -0.227 C  
BRANCH   6  11
HETATM   11  N   UNL     1     -10.433   7.957  68.551  1.00  0.00    -0.195 N  
HETATM   12  C   UNL     1     -10.003   8.297  69.824  1.00  0.00    -0.191 C  
HETATM   13  C   UNL     1     -10.371   6.016  70.535  1.00  0.00    -0.221 C  
HETATM   14  C   UNL     1      -9.927   7.413  70.831  1.00  0.00    -0.184 C  
HETATM   15  O   UNL     1     -11.364   6.358  67.166  1.00  0.00    -0.308 OA 
HETATM   16  N   UNL     1     -10.850   5.784  69.279  1.00  0.00    -0.320 N  
HETATM   17  H   UNL     1     -11.198   4.846  69.083  1.00  0.00     0.000 HD 
HETATM   18  O   UNL     1     -10.315   5.118  71.372  1.00  0.00    -0.210 OA 
HETATM   19  C   UNL     1     -10.907   6.689  68.258  1.00  0.00    -0.254 C  
BRANCH  14  20
HETATM   20  C   UNL     1      -9.514   7.732  72.189  1.00  0.00    -0.216 C  
HETATM   21  C   UNL     1      -8.295   7.550  72.709  1.00  0.00    -0.118 C  
HETATM   22 BR   UNL     1      -7.864   7.949  74.472  1.00  0.00    -0.287 Br 
ENDBRANCH  14  20
ENDBRANCH   6  11
ENDBRANCH   3   4
TORSDOF 3
ENDMDL
MODEL      147
REMARK 921   NORMALIZED FREE ENERGY PREDICTED BY IDOCK:   -3.39 KCAL/MOL
REMARK 922        TOTAL FREE ENERGY PREDICTED BY IDOCK:   -4.60 KCAL/MOL
REMARK 923 INTER-LIGAND FREE ENERGY PREDICTED BY IDOCK:   -4.14 KCAL/MOL
REMARK 924 INTRA-LIGAND FREE ENERGY PREDICTED BY IDOCK:   -0.46 KCAL/MOL
REMARK 927      BINDING AFFINITY PREDICTED BY RF-SCORE:    0.00 PKD
ROOT
HETATM    1  O5* UNL     1     -13.945   6.430  72.414  1.00  0.00    -0.498 OA 
HETATM    2  H5* UNL     1     -14.841   6.743  72.470  1.00  0.00     0.000 HD 
HETATM    3  C5* UNL     1     -13.263   7.009  71.300  1.00  0.00    -0.230 C  
ENDROOT
BRANCH   3   4
HETATM    4  C4* UNL     1     -11.823   6.505  71.209  1.00  0.00    -0.329 C  
HETATM    5  O4* UNL     1     -11.464   6.241  69.841  1.00  0.00    -0.422 OA 
HETATM    6  C1* UNL     1     -10.031   6.275  69.815  1.00  0.00    -0.168 C  
HETATM    7  C2* UNL     1      -9.615   7.380  70.780  1.00  0.00    -0.170 C  
HETATM    8  H3* UNL     1      -9.766   7.781  73.390  1.00  0.00     0.000 HD 
HETATM    9  O3* UNL     1     -10.409   7.162  73.064  1.00  0.00    -0.218 OA 
HETATM   10  C3* UNL     1     -10.790   7.500  71.733  1.00  0.00    -0.227 C  
BRANCH   6  11
HETATM   11  N   UNL     1      -9.533   6.461  68.458  1.00  0.00    -0.121 N  
HETATM   12  C   UNL     1      -9.604   7.693  67.825  1.00  0.00    -0.144 C  
HETATM   13  C   UNL     1      -8.590   6.716  65.859  1.00  0.00    -0.148 C  
HETATM   14  C   UNL     1      -9.186   7.892  66.565  1.00  0.00    -0.238 C  
HETATM   15  O   UNL     1      -8.785   4.276  68.401  1.00  0.00    -0.093 OA 
HETATM   16  N   UNL     1      -8.491   5.562  66.580  1.00  0.00    -0.112 N  
HETATM   17  H   UNL     1      -8.043   4.768  66.121  1.00  0.00     0.000 HD 
HETATM   18  O   UNL     1      -8.206   6.775  64.694  1.00  0.00    -0.114 OA 
HETATM   19  C   UNL     1      -8.934   5.368  67.856  1.00  0.00    -0.108 C  
BRANCH  14  20
HETATM   20  C   UNL     1      -9.210   9.171  65.873  1.00  0.00    -0.286 C  
HETATM   21  C   UNL     1     -10.285   9.943  65.671  1.00  0.00    -0.159 C  
HETATM   22 BR   UNL     1     -10.232  11.548  64.738  1.00  0.00    -0.351 Br 
ENDBRANCH  14  20
ENDBRANCH   6  11
ENDBRANCH   3   4
TORSDOF 3
ENDMDL
MODEL      148
REMARK 921   NORMALIZED FREE ENERGY PREDICTED BY IDOCK:   -3.39 KCAL/MOL
REMARK 922        TOTAL FREE ENERGY PREDICTED BY IDOCK:   -4.59 KCAL/MOL
REMARK 923 INTER-LIGAND FREE ENERGY PREDICTED BY IDOCK:   -4.14 KCAL/MOL
REMARK 924 INTRA-LIGAND FREE ENERGY PREDICTED BY IDOCK:   -0.45 KCAL/MOL
REMARK 927      BINDING AFFINITY PREDICTED BY RF-SCORE:    0.00 PKD
ROOT
HETATM    1  O5* UNL     1     -12.655  11.063  69.020  1.00  0.00    -0.619 OA 
HETATM    2  H5* UNL     1     -13.298  11.296  68.359  1.00  0.00     0.000 HD 
HETATM    3  C5* UNL     1     -11.374  10.827  68.435  1.00  0.00    -0.302 C  
ENDROOT
BRANCH   3   4
HETATM    4  C4* UNL     1     -10.341  10.452  69.497  1.00  0.00    -0.237 C  
HETATM    5  O4* UNL     1     -10.752   9.272  70.210  1.00  0.00    -0.215 OA 
HETATM    6  C1* UNL     1      -9.549   8.740  70.782  1.00  0.00    -0.208 C  
HETATM    7  C2* UNL     1      -8.449   8.974  69.752  1.00  0.00    -0.132 C  
HETATM    8  H3* UNL     1      -7.244  11.082  68.704  1.00  0.00     0.000 HD 
HETATM    9  O3* UNL     1      -8.104  11.275  69.058  1.00  0.00    -0.127 OA 
HETATM   10  C3* UNL     1      -8.958  10.142  68.926  1.00  0.00    -0.155 C  
BRANCH   6  11
HETATM   11  N   UNL     1      -9.717   7.341  71.154  1.00  0.00    -0.171 N  
HETATM   12  C   UNL     1      -9.447   6.317  70.260  1.00  0.00    -0.161 C  
HETATM   13  C   UNL     1     -10.098   4.706  71.941  1.00  0.00    -0.198 C  
HETATM   14  C   UNL     1      -9.623   5.020  70.558  1.00  0.00    -0.252 C  
HETATM   15  O   UNL     1     -10.283   7.953  73.310  1.00  0.00    -0.324 OA 
HETATM   16  N   UNL     1     -10.267   5.768  72.781  1.00  0.00    -0.180 N  
HETATM   17  H   UNL     1     -10.546   5.558  73.739  1.00  0.00     0.000 HD 
HETATM   18  O   UNL     1     -10.323   3.557  72.312  1.00  0.00    -0.147 OA 
HETATM   19  C   UNL     1     -10.100   7.084  72.460  1.00  0.00    -0.177 C  
BRANCH  14  20
HETATM   20  C   UNL     1      -9.322   3.913  69.664  1.00  0.00    -0.246 C  
HETATM   21  C   UNL     1      -9.112   3.994  68.345  1.00  0.00    -0.137 C  
HETATM   22 BR   UNL     1      -8.773   2.517  67.270  1.00  0.00    -0.151 Br 
ENDBRANCH  14  20
ENDBRANCH   6  11
ENDBRANCH   3   4
TORSDOF 3
ENDMDL
MODEL      149
REMARK 921   NORMALIZED FREE ENERGY PREDICTED BY IDOCK:   -3.38 KCAL/MOL
REMARK 922        TOTAL FREE ENERGY PREDICTED BY IDOCK:   -4.59 KCAL/MOL
REMARK 923 INTER-LIGAND FREE ENERGY PREDICTED BY IDOCK:   -4.75 KCAL/MOL
REMARK 924 INTRA-LIGAND FREE ENERGY PREDICTED BY IDOCK:    0.17 KCAL/MOL
REMARK 927      BINDING AFFINITY PREDICTED BY RF-SCORE:    0.00 PKD
ROOT
HETATM    1  O5* UNL     1     -11.229  11.653  70.238  1.00  0.00    -0.475 OA 
HETATM    2  H5* UNL     1     -11.085  12.590  70.187  1.00  0.00     0.000 HD 
HETATM    3  C5* UNL     1     -12.521  11.354  70.768  1.00  0.00    -0.365 C  
ENDROOT
BRANCH   3   4
HETATM    4  C4* UNL     1     -12.752   9.846  70.850  1.00  0.00    -0.290 C  
HETATM    5  O4* UNL     1     -11.601   9.130  70.368  1.00  0.00    -0.242 OA 
HETATM    6  C1* UNL     1     -11.707   7.819  70.939  1.00  0.00    -0.265 C  
HETATM    7  C2* UNL     1     -12.269   8.012  72.343  1.00  0.00    -0.337 C  
HETATM    8  H3* UNL     1     -14.554   8.853  73.377  1.00  0.00     0.000 HD 
HETATM    9  O3* UNL     1     -14.399   9.169  72.495  1.00  0.00    -0.529 OA 
HETATM   10  C3* UNL     1     -13.001   9.339  72.270  1.00  0.00    -0.412 C  
BRANCH   6  11
HETATM   11  N   UNL     1     -10.425   7.126  70.910  1.00  0.00    -0.209 N  
HETATM   12  C   UNL     1     -10.297   5.865  70.349  1.00  0.00    -0.231 C  
HETATM   13  C   UNL     1      -7.950   5.868  70.929  1.00  0.00    -0.111 C  
HETATM   14  C   UNL     1      -9.141   5.184  70.335  1.00  0.00    -0.173 C  
HETATM   15  O   UNL     1      -9.380   8.958  71.856  1.00  0.00    -0.284 OA 
HETATM   16  N   UNL     1      -8.146   7.136  71.391  1.00  0.00    -0.106 N  
HETATM   17  H   UNL     1      -7.329   7.627  71.754  1.00  0.00     0.000 HD 
HETATM   18  O   UNL     1      -6.850   5.326  70.999  1.00  0.00    -0.044 OA 
HETATM   19  C   UNL     1      -9.332   7.812  71.413  1.00  0.00    -0.141 C  
BRANCH  14  20
HETATM   20  C   UNL     1      -8.953   3.875  69.731  1.00  0.00    -0.167 C  
HETATM   21  C   UNL     1      -9.398   3.484  68.530  1.00  0.00    -0.166 C  
HETATM   22 BR   UNL     1      -9.148   1.773  67.852  1.00  0.00    -0.208 Br 
ENDBRANCH  14  20
ENDBRANCH   6  11
ENDBRANCH   3   4
TORSDOF 3
ENDMDL
MODEL      150
REMARK 921   NORMALIZED FREE ENERGY PREDICTED BY IDOCK:   -3.37 KCAL/MOL
REMARK 922        TOTAL FREE ENERGY PREDICTED BY IDOCK:   -4.57 KCAL/MOL
REMARK 923 INTER-LIGAND FREE ENERGY PREDICTED BY IDOCK:   -4.33 KCAL/MOL
REMARK 924 INTRA-LIGAND FREE ENERGY PREDICTED BY IDOCK:   -0.23 KCAL/MOL
REMARK 927      BINDING AFFINITY PREDICTED BY RF-SCORE:    0.00 PKD
ROOT
HETATM    1  O5* UNL     1      -9.280   5.491  64.142  1.00  0.00    -0.305 OA 
HETATM    2  H5* UNL     1      -9.597   4.613  63.964  1.00  0.00     0.000 HD 
HETATM    3  C5* UNL     1      -7.852   5.532  64.165  1.00  0.00    -0.103 C  
ENDROOT
BRANCH   3   4
HETATM    4  C4* UNL     1      -7.343   6.943  64.452  1.00  0.00    -0.088 C  
HETATM    5  O4* UNL     1      -8.390   7.911  64.254  1.00  0.00    -0.090 OA 
HETATM    6  C1* UNL     1      -7.984   9.063  65.004  1.00  0.00    -0.123 C  
HETATM    7  C2* UNL     1      -7.316   8.533  66.268  1.00  0.00    -0.079 C  
HETATM    8  H3* UNL     1      -5.124   7.163  66.827  1.00  0.00     0.000 HD 
HETATM    9  O3* UNL     1      -5.430   7.040  65.936  1.00  0.00    -0.025 OA 
HETATM   10  C3* UNL     1      -6.851   7.140  65.884  1.00  0.00    -0.057 C  
BRANCH   6  11
HETATM   11  N   UNL     1      -9.114   9.947  65.263  1.00  0.00    -0.193 N  
HETATM   12  C   UNL     1      -9.491  10.277  66.556  1.00  0.00    -0.171 C  
HETATM   13  C   UNL     1     -11.299  11.611  65.664  1.00  0.00    -0.170 C  
HETATM   14  C   UNL     1     -10.546  11.060  66.832  1.00  0.00    -0.307 C  
HETATM   15  O   UNL     1      -9.411  10.280  62.996  1.00  0.00    -0.293 OA 
HETATM   16  N   UNL     1     -10.817  11.297  64.427  1.00  0.00    -0.331 N  
HETATM   17  H   UNL     1     -11.297  11.707  63.626  1.00  0.00     0.000 HD 
HETATM   18  O   UNL     1     -12.300  12.312  65.799  1.00  0.00    -0.622 OA 
HETATM   19  C   UNL     1      -9.752  10.486  64.159  1.00  0.00    -0.327 C  
BRANCH  14  20
HETATM   20  C   UNL     1     -10.958  11.459  68.168  1.00  0.00    -0.284 C  
HETATM   21  C   UNL     1     -11.693  10.735  69.021  1.00  0.00    -0.286 C  
HETATM   22 BR   UNL     1     -12.210  11.341  70.699  1.00  0.00    -0.479 Br 
ENDBRANCH  14  20
ENDBRANCH   6  11
ENDBRANCH   3   4
TORSDOF 3
ENDMDL
MODEL      151
REMARK 921   NORMALIZED FREE ENERGY PREDICTED BY IDOCK:   -3.36 KCAL/MOL
REMARK 922        TOTAL FREE ENERGY PREDICTED BY IDOCK:   -4.56 KCAL/MOL
REMARK 923 INTER-LIGAND FREE ENERGY PREDICTED BY IDOCK:   -4.27 KCAL/MOL
REMARK 924 INTRA-LIGAND FREE ENERGY PREDICTED BY IDOCK:   -0.30 KCAL/MOL
REMARK 927      BINDING AFFINITY PREDICTED BY RF-SCORE:    0.00 PKD
ROOT
HETATM    1  O5* UNL     1     -10.357   4.148  66.238  1.00  0.00    -0.409 OA 
HETATM    2  H5* UNL     1     -10.962   3.416  66.277  1.00  0.00     0.000 HD 
HETATM    3  C5* UNL     1      -9.537   4.205  67.406  1.00  0.00    -0.180 C  
ENDROOT
BRANCH   3   4
HETATM    4  C4* UNL     1      -8.565   5.381  67.344  1.00  0.00    -0.108 C  
HETATM    5  O4* UNL     1      -8.864   6.229  66.220  1.00  0.00    -0.139 OA 
HETATM    6  C1* UNL     1      -8.271   7.495  66.535  1.00  0.00    -0.123 C  
HETATM    7  C2* UNL     1      -8.460   7.692  68.035  1.00  0.00    -0.123 C  
HETATM    8  H3* UNL     1      -7.574   6.517  70.233  1.00  0.00     0.000 HD 
HETATM    9  O3* UNL     1      -7.546   5.956  69.467  1.00  0.00    -0.084 OA 
HETATM   10  C3* UNL     1      -8.611   6.282  68.577  1.00  0.00    -0.114 C  
BRANCH   6  11
HETATM   11  N   UNL     1      -8.845   8.562  65.726  1.00  0.00    -0.184 N  
HETATM   12  C   UNL     1      -9.610   9.569  66.294  1.00  0.00    -0.226 C  
HETATM   13  C   UNL     1      -9.929  10.535  64.101  1.00  0.00    -0.318 C  
HETATM   14  C   UNL     1     -10.182  10.547  65.575  1.00  0.00    -0.325 C  
HETATM   15  O   UNL     1      -7.812   7.724  63.836  1.00  0.00    -0.124 OA 
HETATM   16  N   UNL     1      -9.105   9.553  63.634  1.00  0.00    -0.404 N  
HETATM   17  H   UNL     1      -8.890   9.566  62.637  1.00  0.00     0.000 HD 
HETATM   18  O   UNL     1     -10.429  11.362  63.342  1.00  0.00    -0.369 OA 
HETATM   19  C   UNL     1      -8.542   8.554  64.375  1.00  0.00    -0.007 C  
BRANCH  14  20
HETATM   20  C   UNL     1     -10.964  11.640  66.131  1.00  0.00    -0.339 C  
HETATM   21  C   UNL     1     -10.516  12.867  66.423  1.00  0.00    -0.267 C  
HETATM   22 BR   UNL     1     -11.579  14.194  67.172  1.00  0.00    -0.423 Br 
ENDBRANCH  14  20
ENDBRANCH   6  11
ENDBRANCH   3   4
TORSDOF 3
ENDMDL
MODEL      152
REMARK 921   NORMALIZED FREE ENERGY PREDICTED BY IDOCK:   -3.33 KCAL/MOL
REMARK 922        TOTAL FREE ENERGY PREDICTED BY IDOCK:   -4.53 KCAL/MOL
REMARK 923 INTER-LIGAND FREE ENERGY PREDICTED BY IDOCK:   -4.26 KCAL/MOL
REMARK 924 INTRA-LIGAND FREE ENERGY PREDICTED BY IDOCK:   -0.27 KCAL/MOL
REMARK 927      BINDING AFFINITY PREDICTED BY RF-SCORE:    0.00 PKD
ROOT
HETATM    1  O5* UNL     1      -6.224  15.490  67.136  1.00  0.00    -0.316 OA 
HETATM    2  H5* UNL     1      -5.353  15.777  67.387  1.00  0.00     0.000 HD 
HETATM    3  C5* UNL     1      -6.568  14.260  67.775  1.00  0.00    -0.174 C  
ENDROOT
BRANCH   3   4
HETATM    4  C4* UNL     1      -7.967  13.798  67.372  1.00  0.00    -0.162 C  
HETATM    5  O4* UNL     1      -8.172  12.421  67.738  1.00  0.00    -0.141 OA 
HETATM    6  C1* UNL     1      -9.594  12.253  67.788  1.00  0.00    -0.200 C  
HETATM    7  C2* UNL     1     -10.156  13.551  68.359  1.00  0.00    -0.240 C  
HETATM    8  H3* UNL     1     -10.293  16.072  67.573  1.00  0.00     0.000 HD 
HETATM    9  O3* UNL     1      -9.593  15.583  67.156  1.00  0.00    -0.217 OA 
HETATM   10  C3* UNL     1      -9.092  14.585  68.042  1.00  0.00    -0.185 C  
BRANCH   6  11
HETATM   11  N   UNL     1      -9.958  11.068  68.554  1.00  0.00    -0.186 N  
HETATM   12  C   UNL     1      -9.052  10.449  69.402  1.00  0.00    -0.152 C  
HETATM   13  C   UNL     1     -10.727   8.794  69.950  1.00  0.00    -0.223 C  
HETATM   14  C   UNL     1      -9.342   9.338  70.097  1.00  0.00    -0.258 C  
HETATM   15  O   UNL     1     -12.124  11.181  67.758  1.00  0.00    -0.606 OA 
HETATM   16  N   UNL     1     -11.577   9.505  69.154  1.00  0.00    -0.336 N  
HETATM   17  H   UNL     1     -12.537   9.167  69.086  1.00  0.00     0.000 HD 
HETATM   18  O   UNL     1     -11.091   7.765  70.512  1.00  0.00    -0.254 OA 
HETATM   19  C   UNL     1     -11.265  10.626  68.441  1.00  0.00    -0.288 C  
BRANCH  14  20
HETATM   20  C   UNL     1      -8.436   8.675  71.021  1.00  0.00    -0.199 C  
HETATM   21  C   UNL     1      -7.520   7.750  70.708  1.00  0.00    -0.070 C  
HETATM   22 BR   UNL     1      -6.429   6.923  71.964  1.00  0.00    -0.053 Br 
ENDBRANCH  14  20
ENDBRANCH   6  11
ENDBRANCH   3   4
TORSDOF 3
ENDMDL
MODEL      153
REMARK 921   NORMALIZED FREE ENERGY PREDICTED BY IDOCK:   -3.33 KCAL/MOL
REMARK 922        TOTAL FREE ENERGY PREDICTED BY IDOCK:   -4.53 KCAL/MOL
REMARK 923 INTER-LIGAND FREE ENERGY PREDICTED BY IDOCK:   -4.89 KCAL/MOL
REMARK 924 INTRA-LIGAND FREE ENERGY PREDICTED BY IDOCK:    0.36 KCAL/MOL
REMARK 927      BINDING AFFINITY PREDICTED BY RF-SCORE:    0.00 PKD
ROOT
HETATM    1  O5* UNL     1      -9.193   5.532  69.778  1.00  0.00    -0.132 OA 
HETATM    2  H5* UNL     1      -8.562   5.053  70.302  1.00  0.00     0.000 HD 
HETATM    3  C5* UNL     1      -9.435   6.831  70.320  1.00  0.00    -0.162 C  
ENDROOT
BRANCH   3   4
HETATM    4  C4* UNL     1     -10.451   7.602  69.479  1.00  0.00    -0.227 C  
HETATM    5  O4* UNL     1     -10.511   8.980  69.892  1.00  0.00    -0.202 OA 
HETATM    6  C1* UNL     1     -11.067   9.684  68.774  1.00  0.00    -0.049 C  
HETATM    7  C2* UNL     1     -10.493   9.021  67.526  1.00  0.00    -0.338 C  
HETATM    8  H3* UNL     1     -10.691   6.650  66.372  1.00  0.00     0.000 HD 
HETATM    9  O3* UNL     1     -10.893   6.637  67.300  1.00  0.00    -0.303 OA 
HETATM   10  C3* UNL     1     -10.125   7.623  67.986  1.00  0.00    -0.187 C  
BRANCH   6  11
HETATM   11  N   UNL     1     -10.789  11.112  68.861  1.00  0.00    -0.203 N  
HETATM   12  C   UNL     1     -11.692  11.990  69.441  1.00  0.00    -0.340 C  
HETATM   13  C   UNL     1     -10.192  13.822  68.952  1.00  0.00    -0.102 C  
HETATM   14  C   UNL     1     -11.484  13.315  69.508  1.00  0.00    -0.299 C  
HETATM   15  O   UNL     1      -8.697  10.792  67.933  1.00  0.00    -0.126 OA 
HETATM   16  N   UNL     1      -9.329  12.883  68.467  1.00  0.00    -0.378 N  
HETATM   17  H   UNL     1      -8.426  13.217  68.129  1.00  0.00     0.000 HD 
HETATM   18  O   UNL     1      -9.911  15.018  68.930  1.00  0.00    -0.221 OA 
HETATM   19  C   UNL     1      -9.559  11.540  68.392  1.00  0.00    -0.195 C  
BRANCH  14  20
HETATM   20  C   UNL     1     -12.386  14.268  70.135  1.00  0.00    -0.413 C  
HETATM   21  C   UNL     1     -12.843  14.218  71.392  1.00  0.00    -0.344 C  
HETATM   22 BR   UNL     1     -14.029  15.459  72.101  1.00  0.00    -0.667 Br 
ENDBRANCH  14  20
ENDBRANCH   6  11
ENDBRANCH   3   4
TORSDOF 3
ENDMDL
MODEL      154
REMARK 921   NORMALIZED FREE ENERGY PREDICTED BY IDOCK:   -3.24 KCAL/MOL
REMARK 922        TOTAL FREE ENERGY PREDICTED BY IDOCK:   -4.42 KCAL/MOL
REMARK 923 INTER-LIGAND FREE ENERGY PREDICTED BY IDOCK:   -4.48 KCAL/MOL
REMARK 924 INTRA-LIGAND FREE ENERGY PREDICTED BY IDOCK:    0.06 KCAL/MOL
REMARK 927      BINDING AFFINITY PREDICTED BY RF-SCORE:    0.00 PKD
ROOT
HETATM    1  O5* UNL     1      -8.454   3.318  66.596  1.00  0.00    -0.099 OA 
HETATM    2  H5* UNL     1      -8.723   2.461  66.905  1.00  0.00     0.000 HD 
HETATM    3  C5* UNL     1      -9.537   4.248  66.642  1.00  0.00    -0.201 C  
ENDROOT
BRANCH   3   4
HETATM    4  C4* UNL     1      -9.105   5.627  66.145  1.00  0.00    -0.152 C  
HETATM    5  O4* UNL     1     -10.099   6.616  66.469  1.00  0.00    -0.157 OA 
HETATM    6  C1* UNL     1      -9.406   7.871  66.429  1.00  0.00    -0.189 C  
HETATM    7  C2* UNL     1      -8.014   7.606  66.992  1.00  0.00    -0.116 C  
HETATM    8  H3* UNL     1      -5.900   6.201  66.251  1.00  0.00     0.000 HD 
HETATM    9  O3* UNL     1      -6.712   5.893  65.867  1.00  0.00    -0.052 OA 
HETATM   10  C3* UNL     1      -7.798   6.122  66.761  1.00  0.00    -0.104 C  
BRANCH   6  11
HETATM   11  N   UNL     1     -10.144   8.902  67.147  1.00  0.00    -0.226 N  
HETATM   12  C   UNL     1     -10.503  10.094  66.536  1.00  0.00    -0.166 C  
HETATM   13  C   UNL     1     -11.519  10.825  68.604  1.00  0.00    -0.295 C  
HETATM   14  C   UNL     1     -11.152  11.078  67.177  1.00  0.00    -0.333 C  
HETATM   15  O   UNL     1     -10.287   7.543  69.011  1.00  0.00    -0.204 OA 
HETATM   16  N   UNL     1     -11.194   9.599  69.106  1.00  0.00    -0.443 N  
HETATM   17  H   UNL     1     -11.483   9.401  70.064  1.00  0.00     0.000 HD 
HETATM   18  O   UNL     1     -12.085  11.668  69.296  1.00  0.00    -0.311 OA 
HETATM   19  C   UNL     1     -10.520   8.611  68.448  1.00  0.00    -0.176 C  
BRANCH  14  20
HETATM   20  C   UNL     1     -11.576  12.329  66.567  1.00  0.00    -0.440 C  
HETATM   21  C   UNL     1     -11.416  12.681  65.286  1.00  0.00    -0.331 C  
HETATM   22 BR   UNL     1     -11.954  14.322  64.600  1.00  0.00    -0.488 Br 
ENDBRANCH  14  20
ENDBRANCH   6  11
ENDBRANCH   3   4
TORSDOF 3
ENDMDL
MODEL      155
REMARK 921   NORMALIZED FREE ENERGY PREDICTED BY IDOCK:   -3.24 KCAL/MOL
REMARK 922        TOTAL FREE ENERGY PREDICTED BY IDOCK:   -4.42 KCAL/MOL
REMARK 923 INTER-LIGAND FREE ENERGY PREDICTED BY IDOCK:   -4.03 KCAL/MOL
REMARK 924 INTRA-LIGAND FREE ENERGY PREDICTED BY IDOCK:   -0.39 KCAL/MOL
REMARK 927      BINDING AFFINITY PREDICTED BY RF-SCORE:    0.00 PKD
ROOT
HETATM    1  O5* UNL     1      -9.867   3.126  67.695  1.00  0.00    -0.266 OA 
HETATM    2  H5* UNL     1     -10.404   2.371  67.906  1.00  0.00     0.000 HD 
HETATM    3  C5* UNL     1      -9.414   3.787  68.878  1.00  0.00    -0.153 C  
ENDROOT
BRANCH   3   4
HETATM    4  C4* UNL     1      -8.552   5.001  68.540  1.00  0.00    -0.094 C  
HETATM    5  O4* UNL     1      -9.346   6.033  67.926  1.00  0.00    -0.112 OA 
HETATM    6  C1* UNL     1      -8.602   7.243  68.115  1.00  0.00    -0.122 C  
HETATM    7  C2* UNL     1      -7.963   7.138  69.496  1.00  0.00    -0.128 C  
HETATM    8  H3* UNL     1      -6.127   5.608  70.630  1.00  0.00     0.000 HD 
HETATM    9  O3* UNL     1      -6.538   5.208  69.873  1.00  0.00    -0.033 OA 
HETATM   10  C3* UNL     1      -7.890   5.644  69.757  1.00  0.00    -0.087 C  
BRANCH   6  11
HETATM   11  N   UNL     1      -9.452   8.415  67.949  1.00  0.00    -0.144 N  
HETATM   12  C   UNL     1      -9.958   9.102  69.041  1.00  0.00    -0.184 C  
HETATM   13  C   UNL     1     -11.090  10.618  67.537  1.00  0.00    -0.300 C  
HETATM   14  C   UNL     1     -10.770  10.164  68.925  1.00  0.00    -0.249 C  
HETATM   15  O   UNL     1      -9.196   8.311  65.654  1.00  0.00    -0.130 OA 
HETATM   16  N   UNL     1     -10.492   9.932  66.520  1.00  0.00    -0.181 N  
HETATM   17  H   UNL     1     -10.667  10.265  65.572  1.00  0.00     0.000 HD 
HETATM   18  O   UNL     1     -11.849  11.558  67.312  1.00  0.00    -0.609 OA 
HETATM   19  C   UNL     1      -9.679   8.844  66.652  1.00  0.00    -0.237 C  
BRANCH  14  20
HETATM   20  C   UNL     1     -11.298  10.934  70.040  1.00  0.00    -0.386 C  
HETATM   21  C   UNL     1     -12.520  10.821  70.574  1.00  0.00    -0.360 C  
HETATM   22 BR   UNL     1     -13.127  11.877  71.977  1.00  0.00    -0.255 Br 
ENDBRANCH  14  20
ENDBRANCH   6  11
ENDBRANCH   3   4
TORSDOF 3
ENDMDL
MODEL      156
REMARK 921   NORMALIZED FREE ENERGY PREDICTED BY IDOCK:   -3.24 KCAL/MOL
REMARK 922        TOTAL FREE ENERGY PREDICTED BY IDOCK:   -4.41 KCAL/MOL
REMARK 923 INTER-LIGAND FREE ENERGY PREDICTED BY IDOCK:   -4.27 KCAL/MOL
REMARK 924 INTRA-LIGAND FREE ENERGY PREDICTED BY IDOCK:   -0.15 KCAL/MOL
REMARK 927      BINDING AFFINITY PREDICTED BY RF-SCORE:    0.00 PKD
ROOT
HETATM    1  O5* UNL     1      -9.757   6.836  71.080  1.00  0.00    -0.174 OA 
HETATM    2  H5* UNL     1      -9.796   6.478  71.959  1.00  0.00     0.000 HD 
HETATM    3  C5* UNL     1      -9.411   8.221  71.099  1.00  0.00    -0.165 C  
ENDROOT
BRANCH   3   4
HETATM    4  C4* UNL     1      -9.350   8.798  69.686  1.00  0.00    -0.158 C  
HETATM    5  O4* UNL     1     -10.214   9.942  69.567  1.00  0.00    -0.195 OA 
HETATM    6  C1* UNL     1      -9.719  10.672  68.437  1.00  0.00    -0.166 C  
HETATM    7  C2* UNL     1      -8.200  10.546  68.482  1.00  0.00    -0.123 C  
HETATM    8  H3* UNL     1      -6.447   8.582  68.222  1.00  0.00     0.000 HD 
HETATM    9  O3* UNL     1      -7.312   8.286  68.477  1.00  0.00    -0.089 OA 
HETATM   10  C3* UNL     1      -7.958   9.275  69.275  1.00  0.00    -0.098 C  
BRANCH   6  11
HETATM   11  N   UNL     1     -10.194  12.050  68.450  1.00  0.00    -0.206 N  
HETATM   12  C   UNL     1      -9.313  13.119  68.409  1.00  0.00    -0.154 C  
HETATM   13  C   UNL     1     -11.188  14.641  68.514  1.00  0.00    -0.271 C  
HETATM   14  C   UNL     1      -9.714  14.400  68.454  1.00  0.00    -0.226 C  
HETATM   15  O   UNL     1     -12.388  11.324  68.412  1.00  0.00    -0.545 OA 
HETATM   16  N   UNL     1     -11.987  13.536  68.476  1.00  0.00    -0.363 N  
HETATM   17  H   UNL     1     -12.995  13.694  68.469  1.00  0.00     0.000 HD 
HETATM   18  O   UNL     1     -11.666  15.771  68.591  1.00  0.00    -0.375 OA 
HETATM   19  C   UNL     1     -11.566  12.238  68.446  1.00  0.00    -0.326 C  
BRANCH  14  20
HETATM   20  C   UNL     1      -8.829  15.551  68.380  1.00  0.00    -0.183 C  
HETATM   21  C   UNL     1      -7.838  15.845  69.230  1.00  0.00    -0.226 C  
HETATM   22 BR   UNL     1      -6.780  17.365  69.083  1.00  0.00    -0.223 Br 
ENDBRANCH  14  20
ENDBRANCH   6  11
ENDBRANCH   3   4
TORSDOF 3
ENDMDL
MODEL      157
REMARK 921   NORMALIZED FREE ENERGY PREDICTED BY IDOCK:   -3.23 KCAL/MOL
REMARK 922        TOTAL FREE ENERGY PREDICTED BY IDOCK:   -4.40 KCAL/MOL
REMARK 923 INTER-LIGAND FREE ENERGY PREDICTED BY IDOCK:   -4.34 KCAL/MOL
REMARK 924 INTRA-LIGAND FREE ENERGY PREDICTED BY IDOCK:   -0.06 KCAL/MOL
REMARK 927      BINDING AFFINITY PREDICTED BY RF-SCORE:    0.00 PKD
ROOT
HETATM    1  O5* UNL     1      -9.779   1.728  65.423  1.00  0.00    -0.332 OA 
HETATM    2  H5* UNL     1      -9.423   0.858  65.565  1.00  0.00     0.000 HD 
HETATM    3  C5* UNL     1      -8.887   2.738  65.896  1.00  0.00    -0.135 C  
ENDROOT
BRANCH   3   4
HETATM    4  C4* UNL     1      -9.460   4.135  65.669  1.00  0.00    -0.177 C  
HETATM    5  O4* UNL     1     -10.192   4.578  66.826  1.00  0.00    -0.219 OA 
HETATM    6  C1* UNL     1     -10.238   6.006  66.718  1.00  0.00    -0.214 C  
HETATM    7  C2* UNL     1      -8.892   6.433  66.143  1.00  0.00    -0.158 C  
HETATM    8  H3* UNL     1      -7.619   6.112  63.847  1.00  0.00     0.000 HD 
HETATM    9  O3* UNL     1      -8.280   5.449  64.009  1.00  0.00    -0.122 OA 
HETATM   10  C3* UNL     1      -8.397   5.201  65.408  1.00  0.00    -0.132 C  
BRANCH   6  11
HETATM   11  N   UNL     1     -10.549   6.621  68.002  1.00  0.00    -0.218 N  
HETATM   12  C   UNL     1     -10.616   5.872  69.166  1.00  0.00    -0.299 C  
HETATM   13  C   UNL     1     -11.182   7.873  70.398  1.00  0.00    -0.234 C  
HETATM   14  C   UNL     1     -10.932   6.399  70.359  1.00  0.00    -0.367 C  
HETATM   15  O   UNL     1     -10.598   8.713  67.021  1.00  0.00    -0.294 OA 
HETATM   16  N   UNL     1     -11.024   8.547  69.223  1.00  0.00    -0.425 N  
HETATM   17  H   UNL     1     -11.146   9.560  69.251  1.00  0.00     0.000 HD 
HETATM   18  O   UNL     1     -11.511   8.456  71.429  1.00  0.00    -0.257 OA 
HETATM   19  C   UNL     1     -10.716   7.996  68.013  1.00  0.00    -0.047 C  
BRANCH  14  20
HETATM   20  C   UNL     1     -10.982   5.659  71.610  1.00  0.00    -0.277 C  
HETATM   21  C   UNL     1     -10.390   4.484  71.860  1.00  0.00    -0.128 C  
HETATM   22 BR   UNL     1     -10.541   3.586  73.479  1.00  0.00    -0.308 Br 
ENDBRANCH  14  20
ENDBRANCH   6  11
ENDBRANCH   3   4
TORSDOF 3
ENDMDL
MODEL      158
REMARK 921   NORMALIZED FREE ENERGY PREDICTED BY IDOCK:   -3.20 KCAL/MOL
REMARK 922        TOTAL FREE ENERGY PREDICTED BY IDOCK:   -4.37 KCAL/MOL
REMARK 923 INTER-LIGAND FREE ENERGY PREDICTED BY IDOCK:   -4.16 KCAL/MOL
REMARK 924 INTRA-LIGAND FREE ENERGY PREDICTED BY IDOCK:   -0.22 KCAL/MOL
REMARK 927      BINDING AFFINITY PREDICTED BY RF-SCORE:    0.00 PKD
ROOT
HETATM    1  O5* UNL     1      -9.974   3.827  66.877  1.00  0.00    -0.347 OA 
HETATM    2  H5* UNL     1     -10.032   2.916  66.614  1.00  0.00     0.000 HD 
HETATM    3  C5* UNL     1      -9.652   3.946  68.264  1.00  0.00    -0.114 C  
ENDROOT
BRANCH   3   4
HETATM    4  C4* UNL     1      -9.558   5.411  68.688  1.00  0.00    -0.130 C  
HETATM    5  O4* UNL     1      -8.763   6.160  67.750  1.00  0.00    -0.114 OA 
HETATM    6  C1* UNL     1      -9.148   7.528  67.941  1.00  0.00    -0.130 C  
HETATM    7  C2* UNL     1     -10.647   7.513  68.219  1.00  0.00    -0.185 C  
HETATM    8  H3* UNL     1     -12.215   6.607  70.147  1.00  0.00     0.000 HD 
HETATM    9  O3* UNL     1     -11.374   6.166  70.104  1.00  0.00    -0.382 OA 
HETATM   10  C3* UNL     1     -10.910   6.119  68.757  1.00  0.00    -0.336 C  
BRANCH   6  11
HETATM   11  N   UNL     1      -8.771   8.345  66.795  1.00  0.00    -0.124 N  
HETATM   12  C   UNL     1      -9.713   9.073  66.084  1.00  0.00    -0.283 C  
HETATM   13  C   UNL     1      -7.966   9.849  64.604  1.00  0.00    -0.141 C  
HETATM   14  C   UNL     1      -9.407   9.809  65.004  1.00  0.00    -0.325 C  
HETATM   15  O   UNL     1      -6.541   7.838  67.129  1.00  0.00    -0.059 OA 
HETATM   16  N   UNL     1      -7.095   9.165  65.400  1.00  0.00    -0.081 N  
HETATM   17  H   UNL     1      -6.105   9.226  65.161  1.00  0.00     0.000 HD 
HETATM   18  O   UNL     1      -7.577  10.463  63.613  1.00  0.00    -0.126 OA 
HETATM   19  C   UNL     1      -7.422   8.408  66.488  1.00  0.00    -0.081 C  
BRANCH  14  20
HETATM   20  C   UNL     1     -10.355  10.612  64.249  1.00  0.00    -0.325 C  
HETATM   21  C   UNL     1     -11.087  11.628  64.721  1.00  0.00    -0.264 C  
HETATM   22 BR   UNL     1     -12.308  12.577  63.692  1.00  0.00    -0.609 Br 
ENDBRANCH  14  20
ENDBRANCH   6  11
ENDBRANCH   3   4
TORSDOF 3
ENDMDL
MODEL      159
REMARK 921   NORMALIZED FREE ENERGY PREDICTED BY IDOCK:   -3.20 KCAL/MOL
REMARK 922        TOTAL FREE ENERGY PREDICTED BY IDOCK:   -4.37 KCAL/MOL
REMARK 923 INTER-LIGAND FREE ENERGY PREDICTED BY IDOCK:   -4.80 KCAL/MOL
REMARK 924 INTRA-LIGAND FREE ENERGY PREDICTED BY IDOCK:    0.42 KCAL/MOL
REMARK 927      BINDING AFFINITY PREDICTED BY RF-SCORE:    0.00 PKD
ROOT
HETATM    1  O5* UNL     1     -14.345   7.342  71.824  1.00  0.00    -0.461 OA 
HETATM    2  H5* UNL     1     -15.182   6.895  71.889  1.00  0.00     0.000 HD 
HETATM    3  C5* UNL     1     -14.407   8.645  72.406  1.00  0.00    -0.340 C  
ENDROOT
BRANCH   3   4
HETATM    4  C4* UNL     1     -13.063   9.363  72.303  1.00  0.00    -0.428 C  
HETATM    5  O4* UNL     1     -12.020   8.437  71.946  1.00  0.00    -0.295 OA 
HETATM    6  C1* UNL     1     -10.971   9.247  71.398  1.00  0.00    -0.359 C  
HETATM    7  C2* UNL     1     -11.658  10.357  70.610  1.00  0.00    -0.440 C  
HETATM    8  H3* UNL     1     -13.205  12.422  71.190  1.00  0.00     0.000 HD 
HETATM    9  O3* UNL     1     -13.224  11.738  71.849  1.00  0.00    -0.482 OA 
HETATM   10  C3* UNL     1     -13.033  10.463  71.243  1.00  0.00    -0.419 C  
BRANCH   6  11
HETATM   11  N   UNL     1     -10.049   8.446  70.603  1.00  0.00    -0.190 N  
HETATM   12  C   UNL     1      -9.257   9.018  69.619  1.00  0.00    -0.159 C  
HETATM   13  C   UNL     1      -8.346   6.837  69.113  1.00  0.00    -0.125 C  
HETATM   14  C   UNL     1      -8.423   8.306  68.846  1.00  0.00    -0.128 C  
HETATM   15  O   UNL     1     -10.588   6.559  71.824  1.00  0.00    -0.210 OA 
HETATM   16  N   UNL     1      -9.103   6.367  70.146  1.00  0.00    -0.153 N  
HETATM   17  H   UNL     1      -9.021   5.374  70.365  1.00  0.00     0.000 HD 
HETATM   18  O   UNL     1      -7.641   6.084  68.445  1.00  0.00    -0.088 OA 
HETATM   19  C   UNL     1      -9.959   7.100  70.916  1.00  0.00    -0.189 C  
BRANCH  14  20
HETATM   20  C   UNL     1      -7.550   8.868  67.826  1.00  0.00    -0.093 C  
HETATM   21  C   UNL     1      -7.936   9.549  66.741  1.00  0.00    -0.109 C  
HETATM   22 BR   UNL     1      -6.752  10.198  65.465  1.00  0.00    -0.128 Br 
ENDBRANCH  14  20
ENDBRANCH   6  11
ENDBRANCH   3   4
TORSDOF 3
ENDMDL
MODEL      160
REMARK 921   NORMALIZED FREE ENERGY PREDICTED BY IDOCK:   -3.17 KCAL/MOL
REMARK 922        TOTAL FREE ENERGY PREDICTED BY IDOCK:   -4.33 KCAL/MOL
REMARK 923 INTER-LIGAND FREE ENERGY PREDICTED BY IDOCK:   -4.16 KCAL/MOL
REMARK 924 INTRA-LIGAND FREE ENERGY PREDICTED BY IDOCK:   -0.18 KCAL/MOL
REMARK 927      BINDING AFFINITY PREDICTED BY RF-SCORE:    0.00 PKD
ROOT
HETATM    1  O5* UNL     1      -9.924  15.426  67.305  1.00  0.00    -0.224 OA 
HETATM    2  H5* UNL     1     -10.030  16.327  67.586  1.00  0.00     0.000 HD 
HETATM    3  C5* UNL     1     -10.452  14.516  68.271  1.00  0.00    -0.242 C  
ENDROOT
BRANCH   3   4
HETATM    4  C4* UNL     1     -10.281  13.067  67.821  1.00  0.00    -0.228 C  
HETATM    5  O4* UNL     1      -9.240  12.420  68.576  1.00  0.00    -0.170 OA 
HETATM    6  C1* UNL     1      -9.500  11.017  68.449  1.00  0.00    -0.182 C  
HETATM    7  C2* UNL     1     -11.016  10.861  68.470  1.00  0.00    -0.278 C  
HETATM    8  H3* UNL     1     -13.021  11.566  66.895  1.00  0.00     0.000 HD 
HETATM    9  O3* UNL     1     -12.243  12.098  66.778  1.00  0.00    -0.553 OA 
HETATM   10  C3* UNL     1     -11.533  12.212  68.009  1.00  0.00    -0.319 C  
BRANCH   6  11
HETATM   11  N   UNL     1      -8.818  10.259  69.490  1.00  0.00    -0.177 N  
HETATM   12  C   UNL     1      -9.517   9.445  70.368  1.00  0.00    -0.268 C  
HETATM   13  C   UNL     1      -7.438   8.878  71.465  1.00  0.00    -0.050 C  
HETATM   14  C   UNL     1      -8.925   8.759  71.359  1.00  0.00    -0.307 C  
HETATM   15  O   UNL     1      -6.766  10.996  68.724  1.00  0.00    -0.056 OA 
HETATM   16  N   UNL     1      -6.821   9.640  70.517  1.00  0.00    -0.114 N  
HETATM   17  H   UNL     1      -5.802   9.687  70.554  1.00  0.00     0.000 HD 
HETATM   18  O   UNL     1      -6.797   8.321  72.353  1.00  0.00    -0.080 OA 
HETATM   19  C   UNL     1      -7.436  10.344  69.523  1.00  0.00    -0.148 C  
BRANCH  14  20
HETATM   20  C   UNL     1      -9.613   7.870  72.281  1.00  0.00    -0.255 C  
HETATM   21  C   UNL     1      -9.870   6.571  72.087  1.00  0.00    -0.157 C  
HETATM   22 BR   UNL     1     -10.794   5.516  73.305  1.00  0.00    -0.347 Br 
ENDBRANCH  14  20
ENDBRANCH   6  11
ENDBRANCH   3   4
TORSDOF 3
ENDMDL
MODEL      161
REMARK 921   NORMALIZED FREE ENERGY PREDICTED BY IDOCK:   -3.17 KCAL/MOL
REMARK 922        TOTAL FREE ENERGY PREDICTED BY IDOCK:   -4.33 KCAL/MOL
REMARK 923 INTER-LIGAND FREE ENERGY PREDICTED BY IDOCK:   -4.54 KCAL/MOL
REMARK 924 INTRA-LIGAND FREE ENERGY PREDICTED BY IDOCK:    0.21 KCAL/MOL
REMARK 927      BINDING AFFINITY PREDICTED BY RF-SCORE:    0.00 PKD
ROOT
HETATM    1  O5* UNL     1     -10.067   3.066  72.028  1.00  0.00    -0.167 OA 
HETATM    2  H5* UNL     1     -10.387   2.439  72.666  1.00  0.00     0.000 HD 
HETATM    3  C5* UNL     1     -10.105   4.397  72.544  1.00  0.00    -0.177 C  
ENDROOT
BRANCH   3   4
HETATM    4  C4* UNL     1      -9.589   5.404  71.518  1.00  0.00    -0.152 C  
HETATM    5  O4* UNL     1     -10.605   6.375  71.206  1.00  0.00    -0.218 OA 
HETATM    6  C1* UNL     1      -9.898   7.501  70.671  1.00  0.00    -0.179 C  
HETATM    7  C2* UNL     1      -8.602   7.607  71.468  1.00  0.00    -0.126 C  
HETATM    8  H3* UNL     1      -6.423   6.135  71.757  1.00  0.00     0.000 HD 
HETATM    9  O3* UNL     1      -7.178   5.640  71.461  1.00  0.00    -0.076 OA 
HETATM   10  C3* UNL     1      -8.375   6.201  71.993  1.00  0.00    -0.114 C  
BRANCH   6  11
HETATM   11  N   UNL     1     -10.715   8.707  70.718  1.00  0.00    -0.208 N  
HETATM   12  C   UNL     1     -10.909   9.493  69.592  1.00  0.00    -0.235 C  
HETATM   13  C   UNL     1     -12.260  11.006  70.907  1.00  0.00    -0.367 C  
HETATM   14  C   UNL     1     -11.627  10.627  69.606  1.00  0.00    -0.368 C  
HETATM   15  O   UNL     1     -11.250   8.295  72.928  1.00  0.00    -0.337 OA 
HETATM   16  N   UNL     1     -12.080  10.140  71.945  1.00  0.00    -0.176 N  
HETATM   17  H   UNL     1     -12.548  10.367  72.823  1.00  0.00     0.000 HD 
HETATM   18  O   UNL     1     -12.911  12.039  71.044  1.00  0.00    -0.294 OA 
HETATM   19  C   UNL     1     -11.335   8.997  71.922  1.00  0.00    -0.368 C  
BRANCH  14  20
HETATM   20  C   UNL     1     -11.884  11.464  68.445  1.00  0.00    -0.344 C  
HETATM   21  C   UNL     1     -11.095  12.440  67.981  1.00  0.00    -0.245 C  
HETATM   22 BR   UNL     1     -11.522  13.490  66.509  1.00  0.00    -0.388 Br 
ENDBRANCH  14  20
ENDBRANCH   6  11
ENDBRANCH   3   4
TORSDOF 3
ENDMDL
MODEL      162
REMARK 921   NORMALIZED FREE ENERGY PREDICTED BY IDOCK:   -3.12 KCAL/MOL
REMARK 922        TOTAL FREE ENERGY PREDICTED BY IDOCK:   -4.28 KCAL/MOL
REMARK 923 INTER-LIGAND FREE ENERGY PREDICTED BY IDOCK:   -4.38 KCAL/MOL
REMARK 924 INTRA-LIGAND FREE ENERGY PREDICTED BY IDOCK:    0.10 KCAL/MOL
REMARK 927      BINDING AFFINITY PREDICTED BY RF-SCORE:    0.00 PKD
ROOT
HETATM    1  O5* UNL     1      -8.358   5.817  64.589  1.00  0.00    -0.135 OA 
HETATM    2  H5* UNL     1      -8.187   5.267  63.832  1.00  0.00     0.000 HD 
HETATM    3  C5* UNL     1      -7.921   7.158  64.364  1.00  0.00    -0.101 C  
ENDROOT
BRANCH   3   4
HETATM    4  C4* UNL     1      -8.195   8.041  65.579  1.00  0.00    -0.138 C  
HETATM    5  O4* UNL     1      -8.296   9.423  65.190  1.00  0.00    -0.130 OA 
HETATM    6  C1* UNL     1      -9.025  10.060  66.247  1.00  0.00    -0.148 C  
HETATM    7  C2* UNL     1     -10.075   9.054  66.705  1.00  0.00    -0.355 C  
HETATM    8  H3* UNL     1     -10.054   6.689  67.889  1.00  0.00     0.000 HD 
HETATM    9  O3* UNL     1      -9.242   6.895  67.441  1.00  0.00    -0.123 OA 
HETATM   10  C3* UNL     1      -9.501   7.709  66.300  1.00  0.00    -0.110 C  
BRANCH   6  11
HETATM   11  N   UNL     1      -9.582  11.333  65.810  1.00  0.00    -0.219 N  
HETATM   12  C   UNL     1      -9.513  12.465  66.607  1.00  0.00    -0.232 C  
HETATM   13  C   UNL     1     -10.702  13.709  64.909  1.00  0.00    -0.391 C  
HETATM   14  C   UNL     1     -10.045  13.645  66.251  1.00  0.00    -0.301 C  
HETATM   15  O   UNL     1     -10.152  10.416  63.767  1.00  0.00    -0.274 OA 
HETATM   16  N   UNL     1     -10.661  12.571  64.158  1.00  0.00    -0.370 N  
HETATM   17  H   UNL     1     -11.065  12.620  63.222  1.00  0.00     0.000 HD 
HETATM   18  O   UNL     1     -11.250  14.728  64.494  1.00  0.00    -0.349 OA 
HETATM   19  C   UNL     1     -10.129  11.373  64.538  1.00  0.00    -0.287 C  
BRANCH  14  20
HETATM   20  C   UNL     1      -9.968  14.865  67.039  1.00  0.00    -0.240 C  
HETATM   21  C   UNL     1      -8.996  15.784  66.985  1.00  0.00    -0.224 C  
HETATM   22 BR   UNL     1      -8.957  17.297  68.062  1.00  0.00    -0.248 Br 
ENDBRANCH  14  20
ENDBRANCH   6  11
ENDBRANCH   3   4
TORSDOF 3
ENDMDL
MODEL      163
REMARK 921   NORMALIZED FREE ENERGY PREDICTED BY IDOCK:   -3.07 KCAL/MOL
REMARK 922        TOTAL FREE ENERGY PREDICTED BY IDOCK:   -4.22 KCAL/MOL
REMARK 923 INTER-LIGAND FREE ENERGY PREDICTED BY IDOCK:   -4.09 KCAL/MOL
REMARK 924 INTRA-LIGAND FREE ENERGY PREDICTED BY IDOCK:   -0.13 KCAL/MOL
REMARK 927      BINDING AFFINITY PREDICTED BY RF-SCORE:    0.00 PKD
ROOT
HETATM    1  O5* UNL     1     -11.348  12.038  69.878  1.00  0.00    -0.482 OA 
HETATM    2  H5* UNL     1     -11.282  12.985  69.887  1.00  0.00     0.000 HD 
HETATM    3  C5* UNL     1     -12.348  11.578  70.787  1.00  0.00    -0.375 C  
ENDROOT
BRANCH   3   4
HETATM    4  C4* UNL     1     -12.454  10.055  70.773  1.00  0.00    -0.295 C  
HETATM    5  O4* UNL     1     -11.307   9.473  70.128  1.00  0.00    -0.239 OA 
HETATM    6  C1* UNL     1     -11.254   8.121  70.602  1.00  0.00    -0.260 C  
HETATM    7  C2* UNL     1     -11.684   8.166  72.065  1.00  0.00    -0.389 C  
HETATM    8  H3* UNL     1     -13.908   8.740  73.376  1.00  0.00     0.000 HD 
HETATM    9  O3* UNL     1     -13.868   9.128  72.510  1.00  0.00    -0.475 OA 
HETATM   10  C3* UNL     1     -12.518   9.430  72.166  1.00  0.00    -0.323 C  
BRANCH   6  11
HETATM   11  N   UNL     1      -9.933   7.541  70.396  1.00  0.00    -0.184 N  
HETATM   12  C   UNL     1      -9.224   6.967  71.440  1.00  0.00    -0.156 C  
HETATM   13  C   UNL     1      -7.408   6.492  69.917  1.00  0.00    -0.086 C  
HETATM   14  C   UNL     1      -7.992   6.454  71.293  1.00  0.00    -0.112 C  
HETATM   15  O   UNL     1     -10.066   7.973  68.129  1.00  0.00    -0.183 OA 
HETATM   16  N   UNL     1      -8.201   7.007  68.934  1.00  0.00    -0.121 N  
HETATM   17  H   UNL     1      -7.828   6.993  67.984  1.00  0.00     0.000 HD 
HETATM   18  O   UNL     1      -6.276   6.081  69.673  1.00  0.00    -0.027 OA 
HETATM   19  C   UNL     1      -9.447   7.539  69.099  1.00  0.00    -0.150 C  
BRANCH  14  20
HETATM   20  C   UNL     1      -7.226   5.814  72.350  1.00  0.00    -0.090 C  
HETATM   21  C   UNL     1      -7.569   4.706  73.018  1.00  0.00    -0.087 C  
HETATM   22 BR   UNL     1      -6.547   3.977  74.387  1.00  0.00    -0.054 Br 
ENDBRANCH  14  20
ENDBRANCH   6  11
ENDBRANCH   3   4
TORSDOF 3
ENDMDL
MODEL      164
REMARK 921   NORMALIZED FREE ENERGY PREDICTED BY IDOCK:   -3.05 KCAL/MOL
REMARK 922        TOTAL FREE ENERGY PREDICTED BY IDOCK:   -4.20 KCAL/MOL
REMARK 923 INTER-LIGAND FREE ENERGY PREDICTED BY IDOCK:   -4.03 KCAL/MOL
REMARK 924 INTRA-LIGAND FREE ENERGY PREDICTED BY IDOCK:   -0.17 KCAL/MOL
REMARK 927      BINDING AFFINITY PREDICTED BY RF-SCORE:    0.00 PKD
ROOT
HETATM    1  O5* UNL     1      -6.483   4.358  67.892  1.00  0.00    -0.036 OA 
HETATM    2  H5* UNL     1      -5.633   4.067  68.201  1.00  0.00     0.000 HD 
HETATM    3  C5* UNL     1      -7.532   3.545  68.420  1.00  0.00    -0.053 C  
ENDROOT
BRANCH   3   4
HETATM    4  C4* UNL     1      -8.899   4.011  67.924  1.00  0.00    -0.111 C  
HETATM    5  O4* UNL     1      -9.310   5.205  68.615  1.00  0.00    -0.115 OA 
HETATM    6  C1* UNL     1     -10.292   5.812  67.765  1.00  0.00    -0.213 C  
HETATM    7  C2* UNL     1      -9.819   5.578  66.335  1.00  0.00    -0.192 C  
HETATM    8  H3* UNL     1      -9.484   3.478  64.763  1.00  0.00     0.000 HD 
HETATM    9  O3* UNL     1      -9.466   3.265  65.688  1.00  0.00    -0.157 OA 
HETATM   10  C3* UNL     1      -8.928   4.354  66.435  1.00  0.00    -0.117 C  
BRANCH   6  11
HETATM   11  N   UNL     1     -10.479   7.219  68.099  1.00  0.00    -0.201 N  
HETATM   12  C   UNL     1     -10.348   8.213  67.142  1.00  0.00    -0.321 C  
HETATM   13  C   UNL     1     -10.821   9.874  68.834  1.00  0.00    -0.210 C  
HETATM   14  C   UNL     1     -10.481   9.519  67.422  1.00  0.00    -0.336 C  
HETATM   15  O   UNL     1     -11.050   6.658  70.268  1.00  0.00    -0.274 OA 
HETATM   16  N   UNL     1     -11.006   8.832  69.694  1.00  0.00    -0.396 N  
HETATM   17  H   UNL     1     -11.284   9.064  70.648  1.00  0.00     0.000 HD 
HETATM   18  O   UNL     1     -10.934  11.039  69.209  1.00  0.00    -0.223 OA 
HETATM   19  C   UNL     1     -10.853   7.508  69.401  1.00  0.00    -0.150 C  
BRANCH  14  20
HETATM   20  C   UNL     1     -10.384  10.593  66.445  1.00  0.00    -0.291 C  
HETATM   21  C   UNL     1     -10.517  10.472  65.119  1.00  0.00    -0.154 C  
HETATM   22 BR   UNL     1     -10.337  11.895  63.938  1.00  0.00    -0.477 Br 
ENDBRANCH  14  20
ENDBRANCH   6  11
ENDBRANCH   3   4
TORSDOF 3
ENDMDL
MODEL      165
REMARK 921   NORMALIZED FREE ENERGY PREDICTED BY IDOCK:   -3.04 KCAL/MOL
REMARK 922        TOTAL FREE ENERGY PREDICTED BY IDOCK:   -4.18 KCAL/MOL
REMARK 923 INTER-LIGAND FREE ENERGY PREDICTED BY IDOCK:   -4.34 KCAL/MOL
REMARK 924 INTRA-LIGAND FREE ENERGY PREDICTED BY IDOCK:    0.16 KCAL/MOL
REMARK 927      BINDING AFFINITY PREDICTED BY RF-SCORE:    0.00 PKD
ROOT
HETATM    1  O5* UNL     1      -9.272   5.351  64.477  1.00  0.00    -0.361 OA 
HETATM    2  H5* UNL     1      -9.593   4.515  64.160  1.00  0.00     0.000 HD 
HETATM    3  C5* UNL     1      -7.847   5.415  64.421  1.00  0.00    -0.103 C  
ENDROOT
BRANCH   3   4
HETATM    4  C4* UNL     1      -7.331   6.759  64.931  1.00  0.00    -0.087 C  
HETATM    5  O4* UNL     1      -8.403   7.718  65.007  1.00  0.00    -0.142 OA 
HETATM    6  C1* UNL     1      -7.949   8.717  65.930  1.00  0.00    -0.105 C  
HETATM    7  C2* UNL     1      -7.170   7.975  67.011  1.00  0.00    -0.087 C  
HETATM    8  H3* UNL     1      -4.923   6.584  67.119  1.00  0.00     0.000 HD 
HETATM    9  O3* UNL     1      -5.301   6.624  66.249  1.00  0.00    -0.016 OA 
HETATM   10  C3* UNL     1      -6.723   6.694  66.331  1.00  0.00    -0.053 C  
BRANCH   6  11
HETATM   11  N   UNL     1      -9.062   9.504  66.443  1.00  0.00    -0.152 N  
HETATM   12  C   UNL     1      -9.136  10.873  66.237  1.00  0.00    -0.176 C  
HETATM   13  C   UNL     1     -11.204  10.928  67.489  1.00  0.00    -0.293 C  
HETATM   14  C   UNL     1     -10.129  11.633  66.725  1.00  0.00    -0.242 C  
HETATM   15  O   UNL     1     -10.085   7.591  67.241  1.00  0.00    -0.184 OA 
HETATM   16  N   UNL     1     -11.093   9.572  67.582  1.00  0.00    -0.462 N  
HETATM   17  H   UNL     1     -11.847   9.079  68.061  1.00  0.00     0.000 HD 
HETATM   18  O   UNL     1     -12.142  11.529  68.007  1.00  0.00    -0.617 OA 
HETATM   19  C   UNL     1     -10.070   8.812  67.094  1.00  0.00    -0.252 C  
BRANCH  14  20
HETATM   20  C   UNL     1     -10.264  13.065  66.506  1.00  0.00    -0.270 C  
HETATM   21  C   UNL     1     -10.304  13.686  65.321  1.00  0.00    -0.348 C  
HETATM   22 BR   UNL     1     -10.439  15.529  65.134  1.00  0.00    -0.392 Br 
ENDBRANCH  14  20
ENDBRANCH   6  11
ENDBRANCH   3   4
TORSDOF 3
ENDMDL
MODEL      166
REMARK 921   NORMALIZED FREE ENERGY PREDICTED BY IDOCK:   -3.03 KCAL/MOL
REMARK 922        TOTAL FREE ENERGY PREDICTED BY IDOCK:   -4.17 KCAL/MOL
REMARK 923 INTER-LIGAND FREE ENERGY PREDICTED BY IDOCK:   -4.37 KCAL/MOL
REMARK 924 INTRA-LIGAND FREE ENERGY PREDICTED BY IDOCK:    0.20 KCAL/MOL
REMARK 927      BINDING AFFINITY PREDICTED BY RF-SCORE:    0.00 PKD
ROOT
HETATM    1  O5* UNL     1     -14.006   6.492  72.401  1.00  0.00    -0.482 OA 
HETATM    2  H5* UNL     1     -14.915   6.731  72.541  1.00  0.00     0.000 HD 
HETATM    3  C5* UNL     1     -13.402   7.310  71.398  1.00  0.00    -0.331 C  
ENDROOT
BRANCH   3   4
HETATM    4  C4* UNL     1     -11.941   6.924  71.173  1.00  0.00    -0.366 C  
HETATM    5  O4* UNL     1     -11.597   7.033  69.779  1.00  0.00    -0.183 OA 
HETATM    6  C1* UNL     1     -10.169   7.149  69.753  1.00  0.00    -0.208 C  
HETATM    7  C2* UNL     1      -9.789   7.996  70.963  1.00  0.00    -0.200 C  
HETATM    8  H3* UNL     1      -9.907   7.718  73.591  1.00  0.00     0.000 HD 
HETATM    9  O3* UNL     1     -10.524   7.168  73.124  1.00  0.00    -0.254 OA 
HETATM   10  C3* UNL     1     -10.949   7.810  71.924  1.00  0.00    -0.249 C  
BRANCH   6  11
HETATM   11  N   UNL     1      -9.709   7.699  68.484  1.00  0.00    -0.155 N  
HETATM   12  C   UNL     1      -8.629   8.566  68.420  1.00  0.00    -0.139 C  
HETATM   13  C   UNL     1      -8.923   8.723  66.026  1.00  0.00    -0.192 C  
HETATM   14  C   UNL     1      -8.199   9.116  67.274  1.00  0.00    -0.114 C  
HETATM   15  O   UNL     1     -11.279   6.447  67.340  1.00  0.00    -0.352 OA 
HETATM   16  N   UNL     1      -9.925   7.808  66.168  1.00  0.00    -0.450 N  
HETATM   17  H   UNL     1     -10.393   7.499  65.315  1.00  0.00     0.000 HD 
HETATM   18  O   UNL     1      -8.637   9.190  64.926  1.00  0.00    -0.165 OA 
HETATM   19  C   UNL     1     -10.362   7.267  67.342  1.00  0.00    -0.260 C  
BRANCH  14  20
HETATM   20  C   UNL     1      -7.053  10.003  67.155  1.00  0.00    -0.089 C  
HETATM   21  C   UNL     1      -6.853  11.136  67.839  1.00  0.00    -0.068 C  
HETATM   22 BR   UNL     1      -5.373  12.233  67.593  1.00  0.00    -0.109 Br 
ENDBRANCH  14  20
ENDBRANCH   6  11
ENDBRANCH   3   4
TORSDOF 3
ENDMDL
MODEL      167
REMARK 921   NORMALIZED FREE ENERGY PREDICTED BY IDOCK:   -3.02 KCAL/MOL
REMARK 922        TOTAL FREE ENERGY PREDICTED BY IDOCK:   -4.16 KCAL/MOL
REMARK 923 INTER-LIGAND FREE ENERGY PREDICTED BY IDOCK:   -3.98 KCAL/MOL
REMARK 924 INTRA-LIGAND FREE ENERGY PREDICTED BY IDOCK:   -0.18 KCAL/MOL
REMARK 927      BINDING AFFINITY PREDICTED BY RF-SCORE:    0.00 PKD
ROOT
HETATM    1  O5* UNL     1      -7.321  18.832  69.217  1.00  0.00    -0.237 OA 
HETATM    2  H5* UNL     1      -6.439  19.065  69.482  1.00  0.00     0.000 HD 
HETATM    3  C5* UNL     1      -7.310  17.824  68.205  1.00  0.00    -0.240 C  
ENDROOT
BRANCH   3   4
HETATM    4  C4* UNL     1      -8.729  17.451  67.779  1.00  0.00    -0.232 C  
HETATM    5  O4* UNL     1      -8.756  16.129  67.210  1.00  0.00    -0.175 OA 
HETATM    6  C1* UNL     1     -10.119  15.701  67.319  1.00  0.00    -0.255 C  
HETATM    7  C2* UNL     1     -10.631  16.245  68.648  1.00  0.00    -0.297 C  
HETATM    8  H3* UNL     1     -11.105  18.641  69.665  1.00  0.00     0.000 HD 
HETATM    9  O3* UNL     1     -10.480  18.650  68.949  1.00  0.00    -0.193 OA 
HETATM   10  C3* UNL     1      -9.733  17.436  68.930  1.00  0.00    -0.251 C  
BRANCH   6  11
HETATM   11  N   UNL     1     -10.227  14.252  67.197  1.00  0.00    -0.253 N  
HETATM   12  C   UNL     1      -9.102  13.449  67.100  1.00  0.00    -0.235 C  
HETATM   13  C   UNL     1     -10.530  11.505  66.934  1.00  0.00    -0.235 C  
HETATM   14  C   UNL     1      -9.166  12.116  66.953  1.00  0.00    -0.203 C  
HETATM   15  O   UNL     1     -12.526  14.378  67.398  1.00  0.00    -0.184 OA 
HETATM   16  N   UNL     1     -11.580  12.358  67.110  1.00  0.00    -0.355 N  
HETATM   17  H   UNL     1     -12.512  11.944  67.145  1.00  0.00     0.000 HD 
HETATM   18  O   UNL     1     -10.708  10.300  66.771  1.00  0.00    -0.217 OA 
HETATM   19  C   UNL     1     -11.503  13.714  67.243  1.00  0.00    -0.343 C  
BRANCH  14  20
HETATM   20  C   UNL     1      -8.013  11.231  66.880  1.00  0.00    -0.155 C  
HETATM   21  C   UNL     1      -6.881  11.459  66.205  1.00  0.00     0.147 C  
HETATM   22 BR   UNL     1      -5.471  10.251  66.133  1.00  0.00    -0.068 Br 
ENDBRANCH  14  20
ENDBRANCH   6  11
ENDBRANCH   3   4
TORSDOF 3
ENDMDL
MODEL      168
REMARK 921   NORMALIZED FREE ENERGY PREDICTED BY IDOCK:   -3.02 KCAL/MOL
REMARK 922        TOTAL FREE ENERGY PREDICTED BY IDOCK:   -4.16 KCAL/MOL
REMARK 923 INTER-LIGAND FREE ENERGY PREDICTED BY IDOCK:   -3.83 KCAL/MOL
REMARK 924 INTRA-LIGAND FREE ENERGY PREDICTED BY IDOCK:   -0.33 KCAL/MOL
REMARK 927      BINDING AFFINITY PREDICTED BY RF-SCORE:    0.00 PKD
ROOT
HETATM    1  O5* UNL     1     -12.541  10.616  71.614  1.00  0.00    -0.395 OA 
HETATM    2  H5* UNL     1     -13.217  10.022  71.921  1.00  0.00     0.000 HD 
HETATM    3  C5* UNL     1     -12.514  10.679  70.188  1.00  0.00    -0.270 C  
ENDROOT
BRANCH   3   4
HETATM    4  C4* UNL     1     -11.428  11.633  69.695  1.00  0.00    -0.288 C  
HETATM    5  O4* UNL     1     -10.321  10.898  69.141  1.00  0.00    -0.211 OA 
HETATM    6  C1* UNL     1      -9.640  11.830  68.290  1.00  0.00    -0.199 C  
HETATM    7  C2* UNL     1     -10.724  12.681  67.637  1.00  0.00    -0.239 C  
HETATM    8  H3* UNL     1     -12.508  14.450  68.465  1.00  0.00     0.000 HD 
HETATM    9  O3* UNL     1     -12.216  13.859  69.149  1.00  0.00    -0.356 OA 
HETATM   10  C3* UNL     1     -11.897  12.584  68.596  1.00  0.00    -0.297 C  
BRANCH   6  11
HETATM   11  N   UNL     1      -8.780  11.141  67.336  1.00  0.00    -0.132 N  
HETATM   12  C   UNL     1      -9.046   9.842  66.930  1.00  0.00    -0.142 C  
HETATM   13  C   UNL     1      -7.068   9.895  65.540  1.00  0.00    -0.118 C  
HETATM   14  C   UNL     1      -8.257   9.166  66.080  1.00  0.00    -0.115 C  
HETATM   15  O   UNL     1      -7.487  13.040  67.086  1.00  0.00    -0.115 OA 
HETATM   16  N   UNL     1      -6.922  11.193  65.933  1.00  0.00    -0.368 N  
HETATM   17  H   UNL     1      -6.140  11.712  65.533  1.00  0.00     0.000 HD 
HETATM   18  O   UNL     1      -6.261   9.363  64.782  1.00  0.00    -0.072 OA 
HETATM   19  C   UNL     1      -7.723  11.865  66.811  1.00  0.00    -0.051 C  
BRANCH  14  20
HETATM   20  C   UNL     1      -8.514   7.817  65.602  1.00  0.00    -0.153 C  
HETATM   21  C   UNL     1      -8.814   6.752  66.355  1.00  0.00    -0.144 C  
HETATM   22 BR   UNL     1      -9.087   5.050  65.662  1.00  0.00    -0.160 Br 
ENDBRANCH  14  20
ENDBRANCH   6  11
ENDBRANCH   3   4
TORSDOF 3
ENDMDL
MODEL      169
REMARK 921   NORMALIZED FREE ENERGY PREDICTED BY IDOCK:   -3.01 KCAL/MOL
REMARK 922        TOTAL FREE ENERGY PREDICTED BY IDOCK:   -4.15 KCAL/MOL
REMARK 923 INTER-LIGAND FREE ENERGY PREDICTED BY IDOCK:   -5.49 KCAL/MOL
REMARK 924 INTRA-LIGAND FREE ENERGY PREDICTED BY IDOCK:    1.34 KCAL/MOL
REMARK 927      BINDING AFFINITY PREDICTED BY RF-SCORE:    0.00 PKD
ROOT
HETATM    1  O5* UNL     1     -10.563  18.520  65.850  1.00  0.00    -0.488 OA 
HETATM    2  H5* UNL     1     -10.605  19.275  66.425  1.00  0.00     0.000 HD 
HETATM    3  C5* UNL     1     -10.070  17.370  66.540  1.00  0.00    -0.320 C  
ENDROOT
BRANCH   3   4
HETATM    4  C4* UNL     1     -10.003  16.156  65.616  1.00  0.00    -0.297 C  
HETATM    5  O4* UNL     1      -9.472  15.015  66.315  1.00  0.00    -0.275 OA 
HETATM    6  C1* UNL     1      -9.911  13.876  65.565  1.00  0.00    -0.251 C  
HETATM    7  C2* UNL     1     -11.318  14.205  65.077  1.00  0.00    -0.350 C  
HETATM    8  H3* UNL     1     -12.392  15.955  63.409  1.00  0.00     0.000 HD 
HETATM    9  O3* UNL     1     -11.547  16.225  63.749  1.00  0.00    -0.952 OA 
HETATM   10  C3* UNL     1     -11.362  15.722  65.070  1.00  0.00    -0.220 C  
BRANCH   6  11
HETATM   11  N   UNL     1      -9.836  12.659  66.362  1.00  0.00    -0.254 N  
HETATM   12  C   UNL     1      -8.713  12.358  67.118  1.00  0.00    -0.195 C  
HETATM   13  C   UNL     1      -9.766  10.300  67.825  1.00  0.00    -0.156 C  
HETATM   14  C   UNL     1      -8.596  11.231  67.838  1.00  0.00    -0.134 C  
HETATM   15  O   UNL     1     -12.002  12.107  65.779  1.00  0.00    -0.536 OA 
HETATM   16  N   UNL     1     -10.858  10.706  67.115  1.00  0.00    -0.281 N  
HETATM   17  H   UNL     1     -11.677  10.099  67.140  1.00  0.00     0.000 HD 
HETATM   18  O   UNL     1      -9.756   9.225  68.420  1.00  0.00    -0.149 OA 
HETATM   19  C   UNL     1     -10.959  11.849  66.376  1.00  0.00    -0.292 C  
BRANCH  14  20
HETATM   20  C   UNL     1      -7.453  10.890  68.670  1.00  0.00    -0.105 C  
HETATM   21  C   UNL     1      -7.488  10.230  69.833  1.00  0.00    -0.158 C  
HETATM   22 BR   UNL     1      -5.978   9.872  70.854  1.00  0.00    -0.073 Br 
ENDBRANCH  14  20
ENDBRANCH   6  11
ENDBRANCH   3   4
TORSDOF 3
ENDMDL
MODEL      170
REMARK 921   NORMALIZED FREE ENERGY PREDICTED BY IDOCK:   -2.96 KCAL/MOL
REMARK 922        TOTAL FREE ENERGY PREDICTED BY IDOCK:   -4.09 KCAL/MOL
REMARK 923 INTER-LIGAND FREE ENERGY PREDICTED BY IDOCK:   -3.55 KCAL/MOL
REMARK 924 INTRA-LIGAND FREE ENERGY PREDICTED BY IDOCK:   -0.54 KCAL/MOL
REMARK 927      BINDING AFFINITY PREDICTED BY RF-SCORE:    0.00 PKD
ROOT
HETATM    1  O5* UNL     1      -7.235   5.084  66.176  1.00  0.00    -0.074 OA 
HETATM    2  H5* UNL     1      -6.572   4.658  65.646  1.00  0.00     0.000 HD 
HETATM    3  C5* UNL     1      -6.644   5.902  67.187  1.00  0.00    -0.056 C  
ENDROOT
BRANCH   3   4
HETATM    4  C4* UNL     1      -7.711   6.586  68.040  1.00  0.00    -0.105 C  
HETATM    5  O4* UNL     1      -7.444   7.996  68.151  1.00  0.00    -0.096 OA 
HETATM    6  C1* UNL     1      -8.699   8.590  68.505  1.00  0.00    -0.139 C  
HETATM    7  C2* UNL     1      -9.767   7.814  67.741  1.00  0.00    -0.186 C  
HETATM    8  H3* UNL     1     -10.711   5.344  67.773  1.00  0.00     0.000 HD 
HETATM    9  O3* UNL     1      -9.833   5.418  68.127  1.00  0.00    -0.131 OA 
HETATM   10  C3* UNL     1      -9.123   6.467  67.471  1.00  0.00    -0.114 C  
BRANCH   6  11
HETATM   11  N   UNL     1      -8.702  10.021  68.229  1.00  0.00    -0.118 N  
HETATM   12  C   UNL     1      -9.335  10.540  67.111  1.00  0.00    -0.154 C  
HETATM   13  C   UNL     1      -8.626  12.757  67.765  1.00  0.00    -0.184 C  
HETATM   14  C   UNL     1      -9.329  11.848  66.808  1.00  0.00    -0.204 C  
HETATM   15  O   UNL     1      -7.580  10.434  70.207  1.00  0.00    -0.180 OA 
HETATM   16  N   UNL     1      -8.093  12.173  68.877  1.00  0.00    -0.350 N  
HETATM   17  H   UNL     1      -7.653  12.793  69.558  1.00  0.00     0.000 HD 
HETATM   18  O   UNL     1      -8.529  13.966  67.571  1.00  0.00    -0.171 OA 
HETATM   19  C   UNL     1      -8.094  10.839  69.166  1.00  0.00    -0.131 C  
BRANCH  14  20
HETATM   20  C   UNL     1     -10.007  12.441  65.666  1.00  0.00    -0.261 C  
HETATM   21  C   UNL     1     -11.298  12.294  65.346  1.00  0.00    -0.343 C  
HETATM   22 BR   UNL     1     -12.073  13.057  63.840  1.00  0.00    -0.555 Br 
ENDBRANCH  14  20
ENDBRANCH   6  11
ENDBRANCH   3   4
TORSDOF 3
ENDMDL
MODEL      171
REMARK 921   NORMALIZED FREE ENERGY PREDICTED BY IDOCK:   -2.93 KCAL/MOL
REMARK 922        TOTAL FREE ENERGY PREDICTED BY IDOCK:   -4.06 KCAL/MOL
REMARK 923 INTER-LIGAND FREE ENERGY PREDICTED BY IDOCK:   -3.62 KCAL/MOL
REMARK 924 INTRA-LIGAND FREE ENERGY PREDICTED BY IDOCK:   -0.44 KCAL/MOL
REMARK 927      BINDING AFFINITY PREDICTED BY RF-SCORE:    0.00 PKD
ROOT
HETATM    1  O5* UNL     1      -6.468   7.907  74.489  1.00  0.00    -0.094 OA 
HETATM    2  H5* UNL     1      -5.835   8.460  74.930  1.00  0.00     0.000 HD 
HETATM    3  C5* UNL     1      -7.737   8.554  74.380  1.00  0.00    -0.134 C  
ENDROOT
BRANCH   3   4
HETATM    4  C4* UNL     1      -8.755   7.664  73.671  1.00  0.00    -0.231 C  
HETATM    5  O4* UNL     1      -9.281   8.324  72.506  1.00  0.00    -0.219 OA 
HETATM    6  C1* UNL     1      -9.797   7.273  71.679  1.00  0.00    -0.165 C  
HETATM    7  C2* UNL     1      -8.837   6.099  71.835  1.00  0.00    -0.137 C  
HETATM    8  H3* UNL     1      -8.132   4.468  73.795  1.00  0.00     0.000 HD 
HETATM    9  O3* UNL     1      -8.491   5.293  74.100  1.00  0.00    -0.112 OA 
HETATM   10  C3* UNL     1      -8.178   6.337  73.181  1.00  0.00    -0.116 C  
BRANCH   6  11
HETATM   11  N   UNL     1      -9.960   7.719  70.301  1.00  0.00    -0.188 N  
HETATM   12  C   UNL     1      -9.197   8.753  69.780  1.00  0.00    -0.155 C  
HETATM   13  C   UNL     1     -10.363   8.524  67.674  1.00  0.00    -0.253 C  
HETATM   14  C   UNL     1      -9.344   9.211  68.527  1.00  0.00    -0.137 C  
HETATM   15  O   UNL     1     -11.517   6.055  69.916  1.00  0.00    -0.388 OA 
HETATM   16  N   UNL     1     -11.016   7.469  68.240  1.00  0.00    -0.444 N  
HETATM   17  H   UNL     1     -11.679   6.965  67.650  1.00  0.00     0.000 HD 
HETATM   18  O   UNL     1     -10.604   8.881  66.524  1.00  0.00    -0.188 OA 
HETATM   19  C   UNL     1     -10.868   7.022  69.522  1.00  0.00    -0.238 C  
BRANCH  14  20
HETATM   20  C   UNL     1      -8.546  10.269  67.929  1.00  0.00    -0.118 C  
HETATM   21  C   UNL     1      -8.395  11.512  68.402  1.00  0.00    -0.154 C  
HETATM   22 BR   UNL     1      -7.385  12.817  67.549  1.00  0.00    -0.145 Br 
ENDBRANCH  14  20
ENDBRANCH   6  11
ENDBRANCH   3   4
TORSDOF 3
ENDMDL
MODEL      172
REMARK 921   NORMALIZED FREE ENERGY PREDICTED BY IDOCK:   -2.92 KCAL/MOL
REMARK 922        TOTAL FREE ENERGY PREDICTED BY IDOCK:   -4.04 KCAL/MOL
REMARK 923 INTER-LIGAND FREE ENERGY PREDICTED BY IDOCK:   -3.73 KCAL/MOL
REMARK 924 INTRA-LIGAND FREE ENERGY PREDICTED BY IDOCK:   -0.31 KCAL/MOL
REMARK 927      BINDING AFFINITY PREDICTED BY RF-SCORE:    0.00 PKD
ROOT
HETATM    1  O5* UNL     1      -5.194  13.462  66.958  1.00  0.00    -0.172 OA 
HETATM    2  H5* UNL     1      -4.332  13.063  66.970  1.00  0.00     0.000 HD 
HETATM    3  C5* UNL     1      -5.241  14.619  67.794  1.00  0.00     0.007 C  
ENDROOT
BRANCH   3   4
HETATM    4  C4* UNL     1      -6.627  15.260  67.776  1.00  0.00    -0.162 C  
HETATM    5  O4* UNL     1      -7.648  14.258  67.613  1.00  0.00    -0.146 OA 
HETATM    6  C1* UNL     1      -8.851  14.863  68.103  1.00  0.00    -0.174 C  
HETATM    7  C2* UNL     1      -8.442  15.711  69.303  1.00  0.00    -0.265 C  
HETATM    8  H3* UNL     1      -6.973  17.876  69.688  1.00  0.00     0.000 HD 
HETATM    9  O3* UNL     1      -6.756  17.409  68.889  1.00  0.00    -0.205 OA 
HETATM   10  C3* UNL     1      -6.975  16.011  69.061  1.00  0.00    -0.165 C  
BRANCH   6  11
HETATM   11  N   UNL     1      -9.859  13.857  68.411  1.00  0.00    -0.227 N  
HETATM   12  C   UNL     1      -9.513  12.535  68.643  1.00  0.00    -0.003 C  
HETATM   13  C   UNL     1     -11.850  12.001  68.958  1.00  0.00    -0.315 C  
HETATM   14  C   UNL     1     -10.418  11.576  68.896  1.00  0.00    -0.212 C  
HETATM   15  O   UNL     1     -11.516  15.468  68.393  1.00  0.00    -0.337 OA 
HETATM   16  N   UNL     1     -12.096  13.333  68.792  1.00  0.00    -0.290 N  
HETATM   17  H   UNL     1     -13.066  13.638  68.880  1.00  0.00     0.000 HD 
HETATM   18  O   UNL     1     -12.764  11.203  69.150  1.00  0.00    -0.255 OA 
HETATM   19  C   UNL     1     -11.168  14.296  68.520  1.00  0.00    -0.266 C  
BRANCH  14  20
HETATM   20  C   UNL     1     -10.099  10.185  69.177  1.00  0.00    -0.226 C  
HETATM   21  C   UNL     1      -9.940   9.210  68.274  1.00  0.00    -0.175 C  
HETATM   22 BR   UNL     1      -9.573   7.445  68.726  1.00  0.00    -0.148 Br 
ENDBRANCH  14  20
ENDBRANCH   6  11
ENDBRANCH   3   4
TORSDOF 3
ENDMDL
MODEL      173
REMARK 921   NORMALIZED FREE ENERGY PREDICTED BY IDOCK:   -2.91 KCAL/MOL
REMARK 922        TOTAL FREE ENERGY PREDICTED BY IDOCK:   -4.03 KCAL/MOL
REMARK 923 INTER-LIGAND FREE ENERGY PREDICTED BY IDOCK:   -4.11 KCAL/MOL
REMARK 924 INTRA-LIGAND FREE ENERGY PREDICTED BY IDOCK:    0.08 KCAL/MOL
REMARK 927      BINDING AFFINITY PREDICTED BY RF-SCORE:    0.00 PKD
ROOT
HETATM    1  O5* UNL     1     -10.501   5.176  69.951  1.00  0.00    -0.295 OA 
HETATM    2  H5* UNL     1     -10.255   4.626  70.686  1.00  0.00     0.000 HD 
HETATM    3  C5* UNL     1     -10.554   6.552  70.327  1.00  0.00    -0.228 C  
ENDROOT
BRANCH   3   4
HETATM    4  C4* UNL     1     -10.950   7.435  69.145  1.00  0.00    -0.033 C  
HETATM    5  O4* UNL     1     -10.645   8.815  69.418  1.00  0.00    -0.225 OA 
HETATM    6  C1* UNL     1     -10.573   9.446  68.133  1.00  0.00    -0.212 C  
HETATM    7  C2* UNL     1      -9.930   8.430  67.196  1.00  0.00    -0.304 C  
HETATM    8  H3* UNL     1     -10.595   6.068  66.209  1.00  0.00     0.000 HD 
HETATM    9  O3* UNL     1     -11.048   6.282  67.015  1.00  0.00    -0.362 OA 
HETATM   10  C3* UNL     1     -10.220   7.090  67.848  1.00  0.00    -0.183 C  
BRANCH   6  11
HETATM   11  N   UNL     1      -9.856  10.713  68.208  1.00  0.00    -0.158 N  
HETATM   12  C   UNL     1     -10.375  11.872  67.652  1.00  0.00    -0.200 C  
HETATM   13  C   UNL     1      -8.402  13.073  68.367  1.00  0.00    -0.118 C  
HETATM   14  C   UNL     1      -9.726  13.047  67.673  1.00  0.00    -0.212 C  
HETATM   15  O   UNL     1      -8.194   9.730  69.478  1.00  0.00    -0.114 OA 
HETATM   16  N   UNL     1      -7.999  11.907  68.950  1.00  0.00    -0.338 N  
HETATM   17  H   UNL     1      -7.120  11.929  69.466  1.00  0.00     0.000 HD 
HETATM   18  O   UNL     1      -7.708  14.085  68.418  1.00  0.00    -0.122 OA 
HETATM   19  C   UNL     1      -8.662  10.715  68.909  1.00  0.00    -0.161 C  
BRANCH  14  20
HETATM   20  C   UNL     1     -10.246  14.293  67.133  1.00  0.00    -0.254 C  
HETATM   21  C   UNL     1      -9.978  14.808  65.927  1.00  0.00    -0.326 C  
HETATM   22 BR   UNL     1     -10.656  16.433  65.333  1.00  0.00    -0.260 Br 
ENDBRANCH  14  20
ENDBRANCH   6  11
ENDBRANCH   3   4
TORSDOF 3
ENDMDL
MODEL      174
REMARK 921   NORMALIZED FREE ENERGY PREDICTED BY IDOCK:   -2.90 KCAL/MOL
REMARK 922        TOTAL FREE ENERGY PREDICTED BY IDOCK:   -4.02 KCAL/MOL
REMARK 923 INTER-LIGAND FREE ENERGY PREDICTED BY IDOCK:   -4.01 KCAL/MOL
REMARK 924 INTRA-LIGAND FREE ENERGY PREDICTED BY IDOCK:   -0.01 KCAL/MOL
REMARK 927      BINDING AFFINITY PREDICTED BY RF-SCORE:    0.00 PKD
ROOT
HETATM    1  O5* UNL     1     -10.220  11.630  63.590  1.00  0.00    -0.330 OA 
HETATM    2  H5* UNL     1     -10.433  11.687  62.665  1.00  0.00     0.000 HD 
HETATM    3  C5* UNL     1      -9.386  10.502  63.861  1.00  0.00    -0.275 C  
ENDROOT
BRANCH   3   4
HETATM    4  C4* UNL     1      -9.044  10.410  65.347  1.00  0.00    -0.189 C  
HETATM    5  O4* UNL     1      -8.433  11.631  65.803  1.00  0.00     0.016 OA 
HETATM    6  C1* UNL     1      -8.618  11.636  67.224  1.00  0.00    -0.154 C  
HETATM    7  C2* UNL     1      -9.997  11.034  67.475  1.00  0.00    -0.199 C  
HETATM    8  H3* UNL     1     -11.125   8.664  67.146  1.00  0.00     0.000 HD 
HETATM    9  O3* UNL     1     -10.370   8.805  66.587  1.00  0.00    -0.279 OA 
HETATM   10  C3* UNL     1     -10.259  10.184  66.245  1.00  0.00    -0.219 C  
BRANCH   6  11
HETATM   11  N   UNL     1      -8.454  12.976  67.772  1.00  0.00    -0.174 N  
HETATM   12  C   UNL     1      -9.217  14.041  67.318  1.00  0.00    -0.230 C  
HETATM   13  C   UNL     1      -8.050  15.503  68.849  1.00  0.00    -0.194 C  
HETATM   14  C   UNL     1      -9.069  15.295  67.776  1.00  0.00    -0.182 C  
HETATM   15  O   UNL     1      -6.896  12.197  69.290  1.00  0.00    -0.103 OA 
HETATM   16  N   UNL     1      -7.396  14.390  69.291  1.00  0.00    -0.239 N  
HETATM   17  H   UNL     1      -6.733  14.516  70.055  1.00  0.00     0.000 HD 
HETATM   18  O   UNL     1      -7.807  16.612  69.318  1.00  0.00    -0.213 OA 
HETATM   19  C   UNL     1      -7.545  13.122  68.806  1.00  0.00    -0.033 C  
BRANCH  14  20
HETATM   20  C   UNL     1      -9.868  16.434  67.353  1.00  0.00    -0.244 C  
HETATM   21  C   UNL     1      -9.444  17.698  67.231  1.00  0.00    -0.257 C  
HETATM   22 BR   UNL     1     -10.547  19.103  66.722  1.00  0.00    -0.514 Br 
ENDBRANCH  14  20
ENDBRANCH   6  11
ENDBRANCH   3   4
TORSDOF 3
ENDMDL
MODEL      175
REMARK 921   NORMALIZED FREE ENERGY PREDICTED BY IDOCK:   -2.90 KCAL/MOL
REMARK 922        TOTAL FREE ENERGY PREDICTED BY IDOCK:   -4.02 KCAL/MOL
REMARK 923 INTER-LIGAND FREE ENERGY PREDICTED BY IDOCK:   -4.81 KCAL/MOL
REMARK 924 INTRA-LIGAND FREE ENERGY PREDICTED BY IDOCK:    0.80 KCAL/MOL
REMARK 927      BINDING AFFINITY PREDICTED BY RF-SCORE:    0.00 PKD
ROOT
HETATM    1  O5* UNL     1     -14.345   7.342  71.824  1.00  0.00    -0.461 OA 
HETATM    2  H5* UNL     1     -15.182   6.895  71.889  1.00  0.00     0.000 HD 
HETATM    3  C5* UNL     1     -14.407   8.645  72.406  1.00  0.00    -0.340 C  
ENDROOT
BRANCH   3   4
HETATM    4  C4* UNL     1     -13.063   9.363  72.303  1.00  0.00    -0.428 C  
HETATM    5  O4* UNL     1     -12.020   8.437  71.946  1.00  0.00    -0.295 OA 
HETATM    6  C1* UNL     1     -10.971   9.247  71.398  1.00  0.00    -0.359 C  
HETATM    7  C2* UNL     1     -11.658  10.357  70.610  1.00  0.00    -0.440 C  
HETATM    8  H3* UNL     1     -13.205  12.422  71.190  1.00  0.00     0.000 HD 
HETATM    9  O3* UNL     1     -13.224  11.738  71.849  1.00  0.00    -0.482 OA 
HETATM   10  C3* UNL     1     -13.033  10.463  71.243  1.00  0.00    -0.419 C  
BRANCH   6  11
HETATM   11  N   UNL     1     -10.049   8.446  70.603  1.00  0.00    -0.190 N  
HETATM   12  C   UNL     1      -9.733   7.143  70.955  1.00  0.00    -0.165 C  
HETATM   13  C   UNL     1      -8.256   7.006  69.046  1.00  0.00    -0.125 C  
HETATM   14  C   UNL     1      -8.863   6.389  70.265  1.00  0.00    -0.151 C  
HETATM   15  O   UNL     1      -9.856  10.152  69.056  1.00  0.00    -0.184 OA 
HETATM   16  N   UNL     1      -8.678   8.265  68.729  1.00  0.00    -0.136 N  
HETATM   17  H   UNL     1      -8.304   8.675  67.873  1.00  0.00     0.000 HD 
HETATM   18  O   UNL     1      -7.424   6.420  68.359  1.00  0.00    -0.084 OA 
HETATM   19  C   UNL     1      -9.552   9.027  69.448  1.00  0.00    -0.160 C  
BRANCH  14  20
HETATM   20  C   UNL     1      -8.527   5.009  70.579  1.00  0.00    -0.109 C  
HETATM   21  C   UNL     1      -9.369   4.070  71.026  1.00  0.00    -0.149 C  
HETATM   22 BR   UNL     1      -8.843   2.337  71.442  1.00  0.00    -0.136 Br 
ENDBRANCH  14  20
ENDBRANCH   6  11
ENDBRANCH   3   4
TORSDOF 3
ENDMDL
MODEL      176
REMARK 921   NORMALIZED FREE ENERGY PREDICTED BY IDOCK:   -2.88 KCAL/MOL
REMARK 922        TOTAL FREE ENERGY PREDICTED BY IDOCK:   -4.00 KCAL/MOL
REMARK 923 INTER-LIGAND FREE ENERGY PREDICTED BY IDOCK:   -3.65 KCAL/MOL
REMARK 924 INTRA-LIGAND FREE ENERGY PREDICTED BY IDOCK:   -0.35 KCAL/MOL
REMARK 927      BINDING AFFINITY PREDICTED BY RF-SCORE:    0.00 PKD
ROOT
HETATM    1  O5* UNL     1     -12.668  11.357  71.679  1.00  0.00    -0.375 OA 
HETATM    2  H5* UNL     1     -13.533  11.410  72.069  1.00  0.00     0.000 HD 
HETATM    3  C5* UNL     1     -12.728  10.840  70.349  1.00  0.00    -0.269 C  
ENDROOT
BRANCH   3   4
HETATM    4  C4* UNL     1     -11.338  10.754  69.723  1.00  0.00    -0.300 C  
HETATM    5  O4* UNL     1     -10.552   9.737  70.371  1.00  0.00    -0.265 OA 
HETATM    6  C1* UNL     1      -9.523   9.401  69.431  1.00  0.00    -0.173 C  
HETATM    7  C2* UNL     1     -10.172   9.459  68.052  1.00  0.00    -0.248 C  
HETATM    8  H3* UNL     1     -11.217  11.347  66.522  1.00  0.00     0.000 HD 
HETATM    9  O3* UNL     1     -11.208  11.570  67.445  1.00  0.00    -0.271 OA 
HETATM   10  C3* UNL     1     -11.353  10.395  68.238  1.00  0.00    -0.224 C  
BRANCH   6  11
HETATM   11  N   UNL     1      -8.925   8.109  69.744  1.00  0.00    -0.143 N  
HETATM   12  C   UNL     1      -9.628   7.136  70.438  1.00  0.00    -0.169 C  
HETATM   13  C   UNL     1      -7.694   5.690  70.326  1.00  0.00    -0.090 C  
HETATM   14  C   UNL     1      -9.097   5.949  70.772  1.00  0.00    -0.163 C  
HETATM   15  O   UNL     1      -7.009   8.682  68.585  1.00  0.00    -0.062 OA 
HETATM   16  N   UNL     1      -7.101   6.670  69.585  1.00  0.00    -0.067 N  
HETATM   17  H   UNL     1      -6.161   6.481  69.237  1.00  0.00     0.000 HD 
HETATM   18  O   UNL     1      -7.098   4.652  70.604  1.00  0.00    -0.040 OA 
HETATM   19  C   UNL     1      -7.647   7.879  69.264  1.00  0.00    -0.097 C  
BRANCH  14  20
HETATM   20  C   UNL     1      -9.806   4.888  71.469  1.00  0.00    -0.247 C  
HETATM   21  C   UNL     1     -10.214   4.911  72.743  1.00  0.00    -0.180 C  
HETATM   22 BR   UNL     1     -11.080   3.489  73.568  1.00  0.00    -0.273 Br 
ENDBRANCH  14  20
ENDBRANCH   6  11
ENDBRANCH   3   4
TORSDOF 3
ENDMDL
MODEL      177
REMARK 921   NORMALIZED FREE ENERGY PREDICTED BY IDOCK:   -2.88 KCAL/MOL
REMARK 922        TOTAL FREE ENERGY PREDICTED BY IDOCK:   -4.00 KCAL/MOL
REMARK 923 INTER-LIGAND FREE ENERGY PREDICTED BY IDOCK:   -3.55 KCAL/MOL
REMARK 924 INTRA-LIGAND FREE ENERGY PREDICTED BY IDOCK:   -0.45 KCAL/MOL
REMARK 927      BINDING AFFINITY PREDICTED BY RF-SCORE:    0.00 PKD
ROOT
HETATM    1  O5* UNL     1     -11.627   9.969  67.965  1.00  0.00    -0.644 OA 
HETATM    2  H5* UNL     1     -12.005  10.589  67.353  1.00  0.00     0.000 HD 
HETATM    3  C5* UNL     1     -10.396  10.455  68.502  1.00  0.00    -0.176 C  
ENDROOT
BRANCH   3   4
HETATM    4  C4* UNL     1      -9.788   9.458  69.486  1.00  0.00    -0.183 C  
HETATM    5  O4* UNL     1     -10.234   8.121  69.194  1.00  0.00    -0.205 OA 
HETATM    6  C1* UNL     1      -9.262   7.259  69.801  1.00  0.00    -0.140 C  
HETATM    7  C2* UNL     1      -7.912   7.943  69.614  1.00  0.00    -0.118 C  
HETATM    8  H3* UNL     1      -6.768  10.162  70.489  1.00  0.00     0.000 HD 
HETATM    9  O3* UNL     1      -7.717  10.191  70.511  1.00  0.00    -0.232 OA 
HETATM   10  C3* UNL     1      -8.261   9.411  69.449  1.00  0.00    -0.119 C  
BRANCH   6  11
HETATM   11  N   UNL     1      -9.324   5.917  69.237  1.00  0.00    -0.127 N  
HETATM   12  C   UNL     1      -9.293   5.706  67.867  1.00  0.00    -0.107 C  
HETATM   13  C   UNL     1      -9.480   3.327  68.250  1.00  0.00    -0.152 C  
HETATM   14  C   UNL     1      -9.381   4.487  67.312  1.00  0.00    -0.165 C  
HETATM   15  O   UNL     1      -9.313   4.994  71.355  1.00  0.00    -0.142 OA 
HETATM   16  N   UNL     1      -9.429   3.616  69.582  1.00  0.00    -0.175 N  
HETATM   17  H   UNL     1      -9.448   2.826  70.228  1.00  0.00     0.000 HD 
HETATM   18  O   UNL     1      -9.598   2.170  67.853  1.00  0.00    -0.175 OA 
HETATM   19  C   UNL     1      -9.354   4.862  70.134  1.00  0.00    -0.154 C  
BRANCH  14  20
HETATM   20  C   UNL     1      -9.320   4.216  65.884  1.00  0.00    -0.163 C  
HETATM   21  C   UNL     1     -10.364   4.052  65.063  1.00  0.00    -0.160 C  
HETATM   22 BR   UNL     1     -10.193   3.667  63.254  1.00  0.00    -0.215 Br 
ENDBRANCH  14  20
ENDBRANCH   6  11
ENDBRANCH   3   4
TORSDOF 3
ENDMDL
MODEL      178
REMARK 921   NORMALIZED FREE ENERGY PREDICTED BY IDOCK:   -2.88 KCAL/MOL
REMARK 922        TOTAL FREE ENERGY PREDICTED BY IDOCK:   -4.00 KCAL/MOL
REMARK 923 INTER-LIGAND FREE ENERGY PREDICTED BY IDOCK:   -3.54 KCAL/MOL
REMARK 924 INTRA-LIGAND FREE ENERGY PREDICTED BY IDOCK:   -0.45 KCAL/MOL
REMARK 927      BINDING AFFINITY PREDICTED BY RF-SCORE:    0.00 PKD
ROOT
HETATM    1  O5* UNL     1     -10.124   2.937  73.431  1.00  0.00    -0.103 OA 
HETATM    2  H5* UNL     1     -10.728   2.703  74.126  1.00  0.00     0.000 HD 
HETATM    3  C5* UNL     1     -10.422   4.227  72.897  1.00  0.00    -0.176 C  
ENDROOT
BRANCH   3   4
HETATM    4  C4* UNL     1      -9.451   4.604  71.780  1.00  0.00    -0.150 C  
HETATM    5  O4* UNL     1     -10.085   5.483  70.832  1.00  0.00    -0.191 OA 
HETATM    6  C1* UNL     1      -9.008   6.148  70.159  1.00  0.00    -0.148 C  
HETATM    7  C2* UNL     1      -7.935   6.395  71.214  1.00  0.00    -0.112 C  
HETATM    8  H3* UNL     1      -6.334   4.889  72.685  1.00  0.00     0.000 HD 
HETATM    9  O3* UNL     1      -7.109   4.432  72.381  1.00  0.00    -0.057 OA 
HETATM   10  C3* UNL     1      -8.204   5.338  72.269  1.00  0.00    -0.118 C  
BRANCH   6  11
HETATM   11  N   UNL     1      -9.471   7.362  69.497  1.00  0.00    -0.156 N  
HETATM   12  C   UNL     1     -10.164   8.343  70.189  1.00  0.00    -0.195 C  
HETATM   13  C   UNL     1     -10.345   9.625  68.147  1.00  0.00    -0.209 C  
HETATM   14  C   UNL     1     -10.634   9.457  69.605  1.00  0.00    -0.239 C  
HETATM   15  O   UNL     1      -8.464   6.705  67.524  1.00  0.00    -0.120 OA 
HETATM   16  N   UNL     1      -9.594   8.649  67.560  1.00  0.00    -0.151 N  
HETATM   17  H   UNL     1      -9.353   8.779  66.578  1.00  0.00     0.000 HD 
HETATM   18  O   UNL     1     -10.754  10.588  67.504  1.00  0.00    -0.235 OA 
HETATM   19  C   UNL     1      -9.135   7.513  68.163  1.00  0.00    -0.128 C  
BRANCH  14  20
HETATM   20  C   UNL     1     -11.335  10.526  70.297  1.00  0.00    -0.407 C  
HETATM   21  C   UNL     1     -12.323  10.380  71.188  1.00  0.00    -0.400 C  
HETATM   22 BR   UNL     1     -13.194  11.809  71.995  1.00  0.00    -0.246 Br 
ENDBRANCH  14  20
ENDBRANCH   6  11
ENDBRANCH   3   4
TORSDOF 3
ENDMDL
MODEL      179
REMARK 921   NORMALIZED FREE ENERGY PREDICTED BY IDOCK:   -2.86 KCAL/MOL
REMARK 922        TOTAL FREE ENERGY PREDICTED BY IDOCK:   -3.98 KCAL/MOL
REMARK 923 INTER-LIGAND FREE ENERGY PREDICTED BY IDOCK:   -3.88 KCAL/MOL
REMARK 924 INTRA-LIGAND FREE ENERGY PREDICTED BY IDOCK:   -0.09 KCAL/MOL
REMARK 927      BINDING AFFINITY PREDICTED BY RF-SCORE:    0.00 PKD
ROOT
HETATM    1  O5* UNL     1      -8.915  18.937  69.012  1.00  0.00    -0.267 OA 
HETATM    2  H5* UNL     1      -8.974  19.687  69.592  1.00  0.00     0.000 HD 
HETATM    3  C5* UNL     1      -9.184  19.304  67.659  1.00  0.00    -0.304 C  
ENDROOT
BRANCH   3   4
HETATM    4  C4* UNL     1      -9.090  18.098  66.727  1.00  0.00    -0.282 C  
HETATM    5  O4* UNL     1      -8.195  17.108  67.268  1.00  0.00    -0.181 OA 
HETATM    6  C1* UNL     1      -8.558  15.881  66.623  1.00  0.00    -0.285 C  
HETATM    7  C2* UNL     1     -10.076  15.908  66.480  1.00  0.00    -0.293 C  
HETATM    8  H3* UNL     1     -11.833  17.356  65.132  1.00  0.00     0.000 HD 
HETATM    9  O3* UNL     1     -11.004  17.798  65.270  1.00  0.00    -0.557 OA 
HETATM   10  C3* UNL     1     -10.423  17.386  66.505  1.00  0.00    -0.264 C  
BRANCH   6  11
HETATM   11  N   UNL     1      -8.059  14.729  67.364  1.00  0.00    -0.185 N  
HETATM   12  C   UNL     1      -8.893  13.679  67.716  1.00  0.00    -0.190 C  
HETATM   13  C   UNL     1      -7.028  12.592  68.805  1.00  0.00    -0.094 C  
HETATM   14  C   UNL     1      -8.475  12.619  68.426  1.00  0.00    -0.121 C  
HETATM   15  O   UNL     1      -5.911  15.579  67.295  1.00  0.00    -0.326 OA 
HETATM   16  N   UNL     1      -6.263  13.627  68.356  1.00  0.00    -0.085 N  
HETATM   17  H   UNL     1      -5.266  13.592  68.570  1.00  0.00     0.000 HD 
HETATM   18  O   UNL     1      -6.545  11.688  69.482  1.00  0.00    -0.110 OA 
HETATM   19  C   UNL     1      -6.704  14.707  67.646  1.00  0.00    -0.174 C  
BRANCH  14  20
HETATM   20  C   UNL     1      -9.304  11.481  68.789  1.00  0.00    -0.088 C  
HETATM   21  C   UNL     1     -10.642  11.444  68.792  1.00  0.00    -0.204 C  
HETATM   22 BR   UNL     1     -11.624   9.955  69.311  1.00  0.00     0.127 Br 
ENDBRANCH  14  20
ENDBRANCH   6  11
ENDBRANCH   3   4
TORSDOF 3
ENDMDL
MODEL      180
REMARK 921   NORMALIZED FREE ENERGY PREDICTED BY IDOCK:   -2.84 KCAL/MOL
REMARK 922        TOTAL FREE ENERGY PREDICTED BY IDOCK:   -3.94 KCAL/MOL
REMARK 923 INTER-LIGAND FREE ENERGY PREDICTED BY IDOCK:   -3.52 KCAL/MOL
REMARK 924 INTRA-LIGAND FREE ENERGY PREDICTED BY IDOCK:   -0.43 KCAL/MOL
REMARK 927      BINDING AFFINITY PREDICTED BY RF-SCORE:    0.00 PKD
ROOT
HETATM    1  O5* UNL     1      -9.854   7.148  74.480  1.00  0.00    -0.446 OA 
HETATM    2  H5* UNL     1      -9.971   6.383  75.031  1.00  0.00     0.000 HD 
HETATM    3  C5* UNL     1     -10.872   7.228  73.481  1.00  0.00    -0.245 C  
ENDROOT
BRANCH   3   4
HETATM    4  C4* UNL     1     -10.685   8.458  72.595  1.00  0.00    -0.242 C  
HETATM    5  O4* UNL     1      -9.442   8.379  71.873  1.00  0.00    -0.201 OA 
HETATM    6  C1* UNL     1      -9.599   9.263  70.756  1.00  0.00    -0.275 C  
HETATM    7  C2* UNL     1     -11.049   9.121  70.303  1.00  0.00    -0.272 C  
HETATM    8  H3* UNL     1     -13.423   9.685  71.324  1.00  0.00     0.000 HD 
HETATM    9  O3* UNL     1     -12.744   9.579  71.980  1.00  0.00    -0.380 OA 
HETATM   10  C3* UNL     1     -11.776   8.629  71.540  1.00  0.00    -0.305 C  
BRANCH   6  11
HETATM   11  N   UNL     1      -8.627   8.969  69.711  1.00  0.00    -0.130 N  
HETATM   12  C   UNL     1      -8.879   8.019  68.734  1.00  0.00    -0.138 C  
HETATM   13  C   UNL     1      -6.700   8.451  67.780  1.00  0.00    -0.066 C  
HETATM   14  C   UNL     1      -7.993   7.699  67.778  1.00  0.00    -0.121 C  
HETATM   15  O   UNL     1      -7.226  10.626  70.509  1.00  0.00    -0.158 OA 
HETATM   16  N   UNL     1      -6.563   9.420  68.730  1.00  0.00    -0.052 N  
HETATM   17  H   UNL     1      -5.703   9.969  68.709  1.00  0.00     0.000 HD 
HETATM   18  O   UNL     1      -5.804   8.218  66.972  1.00  0.00    -0.043 OA 
HETATM   19  C   UNL     1      -7.466   9.725  69.707  1.00  0.00    -0.127 C  
BRANCH  14  20
HETATM   20  C   UNL     1      -8.227   6.734  66.715  1.00  0.00    -0.114 C  
HETATM   21  C   UNL     1      -7.799   5.467  66.686  1.00  0.00    -0.101 C  
HETATM   22 BR   UNL     1      -8.111   4.312  65.264  1.00  0.00    -0.102 Br 
ENDBRANCH  14  20
ENDBRANCH   6  11
ENDBRANCH   3   4
TORSDOF 3
ENDMDL
MODEL      181
REMARK 921   NORMALIZED FREE ENERGY PREDICTED BY IDOCK:   -2.80 KCAL/MOL
REMARK 922        TOTAL FREE ENERGY PREDICTED BY IDOCK:   -3.90 KCAL/MOL
REMARK 923 INTER-LIGAND FREE ENERGY PREDICTED BY IDOCK:   -3.90 KCAL/MOL
REMARK 924 INTRA-LIGAND FREE ENERGY PREDICTED BY IDOCK:   -0.00 KCAL/MOL
REMARK 927      BINDING AFFINITY PREDICTED BY RF-SCORE:    0.00 PKD
ROOT
HETATM    1  O5* UNL     1     -10.992   6.509  73.839  1.00  0.00    -0.445 OA 
HETATM    2  H5* UNL     1     -10.570   6.381  74.680  1.00  0.00     0.000 HD 
HETATM    3  C5* UNL     1     -10.513   7.690  73.193  1.00  0.00    -0.374 C  
ENDROOT
BRANCH   3   4
HETATM    4  C4* UNL     1     -11.191   7.896  71.840  1.00  0.00    -0.271 C  
HETATM    5  O4* UNL     1     -10.220   8.235  70.833  1.00  0.00    -0.188 OA 
HETATM    6  C1* UNL     1     -10.846   7.914  69.584  1.00  0.00    -0.176 C  
HETATM    7  C2* UNL     1     -11.656   6.645  69.829  1.00  0.00    -0.354 C  
HETATM    8  H3* UNL     1     -13.773   5.991  71.275  1.00  0.00     0.000 HD 
HETATM    9  O3* UNL     1     -13.318   6.760  71.596  1.00  0.00    -0.293 OA 
HETATM   10  C3* UNL     1     -11.922   6.659  71.323  1.00  0.00    -0.355 C  
BRANCH   6  11
HETATM   11  N   UNL     1      -9.860   7.784  68.519  1.00  0.00    -0.167 N  
HETATM   12  C   UNL     1      -9.958   6.787  67.561  1.00  0.00    -0.141 C  
HETATM   13  C   UNL     1      -7.917   7.593  66.545  1.00  0.00    -0.106 C  
HETATM   14  C   UNL     1      -9.050   6.618  66.586  1.00  0.00    -0.159 C  
HETATM   15  O   UNL     1      -8.768   9.682  69.259  1.00  0.00    -0.138 OA 
HETATM   16  N   UNL     1      -7.937   8.587  67.479  1.00  0.00    -0.106 N  
HETATM   17  H   UNL     1      -7.193   9.283  67.429  1.00  0.00     0.000 HD 
HETATM   18  O   UNL     1      -7.012   7.513  65.718  1.00  0.00    -0.058 OA 
HETATM   19  C   UNL     1      -8.858   8.739  68.475  1.00  0.00    -0.138 C  
BRANCH  14  20
HETATM   20  C   UNL     1      -9.129   5.609  65.542  1.00  0.00    -0.072 C  
HETATM   21  C   UNL     1     -10.093   4.692  65.397  1.00  0.00    -0.148 C  
HETATM   22 BR   UNL     1     -10.093   3.409  64.053  1.00  0.00    -0.206 Br 
ENDBRANCH  14  20
ENDBRANCH   6  11
ENDBRANCH   3   4
TORSDOF 3
ENDMDL
MODEL      182
REMARK 921   NORMALIZED FREE ENERGY PREDICTED BY IDOCK:   -2.76 KCAL/MOL
REMARK 922        TOTAL FREE ENERGY PREDICTED BY IDOCK:   -3.85 KCAL/MOL
REMARK 923 INTER-LIGAND FREE ENERGY PREDICTED BY IDOCK:   -3.67 KCAL/MOL
REMARK 924 INTRA-LIGAND FREE ENERGY PREDICTED BY IDOCK:   -0.18 KCAL/MOL
REMARK 927      BINDING AFFINITY PREDICTED BY RF-SCORE:    0.00 PKD
ROOT
HETATM    1  O5* UNL     1     -12.943  11.762  71.711  1.00  0.00    -0.423 OA 
HETATM    2  H5* UNL     1     -13.847  11.980  71.910  1.00  0.00     0.000 HD 
HETATM    3  C5* UNL     1     -12.805  11.295  70.369  1.00  0.00    -0.037 C  
ENDROOT
BRANCH   3   4
HETATM    4  C4* UNL     1     -11.354  10.943  70.050  1.00  0.00    -0.307 C  
HETATM    5  O4* UNL     1     -11.095   9.555  70.328  1.00  0.00    -0.245 OA 
HETATM    6  C1* UNL     1      -9.934   9.227  69.554  1.00  0.00    -0.187 C  
HETATM    7  C2* UNL     1     -10.067   9.993  68.242  1.00  0.00    -0.182 C  
HETATM    8  H3* UNL     1     -10.063  12.537  67.518  1.00  0.00     0.000 HD 
HETATM    9  O3* UNL     1     -10.298  12.403  68.428  1.00  0.00    -0.221 OA 
HETATM   10  C3* UNL     1     -10.976  11.159  68.586  1.00  0.00    -0.220 C  
BRANCH   6  11
HETATM   11  N   UNL     1      -9.807   7.785  69.381  1.00  0.00    -0.173 N  
HETATM   12  C   UNL     1      -9.775   7.207  68.121  1.00  0.00    -0.139 C  
HETATM   13  C   UNL     1      -9.596   5.026  69.149  1.00  0.00    -0.154 C  
HETATM   14  C   UNL     1      -9.693   5.882  67.926  1.00  0.00    -0.128 C  
HETATM   15  O   UNL     1      -9.611   7.500  71.666  1.00  0.00    -0.150 OA 
HETATM   16  N   UNL     1      -9.559   5.680  70.346  1.00  0.00    -0.164 N  
HETATM   17  H   UNL     1      -9.446   5.106  71.182  1.00  0.00     0.000 HD 
HETATM   18  O   UNL     1      -9.549   3.800  69.090  1.00  0.00    -0.176 OA 
HETATM   19  C   UNL     1      -9.659   7.028  70.531  1.00  0.00    -0.169 C  
BRANCH  14  20
HETATM   20  C   UNL     1      -9.624   5.235  66.625  1.00  0.00    -0.160 C  
HETATM   21  C   UNL     1     -10.659   4.775  65.913  1.00  0.00    -0.244 C  
HETATM   22 BR   UNL     1     -10.475   3.923  64.272  1.00  0.00    -0.194 Br 
ENDBRANCH  14  20
ENDBRANCH   6  11
ENDBRANCH   3   4
TORSDOF 3
ENDMDL
MODEL      183
REMARK 921   NORMALIZED FREE ENERGY PREDICTED BY IDOCK:   -2.73 KCAL/MOL
REMARK 922        TOTAL FREE ENERGY PREDICTED BY IDOCK:   -3.82 KCAL/MOL
REMARK 923 INTER-LIGAND FREE ENERGY PREDICTED BY IDOCK:   -3.21 KCAL/MOL
REMARK 924 INTRA-LIGAND FREE ENERGY PREDICTED BY IDOCK:   -0.61 KCAL/MOL
REMARK 927      BINDING AFFINITY PREDICTED BY RF-SCORE:    0.00 PKD
ROOT
HETATM    1  O5* UNL     1      -8.688   2.244  64.489  1.00  0.00    -0.092 OA 
HETATM    2  H5* UNL     1      -9.100   1.388  64.464  1.00  0.00     0.000 HD 
HETATM    3  C5* UNL     1      -9.621   3.259  64.859  1.00  0.00    -0.140 C  
ENDROOT
BRANCH   3   4
HETATM    4  C4* UNL     1      -8.958   4.635  64.899  1.00  0.00    -0.153 C  
HETATM    5  O4* UNL     1      -9.782   5.574  65.614  1.00  0.00    -0.046 OA 
HETATM    6  C1* UNL     1      -8.892   6.622  66.020  1.00  0.00    -0.139 C  
HETATM    7  C2* UNL     1      -7.575   5.944  66.383  1.00  0.00    -0.091 C  
HETATM    8  H3* UNL     1      -5.705   4.603  65.079  1.00  0.00     0.000 HD 
HETATM    9  O3* UNL     1      -6.548   4.598  64.642  1.00  0.00    -0.041 OA 
HETATM   10  C3* UNL     1      -7.601   4.643  65.602  1.00  0.00    -0.082 C  
BRANCH   6  11
HETATM   11  N   UNL     1      -9.465   7.409  67.104  1.00  0.00    -0.142 N  
HETATM   12  C   UNL     1      -9.633   6.877  68.374  1.00  0.00    -0.126 C  
HETATM   13  C   UNL     1     -10.598   8.972  69.100  1.00  0.00    -0.203 C  
HETATM   14  C   UNL     1     -10.188   7.562  69.386  1.00  0.00    -0.204 C  
HETATM   15  O   UNL     1      -9.583   9.265  65.733  1.00  0.00    -0.254 OA 
HETATM   16  N   UNL     1     -10.329   9.440  67.847  1.00  0.00    -0.212 N  
HETATM   17  H   UNL     1     -10.563  10.415  67.659  1.00  0.00     0.000 HD 
HETATM   18  O   UNL     1     -11.145   9.680  69.942  1.00  0.00    -0.236 OA 
HETATM   19  C   UNL     1      -9.778   8.728  66.822  1.00  0.00    -0.221 C  
BRANCH  14  20
HETATM   20  C   UNL     1     -10.354   7.057  70.740  1.00  0.00    -0.222 C  
HETATM   21  C   UNL     1     -11.207   6.103  71.131  1.00  0.00    -0.292 C  
HETATM   22 BR   UNL     1     -11.382   5.546  72.895  1.00  0.00    -0.315 Br 
ENDBRANCH  14  20
ENDBRANCH   6  11
ENDBRANCH   3   4
TORSDOF 3
ENDMDL
MODEL      184
REMARK 921   NORMALIZED FREE ENERGY PREDICTED BY IDOCK:   -2.71 KCAL/MOL
REMARK 922        TOTAL FREE ENERGY PREDICTED BY IDOCK:   -3.80 KCAL/MOL
REMARK 923 INTER-LIGAND FREE ENERGY PREDICTED BY IDOCK:   -3.94 KCAL/MOL
REMARK 924 INTRA-LIGAND FREE ENERGY PREDICTED BY IDOCK:    0.14 KCAL/MOL
REMARK 927      BINDING AFFINITY PREDICTED BY RF-SCORE:    0.00 PKD
ROOT
HETATM    1  O5* UNL     1     -11.320   4.281  65.055  1.00  0.00    -0.996 OA 
HETATM    2  H5* UNL     1     -11.963   3.888  64.476  1.00  0.00     0.000 HD 
HETATM    3  C5* UNL     1      -9.991   3.940  64.659  1.00  0.00    -0.204 C  
ENDROOT
BRANCH   3   4
HETATM    4  C4* UNL     1      -8.956   4.571  65.589  1.00  0.00    -0.134 C  
HETATM    5  O4* UNL     1      -9.271   5.954  65.834  1.00  0.00    -0.157 OA 
HETATM    6  C1* UNL     1      -8.586   6.286  67.049  1.00  0.00    -0.104 C  
HETATM    7  C2* UNL     1      -8.675   5.050  67.938  1.00  0.00    -0.104 C  
HETATM    8  H3* UNL     1      -7.732   2.580  67.860  1.00  0.00     0.000 HD 
HETATM    9  O3* UNL     1      -7.782   2.993  67.006  1.00  0.00    -0.074 OA 
HETATM   10  C3* UNL     1      -8.876   3.906  66.962  1.00  0.00    -0.126 C  
BRANCH   6  11
HETATM   11  N   UNL     1      -9.143   7.488  67.656  1.00  0.00    -0.126 N  
HETATM   12  C   UNL     1      -8.350   8.589  67.941  1.00  0.00    -0.126 C  
HETATM   13  C   UNL     1     -10.285   9.722  68.845  1.00  0.00    -0.200 C  
HETATM   14  C   UNL     1      -8.823   9.698  68.530  1.00  0.00    -0.124 C  
HETATM   15  O   UNL     1     -11.266   6.577  67.580  1.00  0.00    -0.324 OA 
HETATM   16  N   UNL     1     -11.006   8.628  68.465  1.00  0.00    -0.441 N  
HETATM   17  H   UNL     1     -12.012   8.657  68.633  1.00  0.00     0.000 HD 
HETATM   18  O   UNL     1     -10.818  10.672  69.413  1.00  0.00    -0.215 OA 
HETATM   19  C   UNL     1     -10.510   7.500  67.879  1.00  0.00    -0.204 C  
BRANCH  14  20
HETATM   20  C   UNL     1      -8.036  10.887  68.817  1.00  0.00    -0.145 C  
HETATM   21  C   UNL     1      -6.861  11.212  68.267  1.00  0.00    -0.068 C  
HETATM   22 BR   UNL     1      -5.902  12.736  68.724  1.00  0.00    -0.073 Br 
ENDBRANCH  14  20
ENDBRANCH   6  11
ENDBRANCH   3   4
TORSDOF 3
ENDMDL
MODEL      185
REMARK 921   NORMALIZED FREE ENERGY PREDICTED BY IDOCK:   -2.70 KCAL/MOL
REMARK 922        TOTAL FREE ENERGY PREDICTED BY IDOCK:   -3.79 KCAL/MOL
REMARK 923 INTER-LIGAND FREE ENERGY PREDICTED BY IDOCK:   -3.37 KCAL/MOL
REMARK 924 INTRA-LIGAND FREE ENERGY PREDICTED BY IDOCK:   -0.41 KCAL/MOL
REMARK 927      BINDING AFFINITY PREDICTED BY RF-SCORE:    0.00 PKD
ROOT
HETATM    1  O5* UNL     1      -7.310   5.935  63.141  1.00  0.00    -0.053 OA 
HETATM    2  H5* UNL     1      -6.991   5.099  62.821  1.00  0.00     0.000 HD 
HETATM    3  C5* UNL     1      -7.490   5.914  64.558  1.00  0.00    -0.079 C  
ENDROOT
BRANCH   3   4
HETATM    4  C4* UNL     1      -8.002   7.258  65.072  1.00  0.00    -0.129 C  
HETATM    5  O4* UNL     1      -9.093   7.067  65.991  1.00  0.00    -0.148 OA 
HETATM    6  C1* UNL     1      -9.150   8.273  66.763  1.00  0.00    -0.156 C  
HETATM    7  C2* UNL     1      -7.705   8.709  66.979  1.00  0.00    -0.095 C  
HETATM    8  H3* UNL     1      -5.728   9.562  65.443  1.00  0.00     0.000 HD 
HETATM    9  O3* UNL     1      -6.381   9.058  64.973  1.00  0.00    -0.064 OA 
HETATM   10  C3* UNL     1      -6.950   8.069  65.828  1.00  0.00    -0.060 C  
BRANCH   6  11
HETATM   11  N   UNL     1      -9.893   8.072  68.001  1.00  0.00    -0.161 N  
HETATM   12  C   UNL     1      -9.846   6.867  68.685  1.00  0.00    -0.145 C  
HETATM   13  C   UNL     1     -11.369   7.767  70.332  1.00  0.00    -0.207 C  
HETATM   14  C   UNL     1     -10.543   6.636  69.808  1.00  0.00    -0.270 C  
HETATM   15  O   UNL     1     -10.617  10.267  67.957  1.00  0.00    -0.198 OA 
HETATM   16  N   UNL     1     -11.302   8.940  69.640  1.00  0.00    -0.431 N  
HETATM   17  H   UNL     1     -11.825   9.730  70.017  1.00  0.00     0.000 HD 
HETATM   18  O   UNL     1     -12.073   7.657  71.334  1.00  0.00    -0.298 OA 
HETATM   19  C   UNL     1     -10.600   9.158  68.490  1.00  0.00    -0.169 C  
BRANCH  14  20
HETATM   20  C   UNL     1     -10.498   5.402  70.576  1.00  0.00    -0.335 C  
HETATM   21  C   UNL     1      -9.413   4.857  71.140  1.00  0.00    -0.157 C  
HETATM   22 BR   UNL     1      -9.440   3.251  72.071  1.00  0.00    -0.215 Br 
ENDBRANCH  14  20
ENDBRANCH   6  11
ENDBRANCH   3   4
TORSDOF 3
ENDMDL
MODEL      186
REMARK 921   NORMALIZED FREE ENERGY PREDICTED BY IDOCK:   -2.70 KCAL/MOL
REMARK 922        TOTAL FREE ENERGY PREDICTED BY IDOCK:   -3.78 KCAL/MOL
REMARK 923 INTER-LIGAND FREE ENERGY PREDICTED BY IDOCK:   -4.24 KCAL/MOL
REMARK 924 INTRA-LIGAND FREE ENERGY PREDICTED BY IDOCK:    0.46 KCAL/MOL
REMARK 927      BINDING AFFINITY PREDICTED BY RF-SCORE:    0.00 PKD
ROOT
HETATM    1  O5* UNL     1     -12.421   8.071  72.922  1.00  0.00    -0.602 OA 
HETATM    2  H5* UNL     1     -12.495   8.122  73.868  1.00  0.00     0.000 HD 
HETATM    3  C5* UNL     1     -11.479   7.072  72.529  1.00  0.00    -0.237 C  
ENDROOT
BRANCH   3   4
HETATM    4  C4* UNL     1     -11.359   6.990  71.009  1.00  0.00    -0.287 C  
HETATM    5  O4* UNL     1     -11.322   8.308  70.431  1.00  0.00    -0.254 OA 
HETATM    6  C1* UNL     1     -10.721   8.136  69.141  1.00  0.00    -0.102 C  
HETATM    7  C2* UNL     1      -9.644   7.071  69.312  1.00  0.00    -0.154 C  
HETATM    8  H3* UNL     1      -9.598   4.489  69.887  1.00  0.00     0.000 HD 
HETATM    9  O3* UNL     1     -10.385   4.929  70.185  1.00  0.00    -0.265 OA 
HETATM   10  C3* UNL     1     -10.094   6.282  70.528  1.00  0.00    -0.189 C  
BRANCH   6  11
HETATM   11  N   UNL     1     -10.218   9.401  68.622  1.00  0.00    -0.194 N  
HETATM   12  C   UNL     1     -10.643  10.616  69.139  1.00  0.00    -0.226 C  
HETATM   13  C   UNL     1      -9.232  11.764  67.547  1.00  0.00    -0.175 C  
HETATM   14  C   UNL     1     -10.227  11.799  68.663  1.00  0.00    -0.211 C  
HETATM   15  O   UNL     1      -8.795   8.280  67.187  1.00  0.00    -0.133 OA 
HETATM   16  N   UNL     1      -8.811  10.529  67.147  1.00  0.00    -0.136 N  
HETATM   17  H   UNL     1      -8.098  10.497  66.419  1.00  0.00     0.000 HD 
HETATM   18  O   UNL     1      -8.808  12.786  67.013  1.00  0.00    -0.206 OA 
HETATM   19  C   UNL     1      -9.254   9.331  67.630  1.00  0.00    -0.124 C  
BRANCH  14  20
HETATM   20  C   UNL     1     -10.619  13.095  69.195  1.00  0.00    -0.004 C  
HETATM   21  C   UNL     1     -11.870  13.507  69.437  1.00  0.00    -0.335 C  
HETATM   22 BR   UNL     1     -12.284  15.199  70.081  1.00  0.00    -0.402 Br 
ENDBRANCH  14  20
ENDBRANCH   6  11
ENDBRANCH   3   4
TORSDOF 3
ENDMDL
MODEL      187
REMARK 921   NORMALIZED FREE ENERGY PREDICTED BY IDOCK:   -2.62 KCAL/MOL
REMARK 922        TOTAL FREE ENERGY PREDICTED BY IDOCK:   -3.68 KCAL/MOL
REMARK 923 INTER-LIGAND FREE ENERGY PREDICTED BY IDOCK:   -4.05 KCAL/MOL
REMARK 924 INTRA-LIGAND FREE ENERGY PREDICTED BY IDOCK:    0.36 KCAL/MOL
REMARK 927      BINDING AFFINITY PREDICTED BY RF-SCORE:    0.00 PKD
ROOT
HETATM    1  O5* UNL     1      -8.122   5.652  74.399  1.00  0.00    -0.104 OA 
HETATM    2  H5* UNL     1      -7.365   5.645  74.973  1.00  0.00     0.000 HD 
HETATM    3  C5* UNL     1      -8.863   6.865  74.533  1.00  0.00    -0.192 C  
ENDROOT
BRANCH   3   4
HETATM    4  C4* UNL     1     -10.080   6.877  73.610  1.00  0.00    -0.318 C  
HETATM    5  O4* UNL     1      -9.868   7.771  72.503  1.00  0.00    -0.178 OA 
HETATM    6  C1* UNL     1     -10.787   7.340  71.490  1.00  0.00    -0.224 C  
HETATM    7  C2* UNL     1     -10.829   5.818  71.574  1.00  0.00    -0.316 C  
HETATM    8  H3* UNL     1     -11.650   4.034  73.346  1.00  0.00     0.000 HD 
HETATM    9  O3* UNL     1     -11.450   4.881  73.726  1.00  0.00    -0.198 OA 
HETATM   10  C3* UNL     1     -10.401   5.514  72.998  1.00  0.00    -0.202 C  
BRANCH   6  11
HETATM   11  N   UNL     1     -10.401   7.846  70.179  1.00  0.00    -0.211 N  
HETATM   12  C   UNL     1     -10.997   8.972  69.634  1.00  0.00    -0.136 C  
HETATM   13  C   UNL     1      -9.626   8.717  67.659  1.00  0.00    -0.155 C  
HETATM   14  C   UNL     1     -10.690   9.446  68.416  1.00  0.00    -0.213 C  
HETATM   15  O   UNL     1      -8.765   6.223  70.003  1.00  0.00    -0.138 OA 
HETATM   16  N   UNL     1      -9.040   7.664  68.298  1.00  0.00    -0.137 N  
HETATM   17  H   UNL     1      -8.281   7.191  67.808  1.00  0.00     0.000 HD 
HETATM   18  O   UNL     1      -9.289   9.042  66.524  1.00  0.00    -0.163 OA 
HETATM   19  C   UNL     1      -9.372   7.183  69.532  1.00  0.00    -0.148 C  
BRANCH  14  20
HETATM   20  C   UNL     1     -11.265  10.641  67.819  1.00  0.00    -0.383 C  
HETATM   21  C   UNL     1     -10.984  11.907  68.150  1.00  0.00    -0.227 C  
HETATM   22 BR   UNL     1     -11.799  13.377  67.360  1.00  0.00    -0.407 Br 
ENDBRANCH  14  20
ENDBRANCH   6  11
ENDBRANCH   3   4
TORSDOF 3
ENDMDL
MODEL      188
REMARK 921   NORMALIZED FREE ENERGY PREDICTED BY IDOCK:   -2.58 KCAL/MOL
REMARK 922        TOTAL FREE ENERGY PREDICTED BY IDOCK:   -3.64 KCAL/MOL
REMARK 923 INTER-LIGAND FREE ENERGY PREDICTED BY IDOCK:   -3.72 KCAL/MOL
REMARK 924 INTRA-LIGAND FREE ENERGY PREDICTED BY IDOCK:    0.07 KCAL/MOL
REMARK 927      BINDING AFFINITY PREDICTED BY RF-SCORE:    0.00 PKD
ROOT
HETATM    1  O5* UNL     1      -9.911   7.120  74.265  1.00  0.00    -0.412 OA 
HETATM    2  H5* UNL     1     -10.031   6.297  74.724  1.00  0.00     0.000 HD 
HETATM    3  C5* UNL     1     -10.874   7.279  73.222  1.00  0.00    -0.358 C  
ENDROOT
BRANCH   3   4
HETATM    4  C4* UNL     1     -10.680   8.601  72.483  1.00  0.00    -0.144 C  
HETATM    5  O4* UNL     1      -9.457   8.583  71.725  1.00  0.00    -0.206 OA 
HETATM    6  C1* UNL     1      -9.622   9.596  70.724  1.00  0.00    -0.087 C  
HETATM    7  C2* UNL     1     -11.084   9.538  70.296  1.00  0.00    -0.317 C  
HETATM    8  H3* UNL     1     -13.420  10.023  71.439  1.00  0.00     0.000 HD 
HETATM    9  O3* UNL     1     -12.728   9.827  72.059  1.00  0.00    -0.388 OA 
HETATM   10  C3* UNL     1     -11.793   8.917  71.485  1.00  0.00    -0.332 C  
BRANCH   6  11
HETATM   11  N   UNL     1      -8.681   9.410  69.626  1.00  0.00    -0.152 N  
HETATM   12  C   UNL     1      -9.079   9.532  68.304  1.00  0.00    -0.127 C  
HETATM   13  C   UNL     1      -6.827   9.003  67.600  1.00  0.00    -0.070 C  
HETATM   14  C   UNL     1      -8.247   9.334  67.269  1.00  0.00    -0.121 C  
HETATM   15  O   UNL     1      -6.946   9.115  71.125  1.00  0.00    -0.095 OA 
HETATM   16  N   UNL     1      -6.503   8.975  68.925  1.00  0.00    -0.048 N  
HETATM   17  H   UNL     1      -5.526   8.796  69.157  1.00  0.00     0.000 HD 
HETATM   18  O   UNL     1      -5.989   8.769  66.733  1.00  0.00    -0.054 OA 
HETATM   19  C   UNL     1      -7.362   9.164  69.969  1.00  0.00    -0.070 C  
BRANCH  14  20
HETATM   20  C   UNL     1      -8.612   9.483  65.869  1.00  0.00    -0.144 C  
HETATM   21  C   UNL     1      -9.206  10.546  65.313  1.00  0.00    -0.200 C  
HETATM   22 BR   UNL     1      -9.675  10.635  63.518  1.00  0.00    -0.392 Br 
ENDBRANCH  14  20
ENDBRANCH   6  11
ENDBRANCH   3   4
TORSDOF 3
ENDMDL
MODEL      189
REMARK 921   NORMALIZED FREE ENERGY PREDICTED BY IDOCK:   -2.57 KCAL/MOL
REMARK 922        TOTAL FREE ENERGY PREDICTED BY IDOCK:   -3.64 KCAL/MOL
REMARK 923 INTER-LIGAND FREE ENERGY PREDICTED BY IDOCK:   -3.22 KCAL/MOL
REMARK 924 INTRA-LIGAND FREE ENERGY PREDICTED BY IDOCK:   -0.41 KCAL/MOL
REMARK 927      BINDING AFFINITY PREDICTED BY RF-SCORE:    0.00 PKD
ROOT
HETATM    1  O5* UNL     1     -10.170   3.949  65.889  1.00  0.00    -0.420 OA 
HETATM    2  H5* UNL     1     -10.477   3.497  65.112  1.00  0.00     0.000 HD 
HETATM    3  C5* UNL     1      -8.884   3.476  66.291  1.00  0.00    -0.131 C  
ENDROOT
BRANCH   3   4
HETATM    4  C4* UNL     1      -8.391   4.202  67.541  1.00  0.00    -0.098 C  
HETATM    5  O4* UNL     1      -8.042   5.564  67.232  1.00  0.00    -0.101 OA 
HETATM    6  C1* UNL     1      -8.089   6.258  68.485  1.00  0.00    -0.109 C  
HETATM    7  C2* UNL     1      -9.259   5.659  69.259  1.00  0.00    -0.139 C  
HETATM    8  H3* UNL     1      -9.827   3.306  70.325  1.00  0.00     0.000 HD 
HETATM    9  O3* UNL     1      -9.182   3.260  69.630  1.00  0.00    -0.123 OA 
HETATM   10  C3* UNL     1      -9.429   4.275  68.659  1.00  0.00    -0.157 C  
BRANCH   6  11
HETATM   11  N   UNL     1      -8.192   7.698  68.286  1.00  0.00    -0.124 N  
HETATM   12  C   UNL     1      -9.018   8.236  67.311  1.00  0.00    -0.137 C  
HETATM   13  C   UNL     1      -8.299  10.452  67.956  1.00  0.00    -0.118 C  
HETATM   14  C   UNL     1      -9.111   9.555  67.079  1.00  0.00    -0.154 C  
HETATM   15  O   UNL     1      -6.783   8.076  70.079  1.00  0.00    -0.040 OA 
HETATM   16  N   UNL     1      -7.572   9.846  68.938  1.00  0.00    -0.079 N  
HETATM   17  H   UNL     1      -7.052  10.454  69.571  1.00  0.00     0.000 HD 
HETATM   18  O   UNL     1      -8.283  11.672  67.811  1.00  0.00    -0.129 OA 
HETATM   19  C   UNL     1      -7.473   8.502  69.155  1.00  0.00    -0.088 C  
BRANCH  14  20
HETATM   20  C   UNL     1      -9.987  10.165  66.090  1.00  0.00    -0.310 C  
HETATM   21  C   UNL     1      -9.611  10.715  64.930  1.00  0.00    -0.269 C  
HETATM   22 BR   UNL     1     -10.797  11.511  63.742  1.00  0.00    -0.497 Br 
ENDBRANCH  14  20
ENDBRANCH   6  11
ENDBRANCH   3   4
TORSDOF 3
ENDMDL
MODEL      190
REMARK 921   NORMALIZED FREE ENERGY PREDICTED BY IDOCK:   -2.57 KCAL/MOL
REMARK 922        TOTAL FREE ENERGY PREDICTED BY IDOCK:   -3.63 KCAL/MOL
REMARK 923 INTER-LIGAND FREE ENERGY PREDICTED BY IDOCK:   -3.13 KCAL/MOL
REMARK 924 INTRA-LIGAND FREE ENERGY PREDICTED BY IDOCK:   -0.50 KCAL/MOL
REMARK 927      BINDING AFFINITY PREDICTED BY RF-SCORE:    0.00 PKD
ROOT
HETATM    1  O5* UNL     1      -7.364   9.817  67.784  1.00  0.00    -0.088 OA 
HETATM    2  H5* UNL     1      -6.596  10.373  67.845  1.00  0.00     0.000 HD 
HETATM    3  C5* UNL     1      -8.275  10.297  66.795  1.00  0.00    -0.124 C  
ENDROOT
BRANCH   3   4
HETATM    4  C4* UNL     1      -9.510   9.404  66.697  1.00  0.00    -0.177 C  
HETATM    5  O4* UNL     1      -9.138   8.015  66.765  1.00  0.00    -0.140 OA 
HETATM    6  C1* UNL     1     -10.329   7.326  67.166  1.00  0.00    -0.297 C  
HETATM    7  C2* UNL     1     -11.032   8.239  68.165  1.00  0.00     0.149 C  
HETATM    8  H3* UNL     1     -12.207  10.607  68.075  1.00  0.00     0.000 HD 
HETATM    9  O3* UNL     1     -11.579  10.470  67.375  1.00  0.00    -0.383 OA 
HETATM   10  C3* UNL     1     -10.520   9.626  67.822  1.00  0.00    -0.256 C  
BRANCH   6  11
HETATM   11  N   UNL     1     -10.019   6.004  67.696  1.00  0.00    -0.126 N  
HETATM   12  C   UNL     1      -9.708   5.816  69.034  1.00  0.00    -0.140 C  
HETATM   13  C   UNL     1      -9.409   3.455  68.612  1.00  0.00    -0.167 C  
HETATM   14  C   UNL     1      -9.385   4.619  69.549  1.00  0.00    -0.208 C  
HETATM   15  O   UNL     1     -10.447   5.046  65.637  1.00  0.00    -0.141 OA 
HETATM   16  N   UNL     1      -9.797   3.715  67.330  1.00  0.00    -0.276 N  
HETATM   17  H   UNL     1      -9.860   2.918  66.696  1.00  0.00     0.000 HD 
HETATM   18  O   UNL     1      -9.099   2.320  68.966  1.00  0.00    -0.100 OA 
HETATM   19  C   UNL     1     -10.108   4.940  66.815  1.00  0.00    -0.238 C  
BRANCH  14  20
HETATM   20  C   UNL     1      -9.085   4.370  70.950  1.00  0.00    -0.186 C  
HETATM   21  C   UNL     1      -8.560   5.245  71.816  1.00  0.00    -0.130 C  
HETATM   22 BR   UNL     1      -8.170   4.828  73.584  1.00  0.00    -0.106 Br 
ENDBRANCH  14  20
ENDBRANCH   6  11
ENDBRANCH   3   4
TORSDOF 3
ENDMDL
MODEL      191
REMARK 921   NORMALIZED FREE ENERGY PREDICTED BY IDOCK:   -2.56 KCAL/MOL
REMARK 922        TOTAL FREE ENERGY PREDICTED BY IDOCK:   -3.62 KCAL/MOL
REMARK 923 INTER-LIGAND FREE ENERGY PREDICTED BY IDOCK:   -3.23 KCAL/MOL
REMARK 924 INTRA-LIGAND FREE ENERGY PREDICTED BY IDOCK:   -0.39 KCAL/MOL
REMARK 927      BINDING AFFINITY PREDICTED BY RF-SCORE:    0.00 PKD
ROOT
HETATM    1  O5* UNL     1      -6.042   3.764  68.830  1.00  0.00    -0.026 OA 
HETATM    2  H5* UNL     1      -5.122   3.571  68.967  1.00  0.00     0.000 HD 
HETATM    3  C5* UNL     1      -6.865   2.660  69.210  1.00  0.00    -0.033 C  
ENDROOT
BRANCH   3   4
HETATM    4  C4* UNL     1      -8.345   2.968  68.990  1.00  0.00    -0.060 C  
HETATM    5  O4* UNL     1      -8.780   4.019  69.872  1.00  0.00    -0.066 OA 
HETATM    6  C1* UNL     1      -9.961   4.556  69.262  1.00  0.00    -0.122 C  
HETATM    7  C2* UNL     1      -9.713   4.529  67.758  1.00  0.00    -0.199 C  
HETATM    8  H3* UNL     1      -9.386   2.657  65.918  1.00  0.00     0.000 HD 
HETATM    9  O3* UNL     1      -9.183   2.363  66.798  1.00  0.00    -0.125 OA 
HETATM   10  C3* UNL     1      -8.670   3.442  67.574  1.00  0.00    -0.116 C  
BRANCH   6  11
HETATM   11  N   UNL     1     -10.267   5.882  69.783  1.00  0.00    -0.198 N  
HETATM   12  C   UNL     1     -10.105   7.019  69.007  1.00  0.00    -0.180 C  
HETATM   13  C   UNL     1     -10.841   8.371  70.871  1.00  0.00    -0.231 C  
HETATM   14  C   UNL     1     -10.345   8.258  69.465  1.00  0.00    -0.219 C  
HETATM   15  O   UNL     1     -11.008   4.963  71.770  1.00  0.00    -0.039 OA 
HETATM   16  N   UNL     1     -11.043   7.199  71.540  1.00  0.00    -0.236 N  
HETATM   17  H   UNL     1     -11.425   7.266  72.484  1.00  0.00     0.000 HD 
HETATM   18  O   UNL     1     -11.061   9.456  71.404  1.00  0.00    -0.335 OA 
HETATM   19  C   UNL     1     -10.781   5.946  71.068  1.00  0.00    -0.267 C  
BRANCH  14  20
HETATM   20  C   UNL     1     -10.221   9.475  68.678  1.00  0.00    -0.215 C  
HETATM   21  C   UNL     1     -10.603   9.638  67.406  1.00  0.00    -0.268 C  
HETATM   22 BR   UNL     1     -10.369  11.221  66.462  1.00  0.00    -0.295 Br 
ENDBRANCH  14  20
ENDBRANCH   6  11
ENDBRANCH   3   4
TORSDOF 3
ENDMDL
MODEL      192
REMARK 921   NORMALIZED FREE ENERGY PREDICTED BY IDOCK:   -2.55 KCAL/MOL
REMARK 922        TOTAL FREE ENERGY PREDICTED BY IDOCK:   -3.61 KCAL/MOL
REMARK 923 INTER-LIGAND FREE ENERGY PREDICTED BY IDOCK:   -4.49 KCAL/MOL
REMARK 924 INTRA-LIGAND FREE ENERGY PREDICTED BY IDOCK:    0.88 KCAL/MOL
REMARK 927      BINDING AFFINITY PREDICTED BY RF-SCORE:    0.00 PKD
ROOT
HETATM    1  O5* UNL     1     -10.798  12.172  69.608  1.00  0.00    -0.450 OA 
HETATM    2  H5* UNL     1     -10.771  11.517  70.296  1.00  0.00     0.000 HD 
HETATM    3  C5* UNL     1     -11.895  13.068  69.788  1.00  0.00    -0.311 C  
ENDROOT
BRANCH   3   4
HETATM    4  C4* UNL     1     -11.939  14.120  68.682  1.00  0.00    -0.338 C  
HETATM    5  O4* UNL     1     -10.880  15.080  68.853  1.00  0.00    -0.226 OA 
HETATM    6  C1* UNL     1     -10.701  15.676  67.561  1.00  0.00    -0.303 C  
HETATM    7  C2* UNL     1     -10.904  14.557  66.545  1.00  0.00    -0.314 C  
HETATM    8  H3* UNL     1     -12.926  13.037  65.772  1.00  0.00     0.000 HD 
HETATM    9  O3* UNL     1     -13.034  13.394  66.645  1.00  0.00     0.128 OA 
HETATM   10  C3* UNL     1     -11.765  13.545  67.278  1.00  0.00    -0.383 C  
BRANCH   6  11
HETATM   11  N   UNL     1      -9.403  16.332  67.460  1.00  0.00    -0.217 N  
HETATM   12  C   UNL     1      -8.730  16.782  68.585  1.00  0.00    -0.255 C  
HETATM   13  C   UNL     1      -6.952  17.602  67.168  1.00  0.00    -0.166 C  
HETATM   14  C   UNL     1      -7.551  17.420  68.526  1.00  0.00    -0.254 C  
HETATM   15  O   UNL     1      -9.375  15.986  65.175  1.00  0.00    -0.116 OA 
HETATM   16  N   UNL     1      -7.643  17.065  66.122  1.00  0.00    -0.301 N  
HETATM   17  H   UNL     1      -7.218  17.144  65.198  1.00  0.00     0.000 HD 
HETATM   18  O   UNL     1      -5.893  18.201  66.992  1.00  0.00    -0.138 OA 
HETATM   19  C   UNL     1      -8.850  16.431  66.194  1.00  0.00    -0.314 C  
BRANCH  14  20
HETATM   20  C   UNL     1      -6.795  17.880  69.680  1.00  0.00     0.069 C  
HETATM   21  C   UNL     1      -6.265  19.097  69.848  1.00  0.00    -0.220 C  
HETATM   22 BR   UNL     1      -5.276  19.587  71.341  1.00  0.00    -0.384 Br 
ENDBRANCH  14  20
ENDBRANCH   6  11
ENDBRANCH   3   4
TORSDOF 3
ENDMDL
MODEL      193
REMARK 921   NORMALIZED FREE ENERGY PREDICTED BY IDOCK:   -2.50 KCAL/MOL
REMARK 922        TOTAL FREE ENERGY PREDICTED BY IDOCK:   -3.55 KCAL/MOL
REMARK 923 INTER-LIGAND FREE ENERGY PREDICTED BY IDOCK:   -4.09 KCAL/MOL
REMARK 924 INTRA-LIGAND FREE ENERGY PREDICTED BY IDOCK:    0.54 KCAL/MOL
REMARK 927      BINDING AFFINITY PREDICTED BY RF-SCORE:    0.00 PKD
ROOT
HETATM    1  O5* UNL     1      -8.749   8.325  70.272  1.00  0.00    -0.134 OA 
HETATM    2  H5* UNL     1      -8.986   7.842  71.055  1.00  0.00     0.000 HD 
HETATM    3  C5* UNL     1      -9.490   9.542  70.169  1.00  0.00    -0.246 C  
ENDROOT
BRANCH   3   4
HETATM    4  C4* UNL     1      -9.110  10.319  68.911  1.00  0.00    -0.168 C  
HETATM    5  O4* UNL     1      -9.882  11.529  68.809  1.00  0.00    -0.201 OA 
HETATM    6  C1* UNL     1      -9.131  12.382  67.936  1.00  0.00    -0.191 C  
HETATM    7  C2* UNL     1      -7.662  12.139  68.265  1.00  0.00    -0.135 C  
HETATM    8  H3* UNL     1      -5.975  10.113  68.046  1.00  0.00     0.000 HD 
HETATM    9  O3* UNL     1      -6.886   9.846  68.070  1.00  0.00    -0.070 OA 
HETATM   10  C3* UNL     1      -7.644  10.748  68.872  1.00  0.00    -0.121 C  
BRANCH   6  11
HETATM   11  N   UNL     1      -9.542  13.773  68.078  1.00  0.00    -0.208 N  
HETATM   12  C   UNL     1      -8.842  14.800  67.463  1.00  0.00    -0.190 C  
HETATM   13  C   UNL     1     -10.377  16.397  68.431  1.00  0.00    -0.282 C  
HETATM   14  C   UNL     1      -9.172  16.094  67.599  1.00  0.00    -0.205 C  
HETATM   15  O   UNL     1     -11.389  13.133  69.310  1.00  0.00    -0.266 OA 
HETATM   16  N   UNL     1     -11.051  15.325  68.938  1.00  0.00    -0.251 N  
HETATM   17  H   UNL     1     -11.900  15.521  69.468  1.00  0.00     0.000 HD 
HETATM   18  O   UNL     1     -10.751  17.547  68.650  1.00  0.00    -0.318 OA 
HETATM   19  C   UNL     1     -10.696  14.014  68.805  1.00  0.00    -0.259 C  
BRANCH  14  20
HETATM   20  C   UNL     1      -8.489  17.200  66.947  1.00  0.00    -0.249 C  
HETATM   21  C   UNL     1      -7.357  17.125  66.238  1.00  0.00    -0.291 C  
HETATM   22 BR   UNL     1      -6.528  18.600  65.471  1.00  0.00    -0.306 Br 
ENDBRANCH  14  20
ENDBRANCH   6  11
ENDBRANCH   3   4
TORSDOF 3
ENDMDL
MODEL      194
REMARK 921   NORMALIZED FREE ENERGY PREDICTED BY IDOCK:   -2.48 KCAL/MOL
REMARK 922        TOTAL FREE ENERGY PREDICTED BY IDOCK:   -3.52 KCAL/MOL
REMARK 923 INTER-LIGAND FREE ENERGY PREDICTED BY IDOCK:   -3.13 KCAL/MOL
REMARK 924 INTRA-LIGAND FREE ENERGY PREDICTED BY IDOCK:   -0.39 KCAL/MOL
REMARK 927      BINDING AFFINITY PREDICTED BY RF-SCORE:    0.00 PKD
ROOT
HETATM    1  O5* UNL     1      -9.709   4.790  64.305  1.00  0.00    -0.358 OA 
HETATM    2  H5* UNL     1     -10.155   4.140  63.776  1.00  0.00     0.000 HD 
HETATM    3  C5* UNL     1      -8.337   4.445  64.503  1.00  0.00    -0.111 C  
ENDROOT
BRANCH   3   4
HETATM    4  C4* UNL     1      -7.619   5.491  65.355  1.00  0.00    -0.079 C  
HETATM    5  O4* UNL     1      -8.310   6.752  65.298  1.00  0.00    -0.139 OA 
HETATM    6  C1* UNL     1      -7.883   7.467  66.464  1.00  0.00    -0.102 C  
HETATM    7  C2* UNL     1      -7.751   6.430  67.575  1.00  0.00    -0.101 C  
HETATM    8  H3* UNL     1      -6.196   4.345  68.053  1.00  0.00     0.000 HD 
HETATM    9  O3* UNL     1      -6.251   4.573  67.133  1.00  0.00    -0.033 OA 
HETATM   10  C3* UNL     1      -7.532   5.123  66.835  1.00  0.00    -0.087 C  
BRANCH   6  11
HETATM   11  N   UNL     1      -8.801   8.554  66.782  1.00  0.00    -0.135 N  
HETATM   12  C   UNL     1      -9.639   8.494  67.885  1.00  0.00    -0.152 C  
HETATM   13  C   UNL     1     -10.543  10.655  67.289  1.00  0.00    -0.263 C  
HETATM   14  C   UNL     1     -10.520   9.460  68.188  1.00  0.00    -0.267 C  
HETATM   15  O   UNL     1      -7.982   9.801  65.016  1.00  0.00    -0.119 OA 
HETATM   16  N   UNL     1      -9.636  10.667  66.270  1.00  0.00    -0.179 N  
HETATM   17  H   UNL     1      -9.614  11.500  65.681  1.00  0.00     0.000 HD 
HETATM   18  O   UNL     1     -11.331  11.584  67.452  1.00  0.00    -0.292 OA 
HETATM   19  C   UNL     1      -8.755   9.671  65.964  1.00  0.00    -0.138 C  
BRANCH  14  20
HETATM   20  C   UNL     1     -11.393   9.455  69.351  1.00  0.00     0.078 C  
HETATM   21  C   UNL     1     -11.007   9.481  70.632  1.00  0.00    -0.306 C  
HETATM   22 BR   UNL     1     -12.194   9.431  72.060  1.00  0.00    -0.350 Br 
ENDBRANCH  14  20
ENDBRANCH   6  11
ENDBRANCH   3   4
TORSDOF 3
ENDMDL
MODEL      195
REMARK 921   NORMALIZED FREE ENERGY PREDICTED BY IDOCK:   -2.47 KCAL/MOL
REMARK 922        TOTAL FREE ENERGY PREDICTED BY IDOCK:   -3.52 KCAL/MOL
REMARK 923 INTER-LIGAND FREE ENERGY PREDICTED BY IDOCK:   -3.06 KCAL/MOL
REMARK 924 INTRA-LIGAND FREE ENERGY PREDICTED BY IDOCK:   -0.46 KCAL/MOL
REMARK 927      BINDING AFFINITY PREDICTED BY RF-SCORE:    0.00 PKD
ROOT
HETATM    1  O5* UNL     1      -9.288   1.918  67.827  1.00  0.00    -0.224 OA 
HETATM    2  H5* UNL     1      -9.820   1.229  68.208  1.00  0.00     0.000 HD 
HETATM    3  C5* UNL     1      -8.271   2.348  68.732  1.00  0.00    -0.055 C  
ENDROOT
BRANCH   3   4
HETATM    4  C4* UNL     1      -7.415   3.455  68.120  1.00  0.00    -0.054 C  
HETATM    5  O4* UNL     1      -8.238   4.395  67.404  1.00  0.00    -0.100 OA 
HETATM    6  C1* UNL     1      -7.455   5.593  67.320  1.00  0.00    -0.084 C  
HETATM    7  C2* UNL     1      -6.701   5.701  68.642  1.00  0.00    -0.057 C  
HETATM    8  H3* UNL     1      -4.806   4.323  69.868  1.00  0.00     0.000 HD 
HETATM    9  O3* UNL     1      -5.290   3.815  69.228  1.00  0.00    -0.011 OA 
HETATM   10  C3* UNL     1      -6.637   4.273  69.150  1.00  0.00    -0.041 C  
BRANCH   6  11
HETATM   11  N   UNL     1      -8.291   6.749  67.025  1.00  0.00    -0.113 N  
HETATM   12  C   UNL     1      -8.996   7.406  68.021  1.00  0.00    -0.132 C  
HETATM   13  C   UNL     1      -9.887   8.923  66.363  1.00  0.00    -0.283 C  
HETATM   14  C   UNL     1      -9.801   8.453  67.780  1.00  0.00    -0.218 C  
HETATM   15  O   UNL     1      -7.640   6.690  64.808  1.00  0.00    -0.088 OA 
HETATM   16  N   UNL     1      -9.104   8.268  65.457  1.00  0.00    -0.395 N  
HETATM   17  H   UNL     1      -9.121   8.612  64.497  1.00  0.00     0.000 HD 
HETATM   18  O   UNL     1     -10.617   9.850  66.022  1.00  0.00    -0.102 OA 
HETATM   19  C   UNL     1      -8.301   7.195  65.713  1.00  0.00    -0.143 C  
BRANCH  14  20
HETATM   20  C   UNL     1     -10.532   9.192  68.797  1.00  0.00    -0.236 C  
HETATM   21  C   UNL     1     -10.866   8.747  70.014  1.00  0.00    -0.223 C  
HETATM   22 BR   UNL     1     -11.840   9.748  71.239  1.00  0.00    -0.500 Br 
ENDBRANCH  14  20
ENDBRANCH   6  11
ENDBRANCH   3   4
TORSDOF 3
ENDMDL
MODEL      196
REMARK 921   NORMALIZED FREE ENERGY PREDICTED BY IDOCK:   -2.45 KCAL/MOL
REMARK 922        TOTAL FREE ENERGY PREDICTED BY IDOCK:   -3.49 KCAL/MOL
REMARK 923 INTER-LIGAND FREE ENERGY PREDICTED BY IDOCK:   -3.82 KCAL/MOL
REMARK 924 INTRA-LIGAND FREE ENERGY PREDICTED BY IDOCK:    0.32 KCAL/MOL
REMARK 927      BINDING AFFINITY PREDICTED BY RF-SCORE:    0.00 PKD
ROOT
HETATM    1  O5* UNL     1     -10.673   6.854  69.137  1.00  0.00    -0.219 OA 
HETATM    2  H5* UNL     1     -11.169   6.054  69.267  1.00  0.00     0.000 HD 
HETATM    3  C5* UNL     1      -9.271   6.591  69.066  1.00  0.00    -0.130 C  
ENDROOT
BRANCH   3   4
HETATM    4  C4* UNL     1      -8.475   7.877  68.857  1.00  0.00    -0.128 C  
HETATM    5  O4* UNL     1      -9.162   8.758  67.950  1.00  0.00    -0.138 OA 
HETATM    6  C1* UNL     1      -8.627  10.061  68.214  1.00  0.00    -0.115 C  
HETATM    7  C2* UNL     1      -8.400  10.130  69.720  1.00  0.00    -0.154 C  
HETATM    8  H3* UNL     1      -6.817   8.922  71.460  1.00  0.00     0.000 HD 
HETATM    9  O3* UNL     1      -6.954   8.423  70.664  1.00  0.00    -0.037 OA 
HETATM   10  C3* UNL     1      -8.254   8.679  70.139  1.00  0.00    -0.123 C  
BRANCH   6  11
HETATM   11  N   UNL     1      -9.509  11.105  67.704  1.00  0.00    -0.164 N  
HETATM   12  C   UNL     1      -9.035  12.376  67.419  1.00  0.00    -0.185 C  
HETATM   13  C   UNL     1     -11.267  13.039  66.770  1.00  0.00    -0.298 C  
HETATM   14  C   UNL     1      -9.824  13.369  66.981  1.00  0.00    -0.250 C  
HETATM   15  O   UNL     1     -11.277   9.618  67.634  1.00  0.00    -0.132 OA 
HETATM   16  N   UNL     1     -11.635  11.747  67.004  1.00  0.00    -0.293 N  
HETATM   17  H   UNL     1     -12.608  11.502  66.817  1.00  0.00     0.000 HD 
HETATM   18  O   UNL     1     -12.085  13.879  66.404  1.00  0.00    -0.414 OA 
HETATM   19  C   UNL     1     -10.825  10.749  67.464  1.00  0.00    -0.288 C  
BRANCH  14  20
HETATM   20  C   UNL     1      -9.365  14.706  66.638  1.00  0.00    -0.293 C  
HETATM   21  C   UNL     1      -9.105  15.700  67.497  1.00  0.00    -0.193 C  
HETATM   22 BR   UNL     1      -8.560  17.395  66.967  1.00  0.00    -0.263 Br 
ENDBRANCH  14  20
ENDBRANCH   6  11
ENDBRANCH   3   4
TORSDOF 3
ENDMDL
MODEL      197
REMARK 921   NORMALIZED FREE ENERGY PREDICTED BY IDOCK:   -2.43 KCAL/MOL
REMARK 922        TOTAL FREE ENERGY PREDICTED BY IDOCK:   -3.46 KCAL/MOL
REMARK 923 INTER-LIGAND FREE ENERGY PREDICTED BY IDOCK:   -3.04 KCAL/MOL
REMARK 924 INTRA-LIGAND FREE ENERGY PREDICTED BY IDOCK:   -0.42 KCAL/MOL
REMARK 927      BINDING AFFINITY PREDICTED BY RF-SCORE:    0.00 PKD
ROOT
HETATM    1  O5* UNL     1      -5.716   3.406  68.531  1.00  0.00    -0.021 OA 
HETATM    2  H5* UNL     1      -4.775   3.306  68.453  1.00  0.00     0.000 HD 
HETATM    3  C5* UNL     1      -6.363   2.141  68.679  1.00  0.00    -0.029 C  
ENDROOT
BRANCH   3   4
HETATM    4  C4* UNL     1      -7.876   2.303  68.805  1.00  0.00    -0.052 C  
HETATM    5  O4* UNL     1      -8.221   2.876  70.079  1.00  0.00    -0.044 OA 
HETATM    6  C1* UNL     1      -9.529   3.434  69.898  1.00  0.00    -0.166 C  
HETATM    7  C2* UNL     1      -9.556   4.007  68.486  1.00  0.00    -0.184 C  
HETATM    8  H3* UNL     1      -9.430   3.026  66.033  1.00  0.00     0.000 HD 
HETATM    9  O3* UNL     1      -9.050   2.454  66.689  1.00  0.00    -0.136 OA 
HETATM   10  C3* UNL     1      -8.486   3.223  67.748  1.00  0.00    -0.088 C  
BRANCH   6  11
HETATM   11  N   UNL     1      -9.832   4.412  70.935  1.00  0.00    -0.196 N  
HETATM   12  C   UNL     1      -9.834   5.773  70.668  1.00  0.00    -0.187 C  
HETATM   13  C   UNL     1     -10.387   6.206  72.981  1.00  0.00    -0.206 C  
HETATM   14  C   UNL     1     -10.076   6.702  71.605  1.00  0.00    -0.201 C  
HETATM   15  O   UNL     1     -10.256   2.719  72.450  1.00  0.00    -0.163 OA 
HETATM   16  N   UNL     1     -10.437   4.852  73.141  1.00  0.00    -0.185 N  
HETATM   17  H   UNL     1     -10.696   4.505  74.065  1.00  0.00     0.000 HD 
HETATM   18  O   UNL     1     -10.592   6.967  73.923  1.00  0.00    -0.371 OA 
HETATM   19  C   UNL     1     -10.175   3.917  72.182  1.00  0.00    -0.126 C  
BRANCH  14  20
HETATM   20  C   UNL     1     -10.120   8.136  71.363  1.00  0.00    -0.248 C  
HETATM   21  C   UNL     1     -10.701   8.747  70.324  1.00  0.00    -0.227 C  
HETATM   22 BR   UNL     1     -10.675  10.587  70.072  1.00  0.00    -0.216 Br 
ENDBRANCH  14  20
ENDBRANCH   6  11
ENDBRANCH   3   4
TORSDOF 3
ENDMDL
MODEL      198
REMARK 921   NORMALIZED FREE ENERGY PREDICTED BY IDOCK:   -2.41 KCAL/MOL
REMARK 922        TOTAL FREE ENERGY PREDICTED BY IDOCK:   -3.44 KCAL/MOL
REMARK 923 INTER-LIGAND FREE ENERGY PREDICTED BY IDOCK:   -3.75 KCAL/MOL
REMARK 924 INTRA-LIGAND FREE ENERGY PREDICTED BY IDOCK:    0.30 KCAL/MOL
REMARK 927      BINDING AFFINITY PREDICTED BY RF-SCORE:    0.00 PKD
ROOT
HETATM    1  O5* UNL     1     -10.957   6.778  69.960  1.00  0.00    -0.256 OA 
HETATM    2  H5* UNL     1     -10.727   6.178  70.660  1.00  0.00     0.000 HD 
HETATM    3  C5* UNL     1     -10.331   8.049  70.140  1.00  0.00    -0.215 C  
ENDROOT
BRANCH   3   4
HETATM    4  C4* UNL     1     -10.701   9.014  69.015  1.00  0.00    -0.141 C  
HETATM    5  O4* UNL     1     -10.358  10.365  69.373  1.00  0.00    -0.213 OA 
HETATM    6  C1* UNL     1     -10.268  11.072  68.129  1.00  0.00    -0.182 C  
HETATM    7  C2* UNL     1      -9.652  10.098  67.130  1.00  0.00    -0.202 C  
HETATM    8  H3* UNL     1     -10.381   7.820  66.000  1.00  0.00     0.000 HD 
HETATM    9  O3* UNL     1     -10.829   7.997  66.819  1.00  0.00    -0.214 OA 
HETATM   10  C3* UNL     1      -9.980   8.729  67.699  1.00  0.00    -0.193 C  
BRANCH   6  11
HETATM   11  N   UNL     1      -9.515  12.311  68.281  1.00  0.00    -0.214 N  
HETATM   12  C   UNL     1     -10.135  13.548  68.196  1.00  0.00    -0.250 C  
HETATM   13  C   UNL     1      -7.997  14.620  68.549  1.00  0.00    -0.136 C  
HETATM   14  C   UNL     1      -9.468  14.709  68.297  1.00  0.00    -0.211 C  
HETATM   15  O   UNL     1      -7.586  11.119  68.726  1.00  0.00    -0.113 OA 
HETATM   16  N   UNL     1      -7.480  13.365  68.692  1.00  0.00    -0.134 N  
HETATM   17  H   UNL     1      -6.486  13.297  68.910  1.00  0.00     0.000 HD 
HETATM   18  O   UNL     1      -7.282  15.616  68.626  1.00  0.00    -0.120 OA 
HETATM   19  C   UNL     1      -8.167  12.192  68.572  1.00  0.00    -0.104 C  
BRANCH  14  20
HETATM   20  C   UNL     1     -10.080  16.027  68.248  1.00  0.00    -0.229 C  
HETATM   21  C   UNL     1      -9.993  16.904  67.241  1.00  0.00    -0.277 C  
HETATM   22 BR   UNL     1     -10.776  18.589  67.279  1.00  0.00    -0.344 Br 
ENDBRANCH  14  20
ENDBRANCH   6  11
ENDBRANCH   3   4
TORSDOF 3
ENDMDL
MODEL      199
REMARK 921   NORMALIZED FREE ENERGY PREDICTED BY IDOCK:   -2.36 KCAL/MOL
REMARK 922        TOTAL FREE ENERGY PREDICTED BY IDOCK:   -3.38 KCAL/MOL
REMARK 923 INTER-LIGAND FREE ENERGY PREDICTED BY IDOCK:   -2.94 KCAL/MOL
REMARK 924 INTRA-LIGAND FREE ENERGY PREDICTED BY IDOCK:   -0.44 KCAL/MOL
REMARK 927      BINDING AFFINITY PREDICTED BY RF-SCORE:    0.00 PKD
ROOT
HETATM    1  O5* UNL     1      -5.842  10.738  66.366  1.00  0.00    -0.081 OA 
HETATM    2  H5* UNL     1      -5.160  11.397  66.423  1.00  0.00     0.000 HD 
HETATM    3  C5* UNL     1      -6.187  10.466  65.007  1.00  0.00    -0.105 C  
ENDROOT
BRANCH   3   4
HETATM    4  C4* UNL     1      -7.283   9.407  64.914  1.00  0.00    -0.106 C  
HETATM    5  O4* UNL     1      -7.101   8.398  65.925  1.00  0.00    -0.070 OA 
HETATM    6  C1* UNL     1      -8.386   7.782  66.077  1.00  0.00    -0.133 C  
HETATM    7  C2* UNL     1      -9.413   8.899  65.931  1.00  0.00    -0.303 C  
HETATM    8  H3* UNL     1     -10.207  10.509  63.988  1.00  0.00     0.000 HD 
HETATM    9  O3* UNL     1      -9.330  10.166  63.861  1.00  0.00    -0.257 OA 
HETATM   10  C3* UNL     1      -8.693   9.960  65.119  1.00  0.00    -0.165 C  
BRANCH   6  11
HETATM   11  N   UNL     1      -8.477   7.062  67.341  1.00  0.00    -0.121 N  
HETATM   12  C   UNL     1      -9.155   7.592  68.428  1.00  0.00    -0.133 C  
HETATM   13  C   UNL     1      -8.571   5.634  69.720  1.00  0.00    -0.121 C  
HETATM   14  C   UNL     1      -9.231   6.972  69.616  1.00  0.00    -0.146 C  
HETATM   15  O   UNL     1      -7.356   5.258  66.429  1.00  0.00    -0.079 OA 
HETATM   16  N   UNL     1      -7.990   5.153  68.584  1.00  0.00    -0.085 N  
HETATM   17  H   UNL     1      -7.579   4.221  68.634  1.00  0.00     0.000 HD 
HETATM   18  O   UNL     1      -8.550   4.993  70.768  1.00  0.00    -0.117 OA 
HETATM   19  C   UNL     1      -7.907   5.800  67.385  1.00  0.00    -0.102 C  
BRANCH  14  20
HETATM   20  C   UNL     1      -9.958   7.474  70.772  1.00  0.00    -0.182 C  
HETATM   21  C   UNL     1     -11.130   8.120  70.752  1.00  0.00    -0.259 C  
HETATM   22 BR   UNL     1     -11.970   8.765  72.278  1.00  0.00    -0.374 Br 
ENDBRANCH  14  20
ENDBRANCH   6  11
ENDBRANCH   3   4
TORSDOF 3
ENDMDL
MODEL      200
REMARK 921   NORMALIZED FREE ENERGY PREDICTED BY IDOCK:   -2.36 KCAL/MOL
REMARK 922        TOTAL FREE ENERGY PREDICTED BY IDOCK:   -3.38 KCAL/MOL
REMARK 923 INTER-LIGAND FREE ENERGY PREDICTED BY IDOCK:   -3.64 KCAL/MOL
REMARK 924 INTRA-LIGAND FREE ENERGY PREDICTED BY IDOCK:    0.26 KCAL/MOL
REMARK 927      BINDING AFFINITY PREDICTED BY RF-SCORE:    0.00 PKD
ROOT
HETATM    1  O5* UNL     1      -9.517   2.394  66.245  1.00  0.00    -0.364 OA 
HETATM    2  H5* UNL     1      -9.138   1.526  66.317  1.00  0.00     0.000 HD 
HETATM    3  C5* UNL     1      -8.560   3.340  65.768  1.00  0.00    -0.116 C  
ENDROOT
BRANCH   3   4
HETATM    4  C4* UNL     1      -9.169   4.736  65.653  1.00  0.00    -0.152 C  
HETATM    5  O4* UNL     1      -9.443   5.279  66.957  1.00  0.00    -0.124 OA 
HETATM    6  C1* UNL     1      -9.517   6.697  66.767  1.00  0.00    -0.160 C  
HETATM    7  C2* UNL     1      -8.459   7.042  65.725  1.00  0.00    -0.154 C  
HETATM    8  H3* UNL     1      -8.078   6.527  63.158  1.00  0.00     0.000 HD 
HETATM    9  O3* UNL     1      -8.643   5.897  63.591  1.00  0.00     0.033 OA 
HETATM   10  C3* UNL     1      -8.261   5.748  64.957  1.00  0.00    -0.137 C  
BRANCH   6  11
HETATM   11  N   UNL     1      -9.353   7.408  68.028  1.00  0.00    -0.135 N  
HETATM   12  C   UNL     1     -10.289   8.332  68.466  1.00  0.00    -0.199 C  
HETATM   13  C   UNL     1      -8.939   8.739  70.430  1.00  0.00    -0.169 C  
HETATM   14  C   UNL     1     -10.153   9.029  69.605  1.00  0.00    -0.202 C  
HETATM   15  O   UNL     1      -7.429   6.210  68.485  1.00  0.00    -0.084 OA 
HETATM   16  N   UNL     1      -8.107   7.763  69.964  1.00  0.00    -0.116 N  
HETATM   17  H   UNL     1      -7.303   7.526  70.545  1.00  0.00     0.000 HD 
HETATM   18  O   UNL     1      -8.696   9.340  71.473  1.00  0.00    -0.323 OA 
HETATM   19  C   UNL     1      -8.250   7.072  68.796  1.00  0.00    -0.122 C  
BRANCH  14  20
HETATM   20  C   UNL     1     -11.123   9.982  70.118  1.00  0.00    -0.371 C  
HETATM   21  C   UNL     1     -12.003   9.766  71.104  1.00  0.00    -0.376 C  
HETATM   22 BR   UNL     1     -13.238  11.033  71.670  1.00  0.00    -0.372 Br 
ENDBRANCH  14  20
ENDBRANCH   6  11
ENDBRANCH   3   4
TORSDOF 3
ENDMDL
MODEL      201
REMARK 921   NORMALIZED FREE ENERGY PREDICTED BY IDOCK:   -2.35 KCAL/MOL
REMARK 922        TOTAL FREE ENERGY PREDICTED BY IDOCK:   -3.38 KCAL/MOL
REMARK 923 INTER-LIGAND FREE ENERGY PREDICTED BY IDOCK:   -3.76 KCAL/MOL
REMARK 924 INTRA-LIGAND FREE ENERGY PREDICTED BY IDOCK:    0.38 KCAL/MOL
REMARK 927      BINDING AFFINITY PREDICTED BY RF-SCORE:    0.00 PKD
ROOT
HETATM    1  O5* UNL     1     -10.251  11.103  69.908  1.00  0.00    -0.372 OA 
HETATM    2  H5* UNL     1     -10.008  12.021  69.916  1.00  0.00     0.000 HD 
HETATM    3  C5* UNL     1     -11.512  10.896  70.547  1.00  0.00    -0.220 C  
ENDROOT
BRANCH   3   4
HETATM    4  C4* UNL     1     -11.904   9.419  70.535  1.00  0.00    -0.151 C  
HETATM    5  O4* UNL     1     -11.127   8.696  69.564  1.00  0.00    -0.124 OA 
HETATM    6  C1* UNL     1     -11.195   7.324  69.973  1.00  0.00    -0.209 C  
HETATM    7  C2* UNL     1     -11.162   7.334  71.498  1.00  0.00    -0.273 C  
HETATM    8  H3* UNL     1     -12.756   8.186  73.429  1.00  0.00     0.000 HD 
HETATM    9  O3* UNL     1     -12.898   8.626  72.599  1.00  0.00    -0.361 OA 
HETATM   10  C3* UNL     1     -11.676   8.712  71.870  1.00  0.00    -0.352 C  
BRANCH   6  11
HETATM   11  N   UNL     1     -10.127   6.540  69.368  1.00  0.00    -0.167 N  
HETATM   12  C   UNL     1     -10.351   5.756  68.246  1.00  0.00    -0.212 C  
HETATM   13  C   UNL     1      -8.040   5.051  68.301  1.00  0.00    -0.086 C  
HETATM   14  C   UNL     1      -9.400   4.996  67.683  1.00  0.00    -0.141 C  
HETATM   15  O   UNL     1      -8.602   7.395  70.879  1.00  0.00    -0.132 OA 
HETATM   16  N   UNL     1      -7.887   5.903  69.356  1.00  0.00    -0.093 N  
HETATM   17  H   UNL     1      -6.951   5.982  69.754  1.00  0.00     0.000 HD 
HETATM   18  O   UNL     1      -7.103   4.372  67.889  1.00  0.00    -0.062 OA 
HETATM   19  C   UNL     1      -8.867   6.661  69.929  1.00  0.00    -0.144 C  
BRANCH  14  20
HETATM   20  C   UNL     1      -9.581   4.185  66.488  1.00  0.00    -0.220 C  
HETATM   21  C   UNL     1     -10.208   4.557  65.366  1.00  0.00    -0.202 C  
HETATM   22 BR   UNL     1     -10.430   3.439  63.899  1.00  0.00    -0.235 Br 
ENDBRANCH  14  20
ENDBRANCH   6  11
ENDBRANCH   3   4
TORSDOF 3
ENDMDL
MODEL      202
REMARK 921   NORMALIZED FREE ENERGY PREDICTED BY IDOCK:   -2.32 KCAL/MOL
REMARK 922        TOTAL FREE ENERGY PREDICTED BY IDOCK:   -3.34 KCAL/MOL
REMARK 923 INTER-LIGAND FREE ENERGY PREDICTED BY IDOCK:   -3.61 KCAL/MOL
REMARK 924 INTRA-LIGAND FREE ENERGY PREDICTED BY IDOCK:    0.27 KCAL/MOL
REMARK 927      BINDING AFFINITY PREDICTED BY RF-SCORE:    0.00 PKD
ROOT
HETATM    1  O5* UNL     1     -12.152   8.281  73.157  1.00  0.00    -0.566 OA 
HETATM    2  H5* UNL     1     -12.264   8.567  74.056  1.00  0.00     0.000 HD 
HETATM    3  C5* UNL     1     -10.901   7.618  72.975  1.00  0.00    -0.400 C  
ENDROOT
BRANCH   3   4
HETATM    4  C4* UNL     1     -10.721   7.160  71.529  1.00  0.00    -0.223 C  
HETATM    5  O4* UNL     1     -10.440   8.282  70.673  1.00  0.00    -0.198 OA 
HETATM    6  C1* UNL     1      -9.813   7.721  69.512  1.00  0.00    -0.179 C  
HETATM    7  C2* UNL     1      -8.933   6.581  70.014  1.00  0.00    -0.144 C  
HETATM    8  H3* UNL     1      -9.337   4.233  71.162  1.00  0.00     0.000 HD 
HETATM    9  O3* UNL     1     -10.055   4.842  71.284  1.00  0.00    -0.191 OA 
HETATM   10  C3* UNL     1      -9.565   6.180  71.334  1.00  0.00    -0.159 C  
BRANCH   6  11
HETATM   11  N   UNL     1      -9.085   8.738  68.764  1.00  0.00    -0.138 N  
HETATM   12  C   UNL     1      -9.151   8.805  67.381  1.00  0.00    -0.133 C  
HETATM   13  C   UNL     1      -7.638  10.689  67.420  1.00  0.00    -0.095 C  
HETATM   14  C   UNL     1      -8.469   9.706  66.658  1.00  0.00    -0.126 C  
HETATM   15  O   UNL     1      -8.341   9.695  70.732  1.00  0.00    -0.264 OA 
HETATM   16  N   UNL     1      -7.687  10.601  68.780  1.00  0.00    -0.108 N  
HETATM   17  H   UNL     1      -7.161  11.298  69.307  1.00  0.00     0.000 HD 
HETATM   18  O   UNL     1      -6.947  11.537  66.860  1.00  0.00    -0.131 OA 
HETATM   19  C   UNL     1      -8.374   9.669  69.503  1.00  0.00    -0.152 C  
BRANCH  14  20
HETATM   20  C   UNL     1      -8.533   9.833  65.211  1.00  0.00    -0.154 C  
HETATM   21  C   UNL     1      -7.768   9.187  64.323  1.00  0.00    -0.120 C  
HETATM   22 BR   UNL     1      -7.892   9.442  62.487  1.00  0.00    -0.128 Br 
ENDBRANCH  14  20
ENDBRANCH   6  11
ENDBRANCH   3   4
TORSDOF 3
ENDMDL
MODEL      203
REMARK 921   NORMALIZED FREE ENERGY PREDICTED BY IDOCK:   -2.30 KCAL/MOL
REMARK 922        TOTAL FREE ENERGY PREDICTED BY IDOCK:   -3.31 KCAL/MOL
REMARK 923 INTER-LIGAND FREE ENERGY PREDICTED BY IDOCK:   -3.53 KCAL/MOL
REMARK 924 INTRA-LIGAND FREE ENERGY PREDICTED BY IDOCK:    0.22 KCAL/MOL
REMARK 927      BINDING AFFINITY PREDICTED BY RF-SCORE:    0.00 PKD
ROOT
HETATM    1  O5* UNL     1     -11.211  13.095  68.392  1.00  0.00    -0.240 OA 
HETATM    2  H5* UNL     1     -11.167  14.043  68.428  1.00  0.00     0.000 HD 
HETATM    3  C5* UNL     1     -11.871  12.562  69.541  1.00  0.00    -0.310 C  
ENDROOT
BRANCH   3   4
HETATM    4  C4* UNL     1     -11.942  11.038  69.483  1.00  0.00    -0.342 C  
HETATM    5  O4* UNL     1     -10.947  10.517  68.583  1.00  0.00    -0.217 OA 
HETATM    6  C1* UNL     1     -10.763   9.151  68.975  1.00  0.00    -0.153 C  
HETATM    7  C2* UNL     1     -10.868   9.127  70.496  1.00  0.00    -0.306 C  
HETATM    8  H3* UNL     1     -12.771   9.579  72.277  1.00  0.00     0.000 HD 
HETATM    9  O3* UNL     1     -12.927  10.001  71.440  1.00  0.00    -0.358 OA 
HETATM   10  C3* UNL     1     -11.690  10.359  70.829  1.00  0.00    -0.368 C  
BRANCH   6  11
HETATM   11  N   UNL     1      -9.504   8.623  68.465  1.00  0.00    -0.141 N  
HETATM   12  C   UNL     1      -9.475   7.622  67.506  1.00  0.00    -0.140 C  
HETATM   13  C   UNL     1      -7.059   7.652  67.577  1.00  0.00    -0.086 C  
HETATM   14  C   UNL     1      -8.335   7.089  67.039  1.00  0.00    -0.121 C  
HETATM   15  O   UNL     1      -8.316  10.144  69.737  1.00  0.00    -0.175 OA 
HETATM   16  N   UNL     1      -7.175   8.685  68.461  1.00  0.00    -0.079 N  
HETATM   17  H   UNL     1      -6.309   9.106  68.797  1.00  0.00     0.000 HD 
HETATM   18  O   UNL     1      -5.958   7.218  67.245  1.00  0.00    -0.037 OA 
HETATM   19  C   UNL     1      -8.342   9.208  68.939  1.00  0.00    -0.124 C  
BRANCH  14  20
HETATM   20  C   UNL     1      -8.256   6.062  66.012  1.00  0.00    -0.125 C  
HETATM   21  C   UNL     1      -8.454   4.750  66.185  1.00  0.00    -0.114 C  
HETATM   22 BR   UNL     1      -8.292   3.501  64.819  1.00  0.00    -0.093 Br 
ENDBRANCH  14  20
ENDBRANCH   6  11
ENDBRANCH   3   4
TORSDOF 3
ENDMDL
MODEL      204
REMARK 921   NORMALIZED FREE ENERGY PREDICTED BY IDOCK:   -2.27 KCAL/MOL
REMARK 922        TOTAL FREE ENERGY PREDICTED BY IDOCK:   -3.28 KCAL/MOL
REMARK 923 INTER-LIGAND FREE ENERGY PREDICTED BY IDOCK:   -2.84 KCAL/MOL
REMARK 924 INTRA-LIGAND FREE ENERGY PREDICTED BY IDOCK:   -0.44 KCAL/MOL
REMARK 927      BINDING AFFINITY PREDICTED BY RF-SCORE:    0.00 PKD
ROOT
HETATM    1  O5* UNL     1     -11.341   4.227  64.831  1.00  0.00    -0.996 OA 
HETATM    2  H5* UNL     1     -11.761   3.383  64.711  1.00  0.00     0.000 HD 
HETATM    3  C5* UNL     1     -10.152   4.108  65.614  1.00  0.00    -0.176 C  
ENDROOT
BRANCH   3   4
HETATM    4  C4* UNL     1      -9.477   5.465  65.807  1.00  0.00    -0.087 C  
HETATM    5  O4* UNL     1      -9.620   5.913  67.167  1.00  0.00    -0.119 OA 
HETATM    6  C1* UNL     1      -8.575   6.875  67.357  1.00  0.00    -0.121 C  
HETATM    7  C2* UNL     1      -7.371   6.355  66.580  1.00  0.00    -0.078 C  
HETATM    8  H3* UNL     1      -6.785   5.942  64.034  1.00  0.00     0.000 HD 
HETATM    9  O3* UNL     1      -7.719   5.950  64.211  1.00  0.00    -0.091 OA 
HETATM   10  C3* UNL     1      -7.977   5.452  65.521  1.00  0.00    -0.109 C  
BRANCH   6  11
HETATM   11  N   UNL     1      -8.310   7.092  68.774  1.00  0.00    -0.125 N  
HETATM   12  C   UNL     1      -7.916   6.054  69.603  1.00  0.00    -0.106 C  
HETATM   13  C   UNL     1      -7.861   7.592  71.468  1.00  0.00    -0.086 C  
HETATM   14  C   UNL     1      -7.697   6.211  70.918  1.00  0.00    -0.098 C  
HETATM   15  O   UNL     1      -8.690   9.359  68.528  1.00  0.00    -0.126 OA 
HETATM   16  N   UNL     1      -8.178   8.569  70.570  1.00  0.00    -0.106 N  
HETATM   17  H   UNL     1      -8.245   9.521  70.929  1.00  0.00     0.000 HD 
HETATM   18  O   UNL     1      -7.718   7.844  72.662  1.00  0.00    -0.097 OA 
HETATM   19  C   UNL     1      -8.413   8.393  69.237  1.00  0.00    -0.125 C  
BRANCH  14  20
HETATM   20  C   UNL     1      -7.252   5.159  71.819  1.00  0.00    -0.079 C  
HETATM   21  C   UNL     1      -7.809   3.950  71.963  1.00  0.00    -0.075 C  
HETATM   22 BR   UNL     1      -7.198   2.678  73.171  1.00  0.00    -0.041 Br 
ENDBRANCH  14  20
ENDBRANCH   6  11
ENDBRANCH   3   4
TORSDOF 3
ENDMDL
MODEL      205
REMARK 921   NORMALIZED FREE ENERGY PREDICTED BY IDOCK:   -2.23 KCAL/MOL
REMARK 922        TOTAL FREE ENERGY PREDICTED BY IDOCK:   -3.23 KCAL/MOL
REMARK 923 INTER-LIGAND FREE ENERGY PREDICTED BY IDOCK:   -2.80 KCAL/MOL
REMARK 924 INTRA-LIGAND FREE ENERGY PREDICTED BY IDOCK:   -0.43 KCAL/MOL
REMARK 927      BINDING AFFINITY PREDICTED BY RF-SCORE:    0.00 PKD
ROOT
HETATM    1  O5* UNL     1      -7.477   3.138  64.772  1.00  0.00    -0.072 OA 
HETATM    2  H5* UNL     1      -6.782   2.490  64.797  1.00  0.00     0.000 HD 
HETATM    3  C5* UNL     1      -6.971   4.451  65.015  1.00  0.00    -0.058 C  
ENDROOT
BRANCH   3   4
HETATM    4  C4* UNL     1      -8.088   5.492  64.977  1.00  0.00    -0.119 C  
HETATM    5  O4* UNL     1      -8.569   5.769  66.305  1.00  0.00    -0.121 OA 
HETATM    6  C1* UNL     1      -9.205   7.051  66.214  1.00  0.00    -0.126 C  
HETATM    7  C2* UNL     1      -8.364   7.875  65.245  1.00  0.00    -0.140 C  
HETATM    8  H3* UNL     1      -7.785   7.769  62.666  1.00  0.00     0.000 HD 
HETATM    9  O3* UNL     1      -8.054   6.933  63.029  1.00  0.00    -0.103 OA 
HETATM   10  C3* UNL     1      -7.657   6.836  64.394  1.00  0.00    -0.104 C  
BRANCH   6  11
HETATM   11  N   UNL     1      -9.350   7.660  67.530  1.00  0.00    -0.137 N  
HETATM   12  C   UNL     1      -8.443   8.598  67.997  1.00  0.00    -0.127 C  
HETATM   13  C   UNL     1      -9.689   8.744  70.064  1.00  0.00    -0.173 C  
HETATM   14  C   UNL     1      -8.527   9.154  69.216  1.00  0.00    -0.132 C  
HETATM   15  O   UNL     1     -11.338   6.529  67.866  1.00  0.00    -0.245 OA 
HETATM   16  N   UNL     1     -10.575   7.873  69.500  1.00  0.00    -0.233 N  
HETATM   17  H   UNL     1     -11.394   7.624  70.054  1.00  0.00     0.000 HD 
HETATM   18  O   UNL     1      -9.847   9.164  71.208  1.00  0.00    -0.283 OA 
HETATM   19  C   UNL     1     -10.469   7.303  68.264  1.00  0.00    -0.199 C  
BRANCH  14  20
HETATM   20  C   UNL     1      -7.619  10.165  69.734  1.00  0.00    -0.175 C  
HETATM   21  C   UNL     1      -7.157  11.231  69.071  1.00  0.00    -0.116 C  
HETATM   22 BR   UNL     1      -5.962  12.453  69.800  1.00  0.00    -0.142 Br 
ENDBRANCH  14  20
ENDBRANCH   6  11
ENDBRANCH   3   4
TORSDOF 3
ENDMDL
MODEL      206
REMARK 921   NORMALIZED FREE ENERGY PREDICTED BY IDOCK:   -2.19 KCAL/MOL
REMARK 922        TOTAL FREE ENERGY PREDICTED BY IDOCK:   -3.19 KCAL/MOL
REMARK 923 INTER-LIGAND FREE ENERGY PREDICTED BY IDOCK:   -2.69 KCAL/MOL
REMARK 924 INTRA-LIGAND FREE ENERGY PREDICTED BY IDOCK:   -0.50 KCAL/MOL
REMARK 927      BINDING AFFINITY PREDICTED BY RF-SCORE:    0.00 PKD
ROOT
HETATM    1  O5* UNL     1      -7.661   9.987  70.876  1.00  0.00    -0.372 OA 
HETATM    2  H5* UNL     1      -7.176   9.951  71.692  1.00  0.00     0.000 HD 
HETATM    3  C5* UNL     1      -7.033  10.860  69.936  1.00  0.00    -0.090 C  
ENDROOT
BRANCH   3   4
HETATM    4  C4* UNL     1      -7.813  10.917  68.624  1.00  0.00    -0.126 C  
HETATM    5  O4* UNL     1      -7.302   9.950  67.688  1.00  0.00    -0.088 OA 
HETATM    6  C1* UNL     1      -8.365   9.737  66.750  1.00  0.00    -0.124 C  
HETATM    7  C2* UNL     1      -9.659   9.787  67.555  1.00  0.00    -0.178 C  
HETATM    8  H3* UNL     1     -10.979  11.629  68.920  1.00  0.00     0.000 HD 
HETATM    9  O3* UNL     1     -10.054  11.820  68.823  1.00  0.00    -0.206 OA 
HETATM   10  C3* UNL     1      -9.302  10.610  68.779  1.00  0.00    -0.180 C  
BRANCH   6  11
HETATM   11  N   UNL     1      -8.178   8.493  66.016  1.00  0.00    -0.112 N  
HETATM   12  C   UNL     1      -7.748   7.337  66.650  1.00  0.00    -0.101 C  
HETATM   13  C   UNL     1      -7.816   6.175  64.531  1.00  0.00    -0.114 C  
HETATM   14  C   UNL     1      -7.533   6.182  65.999  1.00  0.00    -0.082 C  
HETATM   15  O   UNL     1      -8.956   9.484  64.079  1.00  0.00    -0.229 OA 
HETATM   16  N   UNL     1      -8.305   7.332  64.001  1.00  0.00    -0.361 N  
HETATM   17  H   UNL     1      -8.545   7.321  63.009  1.00  0.00     0.000 HD 
HETATM   18  O   UNL     1      -7.623   5.184  63.831  1.00  0.00    -0.062 OA 
HETATM   19  C   UNL     1      -8.506   8.504  64.671  1.00  0.00    -0.108 C  
BRANCH  14  20
HETATM   20  C   UNL     1      -7.115   4.939  66.627  1.00  0.00    -0.068 C  
HETATM   21  C   UNL     1      -7.088   4.684  67.941  1.00  0.00    -0.061 C  
HETATM   22 BR   UNL     1      -6.499   3.076  68.660  1.00  0.00    -0.030 Br 
ENDBRANCH  14  20
ENDBRANCH   6  11
ENDBRANCH   3   4
TORSDOF 3
ENDMDL
MODEL      207
REMARK 921   NORMALIZED FREE ENERGY PREDICTED BY IDOCK:   -2.19 KCAL/MOL
REMARK 922        TOTAL FREE ENERGY PREDICTED BY IDOCK:   -3.18 KCAL/MOL
REMARK 923 INTER-LIGAND FREE ENERGY PREDICTED BY IDOCK:   -3.20 KCAL/MOL
REMARK 924 INTRA-LIGAND FREE ENERGY PREDICTED BY IDOCK:    0.02 KCAL/MOL
REMARK 927      BINDING AFFINITY PREDICTED BY RF-SCORE:    0.00 PKD
ROOT
HETATM    1  O5* UNL     1     -14.252  16.025  73.187  1.00  0.00    -0.586 OA 
HETATM    2  H5* UNL     1     -15.105  16.425  73.317  1.00  0.00     0.000 HD 
HETATM    3  C5* UNL     1     -14.244  15.187  72.031  1.00  0.00    -0.577 C  
ENDROOT
BRANCH   3   4
HETATM    4  C4* UNL     1     -12.874  14.545  71.821  1.00  0.00    -0.343 C  
HETATM    5  O4* UNL     1     -12.445  14.698  70.456  1.00  0.00    -0.312 OA 
HETATM    6  C1* UNL     1     -11.021  14.536  70.489  1.00  0.00     0.149 C  
HETATM    7  C2* UNL     1     -10.548  15.192  71.782  1.00  0.00     0.780 C  
HETATM    8  H3* UNL     1     -10.850  14.728  74.369  1.00  0.00     0.000 HD 
HETATM    9  O3* UNL     1     -11.537  14.348  73.834  1.00  0.00     0.203 OA 
HETATM   10  C3* UNL     1     -11.770  15.156  72.683  1.00  0.00    -0.362 C  
BRANCH   6  11
HETATM   11  N   UNL     1     -10.400  15.087  69.291  1.00  0.00    -0.242 N  
HETATM   12  C   UNL     1     -10.516  16.431  68.969  1.00  0.00    -0.288 C  
HETATM   13  C   UNL     1      -9.214  16.043  66.970  1.00  0.00    -0.212 C  
HETATM   14  C   UNL     1      -9.987  16.965  67.857  1.00  0.00    -0.274 C  
HETATM   15  O   UNL     1      -9.452  13.037  68.804  1.00  0.00    -0.053 OA 
HETATM   16  N   UNL     1      -9.086  14.754  67.398  1.00  0.00    -0.188 N  
HETATM   17  H   UNL     1      -8.520  14.130  66.822  1.00  0.00     0.000 HD 
HETATM   18  O   UNL     1      -8.714  16.416  65.911  1.00  0.00    -0.425 OA 
HETATM   19  C   UNL     1      -9.642  14.219  68.524  1.00  0.00    -0.220 C  
BRANCH  14  20
HETATM   20  C   UNL     1     -10.055  18.372  67.496  1.00  0.00    -0.373 C  
HETATM   21  C   UNL     1      -9.934  18.882  66.265  1.00  0.00    -0.388 C  
HETATM   22 BR   UNL     1      -9.994  20.702  65.899  1.00  0.00     0.510 Br 
ENDBRANCH  14  20
ENDBRANCH   6  11
ENDBRANCH   3   4
TORSDOF 3
ENDMDL
MODEL      208
REMARK 921   NORMALIZED FREE ENERGY PREDICTED BY IDOCK:   -2.16 KCAL/MOL
REMARK 922        TOTAL FREE ENERGY PREDICTED BY IDOCK:   -3.15 KCAL/MOL
REMARK 923 INTER-LIGAND FREE ENERGY PREDICTED BY IDOCK:   -2.65 KCAL/MOL
REMARK 924 INTRA-LIGAND FREE ENERGY PREDICTED BY IDOCK:   -0.50 KCAL/MOL
REMARK 927      BINDING AFFINITY PREDICTED BY RF-SCORE:    0.00 PKD
ROOT
HETATM    1  O5* UNL     1      -9.455   4.225  67.503  1.00  0.00    -0.154 OA 
HETATM    2  H5* UNL     1      -9.493   3.386  67.059  1.00  0.00     0.000 HD 
HETATM    3  C5* UNL     1      -8.582   4.175  68.632  1.00  0.00    -0.093 C  
ENDROOT
BRANCH   3   4
HETATM    4  C4* UNL     1      -8.521   5.524  69.346  1.00  0.00    -0.105 C  
HETATM    5  O4* UNL     1      -7.565   6.392  68.711  1.00  0.00    -0.089 OA 
HETATM    6  C1* UNL     1      -7.940   7.717  69.106  1.00  0.00    -0.119 C  
HETATM    7  C2* UNL     1      -9.464   7.736  69.139  1.00  0.00    -0.151 C  
HETATM    8  H3* UNL     1     -11.348   6.569  70.583  1.00  0.00     0.000 HD 
HETATM    9  O3* UNL     1     -10.524   6.097  70.585  1.00  0.00    -0.213 OA 
HETATM   10  C3* UNL     1      -9.847   6.282  69.344  1.00  0.00    -0.152 C  
BRANCH   6  11
HETATM   11  N   UNL     1      -7.360   8.716  68.217  1.00  0.00    -0.086 N  
HETATM   12  C   UNL     1      -8.060   9.206  67.125  1.00  0.00    -0.109 C  
HETATM   13  C   UNL     1      -6.163  10.592  66.557  1.00  0.00    -0.097 C  
HETATM   14  C   UNL     1      -7.545  10.100  66.267  1.00  0.00    -0.111 C  
HETATM   15  O   UNL     1      -5.472   8.843  69.543  1.00  0.00    -0.034 OA 
HETATM   16  N   UNL     1      -5.574  10.115  67.691  1.00  0.00    -0.042 N  
HETATM   17  H   UNL     1      -4.650  10.481  67.921  1.00  0.00     0.000 HD 
HETATM   18  O   UNL     1      -5.580  11.386  65.821  1.00  0.00    -0.203 OA 
HETATM   19  C   UNL     1      -6.103   9.194  68.548  1.00  0.00    -0.045 C  
BRANCH  14  20
HETATM   20  C   UNL     1      -8.253  10.666  65.130  1.00  0.00    -0.092 C  
HETATM   21  C   UNL     1      -9.498  11.156  65.135  1.00  0.00    -0.226 C  
HETATM   22 BR   UNL     1     -10.343  11.824  63.621  1.00  0.00    -0.529 Br 
ENDBRANCH  14  20
ENDBRANCH   6  11
ENDBRANCH   3   4
TORSDOF 3
ENDMDL
MODEL      209
REMARK 921   NORMALIZED FREE ENERGY PREDICTED BY IDOCK:   -2.10 KCAL/MOL
REMARK 922        TOTAL FREE ENERGY PREDICTED BY IDOCK:   -3.08 KCAL/MOL
REMARK 923 INTER-LIGAND FREE ENERGY PREDICTED BY IDOCK:   -3.75 KCAL/MOL
REMARK 924 INTRA-LIGAND FREE ENERGY PREDICTED BY IDOCK:    0.68 KCAL/MOL
REMARK 927      BINDING AFFINITY PREDICTED BY RF-SCORE:    0.00 PKD
ROOT
HETATM    1  O5* UNL     1     -12.351  13.198  66.519  1.00  0.00    -0.348 OA 
HETATM    2  H5* UNL     1     -12.972  13.877  66.755  1.00  0.00     0.000 HD 
HETATM    3  C5* UNL     1     -11.021  13.715  66.444  1.00  0.00    -0.297 C  
ENDROOT
BRANCH   3   4
HETATM    4  C4* UNL     1     -10.022  12.624  66.063  1.00  0.00    -0.258 C  
HETATM    5  O4* UNL     1      -9.747  11.773  67.191  1.00  0.00    -0.182 OA 
HETATM    6  C1* UNL     1      -9.241  10.555  66.629  1.00  0.00    -0.156 C  
HETATM    7  C2* UNL     1     -10.032  10.319  65.346  1.00  0.00    -0.371 C  
HETATM    8  H3* UNL     1     -10.261  11.527  63.004  1.00  0.00     0.000 HD 
HETATM    9  O3* UNL     1      -9.956  12.100  63.698  1.00  0.00    -0.382 OA 
HETATM   10  C3* UNL     1     -10.513  11.702  64.948  1.00  0.00    -0.288 C  
BRANCH   6  11
HETATM   11  N   UNL     1      -9.329   9.458  67.583  1.00  0.00    -0.128 N  
HETATM   12  C   UNL     1      -8.622   8.280  67.399  1.00  0.00    -0.125 C  
HETATM   13  C   UNL     1      -9.585   7.406  69.437  1.00  0.00    -0.155 C  
HETATM   14  C   UNL     1      -8.706   7.237  68.239  1.00  0.00    -0.125 C  
HETATM   15  O   UNL     1     -10.694  10.722  68.955  1.00  0.00    -0.194 OA 
HETATM   16  N   UNL     1     -10.186   8.622  69.582  1.00  0.00    -0.203 N  
HETATM   17  H   UNL     1     -10.750   8.762  70.420  1.00  0.00     0.000 HD 
HETATM   18  O   UNL     1      -9.761   6.506  70.254  1.00  0.00    -0.167 OA 
HETATM   19  C   UNL     1     -10.104   9.670  68.711  1.00  0.00    -0.179 C  
BRANCH  14  20
HETATM   20  C   UNL     1      -7.959   5.996  68.103  1.00  0.00    -0.110 C  
HETATM   21  C   UNL     1      -6.959   5.582  68.891  1.00  0.00    -0.060 C  
HETATM   22 BR   UNL     1      -6.030   3.997  68.618  1.00  0.00    -0.027 Br 
ENDBRANCH  14  20
ENDBRANCH   6  11
ENDBRANCH   3   4
TORSDOF 3
ENDMDL
MODEL      210
REMARK 921   NORMALIZED FREE ENERGY PREDICTED BY IDOCK:   -2.04 KCAL/MOL
REMARK 922        TOTAL FREE ENERGY PREDICTED BY IDOCK:   -3.01 KCAL/MOL
REMARK 923 INTER-LIGAND FREE ENERGY PREDICTED BY IDOCK:   -2.85 KCAL/MOL
REMARK 924 INTRA-LIGAND FREE ENERGY PREDICTED BY IDOCK:   -0.16 KCAL/MOL
REMARK 927      BINDING AFFINITY PREDICTED BY RF-SCORE:    0.00 PKD
ROOT
HETATM    1  O5* UNL     1     -10.418   5.889  74.056  1.00  0.00    -0.265 OA 
HETATM    2  H5* UNL     1     -10.171   5.955  74.972  1.00  0.00     0.000 HD 
HETATM    3  C5* UNL     1      -9.918   6.995  73.303  1.00  0.00    -0.229 C  
ENDROOT
BRANCH   3   4
HETATM    4  C4* UNL     1     -10.314   6.890  71.832  1.00  0.00    -0.189 C  
HETATM    5  O4* UNL     1     -10.223   8.174  71.189  1.00  0.00    -0.191 OA 
HETATM    6  C1* UNL     1     -10.116   7.886  69.789  1.00  0.00    -0.199 C  
HETATM    7  C2* UNL     1      -9.257   6.631  69.678  1.00  0.00    -0.145 C  
HETATM    8  H3* UNL     1      -9.505   4.091  70.373  1.00  0.00     0.000 HD 
HETATM    9  O3* UNL     1     -10.057   4.677  70.877  1.00  0.00    -0.216 OA 
HETATM   10  C3* UNL     1      -9.427   5.947  71.022  1.00  0.00    -0.165 C  
BRANCH   6  11
HETATM   11  N   UNL     1      -9.583   9.028  69.056  1.00  0.00    -0.158 N  
HETATM   12  C   UNL     1      -8.577   9.821  69.585  1.00  0.00    -0.191 C  
HETATM   13  C   UNL     1      -8.654  11.204  67.603  1.00  0.00    -0.126 C  
HETATM   14  C   UNL     1      -8.087  10.899  68.953  1.00  0.00    -0.144 C  
HETATM   15  O   UNL     1     -10.931   8.531  67.245  1.00  0.00    -0.117 OA 
HETATM   16  N   UNL     1      -9.588  10.331  67.126  1.00  0.00    -0.165 N  
HETATM   17  H   UNL     1      -9.946  10.506  66.187  1.00  0.00     0.000 HD 
HETATM   18  O   UNL     1      -8.304  12.184  66.950  1.00  0.00    -0.179 OA 
HETATM   19  C   UNL     1     -10.089   9.246  67.785  1.00  0.00    -0.204 C  
BRANCH  14  20
HETATM   20  C   UNL     1      -7.010  11.740  69.454  1.00  0.00    -0.026 C  
HETATM   21  C   UNL     1      -7.029  13.074  69.558  1.00  0.00     0.184 C  
HETATM   22 BR   UNL     1      -5.589  14.073  70.173  1.00  0.00    -0.129 Br 
ENDBRANCH  14  20
ENDBRANCH   6  11
ENDBRANCH   3   4
TORSDOF 3
ENDMDL
MODEL      211
REMARK 921   NORMALIZED FREE ENERGY PREDICTED BY IDOCK:   -1.94 KCAL/MOL
REMARK 922        TOTAL FREE ENERGY PREDICTED BY IDOCK:   -2.89 KCAL/MOL
REMARK 923 INTER-LIGAND FREE ENERGY PREDICTED BY IDOCK:   -2.59 KCAL/MOL
REMARK 924 INTRA-LIGAND FREE ENERGY PREDICTED BY IDOCK:   -0.30 KCAL/MOL
REMARK 927      BINDING AFFINITY PREDICTED BY RF-SCORE:    0.00 PKD
ROOT
HETATM    1  O5* UNL     1     -12.155  12.467  66.444  1.00  0.00    -0.607 OA 
HETATM    2  H5* UNL     1     -12.652  12.653  65.656  1.00  0.00     0.000 HD 
HETATM    3  C5* UNL     1     -10.752  12.605  66.219  1.00  0.00    -0.256 C  
ENDROOT
BRANCH   3   4
HETATM    4  C4* UNL     1      -9.954  12.305  67.486  1.00  0.00    -0.199 C  
HETATM    5  O4* UNL     1      -9.679  10.896  67.590  1.00  0.00    -0.168 OA 
HETATM    6  C1* UNL     1      -8.555  10.797  68.475  1.00  0.00    -0.148 C  
HETATM    7  C2* UNL     1      -7.657  11.987  68.156  1.00  0.00    -0.120 C  
HETATM    8  H3* UNL     1      -7.836  14.617  68.373  1.00  0.00     0.000 HD 
HETATM    9  O3* UNL     1      -8.680  14.181  68.340  1.00  0.00    -0.171 OA 
HETATM   10  C3* UNL     1      -8.597  13.005  67.539  1.00  0.00    -0.192 C  
BRANCH   6  11
HETATM   11  N   UNL     1      -7.891   9.507  68.340  1.00  0.00    -0.086 N  
HETATM   12  C   UNL     1      -8.041   8.731  67.201  1.00  0.00    -0.100 C  
HETATM   13  C   UNL     1      -6.615   7.046  68.185  1.00  0.00    -0.055 C  
HETATM   14  C   UNL     1      -7.472   7.524  67.057  1.00  0.00    -0.098 C  
HETATM   15  O   UNL     1      -6.838   9.804  70.376  1.00  0.00    -0.105 OA 
HETATM   16  N   UNL     1      -6.461   7.902  69.237  1.00  0.00    -0.035 N  
HETATM   17  H   UNL     1      -5.841   7.602  69.989  1.00  0.00     0.000 HD 
HETATM   18  O   UNL     1      -6.072   5.943  68.176  1.00  0.00    -0.016 OA 
HETATM   19  C   UNL     1      -7.058   9.121  69.377  1.00  0.00    -0.053 C  
BRANCH  14  20
HETATM   20  C   UNL     1      -7.574   6.692  65.869  1.00  0.00    -0.087 C  
HETATM   21  C   UNL     1      -6.854   6.818  64.748  1.00  0.00    -0.050 C  
HETATM   22 BR   UNL     1      -7.080   5.733  63.257  1.00  0.00    -0.049 Br 
ENDBRANCH  14  20
ENDBRANCH   6  11
ENDBRANCH   3   4
TORSDOF 3
ENDMDL
MODEL      212
REMARK 921   NORMALIZED FREE ENERGY PREDICTED BY IDOCK:   -1.91 KCAL/MOL
REMARK 922        TOTAL FREE ENERGY PREDICTED BY IDOCK:   -2.86 KCAL/MOL
REMARK 923 INTER-LIGAND FREE ENERGY PREDICTED BY IDOCK:   -3.20 KCAL/MOL
REMARK 924 INTRA-LIGAND FREE ENERGY PREDICTED BY IDOCK:    0.34 KCAL/MOL
REMARK 927      BINDING AFFINITY PREDICTED BY RF-SCORE:    0.00 PKD
ROOT
HETATM    1  O5* UNL     1     -10.075   1.578  72.911  1.00  0.00    -0.092 OA 
HETATM    2  H5* UNL     1     -10.747   1.017  73.280  1.00  0.00     0.000 HD 
HETATM    3  C5* UNL     1     -10.529   2.928  72.799  1.00  0.00    -0.128 C  
ENDROOT
BRANCH   3   4
HETATM    4  C4* UNL     1      -9.448   3.830  72.206  1.00  0.00    -0.129 C  
HETATM    5  O4* UNL     1     -10.014   4.724  71.231  1.00  0.00    -0.183 OA 
HETATM    6  C1* UNL     1      -9.079   5.806  71.127  1.00  0.00    -0.146 C  
HETATM    7  C2* UNL     1      -8.545   6.044  72.536  1.00  0.00    -0.119 C  
HETATM    8  H3* UNL     1      -7.072   4.688  74.264  1.00  0.00     0.000 HD 
HETATM    9  O3* UNL     1      -7.506   4.138  73.623  1.00  0.00    -0.073 OA 
HETATM   10  C3* UNL     1      -8.751   4.715  73.238  1.00  0.00    -0.101 C  
BRANCH   6  11
HETATM   11  N   UNL     1      -9.698   6.981  70.528  1.00  0.00    -0.176 N  
HETATM   12  C   UNL     1      -8.991   7.817  69.677  1.00  0.00    -0.143 C  
HETATM   13  C   UNL     1     -10.949   9.217  69.458  1.00  0.00    -0.151 C  
HETATM   14  C   UNL     1      -9.519   8.925  69.134  1.00  0.00    -0.157 C  
HETATM   15  O   UNL     1     -11.728   6.440  71.492  1.00  0.00    -0.308 OA 
HETATM   16  N   UNL     1     -11.593   8.305  70.242  1.00  0.00    -0.469 N  
HETATM   17  H   UNL     1     -12.582   8.473  70.430  1.00  0.00     0.000 HD 
HETATM   18  O   UNL     1     -11.525  10.221  69.044  1.00  0.00    -0.217 OA 
HETATM   19  C   UNL     1     -11.040   7.189  70.800  1.00  0.00    -0.269 C  
BRANCH  14  20
HETATM   20  C   UNL     1      -8.826   9.811  68.212  1.00  0.00    -0.119 C  
HETATM   21  C   UNL     1      -7.526   9.771  67.900  1.00  0.00    -0.086 C  
HETATM   22 BR   UNL     1      -6.713  10.972  66.739  1.00  0.00    -0.137 Br 
ENDBRANCH  14  20
ENDBRANCH   6  11
ENDBRANCH   3   4
TORSDOF 3
ENDMDL
MODEL      213
REMARK 921   NORMALIZED FREE ENERGY PREDICTED BY IDOCK:   -1.89 KCAL/MOL
REMARK 922        TOTAL FREE ENERGY PREDICTED BY IDOCK:   -2.83 KCAL/MOL
REMARK 923 INTER-LIGAND FREE ENERGY PREDICTED BY IDOCK:   -2.53 KCAL/MOL
REMARK 924 INTRA-LIGAND FREE ENERGY PREDICTED BY IDOCK:   -0.30 KCAL/MOL
REMARK 927      BINDING AFFINITY PREDICTED BY RF-SCORE:    0.00 PKD
ROOT
HETATM    1  O5* UNL     1      -5.456   8.960  74.565  1.00  0.00    -0.106 OA 
HETATM    2  H5* UNL     1      -5.283   9.770  75.031  1.00  0.00     0.000 HD 
HETATM    3  C5* UNL     1      -6.793   8.923  74.066  1.00  0.00     0.144 C  
ENDROOT
BRANCH   3   4
HETATM    4  C4* UNL     1      -7.071   7.621  73.319  1.00  0.00    -0.081 C  
HETATM    5  O4* UNL     1      -8.157   7.790  72.390  1.00  0.00    -0.104 OA 
HETATM    6  C1* UNL     1      -8.002   6.735  71.433  1.00  0.00    -0.109 C  
HETATM    7  C2* UNL     1      -6.501   6.569  71.222  1.00  0.00    -0.050 C  
HETATM    8  H3* UNL     1      -4.449   5.789  72.697  1.00  0.00     0.000 HD 
HETATM    9  O3* UNL     1      -5.186   6.102  73.209  1.00  0.00    -0.030 OA 
HETATM   10  C3* UNL     1      -5.886   7.118  72.496  1.00  0.00    -0.041 C  
BRANCH   6  11
HETATM   11  N   UNL     1      -8.739   7.021  70.209  1.00  0.00    -0.143 N  
HETATM   12  C   UNL     1      -9.286   8.272  69.970  1.00  0.00    -0.162 C  
HETATM   13  C   UNL     1     -10.157   7.467  67.863  1.00  0.00    -0.178 C  
HETATM   14  C   UNL     1      -9.999   8.561  68.870  1.00  0.00    -0.197 C  
HETATM   15  O   UNL     1      -8.287   4.902  69.406  1.00  0.00    -0.083 OA 
HETATM   16  N   UNL     1      -9.524   6.290  68.141  1.00  0.00    -0.114 N  
HETATM   17  H   UNL     1      -9.588   5.554  67.438  1.00  0.00     0.000 HD 
HETATM   18  O   UNL     1     -10.816   7.609  66.836  1.00  0.00    -0.328 OA 
HETATM   19  C   UNL     1      -8.815   6.004  69.272  1.00  0.00    -0.123 C  
BRANCH  14  20
HETATM   20  C   UNL     1     -10.563   9.866  68.563  1.00  0.00    -0.248 C  
HETATM   21  C   UNL     1     -11.127  10.711  69.434  1.00  0.00    -0.260 C  
HETATM   22 BR   UNL     1     -11.862  12.347  68.946  1.00  0.00    -0.321 Br 
ENDBRANCH  14  20
ENDBRANCH   6  11
ENDBRANCH   3   4
TORSDOF 3
ENDMDL
MODEL      214
REMARK 921   NORMALIZED FREE ENERGY PREDICTED BY IDOCK:   -1.71 KCAL/MOL
REMARK 922        TOTAL FREE ENERGY PREDICTED BY IDOCK:   -2.62 KCAL/MOL
REMARK 923 INTER-LIGAND FREE ENERGY PREDICTED BY IDOCK:   -2.89 KCAL/MOL
REMARK 924 INTRA-LIGAND FREE ENERGY PREDICTED BY IDOCK:    0.27 KCAL/MOL
REMARK 927      BINDING AFFINITY PREDICTED BY RF-SCORE:    0.00 PKD
ROOT
HETATM    1  O5* UNL     1      -9.429   1.978  66.992  1.00  0.00    -0.372 OA 
HETATM    2  H5* UNL     1      -9.386   1.327  67.682  1.00  0.00     0.000 HD 
HETATM    3  C5* UNL     1      -8.200   2.697  66.881  1.00  0.00    -0.083 C  
ENDROOT
BRANCH   3   4
HETATM    4  C4* UNL     1      -8.268   3.744  65.771  1.00  0.00    -0.105 C  
HETATM    5  O4* UNL     1      -8.712   5.009  66.295  1.00  0.00    -0.115 OA 
HETATM    6  C1* UNL     1      -8.268   5.986  65.345  1.00  0.00    -0.141 C  
HETATM    7  C2* UNL     1      -6.905   5.512  64.853  1.00  0.00    -0.048 C  
HETATM    8  H3* UNL     1      -5.998   3.461  63.451  1.00  0.00     0.000 HD 
HETATM    9  O3* UNL     1      -6.833   3.293  63.871  1.00  0.00    -0.038 OA 
HETATM   10  C3* UNL     1      -6.924   4.015  65.097  1.00  0.00    -0.058 C  
BRANCH   6  11
HETATM   11  N   UNL     1      -8.250   7.321  65.931  1.00  0.00    -0.125 N  
HETATM   12  C   UNL     1      -8.726   8.422  65.237  1.00  0.00    -0.113 C  
HETATM   13  C   UNL     1      -8.144   9.830  67.113  1.00  0.00    -0.116 C  
HETATM   14  C   UNL     1      -8.694   9.669  65.732  1.00  0.00    -0.168 C  
HETATM   15  O   UNL     1      -7.423   6.470  67.914  1.00  0.00    -0.090 OA 
HETATM   16  N   UNL     1      -7.766   8.687  67.754  1.00  0.00    -0.101 N  
HETATM   17  H   UNL     1      -7.434   8.783  68.714  1.00  0.00     0.000 HD 
HETATM   18  O   UNL     1      -8.036  10.929  67.653  1.00  0.00    -0.113 OA 
HETATM   19  C   UNL     1      -7.790   7.425  67.233  1.00  0.00    -0.114 C  
BRANCH  14  20
HETATM   20  C   UNL     1      -9.211  10.847  65.055  1.00  0.00    -0.233 C  
HETATM   21  C   UNL     1     -10.461  11.321  65.131  1.00  0.00    -0.291 C  
HETATM   22 BR   UNL     1     -11.048  12.815  64.196  1.00  0.00    -0.468 Br 
ENDBRANCH  14  20
ENDBRANCH   6  11
ENDBRANCH   3   4
TORSDOF 3
ENDMDL
MODEL      215
REMARK 921   NORMALIZED FREE ENERGY PREDICTED BY IDOCK:   -1.64 KCAL/MOL
REMARK 922        TOTAL FREE ENERGY PREDICTED BY IDOCK:   -2.54 KCAL/MOL
REMARK 923 INTER-LIGAND FREE ENERGY PREDICTED BY IDOCK:   -1.93 KCAL/MOL
REMARK 924 INTRA-LIGAND FREE ENERGY PREDICTED BY IDOCK:   -0.61 KCAL/MOL
REMARK 927      BINDING AFFINITY PREDICTED BY RF-SCORE:    0.00 PKD
ROOT
HETATM    1  O5* UNL     1      -6.363  14.996  71.441  1.00  0.00     0.375 OA 
HETATM    2  H5* UNL     1      -6.204  15.062  72.376  1.00  0.00     0.000 HD 
HETATM    3  C5* UNL     1      -5.663  13.888  70.874  1.00  0.00    -0.209 C  
ENDROOT
BRANCH   3   4
HETATM    4  C4* UNL     1      -5.918  13.781  69.372  1.00  0.00    -0.101 C  
HETATM    5  O4* UNL     1      -5.937  12.403  68.957  1.00  0.00    -0.063 OA 
HETATM    6  C1* UNL     1      -6.655  12.394  67.716  1.00  0.00    -0.113 C  
HETATM    7  C2* UNL     1      -7.767  13.428  67.861  1.00  0.00    -0.153 C  
HETATM    8  H3* UNL     1      -7.896  16.055  68.133  1.00  0.00     0.000 HD 
HETATM    9  O3* UNL     1      -7.065  15.687  68.408  1.00  0.00    -0.111 OA 
HETATM   10  C3* UNL     1      -7.255  14.374  68.931  1.00  0.00    -0.125 C  
BRANCH   6  11
HETATM   11  N   UNL     1      -7.135  11.056  67.396  1.00  0.00    -0.090 N  
HETATM   12  C   UNL     1      -8.101  10.429  68.169  1.00  0.00    -0.111 C  
HETATM   13  C   UNL     1      -7.966   8.492  66.729  1.00  0.00    -0.094 C  
HETATM   14  C   UNL     1      -8.541   9.185  67.922  1.00  0.00    -0.121 C  
HETATM   15  O   UNL     1      -5.822  11.008  65.495  1.00  0.00    -0.099 OA 
HETATM   16  N   UNL     1      -7.077   9.207  65.981  1.00  0.00    -0.088 N  
HETATM   17  H   UNL     1      -6.716   8.758  65.139  1.00  0.00     0.000 HD 
HETATM   18  O   UNL     1      -8.271   7.340  66.429  1.00  0.00    -0.110 OA 
HETATM   19  C   UNL     1      -6.626  10.467  66.251  1.00  0.00    -0.107 C  
BRANCH  14  20
HETATM   20  C   UNL     1      -9.574   8.502  68.685  1.00  0.00    -0.153 C  
HETATM   21  C   UNL     1      -9.757   8.570  70.010  1.00  0.00    -0.170 C  
HETATM   22 BR   UNL     1     -11.081   7.628  70.910  1.00  0.00    -0.286 Br 
ENDBRANCH  14  20
ENDBRANCH   6  11
ENDBRANCH   3   4
TORSDOF 3
ENDMDL
MODEL      216
REMARK 921   NORMALIZED FREE ENERGY PREDICTED BY IDOCK:   -1.63 KCAL/MOL
REMARK 922        TOTAL FREE ENERGY PREDICTED BY IDOCK:   -2.52 KCAL/MOL
REMARK 923 INTER-LIGAND FREE ENERGY PREDICTED BY IDOCK:   -1.92 KCAL/MOL
REMARK 924 INTRA-LIGAND FREE ENERGY PREDICTED BY IDOCK:   -0.60 KCAL/MOL
REMARK 927      BINDING AFFINITY PREDICTED BY RF-SCORE:    0.00 PKD
ROOT
HETATM    1  O5* UNL     1      -9.170   5.526  69.774  1.00  0.00    -0.132 OA 
HETATM    2  H5* UNL     1      -8.620   5.019  70.360  1.00  0.00     0.000 HD 
HETATM    3  C5* UNL     1      -9.422   6.830  70.297  1.00  0.00    -0.162 C  
ENDROOT
BRANCH   3   4
HETATM    4  C4* UNL     1     -10.307   7.644  69.355  1.00  0.00    -0.214 C  
HETATM    5  O4* UNL     1     -10.419   9.004  69.813  1.00  0.00    -0.207 OA 
HETATM    6  C1* UNL     1     -10.810   9.759  68.659  1.00  0.00    -0.188 C  
HETATM    7  C2* UNL     1     -10.068   9.143  67.478  1.00  0.00    -0.284 C  
HETATM    8  H3* UNL     1     -10.109   6.823  66.208  1.00  0.00     0.000 HD 
HETATM    9  O3* UNL     1     -10.440   6.774  67.097  1.00  0.00    -0.221 OA 
HETATM   10  C3* UNL     1      -9.774   7.723  67.925  1.00  0.00    -0.153 C  
BRANCH   6  11
HETATM   11  N   UNL     1     -10.543  11.180  68.844  1.00  0.00    -0.199 N  
HETATM   12  C   UNL     1      -9.260  11.695  68.735  1.00  0.00    -0.033 C  
HETATM   13  C   UNL     1     -10.123  13.894  69.246  1.00  0.00     0.197 C  
HETATM   14  C   UNL     1      -8.973  12.991  68.932  1.00  0.00     0.315 C  
HETATM   15  O   UNL     1     -12.800  11.599  69.111  1.00  0.00     0.239 OA 
HETATM   16  N   UNL     1     -11.360  13.320  69.262  1.00  0.00    -0.339 N  
HETATM   17  H   UNL     1     -12.154  13.938  69.429  1.00  0.00     0.000 HD 
HETATM   18  O   UNL     1      -9.973  15.092  69.477  1.00  0.00    -0.205 OA 
HETATM   19  C   UNL     1     -11.637  11.997  69.074  1.00  0.00    -0.313 C  
BRANCH  14  20
HETATM   20  C   UNL     1      -7.651  13.580  68.796  1.00  0.00    -0.066 C  
HETATM   21  C   UNL     1      -6.851  13.495  67.726  1.00  0.00    -0.163 C  
HETATM   22 BR   UNL     1      -5.154  14.247  67.654  1.00  0.00     0.205 Br 
ENDBRANCH  14  20
ENDBRANCH   6  11
ENDBRANCH   3   4
TORSDOF 3
ENDMDL
MODEL      217
REMARK 921   NORMALIZED FREE ENERGY PREDICTED BY IDOCK:   -1.62 KCAL/MOL
REMARK 922        TOTAL FREE ENERGY PREDICTED BY IDOCK:   -2.52 KCAL/MOL
REMARK 923 INTER-LIGAND FREE ENERGY PREDICTED BY IDOCK:   -2.55 KCAL/MOL
REMARK 924 INTRA-LIGAND FREE ENERGY PREDICTED BY IDOCK:    0.04 KCAL/MOL
REMARK 927      BINDING AFFINITY PREDICTED BY RF-SCORE:    0.00 PKD
ROOT
HETATM    1  O5* UNL     1      -6.953   8.168  73.792  1.00  0.00    -0.118 OA 
HETATM    2  H5* UNL     1      -6.457   8.945  74.022  1.00  0.00     0.000 HD 
HETATM    3  C5* UNL     1      -8.325   8.481  73.549  1.00  0.00     0.012 C  
ENDROOT
BRANCH   3   4
HETATM    4  C4* UNL     1      -9.122   7.232  73.179  1.00  0.00    -0.153 C  
HETATM    5  O4* UNL     1      -9.572   7.302  71.814  1.00  0.00    -0.151 OA 
HETATM    6  C1* UNL     1      -9.838   5.946  71.435  1.00  0.00    -0.168 C  
HETATM    7  C2* UNL     1      -8.765   5.098  72.109  1.00  0.00    -0.132 C  
HETATM    8  H3* UNL     1      -8.119   4.474  74.597  1.00  0.00     0.000 HD 
HETATM    9  O3* UNL     1      -8.616   5.280  74.525  1.00  0.00    -0.109 OA 
HETATM   10  C3* UNL     1      -8.322   5.935  73.294  1.00  0.00    -0.116 C  
BRANCH   6  11
HETATM   11  N   UNL     1      -9.876   5.802  69.985  1.00  0.00    -0.171 N  
HETATM   12  C   UNL     1      -8.988   4.974  69.317  1.00  0.00    -0.096 C  
HETATM   13  C   UNL     1     -10.000   5.616  67.218  1.00  0.00    -0.159 C  
HETATM   14  C   UNL     1      -8.972   4.843  67.981  1.00  0.00    -0.121 C  
HETATM   15  O   UNL     1     -11.732   7.175  69.868  1.00  0.00    -0.129 OA 
HETATM   16  N   UNL     1     -10.882   6.348  67.957  1.00  0.00    -0.294 N  
HETATM   17  H   UNL     1     -11.616   6.840  67.446  1.00  0.00     0.000 HD 
HETATM   18  O   UNL     1     -10.057   5.597  65.990  1.00  0.00    -0.091 OA 
HETATM   19  C   UNL     1     -10.878   6.484  69.315  1.00  0.00    -0.307 C  
BRANCH  14  20
HETATM   20  C   UNL     1      -8.082   3.963  67.242  1.00  0.00    -0.091 C  
HETATM   21  C   UNL     1      -8.440   3.081  66.301  1.00  0.00    -0.107 C  
HETATM   22 BR   UNL     1      -7.236   1.963  65.433  1.00  0.00    -0.054 Br 
ENDBRANCH  14  20
ENDBRANCH   6  11
ENDBRANCH   3   4
TORSDOF 3
ENDMDL
MODEL      218
REMARK 921   NORMALIZED FREE ENERGY PREDICTED BY IDOCK:   -1.44 KCAL/MOL
REMARK 922        TOTAL FREE ENERGY PREDICTED BY IDOCK:   -2.30 KCAL/MOL
REMARK 923 INTER-LIGAND FREE ENERGY PREDICTED BY IDOCK:   -2.79 KCAL/MOL
REMARK 924 INTRA-LIGAND FREE ENERGY PREDICTED BY IDOCK:    0.49 KCAL/MOL
REMARK 927      BINDING AFFINITY PREDICTED BY RF-SCORE:    0.00 PKD
ROOT
HETATM    1  O5* UNL     1      -6.953   8.168  73.792  1.00  0.00    -0.118 OA 
HETATM    2  H5* UNL     1      -6.457   8.945  74.022  1.00  0.00     0.000 HD 
HETATM    3  C5* UNL     1      -8.325   8.481  73.549  1.00  0.00     0.012 C  
ENDROOT
BRANCH   3   4
HETATM    4  C4* UNL     1      -9.122   7.232  73.179  1.00  0.00    -0.153 C  
HETATM    5  O4* UNL     1      -9.572   7.302  71.814  1.00  0.00    -0.151 OA 
HETATM    6  C1* UNL     1      -9.838   5.946  71.435  1.00  0.00    -0.168 C  
HETATM    7  C2* UNL     1      -8.765   5.098  72.109  1.00  0.00    -0.132 C  
HETATM    8  H3* UNL     1      -8.119   4.474  74.597  1.00  0.00     0.000 HD 
HETATM    9  O3* UNL     1      -8.616   5.280  74.525  1.00  0.00    -0.109 OA 
HETATM   10  C3* UNL     1      -8.322   5.935  73.294  1.00  0.00    -0.116 C  
BRANCH   6  11
HETATM   11  N   UNL     1      -9.876   5.802  69.985  1.00  0.00    -0.171 N  
HETATM   12  C   UNL     1      -9.817   6.905  69.147  1.00  0.00    -0.156 C  
HETATM   13  C   UNL     1      -9.989   5.435  67.235  1.00  0.00    -0.171 C  
HETATM   14  C   UNL     1      -9.883   6.812  67.809  1.00  0.00    -0.148 C  
HETATM   15  O   UNL     1      -9.897   3.500  70.185  1.00  0.00    -0.148 OA 
HETATM   16  N   UNL     1      -9.967   4.402  68.126  1.00  0.00    -0.057 N  
HETATM   17  H   UNL     1      -9.991   3.458  67.740  1.00  0.00     0.000 HD 
HETATM   18  O   UNL     1     -10.089   5.233  66.027  1.00  0.00    -0.174 OA 
HETATM   19  C   UNL     1      -9.914   4.511  69.486  1.00  0.00    -0.165 C  
BRANCH  14  20
HETATM   20  C   UNL     1      -9.792   7.936  66.892  1.00  0.00    -0.309 C  
HETATM   21  C   UNL     1      -8.990   8.025  65.824  1.00  0.00    -0.102 C  
HETATM   22 BR   UNL     1      -8.909   9.521  64.726  1.00  0.00    -0.253 Br 
ENDBRANCH  14  20
ENDBRANCH   6  11
ENDBRANCH   3   4
TORSDOF 3
ENDMDL
MODEL      219
REMARK 921   NORMALIZED FREE ENERGY PREDICTED BY IDOCK:   -1.28 KCAL/MOL
REMARK 922        TOTAL FREE ENERGY PREDICTED BY IDOCK:   -2.11 KCAL/MOL
REMARK 923 INTER-LIGAND FREE ENERGY PREDICTED BY IDOCK:   -1.69 KCAL/MOL
REMARK 924 INTRA-LIGAND FREE ENERGY PREDICTED BY IDOCK:   -0.42 KCAL/MOL
REMARK 927      BINDING AFFINITY PREDICTED BY RF-SCORE:    0.00 PKD
ROOT
HETATM    1  O5* UNL     1      -6.331   1.783  64.574  1.00  0.00    -0.017 OA 
HETATM    2  H5* UNL     1      -5.514   1.425  64.247  1.00  0.00     0.000 HD 
HETATM    3  C5* UNL     1      -6.335   3.210  64.511  1.00  0.00    -0.023 C  
ENDROOT
BRANCH   3   4
HETATM    4  C4* UNL     1      -7.649   3.784  65.037  1.00  0.00    -0.077 C  
HETATM    5  O4* UNL     1      -7.613   3.901  66.471  1.00  0.00    -0.085 OA 
HETATM    6  C1* UNL     1      -8.617   4.871  66.795  1.00  0.00    -0.108 C  
HETATM    7  C2* UNL     1      -8.569   5.919  65.688  1.00  0.00    -0.155 C  
HETATM    8  H3* UNL     1      -9.086   5.971  63.095  1.00  0.00     0.000 HD 
HETATM    9  O3* UNL     1      -8.889   5.102  63.424  1.00  0.00    -0.092 OA 
HETATM   10  C3* UNL     1      -7.965   5.182  64.507  1.00  0.00    -0.106 C  
BRANCH   6  11
HETATM   11  N   UNL     1      -8.411   5.417  68.130  1.00  0.00    -0.099 N  
HETATM   12  C   UNL     1      -7.760   6.625  68.325  1.00  0.00    -0.105 C  
HETATM   13  C   UNL     1      -8.033   6.364  70.713  1.00  0.00    -0.111 C  
HETATM   14  C   UNL     1      -7.523   7.141  69.542  1.00  0.00    -0.095 C  
HETATM   15  O   UNL     1      -9.594   3.663  69.062  1.00  0.00    -0.171 OA 
HETATM   16  N   UNL     1      -8.727   5.224  70.430  1.00  0.00    -0.124 N  
HETATM   17  H   UNL     1      -9.119   4.713  71.221  1.00  0.00     0.000 HD 
HETATM   18  O   UNL     1      -7.845   6.724  71.872  1.00  0.00    -0.096 OA 
HETATM   19  C   UNL     1      -8.948   4.702  69.188  1.00  0.00    -0.098 C  
BRANCH  14  20
HETATM   20  C   UNL     1      -6.874   8.418  69.792  1.00  0.00    -0.043 C  
HETATM   21  C   UNL     1      -6.386   9.254  68.868  1.00  0.00    -0.044 C  
HETATM   22 BR   UNL     1      -5.533  10.852  69.280  1.00  0.00    -0.041 Br 
ENDBRANCH  14  20
ENDBRANCH   6  11
ENDBRANCH   3   4
TORSDOF 3
ENDMDL
MODEL      220
REMARK 921   NORMALIZED FREE ENERGY PREDICTED BY IDOCK:   -1.25 KCAL/MOL
REMARK 922        TOTAL FREE ENERGY PREDICTED BY IDOCK:   -2.08 KCAL/MOL
REMARK 923 INTER-LIGAND FREE ENERGY PREDICTED BY IDOCK:   -2.91 KCAL/MOL
REMARK 924 INTRA-LIGAND FREE ENERGY PREDICTED BY IDOCK:    0.83 KCAL/MOL
REMARK 927      BINDING AFFINITY PREDICTED BY RF-SCORE:    0.00 PKD
ROOT
HETATM    1  O5* UNL     1      -9.461   2.000  67.000  1.00  0.00    -0.372 OA 
HETATM    2  H5* UNL     1      -9.342   1.329  67.663  1.00  0.00     0.000 HD 
HETATM    3  C5* UNL     1      -8.298   2.819  66.876  1.00  0.00    -0.094 C  
ENDROOT
BRANCH   3   4
HETATM    4  C4* UNL     1      -8.488   3.897  65.811  1.00  0.00    -0.110 C  
HETATM    5  O4* UNL     1      -9.020   5.099  66.396  1.00  0.00    -0.120 OA 
HETATM    6  C1* UNL     1      -8.690   6.145  65.473  1.00  0.00    -0.098 C  
HETATM    7  C2* UNL     1      -7.308   5.806  64.924  1.00  0.00    -0.068 C  
HETATM    8  H3* UNL     1      -6.277   3.892  63.418  1.00  0.00     0.000 HD 
HETATM    9  O3* UNL     1      -7.082   3.638  63.854  1.00  0.00    -0.048 OA 
HETATM   10  C3* UNL     1      -7.194   4.305  65.109  1.00  0.00    -0.071 C  
BRANCH   6  11
HETATM   11  N   UNL     1      -8.765   7.453  66.110  1.00  0.00    -0.151 N  
HETATM   12  C   UNL     1      -9.724   7.737  67.070  1.00  0.00    -0.197 C  
HETATM   13  C   UNL     1      -8.854   9.985  67.246  1.00  0.00    -0.135 C  
HETATM   14  C   UNL     1      -9.843   8.940  67.653  1.00  0.00    -0.229 C  
HETATM   15  O   UNL     1      -6.885   8.152  64.961  1.00  0.00    -0.061 OA 
HETATM   16  N   UNL     1      -7.898   9.602  66.351  1.00  0.00    -0.101 N  
HETATM   17  H   UNL     1      -7.191  10.295  66.104  1.00  0.00     0.000 HD 
HETATM   18  O   UNL     1      -8.889  11.130  67.690  1.00  0.00    -0.134 OA 
HETATM   19  C   UNL     1      -7.797   8.378  65.755  1.00  0.00    -0.101 C  
BRANCH  14  20
HETATM   20  C   UNL     1     -10.811   9.272  68.686  1.00  0.00    -0.120 C  
HETATM   21  C   UNL     1     -10.639   9.136  70.006  1.00  0.00    -0.227 C  
HETATM   22 BR   UNL     1     -11.949   9.548  71.257  1.00  0.00    -0.474 Br 
ENDBRANCH  14  20
ENDBRANCH   6  11
ENDBRANCH   3   4
TORSDOF 3
ENDMDL
MODEL      221
REMARK 921   NORMALIZED FREE ENERGY PREDICTED BY IDOCK:   -1.17 KCAL/MOL
REMARK 922        TOTAL FREE ENERGY PREDICTED BY IDOCK:   -1.98 KCAL/MOL
REMARK 923 INTER-LIGAND FREE ENERGY PREDICTED BY IDOCK:   -3.00 KCAL/MOL
REMARK 924 INTRA-LIGAND FREE ENERGY PREDICTED BY IDOCK:    1.01 KCAL/MOL
REMARK 927      BINDING AFFINITY PREDICTED BY RF-SCORE:    0.00 PKD
ROOT
HETATM    1  O5* UNL     1     -11.579   6.486  72.888  1.00  0.00    -0.476 OA 
HETATM    2  H5* UNL     1     -12.481   6.524  73.183  1.00  0.00     0.000 HD 
HETATM    3  C5* UNL     1     -11.291   7.535  71.962  1.00  0.00    -0.273 C  
ENDROOT
BRANCH   3   4
HETATM    4  C4* UNL     1      -9.840   7.473  71.488  1.00  0.00    -0.166 C  
HETATM    5  O4* UNL     1      -9.778   7.141  70.089  1.00  0.00    -0.172 OA 
HETATM    6  C1* UNL     1      -8.490   7.595  69.652  1.00  0.00    -0.135 C  
HETATM    7  C2* UNL     1      -8.220   8.895  70.401  1.00  0.00    -0.146 C  
HETATM    8  H3* UNL     1      -7.819   9.589  72.922  1.00  0.00     0.000 HD 
HETATM    9  O3* UNL     1      -8.289   8.769  72.825  1.00  0.00    -0.412 OA 
HETATM   10  C3* UNL     1      -9.086   8.792  71.644  1.00  0.00    -0.244 C  
BRANCH   6  11
HETATM   11  N   UNL     1      -8.444   7.732  68.202  1.00  0.00    -0.124 N  
HETATM   12  C   UNL     1      -8.839   6.700  67.365  1.00  0.00    -0.116 C  
HETATM   13  C   UNL     1      -8.290   8.070  65.451  1.00  0.00    -0.153 C  
HETATM   14  C   UNL     1      -8.778   6.779  66.026  1.00  0.00    -0.155 C  
HETATM   15  O   UNL     1      -7.751   9.927  68.402  1.00  0.00    -0.083 OA 
HETATM   16  N   UNL     1      -7.992   9.058  66.342  1.00  0.00    -0.102 N  
HETATM   17  H   UNL     1      -7.703   9.957  65.956  1.00  0.00     0.000 HD 
HETATM   18  O   UNL     1      -8.162   8.242  64.241  1.00  0.00    -0.160 OA 
HETATM   19  C   UNL     1      -8.044   8.960  67.702  1.00  0.00    -0.106 C  
BRANCH  14  20
HETATM   20  C   UNL     1      -9.212   5.736  65.111  1.00  0.00     0.216 C  
HETATM   21  C   UNL     1     -10.069   4.746  65.385  1.00  0.00    -0.083 C  
HETATM   22 BR   UNL     1     -10.538   3.427  64.163  1.00  0.00    -0.106 Br 
ENDBRANCH  14  20
ENDBRANCH   6  11
ENDBRANCH   3   4
TORSDOF 3
ENDMDL
MODEL      222
REMARK 921   NORMALIZED FREE ENERGY PREDICTED BY IDOCK:   -1.12 KCAL/MOL
REMARK 922        TOTAL FREE ENERGY PREDICTED BY IDOCK:   -1.93 KCAL/MOL
REMARK 923 INTER-LIGAND FREE ENERGY PREDICTED BY IDOCK:   -1.87 KCAL/MOL
REMARK 924 INTRA-LIGAND FREE ENERGY PREDICTED BY IDOCK:   -0.06 KCAL/MOL
REMARK 927      BINDING AFFINITY PREDICTED BY RF-SCORE:    0.00 PKD
ROOT
HETATM    1  O5* UNL     1     -11.891  11.018  66.740  1.00  0.00    -0.160 OA 
HETATM    2  H5* UNL     1     -12.559  11.057  67.414  1.00  0.00     0.000 HD 
HETATM    3  C5* UNL     1     -10.613  11.394  67.254  1.00  0.00    -0.227 C  
ENDROOT
BRANCH   3   4
HETATM    4  C4* UNL     1      -9.538  11.331  66.170  1.00  0.00    -0.214 C  
HETATM    5  O4* UNL     1      -8.809  10.092  66.251  1.00  0.00    -0.144 OA 
HETATM    6  C1* UNL     1      -8.219   9.918  64.956  1.00  0.00    -0.143 C  
HETATM    7  C2* UNL     1      -9.245  10.429  63.950  1.00  0.00    -0.301 C  
HETATM    8  H3* UNL     1     -10.319  12.771  63.354  1.00  0.00     0.000 HD 
HETATM    9  O3* UNL     1      -9.974  12.727  64.238  1.00  0.00    -0.277 OA 
HETATM   10  C3* UNL     1     -10.093  11.402  64.749  1.00  0.00    -0.277 C  
BRANCH   6  11
HETATM   11  N   UNL     1      -7.825   8.531  64.740  1.00  0.00    -0.117 N  
HETATM   12  C   UNL     1      -8.623   7.478  65.160  1.00  0.00     0.042 C  
HETATM   13  C   UNL     1      -6.977   5.922  64.316  1.00  0.00    -0.051 C  
HETATM   14  C   UNL     1      -8.275   6.191  65.008  1.00  0.00    -0.132 C  
HETATM   15  O   UNL     1      -5.941   9.216  63.590  1.00  0.00    -0.085 OA 
HETATM   16  N   UNL     1      -6.290   7.012  63.868  1.00  0.00    -0.043 N  
HETATM   17  H   UNL     1      -5.427   6.835  63.354  1.00  0.00     0.000 HD 
HETATM   18  O   UNL     1      -6.545   4.784  64.151  1.00  0.00    -0.040 OA 
HETATM   19  C   UNL     1      -6.647   8.318  64.043  1.00  0.00    -0.071 C  
BRANCH  14  20
HETATM   20  C   UNL     1      -9.094   5.056  65.403  1.00  0.00    -0.157 C  
HETATM   21  C   UNL     1      -8.656   3.912  65.944  1.00  0.00    -0.111 C  
HETATM   22 BR   UNL     1      -9.772   2.493  66.382  1.00  0.00     0.636 Br 
ENDBRANCH  14  20
ENDBRANCH   6  11
ENDBRANCH   3   4
TORSDOF 3
ENDMDL
MODEL      223
REMARK 921   NORMALIZED FREE ENERGY PREDICTED BY IDOCK:   -1.11 KCAL/MOL
REMARK 922        TOTAL FREE ENERGY PREDICTED BY IDOCK:   -1.91 KCAL/MOL
REMARK 923 INTER-LIGAND FREE ENERGY PREDICTED BY IDOCK:   -2.37 KCAL/MOL
REMARK 924 INTRA-LIGAND FREE ENERGY PREDICTED BY IDOCK:    0.46 KCAL/MOL
REMARK 927      BINDING AFFINITY PREDICTED BY RF-SCORE:    0.00 PKD
ROOT
HETATM    1  O5* UNL     1      -6.331   1.783  64.574  1.00  0.00    -0.017 OA 
HETATM    2  H5* UNL     1      -5.514   1.425  64.247  1.00  0.00     0.000 HD 
HETATM    3  C5* UNL     1      -6.335   3.210  64.511  1.00  0.00    -0.023 C  
ENDROOT
BRANCH   3   4
HETATM    4  C4* UNL     1      -7.649   3.784  65.037  1.00  0.00    -0.077 C  
HETATM    5  O4* UNL     1      -7.638   3.839  66.475  1.00  0.00    -0.082 OA 
HETATM    6  C1* UNL     1      -8.632   4.812  66.822  1.00  0.00    -0.108 C  
HETATM    7  C2* UNL     1      -8.545   5.905  65.762  1.00  0.00    -0.154 C  
HETATM    8  H3* UNL     1      -9.012   6.076  63.165  1.00  0.00     0.000 HD 
HETATM    9  O3* UNL     1      -8.836   5.190  63.460  1.00  0.00    -0.089 OA 
HETATM   10  C3* UNL     1      -7.932   5.208  64.562  1.00  0.00    -0.106 C  
BRANCH   6  11
HETATM   11  N   UNL     1      -8.442   5.297  68.183  1.00  0.00    -0.097 N  
HETATM   12  C   UNL     1      -9.508   5.754  68.943  1.00  0.00    -0.124 C  
HETATM   13  C   UNL     1      -7.982   6.235  70.755  1.00  0.00    -0.112 C  
HETATM   14  C   UNL     1      -9.365   6.239  70.187  1.00  0.00    -0.165 C  
HETATM   15  O   UNL     1      -6.196   4.762  68.092  1.00  0.00    -0.033 OA 
HETATM   16  N   UNL     1      -7.003   5.700  69.969  1.00  0.00    -0.063 N  
HETATM   17  H   UNL     1      -6.066   5.650  70.368  1.00  0.00     0.000 HD 
HETATM   18  O   UNL     1      -7.729   6.685  71.870  1.00  0.00    -0.095 OA 
HETATM   19  C   UNL     1      -7.160   5.224  68.700  1.00  0.00    -0.061 C  
BRANCH  14  20
HETATM   20  C   UNL     1     -10.456   6.698  71.031  1.00  0.00    -0.246 C  
HETATM   21  C   UNL     1     -11.752   6.742  70.699  1.00  0.00    -0.386 C  
HETATM   22 BR   UNL     1     -13.078   7.384  71.830  1.00  0.00    -0.331 Br 
ENDBRANCH  14  20
ENDBRANCH   6  11
ENDBRANCH   3   4
TORSDOF 3
ENDMDL
MODEL      224
REMARK 921   NORMALIZED FREE ENERGY PREDICTED BY IDOCK:   -0.75 KCAL/MOL
REMARK 922        TOTAL FREE ENERGY PREDICTED BY IDOCK:   -1.49 KCAL/MOL
REMARK 923 INTER-LIGAND FREE ENERGY PREDICTED BY IDOCK:   -1.88 KCAL/MOL
REMARK 924 INTRA-LIGAND FREE ENERGY PREDICTED BY IDOCK:    0.40 KCAL/MOL
REMARK 927      BINDING AFFINITY PREDICTED BY RF-SCORE:    0.00 PKD
ROOT
HETATM    1  O5* UNL     1      -5.126  11.830  64.484  1.00  0.00     0.239 OA 
HETATM    2  H5* UNL     1      -4.218  11.833  64.206  1.00  0.00     0.000 HD 
HETATM    3  C5* UNL     1      -5.247  11.464  65.859  1.00  0.00     0.062 C  
ENDROOT
BRANCH   3   4
HETATM    4  C4* UNL     1      -6.707  11.458  66.306  1.00  0.00     0.060 C  
HETATM    5  O4* UNL     1      -7.075  10.165  66.820  1.00  0.00    -0.088 OA 
HETATM    6  C1* UNL     1      -8.227  10.400  67.640  1.00  0.00    -0.110 C  
HETATM    7  C2* UNL     1      -7.991  11.738  68.331  1.00  0.00    -0.147 C  
HETATM    8  H3* UNL     1      -7.785  14.262  67.567  1.00  0.00     0.000 HD 
HETATM    9  O3* UNL     1      -7.594  13.641  66.875  1.00  0.00     0.120 OA 
HETATM   10  C3* UNL     1      -7.014  12.458  67.420  1.00  0.00    -0.149 C  
BRANCH   6  11
HETATM   11  N   UNL     1      -8.452   9.294  68.562  1.00  0.00    -0.122 N  
HETATM   12  C   UNL     1      -9.728   8.943  68.973  1.00  0.00    -0.171 C  
HETATM   13  C   UNL     1      -8.782   7.195  70.348  1.00  0.00    -0.150 C  
HETATM   14  C   UNL     1      -9.969   7.953  69.847  1.00  0.00    -0.192 C  
HETATM   15  O   UNL     1      -6.193   8.803  68.569  1.00  0.00    -0.051 OA 
HETATM   16  N   UNL     1      -7.570   7.556  69.837  1.00  0.00    -0.091 N  
HETATM   17  H   UNL     1      -6.761   7.013  70.139  1.00  0.00     0.000 HD 
HETATM   18  O   UNL     1      -8.882   6.291  71.175  1.00  0.00    -0.140 OA 
HETATM   19  C   UNL     1      -7.337   8.576  68.960  1.00  0.00    -0.081 C  
BRANCH  14  20
HETATM   20  C   UNL     1     -11.291   7.529  70.280  1.00  0.00    -0.219 C  
HETATM   21  C   UNL     1     -12.055   8.131  71.199  1.00  0.00    -0.260 C  
HETATM   22 BR   UNL     1     -13.720   7.496  71.723  1.00  0.00    -0.390 Br 
ENDBRANCH  14  20
ENDBRANCH   6  11
ENDBRANCH   3   4
TORSDOF 3
ENDMDL
MODEL      225
REMARK 921   NORMALIZED FREE ENERGY PREDICTED BY IDOCK:   -0.42 KCAL/MOL
REMARK 922        TOTAL FREE ENERGY PREDICTED BY IDOCK:   -1.10 KCAL/MOL
REMARK 923 INTER-LIGAND FREE ENERGY PREDICTED BY IDOCK:   -0.90 KCAL/MOL
REMARK 924 INTRA-LIGAND FREE ENERGY PREDICTED BY IDOCK:   -0.20 KCAL/MOL
REMARK 927      BINDING AFFINITY PREDICTED BY RF-SCORE:    0.00 PKD
ROOT
HETATM    1  O5* UNL     1      -7.183  11.265  70.779  1.00  0.00     0.329 OA 
HETATM    2  H5* UNL     1      -6.780  10.991  71.595  1.00  0.00     0.000 HD 
HETATM    3  C5* UNL     1      -6.288  12.060  70.000  1.00  0.00    -0.053 C  
ENDROOT
BRANCH   3   4
HETATM    4  C4* UNL     1      -6.936  12.501  68.689  1.00  0.00    -0.091 C  
HETATM    5  O4* UNL     1      -6.725  11.514  67.662  1.00  0.00    -0.068 OA 
HETATM    6  C1* UNL     1      -7.748  11.760  66.689  1.00  0.00    -0.023 C  
HETATM    7  C2* UNL     1      -8.993  12.161  67.473  1.00  0.00    -0.177 C  
HETATM    8  H3* UNL     1      -9.700  14.196  69.007  1.00  0.00     0.000 HD 
HETATM    9  O3* UNL     1      -8.760  14.076  68.948  1.00  0.00    -0.079 OA 
HETATM   10  C3* UNL     1      -8.448  12.694  68.785  1.00  0.00     0.162 C  
BRANCH   6  11
HETATM   11  N   UNL     1      -7.944  10.601  65.827  1.00  0.00    -0.162 N  
HETATM   12  C   UNL     1      -7.378   9.372  66.128  1.00  0.00    -0.096 C  
HETATM   13  C   UNL     1      -8.344   8.457  64.109  1.00  0.00    -0.074 C  
HETATM   14  C   UNL     1      -7.511   8.294  65.340  1.00  0.00    -0.085 C  
HETATM   15  O   UNL     1      -9.350  11.822  64.458  1.00  0.00    -0.046 OA 
HETATM   16  N   UNL     1      -8.925   9.678  63.927  1.00  0.00    -0.295 N  
HETATM   17  H   UNL     1      -9.533   9.784  63.114  1.00  0.00     0.000 HD 
HETATM   18  O   UNL     1      -8.505   7.547  63.300  1.00  0.00     0.082 OA 
HETATM   19  C   UNL     1      -8.770  10.772  64.728  1.00  0.00    -0.109 C  
BRANCH  14  20
HETATM   20  C   UNL     1      -6.963   6.978  65.631  1.00  0.00    -0.056 C  
HETATM   21  C   UNL     1      -6.433   6.580  66.794  1.00  0.00    -0.043 C  
HETATM   22 BR   UNL     1      -5.717   4.887  67.067  1.00  0.00    -0.014 Br 
ENDBRANCH  14  20
ENDBRANCH   6  11
ENDBRANCH   3   4
TORSDOF 3
ENDMDL
MODEL      226
REMARK 921   NORMALIZED FREE ENERGY PREDICTED BY IDOCK:   -0.35 KCAL/MOL
REMARK 922        TOTAL FREE ENERGY PREDICTED BY IDOCK:   -1.03 KCAL/MOL
REMARK 923 INTER-LIGAND FREE ENERGY PREDICTED BY IDOCK:   -1.36 KCAL/MOL
REMARK 924 INTRA-LIGAND FREE ENERGY PREDICTED BY IDOCK:    0.33 KCAL/MOL
REMARK 927      BINDING AFFINITY PREDICTED BY RF-SCORE:    0.00 PKD
ROOT
HETATM    1  O5* UNL     1      -7.379  11.235  70.494  1.00  0.00     0.027 OA 
HETATM    2  H5* UNL     1      -7.129  10.618  71.172  1.00  0.00     0.000 HD 
HETATM    3  C5* UNL     1      -6.502  11.155  69.369  1.00  0.00    -0.100 C  
ENDROOT
BRANCH   3   4
HETATM    4  C4* UNL     1      -6.904  12.147  68.280  1.00  0.00    -0.069 C  
HETATM    5  O4* UNL     1      -8.032  12.934  68.703  1.00  0.00    -0.114 OA 
HETATM    6  C1* UNL     1      -8.001  14.108  67.880  1.00  0.00    -0.156 C  
HETATM    7  C2* UNL     1      -6.528  14.458  67.696  1.00  0.00    -0.151 C  
HETATM    8  H3* UNL     1      -4.442  13.343  66.513  1.00  0.00     0.000 HD 
HETATM    9  O3* UNL     1      -5.126  12.723  66.737  1.00  0.00    -0.269 OA 
HETATM   10  C3* UNL     1      -5.804  13.143  67.919  1.00  0.00    -0.132 C  
BRANCH   6  11
HETATM   11  N   UNL     1      -8.791  15.183  68.466  1.00  0.00    -0.177 N  
HETATM   12  C   UNL     1      -9.662  14.949  69.519  1.00  0.00    -0.034 C  
HETATM   13  C   UNL     1     -10.283  17.285  69.497  1.00  0.00    -0.046 C  
HETATM   14  C   UNL     1     -10.430  15.908  70.060  1.00  0.00    -0.295 C  
HETATM   15  O   UNL     1      -7.777  16.726  67.076  1.00  0.00    -0.162 OA 
HETATM   16  N   UNL     1      -9.351  17.443  68.513  1.00  0.00    -0.275 N  
HETATM   17  H   UNL     1      -9.212  18.389  68.156  1.00  0.00     0.000 HD 
HETATM   18  O   UNL     1     -10.959  18.232  69.893  1.00  0.00     1.262 OA 
HETATM   19  C   UNL     1      -8.587  16.456  67.961  1.00  0.00    -0.185 C  
BRANCH  14  20
HETATM   20  C   UNL     1     -11.331  15.716  71.185  1.00  0.00    -0.446 C  
HETATM   21  C   UNL     1     -11.459  14.604  71.918  1.00  0.00     0.184 C  
HETATM   22 BR   UNL     1     -12.670  14.432  73.317  1.00  0.00    -0.218 Br 
ENDBRANCH  14  20
ENDBRANCH   6  11
ENDBRANCH   3   4
TORSDOF 3
ENDMDL
MODEL      227
REMARK 921   NORMALIZED FREE ENERGY PREDICTED BY IDOCK:    0.01 KCAL/MOL
REMARK 922        TOTAL FREE ENERGY PREDICTED BY IDOCK:   -0.60 KCAL/MOL
REMARK 923 INTER-LIGAND FREE ENERGY PREDICTED BY IDOCK:   -0.10 KCAL/MOL
REMARK 924 INTRA-LIGAND FREE ENERGY PREDICTED BY IDOCK:   -0.50 KCAL/MOL
REMARK 927      BINDING AFFINITY PREDICTED BY RF-SCORE:    0.00 PKD
ROOT
HETATM    1  O5* UNL     1      -6.387   9.070  70.314  1.00  0.00    -0.040 OA 
HETATM    2  H5* UNL     1      -5.478   8.900  70.530  1.00  0.00     0.000 HD 
HETATM    3  C5* UNL     1      -6.871  10.232  70.988  1.00  0.00     0.511 C  
ENDROOT
BRANCH   3   4
HETATM    4  C4* UNL     1      -8.334  10.505  70.642  1.00  0.00     1.846 C  
HETATM    5  O4* UNL     1      -8.432  11.315  69.456  1.00  0.00     0.231 OA 
HETATM    6  C1* UNL     1      -9.756  11.088  68.955  1.00  0.00    -0.172 C  
HETATM    7  C2* UNL     1     -10.061   9.616  69.209  1.00  0.00    -0.201 C  
HETATM    8  H3* UNL     1     -10.401   8.085  71.339  1.00  0.00     0.000 HD 
HETATM    9  O3* UNL     1      -9.896   8.870  71.514  1.00  0.00    -0.266 OA 
HETATM   10  C3* UNL     1      -9.146   9.242  70.360  1.00  0.00    -0.247 C  
BRANCH   6  11
HETATM   11  N   UNL     1      -9.863  11.477  67.554  1.00  0.00    -0.188 N  
HETATM   12  C   UNL     1      -8.958  11.023  66.607  1.00  0.00    -0.168 C  
HETATM   13  C   UNL     1     -10.123  12.297  64.914  1.00  0.00    -0.250 C  
HETATM   14  C   UNL     1      -9.006  11.387  65.316  1.00  0.00    -0.017 C  
HETATM   15  O   UNL     1     -11.810  12.641  67.995  1.00  0.00    -0.338 OA 
HETATM   16  N   UNL     1     -11.012  12.636  65.893  1.00  0.00    -0.271 N  
HETATM   17  H   UNL     1     -11.803  13.218  65.617  1.00  0.00     0.000 HD 
HETATM   18  O   UNL     1     -10.246  12.720  63.767  1.00  0.00    -0.378 OA 
HETATM   19  C   UNL     1     -10.943  12.271  67.206  1.00  0.00    -0.256 C  
BRANCH  14  20
HETATM   20  C   UNL     1      -8.100  10.911  64.283  1.00  0.00     0.282 C  
HETATM   21  C   UNL     1      -6.928  10.295  64.478  1.00  0.00    -0.067 C  
HETATM   22 BR   UNL     1      -5.811   9.755  63.095  1.00  0.00    -0.114 Br 
ENDBRANCH  14  20
ENDBRANCH   6  11
ENDBRANCH   3   4
TORSDOF 3
ENDMDL
MODEL      228
REMARK 921   NORMALIZED FREE ENERGY PREDICTED BY IDOCK:    1.32 KCAL/MOL
REMARK 922        TOTAL FREE ENERGY PREDICTED BY IDOCK:    0.94 KCAL/MOL
REMARK 923 INTER-LIGAND FREE ENERGY PREDICTED BY IDOCK:   -0.25 KCAL/MOL
REMARK 924 INTRA-LIGAND FREE ENERGY PREDICTED BY IDOCK:    1.19 KCAL/MOL
REMARK 927      BINDING AFFINITY PREDICTED BY RF-SCORE:    0.00 PKD
ROOT
HETATM    1  O5* UNL     1      -5.921  19.002  72.647  1.00  0.00     0.440 OA 
HETATM    2  H5* UNL     1      -6.298  19.378  73.435  1.00  0.00     0.000 HD 
HETATM    3  C5* UNL     1      -6.806  19.137  71.534  1.00  0.00     2.129 C  
ENDROOT
BRANCH   3   4
HETATM    4  C4* UNL     1      -6.202  18.533  70.268  1.00  0.00     0.077 C  
HETATM    5  O4* UNL     1      -6.846  17.288  69.943  1.00  0.00     0.046 OA 
HETATM    6  C1* UNL     1      -6.584  17.082  68.549  1.00  0.00    -0.168 C  
HETATM    7  C2* UNL     1      -6.646  18.460  67.897  1.00  0.00    -0.208 C  
HETATM    8  H3* UNL     1      -5.230  20.690  68.027  1.00  0.00     0.000 HD 
HETATM    9  O3* UNL     1      -5.140  20.138  68.795  1.00  0.00    -0.188 OA 
HETATM   10  C3* UNL     1      -6.348  19.420  69.033  1.00  0.00    -0.279 C  
BRANCH   6  11
HETATM   11  N   UNL     1      -7.515  16.119  67.975  1.00  0.00    -0.129 N  
HETATM   12  C   UNL     1      -7.203  14.770  67.897  1.00  0.00    -0.156 C  
HETATM   13  C   UNL     1      -9.335  14.360  66.834  1.00  0.00    -0.256 C  
HETATM   14  C   UNL     1      -8.021  13.861  67.344  1.00  0.00    -0.184 C  
HETATM   15  O   UNL     1      -9.097  17.778  67.679  1.00  0.00    -0.242 OA 
HETATM   16  N   UNL     1      -9.594  15.687  67.017  1.00  0.00    -0.220 N  
HETATM   17  H   UNL     1     -10.507  16.026  66.714  1.00  0.00     0.000 HD 
HETATM   18  O   UNL     1     -10.147  13.622  66.280  1.00  0.00    -0.284 OA 
HETATM   19  C   UNL     1      -8.746  16.604  67.567  1.00  0.00    -0.190 C  
BRANCH  14  20
HETATM   20  C   UNL     1      -7.750  12.434  67.270  1.00  0.00    -0.158 C  
HETATM   21  C   UNL     1      -8.641  11.470  67.012  1.00  0.00    -0.161 C  
HETATM   22 BR   UNL     1      -8.214   9.662  66.977  1.00  0.00    -0.117 Br 
ENDBRANCH  14  20
ENDBRANCH   6  11
ENDBRANCH   3   4
TORSDOF 3
ENDMDL
MODEL      229
REMARK 921   NORMALIZED FREE ENERGY PREDICTED BY IDOCK:    2.02 KCAL/MOL
REMARK 922        TOTAL FREE ENERGY PREDICTED BY IDOCK:    1.76 KCAL/MOL
REMARK 923 INTER-LIGAND FREE ENERGY PREDICTED BY IDOCK:    1.42 KCAL/MOL
REMARK 924 INTRA-LIGAND FREE ENERGY PREDICTED BY IDOCK:    0.34 KCAL/MOL
REMARK 927      BINDING AFFINITY PREDICTED BY RF-SCORE:    0.00 PKD
ROOT
HETATM    1  O5* UNL     1      -6.936  16.538  64.813  1.00  0.00     4.135 OA 
HETATM    2  H5* UNL     1      -6.410  17.004  64.174  1.00  0.00     0.000 HD 
HETATM    3  C5* UNL     1      -7.850  17.416  65.472  1.00  0.00     0.881 C  
ENDROOT
BRANCH   3   4
HETATM    4  C4* UNL     1      -8.695  16.667  66.500  1.00  0.00    -0.282 C  
HETATM    5  O4* UNL     1      -9.095  15.382  65.989  1.00  0.00    -0.322 OA 
HETATM    6  C1* UNL     1      -9.416  14.600  67.147  1.00  0.00    -0.229 C  
HETATM    7  C2* UNL     1      -8.409  14.998  68.221  1.00  0.00    -0.145 C  
HETATM    8  H3* UNL     1      -7.878  17.184  69.612  1.00  0.00     0.000 HD 
HETATM    9  O3* UNL     1      -8.332  17.356  68.795  1.00  0.00    -0.271 OA 
HETATM   10  C3* UNL     1      -7.965  16.391  67.813  1.00  0.00    -0.149 C  
BRANCH   6  11
HETATM   11  N   UNL     1      -9.413  13.176  66.838  1.00  0.00    -0.237 N  
HETATM   12  C   UNL     1      -8.981  12.237  67.761  1.00  0.00    -0.177 C  
HETATM   13  C   UNL     1      -9.410  10.486  66.150  1.00  0.00    -0.176 C  
HETATM   14  C   UNL     1      -8.933  10.921  67.499  1.00  0.00    -0.136 C  
HETATM   15  O   UNL     1     -10.376  13.591  64.779  1.00  0.00    -0.388 OA 
HETATM   16  N   UNL     1      -9.888  11.466  65.330  1.00  0.00    -0.239 N  
HETATM   17  H   UNL     1     -10.259  11.172  64.426  1.00  0.00     0.000 HD 
HETATM   18  O   UNL     1      -9.380   9.312  65.790  1.00  0.00    -0.208 OA 
HETATM   19  C   UNL     1      -9.917  12.803  65.603  1.00  0.00    -0.238 C  
BRANCH  14  20
HETATM   20  C   UNL     1      -8.518   9.898  68.446  1.00  0.00    -0.111 C  
HETATM   21  C   UNL     1      -9.295   8.947  68.976  1.00  0.00    -0.144 C  
HETATM   22 BR   UNL     1      -8.690   7.701  70.215  1.00  0.00    -0.145 Br 
ENDBRANCH  14  20
ENDBRANCH   6  11
ENDBRANCH   3   4
TORSDOF 3
ENDMDL
MODEL      230
REMARK 921   NORMALIZED FREE ENERGY PREDICTED BY IDOCK:    3.06 KCAL/MOL
REMARK 922        TOTAL FREE ENERGY PREDICTED BY IDOCK:    2.99 KCAL/MOL
REMARK 923 INTER-LIGAND FREE ENERGY PREDICTED BY IDOCK:    2.27 KCAL/MOL
REMARK 924 INTRA-LIGAND FREE ENERGY PREDICTED BY IDOCK:    0.72 KCAL/MOL
REMARK 927      BINDING AFFINITY PREDICTED BY RF-SCORE:    0.00 PKD
ROOT
HETATM    1  O5* UNL     1      -5.340  13.494  66.814  1.00  0.00     0.285 OA 
HETATM    2  H5* UNL     1      -4.512  13.064  66.633  1.00  0.00     0.000 HD 
HETATM    3  C5* UNL     1      -5.268  14.275  68.008  1.00  0.00    -0.102 C  
ENDROOT
BRANCH   3   4
HETATM    4  C4* UNL     1      -6.599  14.966  68.299  1.00  0.00    -0.115 C  
HETATM    5  O4* UNL     1      -7.702  14.123  67.921  1.00  0.00    -0.127 OA 
HETATM    6  C1* UNL     1      -8.823  14.613  68.668  1.00  0.00    -0.183 C  
HETATM    7  C2* UNL     1      -8.279  15.023  70.032  1.00  0.00     0.373 C  
HETATM    8  H3* UNL     1      -6.624  16.876  70.939  1.00  0.00     0.000 HD 
HETATM    9  O3* UNL     1      -6.493  16.668  70.022  1.00  0.00    -0.133 OA 
HETATM   10  C3* UNL     1      -6.809  15.300  69.775  1.00  0.00    -0.172 C  
BRANCH   6  11
HETATM   11  N   UNL     1      -9.886  13.618  68.734  1.00  0.00    -0.127 N  
HETATM   12  C   UNL     1     -10.518  13.314  69.930  1.00  0.00     1.122 C  
HETATM   13  C   UNL     1     -11.879  11.685  68.773  1.00  0.00    -0.325 C  
HETATM   14  C   UNL     1     -11.477  12.381  70.034  1.00  0.00    -0.110 C  
HETATM   15  O   UNL     1      -9.795  13.324  66.444  1.00  0.00    -0.269 OA 
HETATM   16  N   UNL     1     -11.260  12.097  67.629  1.00  0.00    -0.266 N  
HETATM   17  H   UNL     1     -11.562  11.660  66.758  1.00  0.00     0.000 HD 
HETATM   18  O   UNL     1     -12.722  10.792  68.756  1.00  0.00    -0.054 OA 
HETATM   19  C   UNL     1     -10.275  13.037  67.539  1.00  0.00    -0.221 C  
BRANCH  14  20
HETATM   20  C   UNL     1     -12.188  12.052  71.260  1.00  0.00    -0.022 C  
HETATM   21  C   UNL     1     -13.185  11.168  71.385  1.00  0.00    -0.203 C  
HETATM   22 BR   UNL     1     -14.068  10.839  72.986  1.00  0.00     2.920 Br 
ENDBRANCH  14  20
ENDBRANCH   6  11
ENDBRANCH   3   4
TORSDOF 3
ENDMDL
MODEL      231
REMARK 921   NORMALIZED FREE ENERGY PREDICTED BY IDOCK:    5.80 KCAL/MOL
REMARK 922        TOTAL FREE ENERGY PREDICTED BY IDOCK:    6.21 KCAL/MOL
REMARK 923 INTER-LIGAND FREE ENERGY PREDICTED BY IDOCK:    5.92 KCAL/MOL
REMARK 924 INTRA-LIGAND FREE ENERGY PREDICTED BY IDOCK:    0.29 KCAL/MOL
REMARK 927      BINDING AFFINITY PREDICTED BY RF-SCORE:    0.00 PKD
ROOT
HETATM    1  O5* UNL     1     -12.827  20.055  67.922  1.00  0.00     2.917 OA 
HETATM    2  H5* UNL     1     -13.762  20.170  67.796  1.00  0.00     0.000 HD 
HETATM    3  C5* UNL     1     -12.432  18.707  67.670  1.00  0.00     4.928 C  
ENDROOT
BRANCH   3   4
HETATM    4  C4* UNL     1     -10.929  18.522  67.872  1.00  0.00    -0.047 C  
HETATM    5  O4* UNL     1     -10.633  17.169  68.265  1.00  0.00    -0.348 OA 
HETATM    6  C1* UNL     1      -9.250  16.977  67.940  1.00  0.00    -0.239 C  
HETATM    7  C2* UNL     1      -9.011  17.733  66.637  1.00  0.00    -0.283 C  
HETATM    8  H3* UNL     1      -9.033  20.267  65.878  1.00  0.00     0.000 HD 
HETATM    9  O3* UNL     1      -9.548  20.101  66.659  1.00  0.00    -0.391 OA 
HETATM   10  C3* UNL     1     -10.102  18.788  66.616  1.00  0.00    -0.378 C  
BRANCH   6  11
HETATM   11  N   UNL     1      -8.918  15.560  67.866  1.00  0.00    -0.173 N  
HETATM   12  C   UNL     1      -8.158  14.943  68.848  1.00  0.00    -0.165 C  
HETATM   13  C   UNL     1      -8.305  12.863  67.625  1.00  0.00    -0.176 C  
HETATM   14  C   UNL     1      -7.805  13.649  68.795  1.00  0.00    -0.043 C  
HETATM   15  O   UNL     1     -10.182  15.334  65.944  1.00  0.00    -0.287 OA 
HETATM   16  N   UNL     1      -9.107  13.528  66.745  1.00  0.00    -0.339 N  
HETATM   17  H   UNL     1      -9.490  12.987  65.969  1.00  0.00     0.000 HD 
HETATM   18  O   UNL     1      -8.016  11.681  67.458  1.00  0.00    -0.127 OA 
HETATM   19  C   UNL     1      -9.446  14.849  66.802  1.00  0.00    -0.252 C  
BRANCH  14  20
HETATM   20  C   UNL     1      -7.039  12.954  69.817  1.00  0.00     0.519 C  
HETATM   21  C   UNL     1      -6.376  13.519  70.833  1.00  0.00     0.405 C  
HETATM   22 BR   UNL     1      -5.385  12.553  72.073  1.00  0.00     0.397 Br 
ENDBRANCH  14  20
ENDBRANCH   6  11
ENDBRANCH   3   4
TORSDOF 3
ENDMDL
MODEL      232
REMARK 921   NORMALIZED FREE ENERGY PREDICTED BY IDOCK:    7.31 KCAL/MOL
REMARK 922        TOTAL FREE ENERGY PREDICTED BY IDOCK:    7.98 KCAL/MOL
REMARK 923 INTER-LIGAND FREE ENERGY PREDICTED BY IDOCK:    7.92 KCAL/MOL
REMARK 924 INTRA-LIGAND FREE ENERGY PREDICTED BY IDOCK:    0.06 KCAL/MOL
REMARK 927      BINDING AFFINITY PREDICTED BY RF-SCORE:    0.00 PKD
ROOT
HETATM    1  O5* UNL     1      -6.582  17.840  69.385  1.00  0.00    -0.252 OA 
HETATM    2  H5* UNL     1      -6.651  18.485  70.079  1.00  0.00     0.000 HD 
HETATM    3  C5* UNL     1      -6.139  18.436  68.165  1.00  0.00    -0.183 C  
ENDROOT
BRANCH   3   4
HETATM    4  C4* UNL     1      -6.029  17.400  67.049  1.00  0.00    -0.156 C  
HETATM    5  O4* UNL     1      -6.200  16.070  67.572  1.00  0.00    -0.144 OA 
HETATM    6  C1* UNL     1      -6.577  15.268  66.446  1.00  0.00     2.530 C  
HETATM    7  C2* UNL     1      -7.479  16.144  65.583  1.00  0.00     2.460 C  
HETATM    8  H3* UNL     1      -7.183  18.349  64.153  1.00  0.00     0.000 HD 
HETATM    9  O3* UNL     1      -6.528  18.249  64.834  1.00  0.00    -0.348 OA 
HETATM   10  C3* UNL     1      -7.082  17.561  65.953  1.00  0.00    -0.177 C  
BRANCH   6  11
HETATM   11  N   UNL     1      -7.202  14.022  66.872  1.00  0.00     0.540 N  
HETATM   12  C   UNL     1      -8.401  14.016  67.568  1.00  0.00    -0.192 C  
HETATM   13  C   UNL     1      -8.303  11.603  67.674  1.00  0.00    -0.142 C  
HETATM   14  C   UNL     1      -8.988  12.890  68.005  1.00  0.00    -0.196 C  
HETATM   15  O   UNL     1      -5.548  12.798  65.821  1.00  0.00     2.757 OA 
HETATM   16  N   UNL     1      -7.168  11.694  66.923  1.00  0.00    -0.227 N  
HETATM   17  H   UNL     1      -6.721  10.818  66.653  1.00  0.00     0.000 HD 
HETATM   18  O   UNL     1      -8.732  10.515  68.051  1.00  0.00    -0.124 OA 
HETATM   19  C   UNL     1      -6.574  12.847  66.497  1.00  0.00     1.749 C  
BRANCH  14  20
HETATM   20  C   UNL     1     -10.259  12.834  68.709  1.00  0.00    -0.094 C  
HETATM   21  C   UNL     1     -10.626  11.915  69.610  1.00  0.00     0.403 C  
HETATM   22 BR   UNL     1     -12.292  11.896  70.433  1.00  0.00    -0.286 Br 
ENDBRANCH  14  20
ENDBRANCH   6  11
ENDBRANCH   3   4
TORSDOF 3
ENDMDL
MODEL      233
REMARK 921   NORMALIZED FREE ENERGY PREDICTED BY IDOCK:    7.36 KCAL/MOL
REMARK 922        TOTAL FREE ENERGY PREDICTED BY IDOCK:    8.04 KCAL/MOL
REMARK 923 INTER-LIGAND FREE ENERGY PREDICTED BY IDOCK:    8.51 KCAL/MOL
REMARK 924 INTRA-LIGAND FREE ENERGY PREDICTED BY IDOCK:   -0.47 KCAL/MOL
REMARK 927      BINDING AFFINITY PREDICTED BY RF-SCORE:    0.00 PKD
ROOT
HETATM    1  O5* UNL     1      -7.410  15.911  71.833  1.00  0.00     4.582 OA 
HETATM    2  H5* UNL     1      -7.327  16.286  72.702  1.00  0.00     0.000 HD 
HETATM    3  C5* UNL     1      -7.093  14.518  71.836  1.00  0.00     2.707 C  
ENDROOT
BRANCH   3   4
HETATM    4  C4* UNL     1      -7.227  13.916  70.439  1.00  0.00     0.991 C  
HETATM    5  O4* UNL     1      -8.436  14.370  69.804  1.00  0.00     0.389 OA 
HETATM    6  C1* UNL     1      -8.219  14.179  68.400  1.00  0.00    -0.149 C  
HETATM    7  C2* UNL     1      -6.752  14.512  68.148  1.00  0.00    -0.129 C  
HETATM    8  H3* UNL     1      -4.421  13.473  68.842  1.00  0.00     0.000 HD 
HETATM    9  O3* UNL     1      -5.129  13.239  69.430  1.00  0.00    -0.075 OA 
HETATM   10  C3* UNL     1      -6.087  14.293  69.494  1.00  0.00    -0.112 C  
BRANCH   6  11
HETATM   11  N   UNL     1      -9.147  14.979  67.610  1.00  0.00    -0.179 N  
HETATM   12  C   UNL     1      -9.514  16.257  68.001  1.00  0.00    -0.223 C  
HETATM   13  C   UNL     1     -10.947  16.416  66.061  1.00  0.00     0.029 C  
HETATM   14  C   UNL     1     -10.391  17.008  67.316  1.00  0.00    -0.311 C  
HETATM   15  O   UNL     1      -9.246  13.325  65.999  1.00  0.00    -0.074 OA 
HETATM   16  N   UNL     1     -10.477  15.184  65.710  1.00  0.00    -0.315 N  
HETATM   17  H   UNL     1     -10.816  14.794  64.830  1.00  0.00     0.000 HD 
HETATM   18  O   UNL     1     -11.781  17.000  65.373  1.00  0.00     0.832 OA 
HETATM   19  C   UNL     1      -9.596  14.425  66.423  1.00  0.00    -0.299 C  
BRANCH  14  20
HETATM   20  C   UNL     1     -10.780  18.364  67.670  1.00  0.00    -0.390 C  
HETATM   21  C   UNL     1      -9.968  19.424  67.760  1.00  0.00    -0.379 C  
HETATM   22 BR   UNL     1     -10.545  21.117  68.261  1.00  0.00     1.617 Br 
ENDBRANCH  14  20
ENDBRANCH   6  11
ENDBRANCH   3   4
TORSDOF 3
ENDMDL
MODEL      234
REMARK 921   NORMALIZED FREE ENERGY PREDICTED BY IDOCK:   11.03 KCAL/MOL
REMARK 922        TOTAL FREE ENERGY PREDICTED BY IDOCK:   12.36 KCAL/MOL
REMARK 923 INTER-LIGAND FREE ENERGY PREDICTED BY IDOCK:   12.71 KCAL/MOL
REMARK 924 INTRA-LIGAND FREE ENERGY PREDICTED BY IDOCK:   -0.36 KCAL/MOL
REMARK 927      BINDING AFFINITY PREDICTED BY RF-SCORE:    0.00 PKD
ROOT
HETATM    1  O5* UNL     1      -6.841  15.750  72.764  1.00  0.00     4.318 OA 
HETATM    2  H5* UNL     1      -6.766  16.358  73.489  1.00  0.00     0.000 HD 
HETATM    3  C5* UNL     1      -6.879  14.398  73.222  1.00  0.00     2.983 C  
ENDROOT
BRANCH   3   4
HETATM    4  C4* UNL     1      -6.998  13.419  72.055  1.00  0.00     4.840 C  
HETATM    5  O4* UNL     1      -7.825  13.970  71.014  1.00  0.00     2.499 OA 
HETATM    6  C1* UNL     1      -7.467  13.247  69.829  1.00  0.00     0.898 C  
HETATM    7  C2* UNL     1      -5.963  13.009  69.913  1.00  0.00    -0.136 C  
HETATM    8  H3* UNL     1      -4.343  11.620  71.476  1.00  0.00     0.000 HD 
HETATM    9  O3* UNL     1      -5.175  11.831  71.885  1.00  0.00    -0.346 OA 
HETATM   10  C3* UNL     1      -5.661  13.080  71.399  1.00  0.00    -0.019 C  
BRANCH   6  11
HETATM   11  N   UNL     1      -7.882  13.964  68.630  1.00  0.00    -0.136 N  
HETATM   12  C   UNL     1      -7.789  15.345  68.544  1.00  0.00    -0.134 C  
HETATM   13  C   UNL     1      -8.727  15.250  66.318  1.00  0.00    -0.153 C  
HETATM   14  C   UNL     1      -8.193  16.040  67.469  1.00  0.00    -0.171 C  
HETATM   15  O   UNL     1      -8.349  11.969  67.562  1.00  0.00    -0.148 OA 
HETATM   16  N   UNL     1      -8.714  13.892  66.456  1.00  0.00    -0.452 N  
HETATM   17  H   UNL     1      -9.033  13.344  65.657  1.00  0.00     0.000 HD 
HETATM   18  O   UNL     1      -9.155  15.783  65.298  1.00  0.00    -0.019 OA 
HETATM   19  C   UNL     1      -8.315  13.198  67.561  1.00  0.00    -0.185 C  
BRANCH  14  20
HETATM   20  C   UNL     1      -8.085  17.483  67.323  1.00  0.00    -0.219 C  
HETATM   21  C   UNL     1      -9.100  18.354  67.274  1.00  0.00    -0.266 C  
HETATM   22 BR   UNL     1      -8.872  20.183  67.044  1.00  0.00    -0.440 Br 
ENDBRANCH  14  20
ENDBRANCH   6  11
ENDBRANCH   3   4
TORSDOF 3
ENDMDL
MODEL      235
REMARK 921   NORMALIZED FREE ENERGY PREDICTED BY IDOCK:   20.49 KCAL/MOL
REMARK 922        TOTAL FREE ENERGY PREDICTED BY IDOCK:   23.48 KCAL/MOL
REMARK 923 INTER-LIGAND FREE ENERGY PREDICTED BY IDOCK:   22.10 KCAL/MOL
REMARK 924 INTRA-LIGAND FREE ENERGY PREDICTED BY IDOCK:    1.38 KCAL/MOL
REMARK 927      BINDING AFFINITY PREDICTED BY RF-SCORE:    0.00 PKD
ROOT
HETATM    1  O5* UNL     1      -5.767  13.825  64.705  1.00  0.00    12.815 OA 
HETATM    2  H5* UNL     1      -5.000  13.321  64.461  1.00  0.00     0.000 HD 
HETATM    3  C5* UNL     1      -5.449  14.810  65.690  1.00  0.00     9.442 C  
ENDROOT
BRANCH   3   4
HETATM    4  C4* UNL     1      -6.683  15.621  66.083  1.00  0.00     2.757 C  
HETATM    5  O4* UNL     1      -7.766  14.749  66.453  1.00  0.00     0.503 OA 
HETATM    6  C1* UNL     1      -8.642  15.555  67.251  1.00  0.00    -0.193 C  
HETATM    7  C2* UNL     1      -7.743  16.467  68.079  1.00  0.00    -0.159 C  
HETATM    8  H3* UNL     1      -6.067  18.450  67.577  1.00  0.00     0.000 HD 
HETATM    9  O3* UNL     1      -6.207  17.876  66.833  1.00  0.00    -0.147 OA 
HETATM   10  C3* UNL     1      -6.456  16.544  67.278  1.00  0.00    -0.181 C  
BRANCH   6  11
HETATM   11  N   UNL     1      -9.536  14.728  68.051  1.00  0.00    -0.200 N  
HETATM   12  C   UNL     1     -10.418  15.288  68.962  1.00  0.00    -0.248 C  
HETATM   13  C   UNL     1     -11.179  13.072  69.557  1.00  0.00    -0.077 C  
HETATM   14  C   UNL     1     -11.231  14.555  69.739  1.00  0.00    -0.276 C  
HETATM   15  O   UNL     1      -8.791  12.826  66.970  1.00  0.00    -0.206 OA 
HETATM   16  N   UNL     1     -10.338  12.608  68.588  1.00  0.00    -0.341 N  
HETATM   17  H   UNL     1     -10.331  11.601  68.426  1.00  0.00     0.000 HD 
HETATM   18  O   UNL     1     -11.854  12.303  70.237  1.00  0.00    -0.324 OA 
HETATM   19  C   UNL     1      -9.504  13.364  67.815  1.00  0.00    -0.210 C  
BRANCH  14  20
HETATM   20  C   UNL     1     -12.194  15.100  70.683  1.00  0.00    -0.401 C  
HETATM   21  C   UNL     1     -13.125  14.411  71.352  1.00  0.00    -0.346 C  
HETATM   22 BR   UNL     1     -14.346  15.197  72.512  1.00  0.00    -0.105 Br 
ENDBRANCH  14  20
ENDBRANCH   6  11
ENDBRANCH   3   4
TORSDOF 3
ENDMDL
MODEL      236
REMARK 921   NORMALIZED FREE ENERGY PREDICTED BY IDOCK:   25.13 KCAL/MOL
REMARK 922        TOTAL FREE ENERGY PREDICTED BY IDOCK:   28.93 KCAL/MOL
REMARK 923 INTER-LIGAND FREE ENERGY PREDICTED BY IDOCK:   28.31 KCAL/MOL
REMARK 924 INTRA-LIGAND FREE ENERGY PREDICTED BY IDOCK:    0.62 KCAL/MOL
REMARK 927      BINDING AFFINITY PREDICTED BY RF-SCORE:    0.00 PKD
ROOT
HETATM    1  O5* UNL     1     -11.468  15.120  64.916  1.00  0.00    -0.385 OA 
HETATM    2  H5* UNL     1     -12.049  15.567  64.312  1.00  0.00     0.000 HD 
HETATM    3  C5* UNL     1     -10.241  15.831  65.079  1.00  0.00    -0.111 C  
ENDROOT
BRANCH   3   4
HETATM    4  C4* UNL     1      -9.307  15.112  66.050  1.00  0.00    -0.291 C  
HETATM    5  O4* UNL     1      -9.547  15.546  67.401  1.00  0.00    -0.212 OA 
HETATM    6  C1* UNL     1      -9.022  14.502  68.230  1.00  0.00    -0.184 C  
HETATM    7  C2* UNL     1      -9.332  13.192  67.513  1.00  0.00    -0.207 C  
HETATM    8  H3* UNL     1      -8.579  12.036  65.256  1.00  0.00     0.000 HD 
HETATM    9  O3* UNL     1      -8.473  12.980  65.252  1.00  0.00     1.857 OA 
HETATM   10  C3* UNL     1      -9.477  13.594  66.057  1.00  0.00    -0.090 C  
BRANCH   6  11
HETATM   11  N   UNL     1      -9.568  14.576  69.579  1.00  0.00     0.142 N  
HETATM   12  C   UNL     1     -10.100  15.754  70.081  1.00  0.00    -0.085 C  
HETATM   13  C   UNL     1     -10.556  14.633  72.174  1.00  0.00     2.370 C  
HETATM   14  C   UNL     1     -10.581  15.867  71.329  1.00  0.00     0.573 C  
HETATM   15  O   UNL     1      -9.189  12.317  69.889  1.00  0.00     2.058 OA 
HETATM   16  N   UNL     1     -10.084  13.499  71.579  1.00  0.00     6.457 N  
HETATM   17  H   UNL     1     -10.108  12.643  72.134  1.00  0.00     0.000 HD 
HETATM   18  O   UNL     1     -10.939  14.629  73.341  1.00  0.00     1.068 OA 
HETATM   19  C   UNL     1      -9.584  13.401  70.313  1.00  0.00     3.664 C  
BRANCH  14  20
HETATM   20  C   UNL     1     -11.177  17.071  71.885  1.00  0.00     0.962 C  
HETATM   21  C   UNL     1     -10.662  17.835  72.856  1.00  0.00     3.735 C  
HETATM   22 BR   UNL     1     -11.515  19.339  73.536  1.00  0.00     6.993 Br 
ENDBRANCH  14  20
ENDBRANCH   6  11
ENDBRANCH   3   4
TORSDOF 3
ENDMDL
MODEL      237
REMARK 921   NORMALIZED FREE ENERGY PREDICTED BY IDOCK:   44.01 KCAL/MOL
REMARK 922        TOTAL FREE ENERGY PREDICTED BY IDOCK:   51.12 KCAL/MOL
REMARK 923 INTER-LIGAND FREE ENERGY PREDICTED BY IDOCK:   51.49 KCAL/MOL
REMARK 924 INTRA-LIGAND FREE ENERGY PREDICTED BY IDOCK:   -0.37 KCAL/MOL
REMARK 927      BINDING AFFINITY PREDICTED BY RF-SCORE:    0.00 PKD
ROOT
HETATM    1  O5* UNL     1     -11.488  14.598  67.035  1.00  0.00    -0.348 OA 
HETATM    2  H5* UNL     1     -11.609  14.621  66.093  1.00  0.00     0.000 HD 
HETATM    3  C5* UNL     1     -11.808  13.312  67.567  1.00  0.00    -0.358 C  
ENDROOT
BRANCH   3   4
HETATM    4  C4* UNL     1     -11.614  13.273  69.081  1.00  0.00    -0.319 C  
HETATM    5  O4* UNL     1     -12.228  12.099  69.642  1.00  0.00    -0.223 OA 
HETATM    6  C1* UNL     1     -11.581  11.903  70.906  1.00  0.00     0.812 C  
HETATM    7  C2* UNL     1     -10.119  12.285  70.699  1.00  0.00     5.104 C  
HETATM    8  H3* UNL     1      -8.795  14.508  70.151  1.00  0.00     0.000 HD 
HETATM    9  O3* UNL     1      -9.706  14.535  69.883  1.00  0.00     0.308 OA 
HETATM   10  C3* UNL     1     -10.149  13.232  69.512  1.00  0.00     0.835 C  
BRANCH   6  11
HETATM   11  N   UNL     1     -11.769  10.541  71.389  1.00  0.00    -0.172 N  
HETATM   12  C   UNL     1     -11.935   9.480  70.512  1.00  0.00    -0.134 C  
HETATM   13  C   UNL     1     -12.155   7.984  72.399  1.00  0.00    -0.321 C  
HETATM   14  C   UNL     1     -12.144   8.219  70.922  1.00  0.00    -0.149 C  
HETATM   15  O   UNL     1     -11.500  11.247  73.573  1.00  0.00     9.941 OA 
HETATM   16  N   UNL     1     -11.910   9.069  73.188  1.00  0.00     1.165 N  
HETATM   17  H   UNL     1     -11.869   8.909  74.195  1.00  0.00     0.000 HD 
HETATM   18  O   UNL     1     -12.370   6.876  72.886  1.00  0.00     0.370 OA 
HETATM   19  C   UNL     1     -11.714  10.350  72.759  1.00  0.00     4.037 C  
BRANCH  14  20
HETATM   20  C   UNL     1     -12.291   7.071  70.041  1.00  0.00     0.296 C  
HETATM   21  C   UNL     1     -13.437   6.462  69.715  1.00  0.00     5.831 C  
HETATM   22 BR   UNL     1     -13.528   4.972  68.610  1.00  0.00    24.815 Br 
ENDBRANCH  14  20
ENDBRANCH   6  11
ENDBRANCH   3   4
TORSDOF 3
ENDMDL
