MODEL        1
REMARK 921   NORMALIZED FREE ENERGY PREDICTED BY IDOCK:   -7.02 KCAL/MOL
REMARK 922        TOTAL FREE ENERGY PREDICTED BY IDOCK:   -8.87 KCAL/MOL
REMARK 923 INTER-LIGAND FREE ENERGY PREDICTED BY IDOCK:   -8.26 KCAL/MOL
REMARK 924 INTRA-LIGAND FREE ENERGY PREDICTED BY IDOCK:   -0.62 KCAL/MOL
REMARK 927      BINDING AFFINITY PREDICTED BY RF-SCORE:    0.00 PKD
ROOT
HETATM    1  N   UNL     1     -11.752  16.103  64.025  1.00  0.00    -1.351 NA 
HETATM    2  C   UNL     1     -10.958  15.536  65.053  1.00  0.00    -0.440 A  
HETATM    3  H1  UNL     1     -11.589  17.074  63.761  1.00  0.00     0.000 HD 
HETATM    4  H2  UNL     1     -12.736  15.987  64.264  1.00  0.00     0.000 HD 
HETATM    5  C   UNL     1     -11.183  14.196  65.417  1.00  0.00    -0.325 A  
HETATM    6  C   UNL     1     -10.248  13.575  66.268  1.00  0.00    -0.299 A  
HETATM    7  C   UNL     1     -10.074  16.308  65.841  1.00  0.00    -0.381 A  
HETATM    8  C   UNL     1      -9.204  14.293  66.847  1.00  0.00    -0.268 A  
HETATM    9  C   UNL     1      -9.148  15.671  66.675  1.00  0.00    -0.313 A  
ENDROOT
BRANCH   5  10
HETATM   10  C   UNL     1     -12.322  13.336  64.885  1.00  0.00    -0.476 C  
HETATM   11  O   UNL     1     -10.942  12.143  63.220  1.00  0.00    -0.415 OA 
HETATM   12  O   UNL     1     -13.153  12.149  62.980  1.00  0.00    -0.496 OA 
HETATM   13  C   UNL     1     -12.166  12.516  63.615  1.00  0.00    -0.550 C  
ENDBRANCH   5  10
BRANCH   7  14
HETATM   14  C   UNL     1     -10.049  17.799  65.845  1.00  0.00    -0.174 C  
HETATM   15  O   UNL     1     -10.894  18.409  65.194  1.00  0.00    -0.630 OA 
BRANCH  14  16
HETATM   16  C   UNL     1      -9.024  18.569  66.612  1.00  0.00    -0.298 A  
HETATM   17  C   UNL     1      -9.260  18.811  67.972  1.00  0.00    -0.334 A  
HETATM   18  C   UNL     1      -8.275  19.406  68.766  1.00  0.00    -0.382 A  
HETATM   19  C   UNL     1      -7.052  19.761  68.199  1.00  0.00    -0.292 A  
HETATM   20  C   UNL     1      -6.829  19.582  66.836  1.00  0.00    -0.209 A  
HETATM   21 BR   UNL     1      -5.683  20.471  69.291  1.00  0.00    -0.398 Br 
HETATM   22  C   UNL     1      -7.827  19.018  66.036  1.00  0.00    -0.226 A  
ENDBRANCH  14  16
ENDBRANCH   7  14
TORSDOF 3
ENDMDL
MODEL        2
REMARK 921   NORMALIZED FREE ENERGY PREDICTED BY IDOCK:   -6.99 KCAL/MOL
REMARK 922        TOTAL FREE ENERGY PREDICTED BY IDOCK:   -8.83 KCAL/MOL
REMARK 923 INTER-LIGAND FREE ENERGY PREDICTED BY IDOCK:   -8.12 KCAL/MOL
REMARK 924 INTRA-LIGAND FREE ENERGY PREDICTED BY IDOCK:   -0.70 KCAL/MOL
REMARK 927      BINDING AFFINITY PREDICTED BY RF-SCORE:    0.00 PKD
ROOT
HETATM    1  N   UNL     1     -13.159  15.798  70.097  1.00  0.00    -0.666 NA 
HETATM    2  C   UNL     1     -12.817  14.455  70.393  1.00  0.00    -0.245 A  
HETATM    3  H1  UNL     1     -12.984  16.151  69.157  1.00  0.00     0.000 HD 
HETATM    4  H2  UNL     1     -12.702  16.412  70.771  1.00  0.00     0.000 HD 
HETATM    5  C   UNL     1     -13.058  13.969  71.691  1.00  0.00    -0.435 A  
HETATM    6  C   UNL     1     -12.932  12.582  71.912  1.00  0.00    -0.406 A  
HETATM    7  C   UNL     1     -12.088  13.643  69.494  1.00  0.00    -0.368 A  
HETATM    8  C   UNL     1     -12.453  11.729  70.921  1.00  0.00    -0.416 A  
HETATM    9  C   UNL     1     -11.981  12.268  69.730  1.00  0.00    -0.365 A  
ENDROOT
BRANCH   5  10
HETATM   10  C   UNL     1     -13.534  14.822  72.859  1.00  0.00    -0.541 C  
HETATM   11  O   UNL     1     -11.807  16.564  72.582  1.00  0.00    -0.541 OA 
HETATM   12  O   UNL     1     -12.868  16.400  74.530  1.00  0.00    -0.681 OA 
HETATM   13  C   UNL     1     -12.697  15.973  73.389  1.00  0.00    -0.558 C  
ENDBRANCH   5  10
BRANCH   7  14
HETATM   14  C   UNL     1     -11.408  14.158  68.271  1.00  0.00    -0.291 C  
HETATM   15  O   UNL     1     -11.137  15.354  68.202  1.00  0.00    -0.284 OA 
BRANCH  14  16
HETATM   16  C   UNL     1     -11.057  13.263  67.128  1.00  0.00    -0.308 A  
HETATM   17  C   UNL     1     -12.007  13.082  66.114  1.00  0.00    -0.488 A  
HETATM   18  C   UNL     1     -11.680  12.367  64.958  1.00  0.00    -0.420 A  
HETATM   19  C   UNL     1     -10.402  11.830  64.815  1.00  0.00    -0.288 A  
HETATM   20  C   UNL     1      -9.468  11.951  65.843  1.00  0.00    -0.227 A  
HETATM   21 BR   UNL     1      -9.926  10.951  63.212  1.00  0.00    -0.372 Br 
HETATM   22  C   UNL     1      -9.807  12.637  67.012  1.00  0.00    -0.225 A  
ENDBRANCH  14  16
ENDBRANCH   7  14
TORSDOF 3
ENDMDL
MODEL        3
REMARK 921   NORMALIZED FREE ENERGY PREDICTED BY IDOCK:   -6.75 KCAL/MOL
REMARK 922        TOTAL FREE ENERGY PREDICTED BY IDOCK:   -8.55 KCAL/MOL
REMARK 923 INTER-LIGAND FREE ENERGY PREDICTED BY IDOCK:   -7.98 KCAL/MOL
REMARK 924 INTRA-LIGAND FREE ENERGY PREDICTED BY IDOCK:   -0.57 KCAL/MOL
REMARK 927      BINDING AFFINITY PREDICTED BY RF-SCORE:    0.00 PKD
ROOT
HETATM    1  N   UNL     1     -11.068  15.723  64.294  1.00  0.00    -0.864 NA 
HETATM    2  C   UNL     1     -11.146  15.384  65.668  1.00  0.00    -0.271 A  
HETATM    3  H1  UNL     1     -11.554  15.136  63.617  1.00  0.00     0.000 HD 
HETATM    4  H2  UNL     1     -10.086  15.793  64.026  1.00  0.00     0.000 HD 
HETATM    5  C   UNL     1     -10.475  16.195  66.601  1.00  0.00    -0.300 A  
HETATM    6  C   UNL     1     -10.744  15.990  67.970  1.00  0.00    -0.309 A  
HETATM    7  C   UNL     1     -11.724  14.174  66.118  1.00  0.00    -0.402 A  
HETATM    8  C   UNL     1     -11.542  14.933  68.403  1.00  0.00    -0.348 A  
HETATM    9  C   UNL     1     -11.988  13.995  67.480  1.00  0.00    -0.430 A  
ENDROOT
BRANCH   5  10
HETATM   10  C   UNL     1      -9.542  17.342  66.237  1.00  0.00    -0.268 C  
HETATM   11  O   UNL     1     -10.914  19.094  67.305  1.00  0.00    -0.478 OA 
HETATM   12  O   UNL     1      -9.409  19.687  65.779  1.00  0.00    -0.386 OA 
HETATM   13  C   UNL     1      -9.966  18.790  66.410  1.00  0.00    -0.392 C  
ENDBRANCH   5  10
BRANCH   7  14
HETATM   14  C   UNL     1     -12.089  13.041  65.220  1.00  0.00    -0.441 C  
HETATM   15  O   UNL     1     -13.270  12.876  64.924  1.00  0.00    -0.782 OA 
BRANCH  14  16
HETATM   16  C   UNL     1     -11.063  12.102  64.678  1.00  0.00    -0.366 A  
HETATM   17  C   UNL     1     -10.579  11.093  65.523  1.00  0.00    -0.289 A  
HETATM   18  C   UNL     1      -9.722  10.106  65.027  1.00  0.00    -0.384 A  
HETATM   19  C   UNL     1      -9.347  10.127  63.685  1.00  0.00    -0.290 A  
HETATM   20  C   UNL     1      -9.771  11.159  62.850  1.00  0.00    -0.349 A  
HETATM   21 BR   UNL     1      -8.271   8.739  62.989  1.00  0.00    -0.174 Br 
HETATM   22  C   UNL     1     -10.601  12.164  63.355  1.00  0.00    -0.454 A  
ENDBRANCH  14  16
ENDBRANCH   7  14
TORSDOF 3
ENDMDL
MODEL        4
REMARK 921   NORMALIZED FREE ENERGY PREDICTED BY IDOCK:   -6.63 KCAL/MOL
REMARK 922        TOTAL FREE ENERGY PREDICTED BY IDOCK:   -8.41 KCAL/MOL
REMARK 923 INTER-LIGAND FREE ENERGY PREDICTED BY IDOCK:   -8.11 KCAL/MOL
REMARK 924 INTRA-LIGAND FREE ENERGY PREDICTED BY IDOCK:   -0.30 KCAL/MOL
REMARK 927      BINDING AFFINITY PREDICTED BY RF-SCORE:    0.00 PKD
ROOT
HETATM    1  N   UNL     1     -12.211  13.775  69.230  1.00  0.00    -0.346 NA 
HETATM    2  C   UNL     1     -11.783  12.617  68.534  1.00  0.00    -0.330 A  
HETATM    3  H1  UNL     1     -12.313  13.726  70.243  1.00  0.00     0.000 HD 
HETATM    4  H2  UNL     1     -13.089  14.099  68.826  1.00  0.00     0.000 HD 
HETATM    5  C   UNL     1     -11.644  12.684  67.136  1.00  0.00    -0.434 A  
HETATM    6  C   UNL     1     -11.004  11.612  66.482  1.00  0.00    -0.349 A  
HETATM    7  C   UNL     1     -11.660  11.357  69.163  1.00  0.00    -0.381 A  
HETATM    8  C   UNL     1     -10.640  10.456  67.169  1.00  0.00    -0.319 A  
HETATM    9  C   UNL     1     -11.016  10.307  68.498  1.00  0.00    -0.294 A  
ENDROOT
BRANCH   5  10
HETATM   10  C   UNL     1     -12.056  13.876  66.283  1.00  0.00    -0.484 C  
HETATM   11  O   UNL     1     -13.267  12.539  64.598  1.00  0.00    -0.848 OA 
HETATM   12  O   UNL     1     -12.620  14.601  64.073  1.00  0.00    -0.819 OA 
HETATM   13  C   UNL     1     -12.651  13.689  64.898  1.00  0.00    -0.336 C  
ENDBRANCH   5  10
BRANCH   7  14
HETATM   14  C   UNL     1     -12.177  11.054  70.529  1.00  0.00    -0.381 C  
HETATM   15  O   UNL     1     -12.808  11.920  71.130  1.00  0.00    -0.343 OA 
BRANCH  14  16
HETATM   16  C   UNL     1     -11.942   9.734  71.187  1.00  0.00    -0.463 A  
HETATM   17  C   UNL     1     -13.033   8.867  71.337  1.00  0.00    -0.323 A  
HETATM   18  C   UNL     1     -12.844   7.569  71.820  1.00  0.00    -0.359 A  
HETATM   19  C   UNL     1     -11.562   7.137  72.156  1.00  0.00    -0.279 A  
HETATM   20  C   UNL     1     -10.479   8.009  72.070  1.00  0.00    -0.308 A  
HETATM   21 BR   UNL     1     -11.290   5.352  72.713  1.00  0.00    -0.323 Br 
HETATM   22  C   UNL     1     -10.675   9.317  71.618  1.00  0.00    -0.393 A  
ENDBRANCH  14  16
ENDBRANCH   7  14
TORSDOF 3
ENDMDL
MODEL        5
REMARK 921   NORMALIZED FREE ENERGY PREDICTED BY IDOCK:   -6.62 KCAL/MOL
REMARK 922        TOTAL FREE ENERGY PREDICTED BY IDOCK:   -8.40 KCAL/MOL
REMARK 923 INTER-LIGAND FREE ENERGY PREDICTED BY IDOCK:   -7.72 KCAL/MOL
REMARK 924 INTRA-LIGAND FREE ENERGY PREDICTED BY IDOCK:   -0.68 KCAL/MOL
REMARK 927      BINDING AFFINITY PREDICTED BY RF-SCORE:    0.00 PKD
ROOT
HETATM    1  N   UNL     1     -13.200  15.627  70.083  1.00  0.00    -0.642 NA 
HETATM    2  C   UNL     1     -12.786  14.286  70.287  1.00  0.00    -0.249 A  
HETATM    3  H1  UNL     1     -13.095  16.034  69.154  1.00  0.00     0.000 HD 
HETATM    4  H2  UNL     1     -12.728  16.225  70.760  1.00  0.00     0.000 HD 
HETATM    5  C   UNL     1     -12.929  13.725  71.569  1.00  0.00    -0.444 A  
HETATM    6  C   UNL     1     -12.734  12.336  71.709  1.00  0.00    -0.257 A  
HETATM    7  C   UNL     1     -12.080  13.553  69.305  1.00  0.00    -0.335 A  
HETATM    8  C   UNL     1     -12.281  11.556  70.647  1.00  0.00    -0.473 A  
HETATM    9  C   UNL     1     -11.903  12.173  69.461  1.00  0.00    -0.386 A  
ENDROOT
BRANCH   5  10
HETATM   10  C   UNL     1     -13.368  14.497  72.806  1.00  0.00    -0.600 C  
HETATM   11  O   UNL     1     -11.684  16.285  72.564  1.00  0.00    -0.501 OA 
HETATM   12  O   UNL     1     -12.657  15.983  74.541  1.00  0.00    -0.699 OA 
HETATM   13  C   UNL     1     -12.528  15.629  73.370  1.00  0.00    -0.523 C  
ENDBRANCH   5  10
BRANCH   7  14
HETATM   14  C   UNL     1     -11.496  14.158  68.074  1.00  0.00    -0.312 C  
HETATM   15  O   UNL     1     -11.869  13.748  66.977  1.00  0.00    -0.365 OA 
BRANCH  14  16
HETATM   16  C   UNL     1     -10.469  15.239  68.137  1.00  0.00    -0.246 A  
HETATM   17  C   UNL     1     -10.739  16.448  67.481  1.00  0.00    -0.298 A  
HETATM   18  C   UNL     1      -9.876  17.538  67.622  1.00  0.00    -0.291 A  
HETATM   19  C   UNL     1      -8.738  17.421  68.418  1.00  0.00    -0.271 A  
HETATM   20  C   UNL     1      -8.425  16.206  69.025  1.00  0.00    -0.251 A  
HETATM   21 BR   UNL     1      -7.624  18.922  68.691  1.00  0.00    -0.368 Br 
HETATM   22  C   UNL     1      -9.272  15.107  68.857  1.00  0.00    -0.209 A  
ENDBRANCH  14  16
ENDBRANCH   7  14
TORSDOF 3
ENDMDL
MODEL        6
REMARK 921   NORMALIZED FREE ENERGY PREDICTED BY IDOCK:   -6.59 KCAL/MOL
REMARK 922        TOTAL FREE ENERGY PREDICTED BY IDOCK:   -8.37 KCAL/MOL
REMARK 923 INTER-LIGAND FREE ENERGY PREDICTED BY IDOCK:   -7.92 KCAL/MOL
REMARK 924 INTRA-LIGAND FREE ENERGY PREDICTED BY IDOCK:   -0.45 KCAL/MOL
REMARK 927      BINDING AFFINITY PREDICTED BY RF-SCORE:    0.00 PKD
ROOT
HETATM    1  N   UNL     1     -12.892  13.979  66.795  1.00  0.00    -0.283 NA 
HETATM    2  C   UNL     1     -11.565  14.409  67.047  1.00  0.00    -0.384 A  
HETATM    3  H1  UNL     1     -13.595  14.110  67.522  1.00  0.00     0.000 HD 
HETATM    4  H2  UNL     1     -12.876  12.996  66.526  1.00  0.00     0.000 HD 
HETATM    5  C   UNL     1     -10.596  14.227  66.043  1.00  0.00    -0.302 A  
HETATM    6  C   UNL     1      -9.347  14.859  66.207  1.00  0.00    -0.329 A  
HETATM    7  C   UNL     1     -11.141  14.851  68.321  1.00  0.00    -0.290 A  
HETATM    8  C   UNL     1      -9.022  15.530  67.384  1.00  0.00    -0.203 A  
HETATM    9  C   UNL     1      -9.899  15.481  68.460  1.00  0.00    -0.202 A  
ENDROOT
BRANCH   5  10
HETATM   10  C   UNL     1     -10.829  13.468  64.745  1.00  0.00    -0.392 C  
HETATM   11  O   UNL     1     -12.642  14.941  63.946  1.00  0.00    -0.831 OA 
HETATM   12  O   UNL     1     -12.441  12.908  63.066  1.00  0.00    -0.534 OA 
HETATM   13  C   UNL     1     -12.042  13.746  63.873  1.00  0.00    -0.376 C  
ENDBRANCH   5  10
BRANCH   7  14
HETATM   14  C   UNL     1     -11.946  14.697  69.567  1.00  0.00    -0.319 C  
HETATM   15  O   UNL     1     -12.444  15.696  70.079  1.00  0.00    -0.360 OA 
BRANCH  14  16
HETATM   16  C   UNL     1     -12.156  13.366  70.210  1.00  0.00    -0.419 A  
HETATM   17  C   UNL     1     -12.920  13.313  71.385  1.00  0.00    -0.398 A  
HETATM   18  C   UNL     1     -13.261  12.081  71.951  1.00  0.00    -0.469 A  
HETATM   19  C   UNL     1     -12.838  10.900  71.344  1.00  0.00    -0.449 A  
HETATM   20  C   UNL     1     -12.027  10.941  70.212  1.00  0.00    -0.448 A  
HETATM   21 BR   UNL     1     -13.382   9.234  72.050  1.00  0.00    -0.565 Br 
HETATM   22  C   UNL     1     -11.659  12.174  69.665  1.00  0.00    -0.361 A  
ENDBRANCH  14  16
ENDBRANCH   7  14
TORSDOF 3
ENDMDL
MODEL        7
REMARK 921   NORMALIZED FREE ENERGY PREDICTED BY IDOCK:   -6.56 KCAL/MOL
REMARK 922        TOTAL FREE ENERGY PREDICTED BY IDOCK:   -8.33 KCAL/MOL
REMARK 923 INTER-LIGAND FREE ENERGY PREDICTED BY IDOCK:   -7.67 KCAL/MOL
REMARK 924 INTRA-LIGAND FREE ENERGY PREDICTED BY IDOCK:   -0.66 KCAL/MOL
REMARK 927      BINDING AFFINITY PREDICTED BY RF-SCORE:    0.00 PKD
ROOT
HETATM    1  N   UNL     1     -12.499  14.290  67.366  1.00  0.00    -0.534 NA 
HETATM    2  C   UNL     1     -11.392  13.404  67.355  1.00  0.00    -0.309 A  
HETATM    3  H1  UNL     1     -13.017  14.413  68.235  1.00  0.00     0.000 HD 
HETATM    4  H2  UNL     1     -13.149  14.017  66.630  1.00  0.00     0.000 HD 
HETATM    5  C   UNL     1     -10.677  13.234  66.155  1.00  0.00    -0.287 A  
HETATM    6  C   UNL     1      -9.452  12.539  66.207  1.00  0.00    -0.210 A  
HETATM    7  C   UNL     1     -11.087  12.559  68.447  1.00  0.00    -0.293 A  
HETATM    8  C   UNL     1      -9.020  11.917  67.377  1.00  0.00    -0.173 A  
HETATM    9  C   UNL     1      -9.862  11.883  68.481  1.00  0.00    -0.187 A  
ENDROOT
BRANCH   5  10
HETATM   10  C   UNL     1     -11.088  13.826  64.814  1.00  0.00    -0.380 C  
HETATM   11  O   UNL     1     -13.254  12.648  64.702  1.00  0.00    -0.828 OA 
HETATM   12  O   UNL     1     -12.380  13.471  62.831  1.00  0.00    -0.542 OA 
HETATM   13  C   UNL     1     -12.279  13.284  64.042  1.00  0.00    -0.410 C  
ENDBRANCH   5  10
BRANCH   7  14
HETATM   14  C   UNL     1     -12.000  12.332  69.604  1.00  0.00    -0.279 C  
HETATM   15  O   UNL     1     -12.607  11.267  69.680  1.00  0.00    -0.159 OA 
BRANCH  14  16
HETATM   16  C   UNL     1     -12.199  13.363  70.665  1.00  0.00    -0.427 A  
HETATM   17  C   UNL     1     -13.155  13.113  71.659  1.00  0.00    -0.444 A  
HETATM   18  C   UNL     1     -13.286  13.978  72.749  1.00  0.00    -0.603 A  
HETATM   19  C   UNL     1     -12.462  15.097  72.846  1.00  0.00    -0.405 A  
HETATM   20  C   UNL     1     -11.551  15.391  71.834  1.00  0.00    -0.521 A  
HETATM   21 BR   UNL     1     -12.568  16.213  74.367  1.00  0.00    -0.492 Br 
HETATM   22  C   UNL     1     -11.444  14.543  70.728  1.00  0.00    -0.188 A  
ENDBRANCH  14  16
ENDBRANCH   7  14
TORSDOF 3
ENDMDL
MODEL        8
REMARK 921   NORMALIZED FREE ENERGY PREDICTED BY IDOCK:   -6.53 KCAL/MOL
REMARK 922        TOTAL FREE ENERGY PREDICTED BY IDOCK:   -8.29 KCAL/MOL
REMARK 923 INTER-LIGAND FREE ENERGY PREDICTED BY IDOCK:   -7.95 KCAL/MOL
REMARK 924 INTRA-LIGAND FREE ENERGY PREDICTED BY IDOCK:   -0.35 KCAL/MOL
REMARK 927      BINDING AFFINITY PREDICTED BY RF-SCORE:    0.00 PKD
ROOT
HETATM    1  N   UNL     1     -12.186  11.465  68.442  1.00  0.00    -0.522 NA 
HETATM    2  C   UNL     1     -11.901  12.847  68.311  1.00  0.00    -0.330 A  
HETATM    3  H1  UNL     1     -12.135  10.874  67.613  1.00  0.00     0.000 HD 
HETATM    4  H2  UNL     1     -13.106  11.356  68.868  1.00  0.00     0.000 HD 
HETATM    5  C   UNL     1     -11.973  13.661  69.456  1.00  0.00    -0.397 A  
HETATM    6  C   UNL     1     -11.469  14.975  69.367  1.00  0.00    -0.320 A  
HETATM    7  C   UNL     1     -11.718  13.467  67.053  1.00  0.00    -0.424 A  
HETATM    8  C   UNL     1     -11.037  15.506  68.153  1.00  0.00    -0.325 A  
HETATM    9  C   UNL     1     -11.211  14.770  66.988  1.00  0.00    -0.347 A  
ENDROOT
BRANCH   5  10
HETATM   10  C   UNL     1     -12.476  13.197  70.816  1.00  0.00    -0.389 C  
HETATM   11  O   UNL     1     -14.154  14.992  71.058  1.00  0.00    -0.367 OA 
HETATM   12  O   UNL     1     -13.484  13.893  72.872  1.00  0.00    -0.653 OA 
HETATM   13  C   UNL     1     -13.394  14.067  71.658  1.00  0.00    -0.367 C  
ENDBRANCH   5  10
BRANCH   7  14
HETATM   14  C   UNL     1     -12.030  12.814  65.750  1.00  0.00    -0.449 C  
HETATM   15  O   UNL     1     -13.157  12.940  65.278  1.00  0.00    -0.682 OA 
BRANCH  14  16
HETATM   16  C   UNL     1     -11.016  12.007  65.009  1.00  0.00    -0.355 A  
HETATM   17  C   UNL     1     -10.363  10.974  65.696  1.00  0.00    -0.311 A  
HETATM   18  C   UNL     1      -9.507  10.103  65.015  1.00  0.00    -0.330 A  
HETATM   19  C   UNL     1      -9.301  10.265  63.647  1.00  0.00    -0.296 A  
HETATM   20  C   UNL     1      -9.895  11.325  62.965  1.00  0.00    -0.370 A  
HETATM   21 BR   UNL     1      -8.225   9.028  62.706  1.00  0.00    -0.195 Br 
HETATM   22  C   UNL     1     -10.725  12.215  63.653  1.00  0.00    -0.518 A  
ENDBRANCH  14  16
ENDBRANCH   7  14
TORSDOF 3
ENDMDL
MODEL        9
REMARK 921   NORMALIZED FREE ENERGY PREDICTED BY IDOCK:   -6.47 KCAL/MOL
REMARK 922        TOTAL FREE ENERGY PREDICTED BY IDOCK:   -8.22 KCAL/MOL
REMARK 923 INTER-LIGAND FREE ENERGY PREDICTED BY IDOCK:   -7.68 KCAL/MOL
REMARK 924 INTRA-LIGAND FREE ENERGY PREDICTED BY IDOCK:   -0.54 KCAL/MOL
REMARK 927      BINDING AFFINITY PREDICTED BY RF-SCORE:    0.00 PKD
ROOT
HETATM    1  N   UNL     1      -9.168  14.394  68.126  1.00  0.00    -0.192 NA 
HETATM    2  C   UNL     1     -10.164  14.497  67.122  1.00  0.00    -0.260 A  
HETATM    3  H1  UNL     1      -9.274  13.682  68.848  1.00  0.00     0.000 HD 
HETATM    4  H2  UNL     1      -9.054  15.303  68.573  1.00  0.00     0.000 HD 
HETATM    5  C   UNL     1     -10.018  15.480  66.127  1.00  0.00    -0.332 A  
HETATM    6  C   UNL     1     -10.881  15.427  65.013  1.00  0.00    -0.462 A  
HETATM    7  C   UNL     1     -11.377  13.772  67.182  1.00  0.00    -0.344 A  
HETATM    8  C   UNL     1     -11.936  14.519  64.955  1.00  0.00    -0.425 A  
HETATM    9  C   UNL     1     -12.216  13.728  66.063  1.00  0.00    -0.495 A  
ENDROOT
BRANCH   5  10
HETATM   10  C   UNL     1      -8.934  16.548  66.120  1.00  0.00    -0.344 C  
HETATM   11  O   UNL     1     -10.264  18.226  67.349  1.00  0.00    -0.335 OA 
HETATM   12  O   UNL     1      -8.505  18.902  66.169  1.00  0.00    -0.413 OA 
HETATM   13  C   UNL     1      -9.232  17.980  66.532  1.00  0.00    -0.275 C  
ENDBRANCH   5  10
BRANCH   7  14
HETATM   14  C   UNL     1     -11.841  13.023  68.385  1.00  0.00    -0.334 C  
HETATM   15  O   UNL     1     -11.973  11.804  68.310  1.00  0.00    -0.487 OA 
BRANCH  14  16
HETATM   16  C   UNL     1     -12.157  13.713  69.671  1.00  0.00    -0.378 A  
HETATM   17  C   UNL     1     -12.495  12.924  70.779  1.00  0.00    -0.370 A  
HETATM   18  C   UNL     1     -12.665  13.508  72.037  1.00  0.00    -0.267 A  
HETATM   19  C   UNL     1     -12.500  14.883  72.189  1.00  0.00    -0.338 A  
HETATM   20  C   UNL     1     -12.225  15.686  71.085  1.00  0.00    -0.466 A  
HETATM   21 BR   UNL     1     -12.630  15.660  73.907  1.00  0.00    -0.804 Br 
HETATM   22  C   UNL     1     -12.087  15.105  69.821  1.00  0.00    -0.354 A  
ENDBRANCH  14  16
ENDBRANCH   7  14
TORSDOF 3
ENDMDL
MODEL       10
REMARK 921   NORMALIZED FREE ENERGY PREDICTED BY IDOCK:   -6.44 KCAL/MOL
REMARK 922        TOTAL FREE ENERGY PREDICTED BY IDOCK:   -8.19 KCAL/MOL
REMARK 923 INTER-LIGAND FREE ENERGY PREDICTED BY IDOCK:   -7.26 KCAL/MOL
REMARK 924 INTRA-LIGAND FREE ENERGY PREDICTED BY IDOCK:   -0.93 KCAL/MOL
REMARK 927      BINDING AFFINITY PREDICTED BY RF-SCORE:    0.00 PKD
ROOT
HETATM    1  N   UNL     1      -9.264  13.454  66.910  1.00  0.00    -0.244 NA 
HETATM    2  C   UNL     1      -9.493  12.153  66.395  1.00  0.00    -0.233 A  
HETATM    3  H1  UNL     1      -8.823  13.548  67.824  1.00  0.00     0.000 HD 
HETATM    4  H2  UNL     1     -10.145  13.967  66.915  1.00  0.00     0.000 HD 
HETATM    5  C   UNL     1     -10.102  12.024  65.134  1.00  0.00    -0.295 A  
HETATM    6  C   UNL     1     -10.116  10.750  64.533  1.00  0.00    -0.415 A  
HETATM    7  C   UNL     1      -9.292  10.986  67.169  1.00  0.00    -0.177 A  
HETATM    8  C   UNL     1      -9.667   9.621  65.214  1.00  0.00    -0.330 A  
HETATM    9  C   UNL     1      -9.304   9.731  66.551  1.00  0.00    -0.207 A  
ENDROOT
BRANCH   5  10
HETATM   10  C   UNL     1     -10.672  13.183  64.328  1.00  0.00    -0.431 C  
HETATM   11  O   UNL     1     -13.032  12.681  64.850  1.00  0.00    -0.830 OA 
HETATM   12  O   UNL     1     -12.569  13.965  63.095  1.00  0.00    -0.775 OA 
HETATM   13  C   UNL     1     -12.159  13.287  64.036  1.00  0.00    -0.447 C  
ENDBRANCH   5  10
BRANCH   7  14
HETATM   14  C   UNL     1      -9.056  10.994  68.642  1.00  0.00    -0.174 C  
HETATM   15  O   UNL     1      -7.955  11.339  69.064  1.00  0.00    -0.132 OA 
BRANCH  14  16
HETATM   16  C   UNL     1     -10.115  10.588  69.613  1.00  0.00    -0.177 A  
HETATM   17  C   UNL     1     -11.291  11.350  69.666  1.00  0.00    -0.347 A  
HETATM   18  C   UNL     1     -12.367  10.936  70.456  1.00  0.00    -0.463 A  
HETATM   19  C   UNL     1     -12.268   9.760  71.196  1.00  0.00    -0.362 A  
HETATM   20  C   UNL     1     -11.084   9.027  71.201  1.00  0.00    -0.371 A  
HETATM   21 BR   UNL     1     -13.757   9.146  72.185  1.00  0.00    -0.542 Br 
HETATM   22  C   UNL     1      -9.997   9.459  70.436  1.00  0.00    -0.306 A  
ENDBRANCH  14  16
ENDBRANCH   7  14
TORSDOF 3
ENDMDL
MODEL       11
REMARK 921   NORMALIZED FREE ENERGY PREDICTED BY IDOCK:   -6.43 KCAL/MOL
REMARK 922        TOTAL FREE ENERGY PREDICTED BY IDOCK:   -8.17 KCAL/MOL
REMARK 923 INTER-LIGAND FREE ENERGY PREDICTED BY IDOCK:   -7.36 KCAL/MOL
REMARK 924 INTRA-LIGAND FREE ENERGY PREDICTED BY IDOCK:   -0.81 KCAL/MOL
REMARK 927      BINDING AFFINITY PREDICTED BY RF-SCORE:    0.00 PKD
ROOT
HETATM    1  N   UNL     1     -11.587   9.993  69.124  1.00  0.00    -0.477 NA 
HETATM    2  C   UNL     1     -12.013  11.173  69.784  1.00  0.00    -0.357 A  
HETATM    3  H1  UNL     1     -11.083  10.081  68.243  1.00  0.00     0.000 HD 
HETATM    4  H2  UNL     1     -12.392   9.383  68.985  1.00  0.00     0.000 HD 
HETATM    5  C   UNL     1     -12.709  11.051  71.001  1.00  0.00    -0.485 A  
HETATM    6  C   UNL     1     -12.924  12.219  71.760  1.00  0.00    -0.431 A  
HETATM    7  C   UNL     1     -11.919  12.451  69.186  1.00  0.00    -0.291 A  
HETATM    8  C   UNL     1     -12.585  13.478  71.268  1.00  0.00    -0.427 A  
HETATM    9  C   UNL     1     -12.131  13.598  69.960  1.00  0.00    -0.417 A  
ENDROOT
BRANCH   5  10
HETATM   10  C   UNL     1     -13.171   9.732  71.603  1.00  0.00    -0.514 C  
HETATM   11  O   UNL     1     -10.898   8.900  72.091  1.00  0.00    -0.355 OA 
HETATM   12  O   UNL     1     -12.579   7.447  71.999  1.00  0.00    -0.293 OA 
HETATM   13  C   UNL     1     -12.190   8.608  71.892  1.00  0.00    -0.355 C  
ENDBRANCH   5  10
BRANCH   7  14
HETATM   14  C   UNL     1     -11.596  12.676  67.748  1.00  0.00    -0.348 C  
HETATM   15  O   UNL     1     -12.151  11.983  66.900  1.00  0.00    -0.608 OA 
BRANCH  14  16
HETATM   16  C   UNL     1     -10.613  13.713  67.313  1.00  0.00    -0.267 A  
HETATM   17  C   UNL     1     -11.099  14.848  66.651  1.00  0.00    -0.329 A  
HETATM   18  C   UNL     1     -10.242  15.909  66.344  1.00  0.00    -0.311 A  
HETATM   19  C   UNL     1      -8.896  15.836  66.699  1.00  0.00    -0.288 A  
HETATM   20  C   UNL     1      -8.388  14.687  67.302  1.00  0.00    -0.234 A  
HETATM   21 BR   UNL     1      -7.759  17.309  66.376  1.00  0.00    -0.360 Br 
HETATM   22  C   UNL     1      -9.239  13.613  67.578  1.00  0.00    -0.218 A  
ENDBRANCH  14  16
ENDBRANCH   7  14
TORSDOF 3
ENDMDL
MODEL       12
REMARK 921   NORMALIZED FREE ENERGY PREDICTED BY IDOCK:   -6.43 KCAL/MOL
REMARK 922        TOTAL FREE ENERGY PREDICTED BY IDOCK:   -8.17 KCAL/MOL
REMARK 923 INTER-LIGAND FREE ENERGY PREDICTED BY IDOCK:   -7.53 KCAL/MOL
REMARK 924 INTRA-LIGAND FREE ENERGY PREDICTED BY IDOCK:   -0.64 KCAL/MOL
REMARK 927      BINDING AFFINITY PREDICTED BY RF-SCORE:    0.00 PKD
ROOT
HETATM    1  N   UNL     1     -11.178  12.929  67.359  1.00  0.00    -0.277 NA 
HETATM    2  C   UNL     1     -10.818  11.653  66.857  1.00  0.00    -0.278 A  
HETATM    3  H1  UNL     1     -11.346  13.031  68.360  1.00  0.00     0.000 HD 
HETATM    4  H2  UNL     1     -11.995  13.267  66.851  1.00  0.00     0.000 HD 
HETATM    5  C   UNL     1     -10.587  11.513  65.477  1.00  0.00    -0.334 A  
HETATM    6  C   UNL     1     -10.011  10.310  65.021  1.00  0.00    -0.393 A  
HETATM    7  C   UNL     1     -10.853  10.487  67.657  1.00  0.00    -0.355 A  
HETATM    8  C   UNL     1      -9.800   9.235  65.881  1.00  0.00    -0.335 A  
HETATM    9  C   UNL     1     -10.270   9.305  67.187  1.00  0.00    -0.324 A  
ENDROOT
BRANCH   5  10
HETATM   10  C   UNL     1     -10.831  12.605  64.444  1.00  0.00    -0.386 C  
HETATM   11  O   UNL     1     -13.255  12.784  64.877  1.00  0.00    -0.808 OA 
HETATM   12  O   UNL     1     -12.442  13.574  62.964  1.00  0.00    -0.709 OA 
HETATM   13  C   UNL     1     -12.238  13.004  64.034  1.00  0.00    -0.417 C  
ENDBRANCH   5  10
BRANCH   7  14
HETATM   14  C   UNL     1     -11.480  10.423  69.008  1.00  0.00    -0.193 C  
HETATM   15  O   UNL     1     -12.534  11.023  69.202  1.00  0.00    -0.432 OA 
BRANCH  14  16
HETATM   16  C   UNL     1     -10.858   9.658  70.130  1.00  0.00    -0.325 A  
HETATM   17  C   UNL     1      -9.460   9.641  70.223  1.00  0.00    -0.300 A  
HETATM   18  C   UNL     1      -8.832   9.057  71.327  1.00  0.00    -0.259 A  
HETATM   19  C   UNL     1      -9.602   8.487  72.339  1.00  0.00    -0.286 A  
HETATM   20  C   UNL     1     -10.990   8.443  72.228  1.00  0.00    -0.431 A  
HETATM   21 BR   UNL     1      -8.760   7.787  73.879  1.00  0.00    -0.318 Br 
HETATM   22  C   UNL     1     -11.616   8.998  71.108  1.00  0.00    -0.372 A  
ENDBRANCH  14  16
ENDBRANCH   7  14
TORSDOF 3
ENDMDL
MODEL       13
REMARK 921   NORMALIZED FREE ENERGY PREDICTED BY IDOCK:   -6.42 KCAL/MOL
REMARK 922        TOTAL FREE ENERGY PREDICTED BY IDOCK:   -8.17 KCAL/MOL
REMARK 923 INTER-LIGAND FREE ENERGY PREDICTED BY IDOCK:   -7.66 KCAL/MOL
REMARK 924 INTRA-LIGAND FREE ENERGY PREDICTED BY IDOCK:   -0.50 KCAL/MOL
REMARK 927      BINDING AFFINITY PREDICTED BY RF-SCORE:    0.00 PKD
ROOT
HETATM    1  N   UNL     1      -9.841  16.709  69.090  1.00  0.00    -0.262 NA 
HETATM    2  C   UNL     1     -10.546  15.987  68.094  1.00  0.00    -0.286 A  
HETATM    3  H1  UNL     1      -9.957  16.436  70.065  1.00  0.00     0.000 HD 
HETATM    4  H2  UNL     1     -10.061  17.701  68.997  1.00  0.00     0.000 HD 
HETATM    5  C   UNL     1     -10.387  16.365  66.748  1.00  0.00    -0.293 A  
HETATM    6  C   UNL     1     -10.901  15.508  65.755  1.00  0.00    -0.337 A  
HETATM    7  C   UNL     1     -11.529  15.022  68.411  1.00  0.00    -0.340 A  
HETATM    8  C   UNL     1     -11.664  14.390  66.085  1.00  0.00    -0.384 A  
HETATM    9  C   UNL     1     -12.022  14.177  67.410  1.00  0.00    -0.439 A  
ENDROOT
BRANCH   5  10
HETATM   10  C   UNL     1      -9.618  17.593  66.281  1.00  0.00    -0.259 C  
HETATM   11  O   UNL     1     -11.076  19.221  67.431  1.00  0.00    -0.444 OA 
HETATM   12  O   UNL     1      -9.779  19.925  65.767  1.00  0.00    -0.350 OA 
HETATM   13  C   UNL     1     -10.179  18.993  66.462  1.00  0.00    -0.421 C  
ENDBRANCH   5  10
BRANCH   7  14
HETATM   14  C   UNL     1     -12.094  14.826  69.777  1.00  0.00    -0.319 C  
HETATM   15  O   UNL     1     -12.417  15.814  70.432  1.00  0.00    -0.399 OA 
BRANCH  14  16
HETATM   16  C   UNL     1     -12.270  13.468  70.371  1.00  0.00    -0.426 A  
HETATM   17  C   UNL     1     -13.055  13.348  71.526  1.00  0.00    -0.427 A  
HETATM   18  C   UNL     1     -13.364  12.087  72.044  1.00  0.00    -0.447 A  
HETATM   19  C   UNL     1     -12.886  10.943  71.408  1.00  0.00    -0.449 A  
HETATM   20  C   UNL     1     -12.054  11.050  70.296  1.00  0.00    -0.448 A  
HETATM   21 BR   UNL     1     -13.385   9.236  72.046  1.00  0.00    -0.565 Br 
HETATM   22  C   UNL     1     -11.719  12.313  69.799  1.00  0.00    -0.368 A  
ENDBRANCH  14  16
ENDBRANCH   7  14
TORSDOF 3
ENDMDL
MODEL       14
REMARK 921   NORMALIZED FREE ENERGY PREDICTED BY IDOCK:   -6.39 KCAL/MOL
REMARK 922        TOTAL FREE ENERGY PREDICTED BY IDOCK:   -8.13 KCAL/MOL
REMARK 923 INTER-LIGAND FREE ENERGY PREDICTED BY IDOCK:   -7.82 KCAL/MOL
REMARK 924 INTRA-LIGAND FREE ENERGY PREDICTED BY IDOCK:   -0.31 KCAL/MOL
REMARK 927      BINDING AFFINITY PREDICTED BY RF-SCORE:    0.00 PKD
ROOT
HETATM    1  N   UNL     1     -11.918  14.691  67.799  1.00  0.00    -0.545 NA 
HETATM    2  C   UNL     1     -11.680  13.409  67.241  1.00  0.00    -0.380 A  
HETATM    3  H1  UNL     1     -11.883  14.797  68.812  1.00  0.00     0.000 HD 
HETATM    4  H2  UNL     1     -12.816  15.036  67.461  1.00  0.00     0.000 HD 
HETATM    5  C   UNL     1     -11.728  13.263  65.843  1.00  0.00    -0.403 A  
HETATM    6  C   UNL     1     -11.268  12.052  65.288  1.00  0.00    -0.374 A  
HETATM    7  C   UNL     1     -11.568  12.246  68.038  1.00  0.00    -0.408 A  
HETATM    8  C   UNL     1     -10.902  10.976  66.095  1.00  0.00    -0.212 A  
HETATM    9  C   UNL     1     -11.103  11.056  67.468  1.00  0.00    -0.366 A  
ENDROOT
BRANCH   5  10
HETATM   10  C   UNL     1     -12.161  14.355  64.875  1.00  0.00    -0.442 C  
HETATM   11  O   UNL     1      -9.949  15.445  64.763  1.00  0.00    -0.222 OA 
HETATM   12  O   UNL     1     -11.747  16.593  64.136  1.00  0.00    -1.034 OA 
HETATM   13  C   UNL     1     -11.271  15.551  64.584  1.00  0.00    -0.371 C  
ENDBRANCH   5  10
BRANCH   7  14
HETATM   14  C   UNL     1     -11.914  12.193  69.487  1.00  0.00    -0.275 C  
HETATM   15  O   UNL     1     -12.293  13.220  70.045  1.00  0.00    -0.281 OA 
BRANCH  14  16
HETATM   16  C   UNL     1     -11.806  10.931  70.278  1.00  0.00    -0.450 A  
HETATM   17  C   UNL     1     -12.966  10.427  70.882  1.00  0.00    -0.475 A  
HETATM   18  C   UNL     1     -12.949   9.183  71.518  1.00  0.00    -0.409 A  
HETATM   19  C   UNL     1     -11.771   8.439  71.551  1.00  0.00    -0.290 A  
HETATM   20  C   UNL     1     -10.596   8.956  71.009  1.00  0.00    -0.315 A  
HETATM   21 BR   UNL     1     -11.771   6.713  72.320  1.00  0.00    -0.278 Br 
HETATM   22  C   UNL     1     -10.606  10.215  70.403  1.00  0.00    -0.287 A  
ENDBRANCH  14  16
ENDBRANCH   7  14
TORSDOF 3
ENDMDL
MODEL       15
REMARK 921   NORMALIZED FREE ENERGY PREDICTED BY IDOCK:   -6.36 KCAL/MOL
REMARK 922        TOTAL FREE ENERGY PREDICTED BY IDOCK:   -8.10 KCAL/MOL
REMARK 923 INTER-LIGAND FREE ENERGY PREDICTED BY IDOCK:   -7.24 KCAL/MOL
REMARK 924 INTRA-LIGAND FREE ENERGY PREDICTED BY IDOCK:   -0.86 KCAL/MOL
REMARK 927      BINDING AFFINITY PREDICTED BY RF-SCORE:    0.00 PKD
ROOT
HETATM    1  N   UNL     1      -9.413  14.441  68.960  1.00  0.00    -0.387 NA 
HETATM    2  C   UNL     1     -10.202  13.896  67.916  1.00  0.00    -0.241 A  
HETATM    3  H1  UNL     1      -9.574  14.119  69.914  1.00  0.00     0.000 HD 
HETATM    4  H2  UNL     1      -9.491  15.458  68.938  1.00  0.00     0.000 HD 
HETATM    5  C   UNL     1      -9.980  14.342  66.601  1.00  0.00    -0.279 A  
HETATM    6  C   UNL     1     -10.600  13.636  65.549  1.00  0.00    -0.300 A  
HETATM    7  C   UNL     1     -11.313  13.057  68.165  1.00  0.00    -0.329 A  
HETATM    8  C   UNL     1     -11.513  12.615  65.800  1.00  0.00    -0.399 A  
HETATM    9  C   UNL     1     -11.909  12.361  67.108  1.00  0.00    -0.361 A  
ENDROOT
BRANCH   5  10
HETATM   10  C   UNL     1      -9.044  15.481  66.221  1.00  0.00    -0.369 C  
HETATM   11  O   UNL     1     -10.287  17.216  67.461  1.00  0.00    -0.320 OA 
HETATM   12  O   UNL     1      -8.878  17.840  65.857  1.00  0.00    -0.512 OA 
HETATM   13  C   UNL     1      -9.413  16.930  66.487  1.00  0.00    -0.276 C  
ENDBRANCH   5  10
BRANCH   7  14
HETATM   14  C   UNL     1     -11.912  12.847  69.515  1.00  0.00    -0.285 C  
HETATM   15  O   UNL     1     -12.441  13.799  70.084  1.00  0.00    -0.323 OA 
BRANCH  14  16
HETATM   16  C   UNL     1     -11.879  11.518  70.194  1.00  0.00    -0.440 A  
HETATM   17  C   UNL     1     -10.795  10.669  69.934  1.00  0.00    -0.301 A  
HETATM   18  C   UNL     1     -10.645   9.475  70.645  1.00  0.00    -0.374 A  
HETATM   19  C   UNL     1     -11.581   9.127  71.617  1.00  0.00    -0.379 A  
HETATM   20  C   UNL     1     -12.696   9.931  71.841  1.00  0.00    -0.501 A  
HETATM   21 BR   UNL     1     -11.327   7.564  72.648  1.00  0.00    -0.391 Br 
HETATM   22  C   UNL     1     -12.863  11.108  71.106  1.00  0.00    -0.473 A  
ENDBRANCH  14  16
ENDBRANCH   7  14
TORSDOF 3
ENDMDL
MODEL       16
REMARK 921   NORMALIZED FREE ENERGY PREDICTED BY IDOCK:   -6.33 KCAL/MOL
REMARK 922        TOTAL FREE ENERGY PREDICTED BY IDOCK:   -8.06 KCAL/MOL
REMARK 923 INTER-LIGAND FREE ENERGY PREDICTED BY IDOCK:   -7.51 KCAL/MOL
REMARK 924 INTRA-LIGAND FREE ENERGY PREDICTED BY IDOCK:   -0.55 KCAL/MOL
REMARK 927      BINDING AFFINITY PREDICTED BY RF-SCORE:    0.00 PKD
ROOT
HETATM    1  N   UNL     1     -11.744  14.105  67.312  1.00  0.00    -0.372 NA 
HETATM    2  C   UNL     1     -11.818  14.218  68.723  1.00  0.00    -0.341 A  
HETATM    3  H1  UNL     1     -11.973  13.210  66.881  1.00  0.00     0.000 HD 
HETATM    4  H2  UNL     1     -10.814  14.389  67.007  1.00  0.00     0.000 HD 
HETATM    5  C   UNL     1     -11.501  15.452  69.318  1.00  0.00    -0.344 A  
HETATM    6  C   UNL     1     -11.797  15.624  70.686  1.00  0.00    -0.409 A  
HETATM    7  C   UNL     1     -12.029  13.099  69.563  1.00  0.00    -0.354 A  
HETATM    8  C   UNL     1     -12.262  14.567  71.466  1.00  0.00    -0.415 A  
HETATM    9  C   UNL     1     -12.328  13.293  70.916  1.00  0.00    -0.413 A  
ENDROOT
BRANCH   5  10
HETATM   10  C   UNL     1     -10.940  16.653  68.569  1.00  0.00    -0.339 C  
HETATM   11  O   UNL     1      -8.604  16.290  69.280  1.00  0.00    -0.237 OA 
HETATM   12  O   UNL     1      -9.199  18.295  68.526  1.00  0.00    -0.309 OA 
HETATM   13  C   UNL     1      -9.522  17.143  68.810  1.00  0.00    -0.263 C  
ENDBRANCH   5  10
BRANCH   7  14
HETATM   14  C   UNL     1     -11.960  11.684  69.098  1.00  0.00    -0.313 C  
HETATM   15  O   UNL     1     -12.119  11.444  67.903  1.00  0.00    -0.646 OA 
BRANCH  14  16
HETATM   16  C   UNL     1     -11.713  10.555  70.042  1.00  0.00    -0.394 A  
HETATM   17  C   UNL     1     -10.435   9.980  70.065  1.00  0.00    -0.337 A  
HETATM   18  C   UNL     1     -10.111   9.015  71.023  1.00  0.00    -0.352 A  
HETATM   19  C   UNL     1     -11.065   8.621  71.958  1.00  0.00    -0.367 A  
HETATM   20  C   UNL     1     -12.358   9.138  71.907  1.00  0.00    -0.455 A  
HETATM   21 BR   UNL     1     -10.599   7.391  73.315  1.00  0.00    -0.432 Br 
HETATM   22  C   UNL     1     -12.690  10.079  70.928  1.00  0.00    -0.414 A  
ENDBRANCH  14  16
ENDBRANCH   7  14
TORSDOF 3
ENDMDL
MODEL       17
REMARK 921   NORMALIZED FREE ENERGY PREDICTED BY IDOCK:   -6.33 KCAL/MOL
REMARK 922        TOTAL FREE ENERGY PREDICTED BY IDOCK:   -8.06 KCAL/MOL
REMARK 923 INTER-LIGAND FREE ENERGY PREDICTED BY IDOCK:   -7.17 KCAL/MOL
REMARK 924 INTRA-LIGAND FREE ENERGY PREDICTED BY IDOCK:   -0.89 KCAL/MOL
REMARK 927      BINDING AFFINITY PREDICTED BY RF-SCORE:    0.00 PKD
ROOT
HETATM    1  N   UNL     1      -9.297  13.998  67.378  1.00  0.00    -0.212 NA 
HETATM    2  C   UNL     1      -9.706  12.929  66.543  1.00  0.00    -0.257 A  
HETATM    3  H1  UNL     1      -8.863  13.780  68.274  1.00  0.00     0.000 HD 
HETATM    4  H2  UNL     1     -10.093  14.615  67.539  1.00  0.00     0.000 HD 
HETATM    5  C   UNL     1     -10.306  13.230  65.307  1.00  0.00    -0.324 A  
HETATM    6  C   UNL     1     -10.498  12.177  64.390  1.00  0.00    -0.352 A  
HETATM    7  C   UNL     1      -9.693  11.582  66.975  1.00  0.00    -0.202 A  
HETATM    8  C   UNL     1     -10.231  10.855  64.737  1.00  0.00    -0.398 A  
HETATM    9  C   UNL     1      -9.880  10.552  66.047  1.00  0.00    -0.277 A  
ENDROOT
BRANCH   5  10
HETATM   10  C   UNL     1     -10.685  14.632  64.850  1.00  0.00    -0.447 C  
HETATM   11  O   UNL     1     -13.114  14.319  65.154  1.00  0.00    -0.704 OA 
HETATM   12  O   UNL     1     -12.398  15.968  63.846  1.00  0.00    -0.855 OA 
HETATM   13  C   UNL     1     -12.129  15.008  64.565  1.00  0.00    -0.363 C  
ENDBRANCH   5  10
BRANCH   7  14
HETATM   14  C   UNL     1      -9.484  11.164  68.391  1.00  0.00    -0.189 C  
HETATM   15  O   UNL     1      -8.360  11.258  68.878  1.00  0.00    -0.143 OA 
BRANCH  14  16
HETATM   16  C   UNL     1     -10.599  10.630  69.229  1.00  0.00    -0.263 A  
HETATM   17  C   UNL     1     -10.407   9.402  69.879  1.00  0.00    -0.252 A  
HETATM   18  C   UNL     1     -11.361   8.924  70.781  1.00  0.00    -0.325 A  
HETATM   19  C   UNL     1     -12.510   9.671  71.034  1.00  0.00    -0.296 A  
HETATM   20  C   UNL     1     -12.742  10.861  70.348  1.00  0.00    -0.326 A  
HETATM   21 BR   UNL     1     -13.752   9.075  72.327  1.00  0.00    -0.560 Br 
HETATM   22  C   UNL     1     -11.802  11.323  69.421  1.00  0.00    -0.424 A  
ENDBRANCH  14  16
ENDBRANCH   7  14
TORSDOF 3
ENDMDL
MODEL       18
REMARK 921   NORMALIZED FREE ENERGY PREDICTED BY IDOCK:   -6.32 KCAL/MOL
REMARK 922        TOTAL FREE ENERGY PREDICTED BY IDOCK:   -8.05 KCAL/MOL
REMARK 923 INTER-LIGAND FREE ENERGY PREDICTED BY IDOCK:   -7.38 KCAL/MOL
REMARK 924 INTRA-LIGAND FREE ENERGY PREDICTED BY IDOCK:   -0.67 KCAL/MOL
REMARK 927      BINDING AFFINITY PREDICTED BY RF-SCORE:    0.00 PKD
ROOT
HETATM    1  N   UNL     1     -11.957  11.421  67.843  1.00  0.00    -0.644 NA 
HETATM    2  C   UNL     1     -11.271  11.312  66.607  1.00  0.00    -0.177 A  
HETATM    3  H1  UNL     1     -12.671  12.142  67.944  1.00  0.00     0.000 HD 
HETATM    4  H2  UNL     1     -11.274  11.526  68.592  1.00  0.00     0.000 HD 
HETATM    5  C   UNL     1     -10.285  10.318  66.469  1.00  0.00    -0.289 A  
HETATM    6  C   UNL     1      -9.775  10.067  65.179  1.00  0.00    -0.380 A  
HETATM    7  C   UNL     1     -11.414  12.268  65.575  1.00  0.00    -0.408 A  
HETATM    8  C   UNL     1     -10.128  10.863  64.091  1.00  0.00    -0.416 A  
HETATM    9  C   UNL     1     -10.906  11.995  64.300  1.00  0.00    -0.389 A  
ENDROOT
BRANCH   5  10
HETATM   10  C   UNL     1      -9.791   9.429  67.601  1.00  0.00    -0.217 C  
HETATM   11  O   UNL     1     -11.017   7.418  66.858  1.00  0.00    -0.324 OA 
HETATM   12  O   UNL     1     -10.299   7.526  68.960  1.00  0.00    -0.204 OA 
HETATM   13  C   UNL     1     -10.406   8.064  67.860  1.00  0.00    -0.222 C  
ENDBRANCH   5  10
BRANCH   7  14
HETATM   14  C   UNL     1     -12.094  13.584  65.746  1.00  0.00    -0.433 C  
HETATM   15  O   UNL     1     -13.225  13.732  65.291  1.00  0.00    -0.755 OA 
BRANCH  14  16
HETATM   16  C   UNL     1     -11.436  14.726  66.448  1.00  0.00    -0.319 A  
HETATM   17  C   UNL     1     -10.722  15.653  65.676  1.00  0.00    -0.376 A  
HETATM   18  C   UNL     1     -10.203  16.811  66.263  1.00  0.00    -0.341 A  
HETATM   19  C   UNL     1     -10.396  17.043  67.623  1.00  0.00    -0.332 A  
HETATM   20  C   UNL     1     -11.049  16.100  68.413  1.00  0.00    -0.359 A  
HETATM   21 BR   UNL     1      -9.784  18.654  68.397  1.00  0.00    -0.430 Br 
HETATM   22  C   UNL     1     -11.539  14.926  67.832  1.00  0.00    -0.364 A  
ENDBRANCH  14  16
ENDBRANCH   7  14
TORSDOF 3
ENDMDL
MODEL       19
REMARK 921   NORMALIZED FREE ENERGY PREDICTED BY IDOCK:   -6.32 KCAL/MOL
REMARK 922        TOTAL FREE ENERGY PREDICTED BY IDOCK:   -8.04 KCAL/MOL
REMARK 923 INTER-LIGAND FREE ENERGY PREDICTED BY IDOCK:   -7.38 KCAL/MOL
REMARK 924 INTRA-LIGAND FREE ENERGY PREDICTED BY IDOCK:   -0.66 KCAL/MOL
REMARK 927      BINDING AFFINITY PREDICTED BY RF-SCORE:    0.00 PKD
ROOT
HETATM    1  N   UNL     1     -12.842   8.704  70.949  1.00  0.00    -0.488 NA 
HETATM    2  C   UNL     1     -11.457   8.983  70.839  1.00  0.00    -0.291 A  
HETATM    3  H1  UNL     1     -13.494   9.226  70.364  1.00  0.00     0.000 HD 
HETATM    4  H2  UNL     1     -13.123   8.802  71.924  1.00  0.00     0.000 HD 
HETATM    5  C   UNL     1     -10.558   8.263  71.647  1.00  0.00    -0.306 A  
HETATM    6  C   UNL     1      -9.181   8.379  71.371  1.00  0.00    -0.242 A  
HETATM    7  C   UNL     1     -10.961  10.070  70.083  1.00  0.00    -0.368 A  
HETATM    8  C   UNL     1      -8.704   9.280  70.421  1.00  0.00    -0.263 A  
HETATM    9  C   UNL     1      -9.590  10.163  69.815  1.00  0.00    -0.213 A  
ENDROOT
BRANCH   5  10
HETATM   10  C   UNL     1     -10.971   7.293  72.745  1.00  0.00    -0.366 C  
HETATM   11  O   UNL     1     -10.629   5.259  71.388  1.00  0.00    -0.225 OA 
HETATM   12  O   UNL     1     -11.906   5.138  73.205  1.00  0.00    -0.263 OA 
HETATM   13  C   UNL     1     -11.218   5.823  72.450  1.00  0.00    -0.290 C  
ENDBRANCH   5  10
BRANCH   7  14
HETATM   14  C   UNL     1     -11.816  11.157  69.526  1.00  0.00    -0.353 C  
HETATM   15  O   UNL     1     -12.199  11.073  68.361  1.00  0.00    -0.586 OA 
BRANCH  14  16
HETATM   16  C   UNL     1     -12.213  12.344  70.340  1.00  0.00    -0.370 A  
HETATM   17  C   UNL     1     -13.034  12.135  71.457  1.00  0.00    -0.398 A  
HETATM   18  C   UNL     1     -13.322  13.189  72.329  1.00  0.00    -0.621 A  
HETATM   19  C   UNL     1     -12.791  14.454  72.084  1.00  0.00    -0.342 A  
HETATM   20  C   UNL     1     -12.026  14.689  70.944  1.00  0.00    -0.388 A  
HETATM   21 BR   UNL     1     -13.097  15.854  73.315  1.00  0.00    -0.695 Br 
HETATM   22  C   UNL     1     -11.765  13.642  70.055  1.00  0.00    -0.319 A  
ENDBRANCH  14  16
ENDBRANCH   7  14
TORSDOF 3
ENDMDL
MODEL       20
REMARK 921   NORMALIZED FREE ENERGY PREDICTED BY IDOCK:   -6.31 KCAL/MOL
REMARK 922        TOTAL FREE ENERGY PREDICTED BY IDOCK:   -8.03 KCAL/MOL
REMARK 923 INTER-LIGAND FREE ENERGY PREDICTED BY IDOCK:   -7.14 KCAL/MOL
REMARK 924 INTRA-LIGAND FREE ENERGY PREDICTED BY IDOCK:   -0.88 KCAL/MOL
REMARK 927      BINDING AFFINITY PREDICTED BY RF-SCORE:    0.00 PKD
ROOT
HETATM    1  N   UNL     1      -9.879  14.013  64.462  1.00  0.00    -0.629 NA 
HETATM    2  C   UNL     1     -10.686  14.102  65.624  1.00  0.00    -0.313 A  
HETATM    3  H1  UNL     1      -9.459  14.865  64.092  1.00  0.00     0.000 HD 
HETATM    4  H2  UNL     1     -10.416  13.562  63.721  1.00  0.00     0.000 HD 
HETATM    5  C   UNL     1     -11.267  12.926  66.133  1.00  0.00    -0.326 A  
HETATM    6  C   UNL     1     -11.870  12.983  67.406  1.00  0.00    -0.411 A  
HETATM    7  C   UNL     1     -11.067  15.341  66.188  1.00  0.00    -0.280 A  
HETATM    8  C   UNL     1     -12.013  14.190  68.088  1.00  0.00    -0.367 A  
HETATM    9  C   UNL     1     -11.659  15.375  67.456  1.00  0.00    -0.176 A  
ENDROOT
BRANCH   5  10
HETATM   10  C   UNL     1     -11.214  11.569  65.446  1.00  0.00    -0.207 C  
HETATM   11  O   UNL     1      -9.241  10.762  66.693  1.00  0.00    -0.162 OA 
HETATM   12  O   UNL     1      -9.788   9.765  64.782  1.00  0.00    -0.258 OA 
HETATM   13  C   UNL     1     -10.017  10.647  65.607  1.00  0.00    -0.268 C  
ENDBRANCH   5  10
BRANCH   7  14
HETATM   14  C   UNL     1     -10.876  16.657  65.514  1.00  0.00    -0.163 C  
HETATM   15  O   UNL     1     -11.447  16.866  64.447  1.00  0.00    -1.052 OA 
BRANCH  14  16
HETATM   16  C   UNL     1     -10.004  17.722  66.094  1.00  0.00    -0.283 A  
HETATM   17  C   UNL     1      -8.672  17.399  66.386  1.00  0.00    -0.275 A  
HETATM   18  C   UNL     1      -7.778  18.390  66.801  1.00  0.00    -0.248 A  
HETATM   19  C   UNL     1      -8.217  19.707  66.928  1.00  0.00    -0.294 A  
HETATM   20  C   UNL     1      -9.553  20.030  66.701  1.00  0.00    -0.548 A  
HETATM   21 BR   UNL     1      -6.988  21.066  67.391  1.00  0.00    -0.351 Br 
HETATM   22  C   UNL     1     -10.453  19.031  66.317  1.00  0.00    -0.534 A  
ENDBRANCH  14  16
ENDBRANCH   7  14
TORSDOF 3
ENDMDL
MODEL       21
REMARK 921   NORMALIZED FREE ENERGY PREDICTED BY IDOCK:   -6.30 KCAL/MOL
REMARK 922        TOTAL FREE ENERGY PREDICTED BY IDOCK:   -8.02 KCAL/MOL
REMARK 923 INTER-LIGAND FREE ENERGY PREDICTED BY IDOCK:   -7.14 KCAL/MOL
REMARK 924 INTRA-LIGAND FREE ENERGY PREDICTED BY IDOCK:   -0.88 KCAL/MOL
REMARK 927      BINDING AFFINITY PREDICTED BY RF-SCORE:    0.00 PKD
ROOT
HETATM    1  N   UNL     1     -10.917  15.179  64.636  1.00  0.00    -0.634 NA 
HETATM    2  C   UNL     1     -10.308  14.166  65.420  1.00  0.00    -0.365 A  
HETATM    3  H1  UNL     1     -10.921  16.135  64.991  1.00  0.00     0.000 HD 
HETATM    4  H2  UNL     1     -11.875  14.901  64.424  1.00  0.00     0.000 HD 
HETATM    5  C   UNL     1     -10.303  12.847  64.931  1.00  0.00    -0.329 A  
HETATM    6  C   UNL     1      -9.502  11.898  65.598  1.00  0.00    -0.180 A  
HETATM    7  C   UNL     1      -9.862  14.397  66.742  1.00  0.00    -0.269 A  
HETATM    8  C   UNL     1      -8.840  12.210  66.783  1.00  0.00    -0.198 A  
HETATM    9  C   UNL     1      -9.063  13.443  67.383  1.00  0.00    -0.216 A  
ENDROOT
BRANCH   5  10
HETATM   10  C   UNL     1     -11.033  12.388  63.677  1.00  0.00    -0.525 C  
HETATM   11  O   UNL     1     -13.297  12.660  64.622  1.00  0.00    -0.767 OA 
HETATM   12  O   UNL     1     -13.026  11.365  62.835  1.00  0.00    -0.044 OA 
HETATM   13  C   UNL     1     -12.521  12.085  63.694  1.00  0.00    -0.525 C  
ENDBRANCH   5  10
BRANCH   7  14
HETATM   14  C   UNL     1     -10.186  15.623  67.528  1.00  0.00    -0.263 C  
HETATM   15  O   UNL     1      -9.742  16.704  67.150  1.00  0.00    -0.241 OA 
BRANCH  14  16
HETATM   16  C   UNL     1     -11.025  15.570  68.762  1.00  0.00    -0.270 A  
HETATM   17  C   UNL     1     -11.909  14.493  68.914  1.00  0.00    -0.359 A  
HETATM   18  C   UNL     1     -12.616  14.322  70.108  1.00  0.00    -0.338 A  
HETATM   19  C   UNL     1     -12.441  15.229  71.152  1.00  0.00    -0.375 A  
HETATM   20  C   UNL     1     -11.612  16.337  70.990  1.00  0.00    -0.343 A  
HETATM   21 BR   UNL     1     -13.318  14.944  72.801  1.00  0.00    -0.604 Br 
HETATM   22  C   UNL     1     -10.931  16.525  69.784  1.00  0.00    -0.292 A  
ENDBRANCH  14  16
ENDBRANCH   7  14
TORSDOF 3
ENDMDL
MODEL       22
REMARK 921   NORMALIZED FREE ENERGY PREDICTED BY IDOCK:   -6.30 KCAL/MOL
REMARK 922        TOTAL FREE ENERGY PREDICTED BY IDOCK:   -8.02 KCAL/MOL
REMARK 923 INTER-LIGAND FREE ENERGY PREDICTED BY IDOCK:   -7.22 KCAL/MOL
REMARK 924 INTRA-LIGAND FREE ENERGY PREDICTED BY IDOCK:   -0.79 KCAL/MOL
REMARK 927      BINDING AFFINITY PREDICTED BY RF-SCORE:    0.00 PKD
ROOT
HETATM    1  N   UNL     1      -8.964  12.354  65.782  1.00  0.00    -0.407 NA 
HETATM    2  C   UNL     1     -10.264  12.592  65.268  1.00  0.00    -0.282 A  
HETATM    3  H1  UNL     1      -8.720  12.742  66.692  1.00  0.00     0.000 HD 
HETATM    4  H2  UNL     1      -8.276  12.664  65.096  1.00  0.00     0.000 HD 
HETATM    5  C   UNL     1     -10.600  12.057  64.012  1.00  0.00    -0.423 A  
HETATM    6  C   UNL     1     -11.952  12.099  63.615  1.00  0.00    -0.628 A  
HETATM    7  C   UNL     1     -11.171  13.484  65.886  1.00  0.00    -0.310 A  
HETATM    8  C   UNL     1     -12.911  12.768  64.373  1.00  0.00    -0.288 A  
HETATM    9  C   UNL     1     -12.510  13.505  65.481  1.00  0.00    -0.538 A  
ENDROOT
BRANCH   5  10
HETATM   10  C   UNL     1      -9.621  11.353  63.082  1.00  0.00    -0.398 C  
HETATM   11  O   UNL     1      -9.369   9.348  64.500  1.00  0.00    -0.189 OA 
HETATM   12  O   UNL     1      -7.821   9.780  62.963  1.00  0.00    -0.123 OA 
HETATM   13  C   UNL     1      -8.862  10.114  63.525  1.00  0.00    -0.231 C  
ENDBRANCH   5  10
BRANCH   7  14
HETATM   14  C   UNL     1     -10.797  14.430  66.976  1.00  0.00    -0.297 C  
HETATM   15  O   UNL     1     -10.006  15.337  66.729  1.00  0.00    -0.234 OA 
BRANCH  14  16
HETATM   16  C   UNL     1     -11.348  14.300  68.358  1.00  0.00    -0.309 A  
HETATM   17  C   UNL     1     -11.795  15.462  69.003  1.00  0.00    -0.357 A  
HETATM   18  C   UNL     1     -12.444  15.379  70.238  1.00  0.00    -0.413 A  
HETATM   19  C   UNL     1     -12.646  14.134  70.831  1.00  0.00    -0.363 A  
HETATM   20  C   UNL     1     -12.152  12.979  70.230  1.00  0.00    -0.388 A  
HETATM   21 BR   UNL     1     -13.611  14.012  72.451  1.00  0.00    -0.693 Br 
HETATM   22  C   UNL     1     -11.474  13.066  69.011  1.00  0.00    -0.353 A  
ENDBRANCH  14  16
ENDBRANCH   7  14
TORSDOF 3
ENDMDL
MODEL       23
REMARK 921   NORMALIZED FREE ENERGY PREDICTED BY IDOCK:   -6.27 KCAL/MOL
REMARK 922        TOTAL FREE ENERGY PREDICTED BY IDOCK:   -7.99 KCAL/MOL
REMARK 923 INTER-LIGAND FREE ENERGY PREDICTED BY IDOCK:   -7.34 KCAL/MOL
REMARK 924 INTRA-LIGAND FREE ENERGY PREDICTED BY IDOCK:   -0.64 KCAL/MOL
REMARK 927      BINDING AFFINITY PREDICTED BY RF-SCORE:    0.00 PKD
ROOT
HETATM    1  N   UNL     1     -11.851  10.562  68.289  1.00  0.00    -0.785 NA 
HETATM    2  C   UNL     1     -12.017  11.556  69.286  1.00  0.00    -0.330 A  
HETATM    3  H1  UNL     1     -12.210   9.625  68.469  1.00  0.00     0.000 HD 
HETATM    4  H2  UNL     1     -10.862  10.496  68.049  1.00  0.00     0.000 HD 
HETATM    5  C   UNL     1     -11.521  12.849  69.038  1.00  0.00    -0.358 A  
HETATM    6  C   UNL     1     -11.889  13.880  69.924  1.00  0.00    -0.394 A  
HETATM    7  C   UNL     1     -12.503  11.257  70.580  1.00  0.00    -0.398 A  
HETATM    8  C   UNL     1     -12.607  13.615  71.088  1.00  0.00    -0.452 A  
HETATM    9  C   UNL     1     -12.868  12.297  71.442  1.00  0.00    -0.373 A  
ENDROOT
BRANCH   5  10
HETATM   10  C   UNL     1     -10.684  13.235  67.826  1.00  0.00    -0.256 C  
HETATM   11  O   UNL     1     -12.578  14.132  66.522  1.00  0.00    -0.394 OA 
HETATM   12  O   UNL     1     -10.709  13.572  65.456  1.00  0.00    -0.278 OA 
HETATM   13  C   UNL     1     -11.333  13.640  66.514  1.00  0.00    -0.319 C  
ENDBRANCH   5  10
BRANCH   7  14
HETATM   14  C   UNL     1     -12.666   9.873  71.109  1.00  0.00    -0.366 C  
HETATM   15  O   UNL     1     -13.780   9.355  71.084  1.00  0.00    -0.304 OA 
BRANCH  14  16
HETATM   16  C   UNL     1     -11.518   9.104  71.674  1.00  0.00    -0.451 A  
HETATM   17  C   UNL     1     -10.231   9.392  71.198  1.00  0.00    -0.361 A  
HETATM   18  C   UNL     1      -9.110   8.802  71.788  1.00  0.00    -0.305 A  
HETATM   19  C   UNL     1      -9.274   7.920  72.855  1.00  0.00    -0.235 A  
HETATM   20  C   UNL     1     -10.550   7.578  73.297  1.00  0.00    -0.438 A  
HETATM   21 BR   UNL     1      -7.756   7.199  73.719  1.00  0.00    -0.129 Br 
HETATM   22  C   UNL     1     -11.672   8.144  72.684  1.00  0.00    -0.419 A  
ENDBRANCH  14  16
ENDBRANCH   7  14
TORSDOF 3
ENDMDL
MODEL       24
REMARK 921   NORMALIZED FREE ENERGY PREDICTED BY IDOCK:   -6.27 KCAL/MOL
REMARK 922        TOTAL FREE ENERGY PREDICTED BY IDOCK:   -7.98 KCAL/MOL
REMARK 923 INTER-LIGAND FREE ENERGY PREDICTED BY IDOCK:   -7.17 KCAL/MOL
REMARK 924 INTRA-LIGAND FREE ENERGY PREDICTED BY IDOCK:   -0.81 KCAL/MOL
REMARK 927      BINDING AFFINITY PREDICTED BY RF-SCORE:    0.00 PKD
ROOT
HETATM    1  N   UNL     1     -12.219  15.040  67.899  1.00  0.00    -0.469 NA 
HETATM    2  C   UNL     1     -10.896  14.747  67.485  1.00  0.00    -0.287 A  
HETATM    3  H1  UNL     1     -12.820  14.272  68.196  1.00  0.00     0.000 HD 
HETATM    4  H2  UNL     1     -12.690  15.559  67.158  1.00  0.00     0.000 HD 
HETATM    5  C   UNL     1     -10.067  15.806  67.074  1.00  0.00    -0.261 A  
HETATM    6  C   UNL     1      -8.696  15.540  66.887  1.00  0.00    -0.281 A  
HETATM    7  C   UNL     1     -10.435  13.422  67.306  1.00  0.00    -0.248 A  
HETATM    8  C   UNL     1      -8.190  14.245  66.971  1.00  0.00    -0.116 A  
HETATM    9  C   UNL     1      -9.068  13.180  67.128  1.00  0.00    -0.230 A  
ENDROOT
BRANCH   5  10
HETATM   10  C   UNL     1     -10.529  17.247  66.901  1.00  0.00    -0.272 C  
HETATM   11  O   UNL     1     -11.052  17.028  64.498  1.00  0.00    -1.098 OA 
HETATM   12  O   UNL     1     -10.753  19.059  65.353  1.00  0.00    -0.520 OA 
HETATM   13  C   UNL     1     -10.766  17.841  65.523  1.00  0.00    -0.009 C  
ENDBRANCH   5  10
BRANCH   7  14
HETATM   14  C   UNL     1     -11.323  12.224  67.298  1.00  0.00    -0.328 C  
HETATM   15  O   UNL     1     -12.042  12.026  66.321  1.00  0.00    -0.596 OA 
BRANCH  14  16
HETATM   16  C   UNL     1     -11.369  11.268  68.443  1.00  0.00    -0.348 A  
HETATM   17  C   UNL     1     -10.682  10.052  68.317  1.00  0.00    -0.280 A  
HETATM   18  C   UNL     1     -10.578   9.183  69.406  1.00  0.00    -0.232 A  
HETATM   19  C   UNL     1     -11.163   9.526  70.623  1.00  0.00    -0.302 A  
HETATM   20  C   UNL     1     -11.901  10.701  70.744  1.00  0.00    -0.459 A  
HETATM   21 BR   UNL     1     -10.938   8.400  72.124  1.00  0.00    -0.430 Br 
HETATM   22  C   UNL     1     -12.032  11.555  69.645  1.00  0.00    -0.407 A  
ENDBRANCH  14  16
ENDBRANCH   7  14
TORSDOF 3
ENDMDL
MODEL       25
REMARK 921   NORMALIZED FREE ENERGY PREDICTED BY IDOCK:   -6.26 KCAL/MOL
REMARK 922        TOTAL FREE ENERGY PREDICTED BY IDOCK:   -7.98 KCAL/MOL
REMARK 923 INTER-LIGAND FREE ENERGY PREDICTED BY IDOCK:   -7.37 KCAL/MOL
REMARK 924 INTRA-LIGAND FREE ENERGY PREDICTED BY IDOCK:   -0.61 KCAL/MOL
REMARK 927      BINDING AFFINITY PREDICTED BY RF-SCORE:    0.00 PKD
ROOT
HETATM    1  N   UNL     1     -10.106  13.840  66.674  1.00  0.00    -0.271 NA 
HETATM    2  C   UNL     1     -10.691  14.346  67.862  1.00  0.00    -0.244 A  
HETATM    3  H1  UNL     1     -10.402  12.926  66.334  1.00  0.00     0.000 HD 
HETATM    4  H2  UNL     1      -9.091  13.841  66.779  1.00  0.00     0.000 HD 
HETATM    5  C   UNL     1     -10.282  15.608  68.330  1.00  0.00    -0.222 A  
HETATM    6  C   UNL     1     -11.026  16.200  69.371  1.00  0.00    -0.333 A  
HETATM    7  C   UNL     1     -11.536  13.564  68.682  1.00  0.00    -0.365 A  
HETATM    8  C   UNL     1     -12.051  15.510  70.014  1.00  0.00    -0.391 A  
HETATM    9  C   UNL     1     -12.271  14.174  69.706  1.00  0.00    -0.397 A  
ENDROOT
BRANCH   5  10
HETATM   10  C   UNL     1      -9.143  16.423  67.734  1.00  0.00    -0.199 C  
HETATM   11  O   UNL     1     -10.447  17.257  65.811  1.00  0.00    -0.502 OA 
HETATM   12  O   UNL     1      -8.227  17.320  65.713  1.00  0.00    -0.533 OA 
HETATM   13  C   UNL     1      -9.241  17.014  66.338  1.00  0.00    -0.271 C  
ENDBRANCH   5  10
BRANCH   7  14
HETATM   14  C   UNL     1     -11.714  12.091  68.530  1.00  0.00    -0.332 C  
HETATM   15  O   UNL     1     -12.079  11.646  67.444  1.00  0.00    -0.605 OA 
BRANCH  14  16
HETATM   16  C   UNL     1     -11.469  11.146  69.659  1.00  0.00    -0.383 A  
HETATM   17  C   UNL     1     -12.505  10.933  70.580  1.00  0.00    -0.438 A  
HETATM   18  C   UNL     1     -12.378   9.959  71.574  1.00  0.00    -0.504 A  
HETATM   19  C   UNL     1     -11.214   9.197  71.652  1.00  0.00    -0.377 A  
HETATM   20  C   UNL     1     -10.153   9.442  70.783  1.00  0.00    -0.366 A  
HETATM   21 BR   UNL     1     -11.081   7.813  72.931  1.00  0.00    -0.404 Br 
HETATM   22  C   UNL     1     -10.268  10.438  69.809  1.00  0.00    -0.228 A  
ENDBRANCH  14  16
ENDBRANCH   7  14
TORSDOF 3
ENDMDL
MODEL       26
REMARK 921   NORMALIZED FREE ENERGY PREDICTED BY IDOCK:   -6.25 KCAL/MOL
REMARK 922        TOTAL FREE ENERGY PREDICTED BY IDOCK:   -7.96 KCAL/MOL
REMARK 923 INTER-LIGAND FREE ENERGY PREDICTED BY IDOCK:   -7.10 KCAL/MOL
REMARK 924 INTRA-LIGAND FREE ENERGY PREDICTED BY IDOCK:   -0.86 KCAL/MOL
REMARK 927      BINDING AFFINITY PREDICTED BY RF-SCORE:    0.00 PKD
ROOT
HETATM    1  N   UNL     1      -9.456  14.663  69.140  1.00  0.00    -0.380 NA 
HETATM    2  C   UNL     1     -10.200  14.109  68.068  1.00  0.00    -0.232 A  
HETATM    3  H1  UNL     1      -9.626  14.317  70.083  1.00  0.00     0.000 HD 
HETATM    4  H2  UNL     1      -9.573  15.676  69.134  1.00  0.00     0.000 HD 
HETATM    5  C   UNL     1      -9.965  14.588  66.766  1.00  0.00    -0.267 A  
HETATM    6  C   UNL     1     -10.534  13.880  65.688  1.00  0.00    -0.320 A  
HETATM    7  C   UNL     1     -11.283  13.224  68.276  1.00  0.00    -0.309 A  
HETATM    8  C   UNL     1     -11.413  12.820  65.899  1.00  0.00    -0.399 A  
HETATM    9  C   UNL     1     -11.828  12.526  67.192  1.00  0.00    -0.386 A  
ENDROOT
BRANCH   5  10
HETATM   10  C   UNL     1      -9.066  15.769  66.429  1.00  0.00    -0.357 C  
HETATM   11  O   UNL     1     -10.456  17.448  67.588  1.00  0.00    -0.347 OA 
HETATM   12  O   UNL     1      -8.993  18.132  66.059  1.00  0.00    -0.503 OA 
HETATM   13  C   UNL     1      -9.518  17.200  66.666  1.00  0.00    -0.264 C  
ENDBRANCH   5  10
BRANCH   7  14
HETATM   14  C   UNL     1     -11.903  12.965  69.607  1.00  0.00    -0.320 C  
HETATM   15  O   UNL     1     -12.471  13.888  70.186  1.00  0.00    -0.333 OA 
BRANCH  14  16
HETATM   16  C   UNL     1     -11.847  11.621  70.255  1.00  0.00    -0.414 A  
HETATM   17  C   UNL     1     -12.892  11.258  71.116  1.00  0.00    -0.452 A  
HETATM   18  C   UNL     1     -12.959   9.965  71.641  1.00  0.00    -0.536 A  
HETATM   19  C   UNL     1     -11.979   9.032  71.307  1.00  0.00    -0.312 A  
HETATM   20  C   UNL     1     -10.902   9.398  70.503  1.00  0.00    -0.336 A  
HETATM   21 BR   UNL     1     -12.122   7.255  71.934  1.00  0.00    -0.354 Br 
HETATM   22  C   UNL     1     -10.819  10.701  70.006  1.00  0.00    -0.280 A  
ENDBRANCH  14  16
ENDBRANCH   7  14
TORSDOF 3
ENDMDL
MODEL       27
REMARK 921   NORMALIZED FREE ENERGY PREDICTED BY IDOCK:   -6.24 KCAL/MOL
REMARK 922        TOTAL FREE ENERGY PREDICTED BY IDOCK:   -7.95 KCAL/MOL
REMARK 923 INTER-LIGAND FREE ENERGY PREDICTED BY IDOCK:   -6.99 KCAL/MOL
REMARK 924 INTRA-LIGAND FREE ENERGY PREDICTED BY IDOCK:   -0.96 KCAL/MOL
REMARK 927      BINDING AFFINITY PREDICTED BY RF-SCORE:    0.00 PKD
ROOT
HETATM    1  N   UNL     1      -9.227  14.099  66.014  1.00  0.00    -0.513 NA 
HETATM    2  C   UNL     1     -10.094  14.647  66.992  1.00  0.00    -0.249 A  
HETATM    3  H1  UNL     1      -8.348  14.577  65.817  1.00  0.00     0.000 HD 
HETATM    4  H2  UNL     1      -9.743  13.986  65.141  1.00  0.00     0.000 HD 
HETATM    5  C   UNL     1     -11.307  13.988  67.262  1.00  0.00    -0.350 A  
HETATM    6  C   UNL     1     -12.050  14.403  68.386  1.00  0.00    -0.278 A  
HETATM    7  C   UNL     1      -9.870  15.914  67.579  1.00  0.00    -0.230 A  
HETATM    8  C   UNL     1     -11.675  15.517  69.133  1.00  0.00    -0.380 A  
HETATM    9  C   UNL     1     -10.615  16.303  68.698  1.00  0.00    -0.297 A  
ENDROOT
BRANCH   5  10
HETATM   10  C   UNL     1     -11.836  12.795  66.477  1.00  0.00    -0.471 C  
HETATM   11  O   UNL     1     -11.856  13.953  64.296  1.00  0.00    -0.408 OA 
HETATM   12  O   UNL     1     -13.085  12.117  64.551  1.00  0.00    -0.720 OA 
HETATM   13  C   UNL     1     -12.319  12.943  65.044  1.00  0.00    -0.485 C  
ENDBRANCH   5  10
BRANCH   7  14
HETATM   14  C   UNL     1      -8.864  16.896  67.082  1.00  0.00    -0.206 C  
HETATM   15  O   UNL     1      -8.826  17.149  65.880  1.00  0.00    -0.520 OA 
BRANCH  14  16
HETATM   16  C   UNL     1      -7.899  17.570  68.000  1.00  0.00    -0.225 A  
HETATM   17  C   UNL     1      -8.059  18.943  68.234  1.00  0.00    -0.353 A  
HETATM   18  C   UNL     1      -7.271  19.594  69.188  1.00  0.00    -0.363 A  
HETATM   19  C   UNL     1      -6.321  18.874  69.908  1.00  0.00    -0.137 A  
HETATM   20  C   UNL     1      -6.110  17.523  69.641  1.00  0.00    -0.249 A  
HETATM   21 BR   UNL     1      -5.325  19.729  71.267  1.00  0.00    -0.374 Br 
HETATM   22  C   UNL     1      -6.875  16.880  68.665  1.00  0.00    -0.183 A  
ENDBRANCH  14  16
ENDBRANCH   7  14
TORSDOF 3
ENDMDL
MODEL       28
REMARK 921   NORMALIZED FREE ENERGY PREDICTED BY IDOCK:   -6.22 KCAL/MOL
REMARK 922        TOTAL FREE ENERGY PREDICTED BY IDOCK:   -7.93 KCAL/MOL
REMARK 923 INTER-LIGAND FREE ENERGY PREDICTED BY IDOCK:   -7.19 KCAL/MOL
REMARK 924 INTRA-LIGAND FREE ENERGY PREDICTED BY IDOCK:   -0.74 KCAL/MOL
REMARK 927      BINDING AFFINITY PREDICTED BY RF-SCORE:    0.00 PKD
ROOT
HETATM    1  N   UNL     1     -11.778  14.157  71.287  1.00  0.00    -0.447 NA 
HETATM    2  C   UNL     1     -11.821  13.396  70.092  1.00  0.00    -0.272 A  
HETATM    3  H1  UNL     1     -11.847  13.669  72.180  1.00  0.00     0.000 HD 
HETATM    4  H2  UNL     1     -12.501  14.875  71.248  1.00  0.00     0.000 HD 
HETATM    5  C   UNL     1     -11.727  14.070  68.861  1.00  0.00    -0.375 A  
HETATM    6  C   UNL     1     -11.539  13.298  67.697  1.00  0.00    -0.386 A  
HETATM    7  C   UNL     1     -12.125  12.015  70.084  1.00  0.00    -0.377 A  
HETATM    8  C   UNL     1     -11.579  11.906  67.734  1.00  0.00    -0.393 A  
HETATM    9  C   UNL     1     -11.925  11.266  68.918  1.00  0.00    -0.378 A  
ENDROOT
BRANCH   5  10
HETATM   10  C   UNL     1     -11.726  15.584  68.702  1.00  0.00    -0.363 C  
HETATM   11  O   UNL     1      -9.269  15.795  68.587  1.00  0.00    -0.189 OA 
HETATM   12  O   UNL     1     -10.481  17.591  69.087  1.00  0.00    -0.347 OA 
HETATM   13  C   UNL     1     -10.444  16.390  68.825  1.00  0.00    -0.300 C  
ENDBRANCH   5  10
BRANCH   7  14
HETATM   14  C   UNL     1     -12.656  11.272  71.263  1.00  0.00    -0.382 C  
HETATM   15  O   UNL     1     -13.352  11.872  72.078  1.00  0.00    -0.487 OA 
BRANCH  14  16
HETATM   16  C   UNL     1     -12.359   9.826  71.482  1.00  0.00    -0.495 A  
HETATM   17  C   UNL     1     -11.020   9.443  71.645  1.00  0.00    -0.382 A  
HETATM   18  C   UNL     1     -10.698   8.127  71.988  1.00  0.00    -0.343 A  
HETATM   19  C   UNL     1     -11.714   7.190  72.168  1.00  0.00    -0.284 A  
HETATM   20  C   UNL     1     -13.044   7.543  71.949  1.00  0.00    -0.291 A  
HETATM   21 BR   UNL     1     -11.287   5.438  72.730  1.00  0.00    -0.323 Br 
HETATM   22  C   UNL     1     -13.363   8.851  71.573  1.00  0.00    -0.374 A  
ENDBRANCH  14  16
ENDBRANCH   7  14
TORSDOF 3
ENDMDL
MODEL       29
REMARK 921   NORMALIZED FREE ENERGY PREDICTED BY IDOCK:   -6.21 KCAL/MOL
REMARK 922        TOTAL FREE ENERGY PREDICTED BY IDOCK:   -7.92 KCAL/MOL
REMARK 923 INTER-LIGAND FREE ENERGY PREDICTED BY IDOCK:   -7.46 KCAL/MOL
REMARK 924 INTRA-LIGAND FREE ENERGY PREDICTED BY IDOCK:   -0.45 KCAL/MOL
REMARK 927      BINDING AFFINITY PREDICTED BY RF-SCORE:    0.00 PKD
ROOT
HETATM    1  N   UNL     1     -13.119  12.719  71.482  1.00  0.00    -0.344 NA 
HETATM    2  C   UNL     1     -12.364  13.424  70.511  1.00  0.00    -0.329 A  
HETATM    3  H1  UNL     1     -13.035  11.704  71.524  1.00  0.00     0.000 HD 
HETATM    4  H2  UNL     1     -14.103  12.965  71.378  1.00  0.00     0.000 HD 
HETATM    5  C   UNL     1     -12.480  14.825  70.454  1.00  0.00    -0.405 A  
HETATM    6  C   UNL     1     -11.564  15.533  69.651  1.00  0.00    -0.359 A  
HETATM    7  C   UNL     1     -11.636  12.766  69.493  1.00  0.00    -0.342 A  
HETATM    8  C   UNL     1     -10.654  14.869  68.830  1.00  0.00    -0.247 A  
HETATM    9  C   UNL     1     -10.727  13.487  68.711  1.00  0.00    -0.261 A  
ENDROOT
BRANCH   5  10
HETATM   10  C   UNL     1     -13.473  15.643  71.268  1.00  0.00    -0.439 C  
HETATM   11  O   UNL     1     -11.966  15.969  73.196  1.00  0.00    -0.459 OA 
HETATM   12  O   UNL     1     -14.152  16.262  73.478  1.00  0.00    -0.312 OA 
HETATM   13  C   UNL     1     -13.222  15.961  72.732  1.00  0.00    -0.503 C  
ENDBRANCH   5  10
BRANCH   7  14
HETATM   14  C   UNL     1     -11.766  11.313  69.183  1.00  0.00    -0.341 C  
HETATM   15  O   UNL     1     -12.266  10.977  68.112  1.00  0.00    -0.578 OA 
BRANCH  14  16
HETATM   16  C   UNL     1     -11.314  10.259  70.139  1.00  0.00    -0.388 A  
HETATM   17  C   UNL     1      -9.946   9.956  70.191  1.00  0.00    -0.291 A  
HETATM   18  C   UNL     1      -9.453   9.079  71.160  1.00  0.00    -0.348 A  
HETATM   19  C   UNL     1     -10.327   8.500  72.079  1.00  0.00    -0.338 A  
HETATM   20  C   UNL     1     -11.696   8.744  71.998  1.00  0.00    -0.442 A  
HETATM   21 BR   UNL     1      -9.648   7.393  73.452  1.00  0.00    -0.326 Br 
HETATM   22  C   UNL     1     -12.193   9.596  71.008  1.00  0.00    -0.409 A  
ENDBRANCH  14  16
ENDBRANCH   7  14
TORSDOF 3
ENDMDL
MODEL       30
REMARK 921   NORMALIZED FREE ENERGY PREDICTED BY IDOCK:   -6.21 KCAL/MOL
REMARK 922        TOTAL FREE ENERGY PREDICTED BY IDOCK:   -7.91 KCAL/MOL
REMARK 923 INTER-LIGAND FREE ENERGY PREDICTED BY IDOCK:   -7.11 KCAL/MOL
REMARK 924 INTRA-LIGAND FREE ENERGY PREDICTED BY IDOCK:   -0.80 KCAL/MOL
REMARK 927      BINDING AFFINITY PREDICTED BY RF-SCORE:    0.00 PKD
ROOT
HETATM    1  N   UNL     1      -7.661  17.492  65.906  1.00  0.00    -0.534 NA 
HETATM    2  C   UNL     1      -8.622  18.227  66.645  1.00  0.00    -0.273 A  
HETATM    3  H1  UNL     1      -7.979  16.927  65.118  1.00  0.00     0.000 HD 
HETATM    4  H2  UNL     1      -7.135  16.898  66.546  1.00  0.00     0.000 HD 
HETATM    5  C   UNL     1      -8.184  19.005  67.732  1.00  0.00    -0.305 A  
HETATM    6  C   UNL     1      -9.100  19.905  68.313  1.00  0.00    -0.318 A  
HETATM    7  C   UNL     1     -10.013  18.073  66.443  1.00  0.00    -0.362 A  
HETATM    8  C   UNL     1     -10.437  19.934  67.922  1.00  0.00    -0.505 A  
HETATM    9  C   UNL     1     -10.904  18.982  67.025  1.00  0.00    -0.438 A  
ENDROOT
BRANCH   5  10
HETATM   10  C   UNL     1      -6.761  19.011  68.273  1.00  0.00    -0.263 C  
HETATM   11  O   UNL     1      -6.921  16.795  69.350  1.00  0.00    -0.234 OA 
HETATM   12  O   UNL     1      -5.319  18.194  70.000  1.00  0.00    -0.201 OA 
HETATM   13  C   UNL     1      -6.295  17.977  69.284  1.00  0.00    -0.249 C  
ENDBRANCH   5  10
BRANCH   7  14
HETATM   14  C   UNL     1     -10.621  16.984  65.626  1.00  0.00    -0.197 C  
HETATM   15  O   UNL     1     -11.042  17.249  64.503  1.00  0.00    -1.082 OA 
BRANCH  14  16
HETATM   16  C   UNL     1     -10.738  15.586  66.138  1.00  0.00    -0.315 A  
HETATM   17  C   UNL     1     -10.546  15.365  67.509  1.00  0.00    -0.283 A  
HETATM   18  C   UNL     1     -10.777  14.102  68.061  1.00  0.00    -0.248 A  
HETATM   19  C   UNL     1     -11.200  13.057  67.242  1.00  0.00    -0.289 A  
HETATM   20  C   UNL     1     -11.335  13.247  65.869  1.00  0.00    -0.333 A  
HETATM   21 BR   UNL     1     -11.611  11.376  68.003  1.00  0.00    -0.327 Br 
HETATM   22  C   UNL     1     -11.071  14.502  65.313  1.00  0.00    -0.355 A  
ENDBRANCH  14  16
ENDBRANCH   7  14
TORSDOF 3
ENDMDL
MODEL       31
REMARK 921   NORMALIZED FREE ENERGY PREDICTED BY IDOCK:   -6.19 KCAL/MOL
REMARK 922        TOTAL FREE ENERGY PREDICTED BY IDOCK:   -7.89 KCAL/MOL
REMARK 923 INTER-LIGAND FREE ENERGY PREDICTED BY IDOCK:   -7.04 KCAL/MOL
REMARK 924 INTRA-LIGAND FREE ENERGY PREDICTED BY IDOCK:   -0.86 KCAL/MOL
REMARK 927      BINDING AFFINITY PREDICTED BY RF-SCORE:    0.00 PKD
ROOT
HETATM    1  N   UNL     1     -11.934  11.473  67.733  1.00  0.00    -0.637 NA 
HETATM    2  C   UNL     1     -11.258  11.399  66.489  1.00  0.00    -0.209 A  
HETATM    3  H1  UNL     1     -12.641  12.196  67.863  1.00  0.00     0.000 HD 
HETATM    4  H2  UNL     1     -11.245  11.547  68.480  1.00  0.00     0.000 HD 
HETATM    5  C   UNL     1     -10.282  10.402  66.310  1.00  0.00    -0.286 A  
HETATM    6  C   UNL     1      -9.784  10.189  65.009  1.00  0.00    -0.384 A  
HETATM    7  C   UNL     1     -11.400  12.390  65.490  1.00  0.00    -0.387 A  
HETATM    8  C   UNL     1     -10.136  11.024  63.951  1.00  0.00    -0.414 A  
HETATM    9  C   UNL     1     -10.902  12.156  64.203  1.00  0.00    -0.410 A  
ENDROOT
BRANCH   5  10
HETATM   10  C   UNL     1      -9.788   9.470  67.409  1.00  0.00    -0.218 C  
HETATM   11  O   UNL     1      -8.798  11.260  68.792  1.00  0.00    -0.160 OA 
HETATM   12  O   UNL     1      -8.143   9.160  69.119  1.00  0.00    -0.100 OA 
HETATM   13  C   UNL     1      -8.836   9.956  68.488  1.00  0.00    -0.122 C  
ENDBRANCH   5  10
BRANCH   7  14
HETATM   14  C   UNL     1     -12.066  13.706  65.711  1.00  0.00    -0.428 C  
HETATM   15  O   UNL     1     -13.216  13.863  65.308  1.00  0.00    -0.774 OA 
BRANCH  14  16
HETATM   16  C   UNL     1     -11.373  14.836  66.398  1.00  0.00    -0.339 A  
HETATM   17  C   UNL     1     -10.588  15.700  65.622  1.00  0.00    -0.393 A  
HETATM   18  C   UNL     1     -10.029  16.849  66.189  1.00  0.00    -0.332 A  
HETATM   19  C   UNL     1     -10.253  17.135  67.535  1.00  0.00    -0.323 A  
HETATM   20  C   UNL     1     -10.979  16.252  68.331  1.00  0.00    -0.351 A  
HETATM   21 BR   UNL     1      -9.584  18.738  68.278  1.00  0.00    -0.422 Br 
HETATM   22  C   UNL     1     -11.510  15.087  67.771  1.00  0.00    -0.347 A  
ENDBRANCH  14  16
ENDBRANCH   7  14
TORSDOF 3
ENDMDL
MODEL       32
REMARK 921   NORMALIZED FREE ENERGY PREDICTED BY IDOCK:   -6.13 KCAL/MOL
REMARK 922        TOTAL FREE ENERGY PREDICTED BY IDOCK:   -7.82 KCAL/MOL
REMARK 923 INTER-LIGAND FREE ENERGY PREDICTED BY IDOCK:   -7.55 KCAL/MOL
REMARK 924 INTRA-LIGAND FREE ENERGY PREDICTED BY IDOCK:   -0.27 KCAL/MOL
REMARK 927      BINDING AFFINITY PREDICTED BY RF-SCORE:    0.00 PKD
ROOT
HETATM    1  N   UNL     1     -11.895  15.757  67.932  1.00  0.00    -0.209 NA 
HETATM    2  C   UNL     1     -11.288  14.807  67.073  1.00  0.00    -0.353 A  
HETATM    3  H1  UNL     1     -12.126  16.677  67.558  1.00  0.00     0.000 HD 
HETATM    4  H2  UNL     1     -11.311  15.874  68.760  1.00  0.00     0.000 HD 
HETATM    5  C   UNL     1     -10.969  13.538  67.589  1.00  0.00    -0.280 A  
HETATM    6  C   UNL     1     -10.582  12.532  66.681  1.00  0.00    -0.259 A  
HETATM    7  C   UNL     1     -10.836  15.140  65.775  1.00  0.00    -0.358 A  
HETATM    8  C   UNL     1     -10.388  12.810  65.329  1.00  0.00    -0.313 A  
HETATM    9  C   UNL     1     -10.463  14.124  64.887  1.00  0.00    -0.461 A  
ENDROOT
BRANCH   5  10
HETATM   10  C   UNL     1     -11.095  13.145  69.054  1.00  0.00    -0.282 C  
HETATM   11  O   UNL     1     -12.299  11.034  68.617  1.00  0.00    -0.539 OA 
HETATM   12  O   UNL     1     -12.403  11.930  70.649  1.00  0.00    -0.356 OA 
HETATM   13  C   UNL     1     -11.996  12.002  69.491  1.00  0.00    -0.283 C  
ENDBRANCH   5  10
BRANCH   7  14
HETATM   14  C   UNL     1     -10.728  16.537  65.263  1.00  0.00    -0.254 C  
HETATM   15  O   UNL     1     -11.324  16.838  64.232  1.00  0.00    -1.170 OA 
BRANCH  14  16
HETATM   16  C   UNL     1      -9.912  17.572  65.963  1.00  0.00    -0.231 A  
HETATM   17  C   UNL     1      -8.643  17.208  66.433  1.00  0.00    -0.300 A  
HETATM   18  C   UNL     1      -7.785  18.171  66.972  1.00  0.00    -0.237 A  
HETATM   19  C   UNL     1      -8.196  19.501  67.045  1.00  0.00    -0.281 A  
HETATM   20  C   UNL     1      -9.478  19.865  66.639  1.00  0.00    -0.513 A  
HETATM   21 BR   UNL     1      -7.002  20.820  67.680  1.00  0.00    -0.354 Br 
HETATM   22  C   UNL     1     -10.347  18.895  66.130  1.00  0.00    -0.517 A  
ENDBRANCH  14  16
ENDBRANCH   7  14
TORSDOF 3
ENDMDL
MODEL       33
REMARK 921   NORMALIZED FREE ENERGY PREDICTED BY IDOCK:   -6.05 KCAL/MOL
REMARK 922        TOTAL FREE ENERGY PREDICTED BY IDOCK:   -7.73 KCAL/MOL
REMARK 923 INTER-LIGAND FREE ENERGY PREDICTED BY IDOCK:   -6.84 KCAL/MOL
REMARK 924 INTRA-LIGAND FREE ENERGY PREDICTED BY IDOCK:   -0.89 KCAL/MOL
REMARK 927      BINDING AFFINITY PREDICTED BY RF-SCORE:    0.00 PKD
ROOT
HETATM    1  N   UNL     1     -12.311  10.709  68.628  1.00  0.00    -0.765 NA 
HETATM    2  C   UNL     1     -10.968  11.164  68.627  1.00  0.00    -0.220 A  
HETATM    3  H1  UNL     1     -13.054  11.380  68.438  1.00  0.00     0.000 HD 
HETATM    4  H2  UNL     1     -12.503  10.247  69.517  1.00  0.00     0.000 HD 
HETATM    5  C   UNL     1      -9.942  10.238  68.891  1.00  0.00    -0.209 A  
HETATM    6  C   UNL     1      -8.611  10.642  68.663  1.00  0.00    -0.144 A  
HETATM    7  C   UNL     1     -10.633  12.535  68.544  1.00  0.00    -0.262 A  
HETATM    8  C   UNL     1      -8.300  11.956  68.319  1.00  0.00    -0.159 A  
HETATM    9  C   UNL     1      -9.306  12.914  68.311  1.00  0.00    -0.194 A  
ENDROOT
BRANCH   5  10
HETATM   10  C   UNL     1     -10.171   8.796  69.321  1.00  0.00    -0.215 C  
HETATM   11  O   UNL     1     -11.290   9.370  71.446  1.00  0.00    -0.327 OA 
HETATM   12  O   UNL     1     -10.439   7.331  71.195  1.00  0.00    -0.210 OA 
HETATM   13  C   UNL     1     -10.626   8.454  70.730  1.00  0.00    -0.207 C  
ENDBRANCH   5  10
BRANCH   7  14
HETATM   14  C   UNL     1     -11.621  13.644  68.686  1.00  0.00    -0.329 C  
HETATM   15  O   UNL     1     -12.192  14.061  67.682  1.00  0.00    -0.352 OA 
BRANCH  14  16
HETATM   16  C   UNL     1     -11.927  14.263  70.009  1.00  0.00    -0.396 A  
HETATM   17  C   UNL     1     -12.636  13.501  70.948  1.00  0.00    -0.414 A  
HETATM   18  C   UNL     1     -12.830  13.980  72.247  1.00  0.00    -0.403 A  
HETATM   19  C   UNL     1     -12.316  15.224  72.609  1.00  0.00    -0.386 A  
HETATM   20  C   UNL     1     -11.664  16.018  71.668  1.00  0.00    -0.583 A  
HETATM   21 BR   UNL     1     -12.490  15.828  74.390  1.00  0.00    -0.703 Br 
HETATM   22  C   UNL     1     -11.499  15.552  70.361  1.00  0.00    -0.364 A  
ENDBRANCH  14  16
ENDBRANCH   7  14
TORSDOF 3
ENDMDL
MODEL       34
REMARK 921   NORMALIZED FREE ENERGY PREDICTED BY IDOCK:   -6.04 KCAL/MOL
REMARK 922        TOTAL FREE ENERGY PREDICTED BY IDOCK:   -7.71 KCAL/MOL
REMARK 923 INTER-LIGAND FREE ENERGY PREDICTED BY IDOCK:   -7.37 KCAL/MOL
REMARK 924 INTRA-LIGAND FREE ENERGY PREDICTED BY IDOCK:   -0.34 KCAL/MOL
REMARK 927      BINDING AFFINITY PREDICTED BY RF-SCORE:    0.00 PKD
ROOT
HETATM    1  N   UNL     1     -12.220  10.798  68.211  1.00  0.00    -0.708 NA 
HETATM    2  C   UNL     1     -11.834  12.162  68.232  1.00  0.00    -0.301 A  
HETATM    3  H1  UNL     1     -12.160  10.287  67.331  1.00  0.00     0.000 HD 
HETATM    4  H2  UNL     1     -13.169  10.717  68.575  1.00  0.00     0.000 HD 
HETATM    5  C   UNL     1     -11.918  12.867  69.446  1.00  0.00    -0.327 A  
HETATM    6  C   UNL     1     -11.322  14.143  69.514  1.00  0.00    -0.308 A  
HETATM    7  C   UNL     1     -11.536  12.884  67.053  1.00  0.00    -0.390 A  
HETATM    8  C   UNL     1     -10.784  14.753  68.383  1.00  0.00    -0.243 A  
HETATM    9  C   UNL     1     -10.939  14.146  67.143  1.00  0.00    -0.304 A  
ENDROOT
BRANCH   5  10
HETATM   10  C   UNL     1     -12.531  12.315  70.726  1.00  0.00    -0.356 C  
HETATM   11  O   UNL     1     -11.122  10.289  70.793  1.00  0.00    -0.326 OA 
HETATM   12  O   UNL     1     -13.010  10.325  71.967  1.00  0.00    -0.432 OA 
HETATM   13  C   UNL     1     -12.247  10.897  71.190  1.00  0.00    -0.336 C  
ENDBRANCH   5  10
BRANCH   7  14
HETATM   14  C   UNL     1     -11.814  12.381  65.677  1.00  0.00    -0.409 C  
HETATM   15  O   UNL     1     -12.912  12.607  65.174  1.00  0.00    -0.754 OA 
BRANCH  14  16
HETATM   16  C   UNL     1     -10.801  11.608  64.899  1.00  0.00    -0.359 A  
HETATM   17  C   UNL     1     -10.465  12.061  63.616  1.00  0.00    -0.494 A  
HETATM   18  C   UNL     1      -9.427  11.456  62.901  1.00  0.00    -0.372 A  
HETATM   19  C   UNL     1      -8.724  10.396  63.469  1.00  0.00    -0.199 A  
HETATM   20  C   UNL     1      -9.088   9.896  64.717  1.00  0.00    -0.283 A  
HETATM   21 BR   UNL     1      -7.256   9.643  62.547  1.00  0.00    -0.113 Br 
HETATM   22  C   UNL     1     -10.148  10.480  65.417  1.00  0.00    -0.358 A  
ENDBRANCH  14  16
ENDBRANCH   7  14
TORSDOF 3
ENDMDL
MODEL       35
REMARK 921   NORMALIZED FREE ENERGY PREDICTED BY IDOCK:   -6.02 KCAL/MOL
REMARK 922        TOTAL FREE ENERGY PREDICTED BY IDOCK:   -7.69 KCAL/MOL
REMARK 923 INTER-LIGAND FREE ENERGY PREDICTED BY IDOCK:   -7.24 KCAL/MOL
REMARK 924 INTRA-LIGAND FREE ENERGY PREDICTED BY IDOCK:   -0.44 KCAL/MOL
REMARK 927      BINDING AFFINITY PREDICTED BY RF-SCORE:    0.00 PKD
ROOT
HETATM    1  N   UNL     1     -12.535  14.554  67.526  1.00  0.00    -0.505 NA 
HETATM    2  C   UNL     1     -11.352  13.774  67.500  1.00  0.00    -0.309 A  
HETATM    3  H1  UNL     1     -13.028  14.664  68.412  1.00  0.00     0.000 HD 
HETATM    4  H2  UNL     1     -13.185  14.193  66.829  1.00  0.00     0.000 HD 
HETATM    5  C   UNL     1     -10.672  13.622  66.278  1.00  0.00    -0.285 A  
HETATM    6  C   UNL     1      -9.386  13.045  66.304  1.00  0.00    -0.149 A  
HETATM    7  C   UNL     1     -10.927  13.005  68.608  1.00  0.00    -0.297 A  
HETATM    8  C   UNL     1      -8.852  12.513  67.476  1.00  0.00    -0.184 A  
HETATM    9  C   UNL     1      -9.644  12.446  68.615  1.00  0.00    -0.036 A  
ENDROOT
BRANCH   5  10
HETATM   10  C   UNL     1     -11.187  14.119  64.935  1.00  0.00    -0.373 C  
HETATM   11  O   UNL     1     -13.274  12.801  64.994  1.00  0.00    -0.768 OA 
HETATM   12  O   UNL     1     -12.552  13.585  63.043  1.00  0.00    -0.716 OA 
HETATM   13  C   UNL     1     -12.377  13.464  64.254  1.00  0.00    -0.335 C  
ENDBRANCH   5  10
BRANCH   7  14
HETATM   14  C   UNL     1     -11.768  12.742  69.811  1.00  0.00    -0.282 C  
HETATM   15  O   UNL     1     -12.352  13.682  70.344  1.00  0.00    -0.339 OA 
BRANCH  14  16
HETATM   16  C   UNL     1     -11.913  11.372  70.388  1.00  0.00    -0.465 A  
HETATM   17  C   UNL     1     -12.842  11.185  71.421  1.00  0.00    -0.544 A  
HETATM   18  C   UNL     1     -13.115   9.901  71.902  1.00  0.00    -0.559 A  
HETATM   19  C   UNL     1     -12.457   8.803  71.352  1.00  0.00    -0.303 A  
HETATM   20  C   UNL     1     -11.487   8.982  70.369  1.00  0.00    -0.202 A  
HETATM   21 BR   UNL     1     -12.898   7.059  71.931  1.00  0.00    -0.233 Br 
HETATM   22  C   UNL     1     -11.191  10.269  69.912  1.00  0.00    -0.360 A  
ENDBRANCH  14  16
ENDBRANCH   7  14
TORSDOF 3
ENDMDL
MODEL       36
REMARK 921   NORMALIZED FREE ENERGY PREDICTED BY IDOCK:   -6.01 KCAL/MOL
REMARK 922        TOTAL FREE ENERGY PREDICTED BY IDOCK:   -7.68 KCAL/MOL
REMARK 923 INTER-LIGAND FREE ENERGY PREDICTED BY IDOCK:   -7.29 KCAL/MOL
REMARK 924 INTRA-LIGAND FREE ENERGY PREDICTED BY IDOCK:   -0.39 KCAL/MOL
REMARK 927      BINDING AFFINITY PREDICTED BY RF-SCORE:    0.00 PKD
ROOT
HETATM    1  N   UNL     1     -11.712  11.793  66.502  1.00  0.00    -0.528 NA 
HETATM    2  C   UNL     1     -11.717  12.399  67.783  1.00  0.00    -0.350 A  
HETATM    3  H1  UNL     1     -11.724  10.775  66.442  1.00  0.00     0.000 HD 
HETATM    4  H2  UNL     1     -10.914  12.145  65.973  1.00  0.00     0.000 HD 
HETATM    5  C   UNL     1     -11.699  13.803  67.865  1.00  0.00    -0.395 A  
HETATM    6  C   UNL     1     -11.935  14.396  69.122  1.00  0.00    -0.357 A  
HETATM    7  C   UNL     1     -11.564  11.653  68.975  1.00  0.00    -0.379 A  
HETATM    8  C   UNL     1     -12.048  13.627  70.278  1.00  0.00    -0.427 A  
HETATM    9  C   UNL     1     -11.809  12.260  70.212  1.00  0.00    -0.324 A  
ENDROOT
BRANCH   5  10
HETATM   10  C   UNL     1     -11.531  14.736  66.673  1.00  0.00    -0.339 C  
HETATM   11  O   UNL     1     -13.534  13.932  65.475  1.00  0.00    -0.657 OA 
HETATM   12  O   UNL     1     -11.968  15.027  64.338  1.00  0.00    -0.442 OA 
HETATM   13  C   UNL     1     -12.352  14.557  65.408  1.00  0.00    -0.284 C  
ENDBRANCH   5  10
BRANCH   7  14
HETATM   14  C   UNL     1     -11.153  10.219  69.013  1.00  0.00    -0.230 C  
HETATM   15  O   UNL     1     -11.066   9.599  67.956  1.00  0.00    -0.188 OA 
BRANCH  14  16
HETATM   16  C   UNL     1     -10.854   9.519  70.297  1.00  0.00    -0.319 A  
HETATM   17  C   UNL     1     -11.914   8.905  70.978  1.00  0.00    -0.307 A  
HETATM   18  C   UNL     1     -11.669   8.122  72.109  1.00  0.00    -0.418 A  
HETATM   19  C   UNL     1     -10.363   7.952  72.563  1.00  0.00    -0.285 A  
HETATM   20  C   UNL     1      -9.307   8.607  71.932  1.00  0.00    -0.357 A  
HETATM   21 BR   UNL     1     -10.019   6.813  74.031  1.00  0.00    -0.382 Br 
HETATM   22  C   UNL     1      -9.557   9.416  70.820  1.00  0.00    -0.322 A  
ENDBRANCH  14  16
ENDBRANCH   7  14
TORSDOF 3
ENDMDL
MODEL       37
REMARK 921   NORMALIZED FREE ENERGY PREDICTED BY IDOCK:   -6.01 KCAL/MOL
REMARK 922        TOTAL FREE ENERGY PREDICTED BY IDOCK:   -7.68 KCAL/MOL
REMARK 923 INTER-LIGAND FREE ENERGY PREDICTED BY IDOCK:   -6.90 KCAL/MOL
REMARK 924 INTRA-LIGAND FREE ENERGY PREDICTED BY IDOCK:   -0.78 KCAL/MOL
REMARK 927      BINDING AFFINITY PREDICTED BY RF-SCORE:    0.00 PKD
ROOT
HETATM    1  N   UNL     1      -8.947  13.492  66.307  1.00  0.00    -0.460 NA 
HETATM    2  C   UNL     1     -10.169  13.470  65.587  1.00  0.00    -0.296 A  
HETATM    3  H1  UNL     1      -8.476  12.608  66.497  1.00  0.00     0.000 HD 
HETATM    4  H2  UNL     1      -9.091  13.985  67.187  1.00  0.00     0.000 HD 
HETATM    5  C   UNL     1     -10.818  14.690  65.326  1.00  0.00    -0.387 A  
HETATM    6  C   UNL     1     -11.899  14.684  64.422  1.00  0.00    -0.405 A  
HETATM    7  C   UNL     1     -10.843  12.267  65.275  1.00  0.00    -0.332 A  
HETATM    8  C   UNL     1     -12.404  13.494  63.902  1.00  0.00    -0.397 A  
HETATM    9  C   UNL     1     -11.910  12.283  64.370  1.00  0.00    -0.464 A  
ENDROOT
BRANCH   5  10
HETATM   10  C   UNL     1     -10.382  16.038  65.883  1.00  0.00    -0.386 C  
HETATM   11  O   UNL     1     -10.807  15.453  68.244  1.00  0.00    -0.251 OA 
HETATM   12  O   UNL     1     -10.661  17.599  67.676  1.00  0.00    -0.369 OA 
HETATM   13  C   UNL     1     -10.647  16.419  67.330  1.00  0.00    -0.306 C  
ENDBRANCH   5  10
BRANCH   7  14
HETATM   14  C   UNL     1     -10.487  10.939  65.853  1.00  0.00    -0.221 C  
HETATM   15  O   UNL     1     -10.002  10.083  65.118  1.00  0.00    -0.323 OA 
BRANCH  14  16
HETATM   16  C   UNL     1     -10.711  10.621  67.295  1.00  0.00    -0.338 A  
HETATM   17  C   UNL     1     -11.497  11.500  68.052  1.00  0.00    -0.381 A  
HETATM   18  C   UNL     1     -11.850  11.180  69.366  1.00  0.00    -0.415 A  
HETATM   19  C   UNL     1     -11.416   9.981  69.926  1.00  0.00    -0.215 A  
HETATM   20  C   UNL     1     -10.583   9.127  69.206  1.00  0.00    -0.229 A  
HETATM   21 BR   UNL     1     -11.975   9.500  71.666  1.00  0.00    -0.468 Br 
HETATM   22  C   UNL     1     -10.203   9.464  67.903  1.00  0.00    -0.259 A  
ENDBRANCH  14  16
ENDBRANCH   7  14
TORSDOF 3
ENDMDL
MODEL       38
REMARK 921   NORMALIZED FREE ENERGY PREDICTED BY IDOCK:   -6.00 KCAL/MOL
REMARK 922        TOTAL FREE ENERGY PREDICTED BY IDOCK:   -7.67 KCAL/MOL
REMARK 923 INTER-LIGAND FREE ENERGY PREDICTED BY IDOCK:   -6.89 KCAL/MOL
REMARK 924 INTRA-LIGAND FREE ENERGY PREDICTED BY IDOCK:   -0.79 KCAL/MOL
REMARK 927      BINDING AFFINITY PREDICTED BY RF-SCORE:    0.00 PKD
ROOT
HETATM    1  N   UNL     1      -9.860  10.173  70.116  1.00  0.00    -0.408 NA 
HETATM    2  C   UNL     1     -11.045   9.951  70.862  1.00  0.00    -0.348 A  
HETATM    3  H1  UNL     1      -9.101   9.496  70.192  1.00  0.00     0.000 HD 
HETATM    4  H2  UNL     1      -9.499  11.100  70.338  1.00  0.00     0.000 HD 
HETATM    5  C   UNL     1     -12.092  10.885  70.757  1.00  0.00    -0.469 A  
HETATM    6  C   UNL     1     -13.341  10.544  71.313  1.00  0.00    -0.290 A  
HETATM    7  C   UNL     1     -11.149   8.927  71.832  1.00  0.00    -0.442 A  
HETATM    8  C   UNL     1     -13.509   9.381  72.063  1.00  0.00    -0.522 A  
HETATM    9  C   UNL     1     -12.400   8.601  72.367  1.00  0.00    -0.426 A  
ENDROOT
BRANCH   5  10
HETATM   10  C   UNL     1     -11.999  12.206  70.007  1.00  0.00    -0.391 C  
HETATM   11  O   UNL     1     -12.105  11.195  67.757  1.00  0.00    -0.606 OA 
HETATM   12  O   UNL     1     -11.303  13.258  67.973  1.00  0.00    -0.259 OA 
HETATM   13  C   UNL     1     -11.759  12.249  68.508  1.00  0.00    -0.331 C  
ENDBRANCH   5  10
BRANCH   7  14
HETATM   14  C   UNL     1      -9.988   8.141  72.341  1.00  0.00    -0.275 C  
HETATM   15  O   UNL     1      -8.921   8.718  72.536  1.00  0.00    -0.386 OA 
BRANCH  14  16
HETATM   16  C   UNL     1     -10.086   6.676  72.612  1.00  0.00    -0.191 A  
HETATM   17  C   UNL     1     -10.186   6.256  73.945  1.00  0.00    -0.307 A  
HETATM   18  C   UNL     1     -10.417   4.910  74.247  1.00  0.00    -0.336 A  
HETATM   19  C   UNL     1     -10.546   3.983  73.215  1.00  0.00    -0.189 A  
HETATM   20  C   UNL     1     -10.386   4.377  71.888  1.00  0.00    -0.167 A  
HETATM   21 BR   UNL     1     -10.957   2.183  73.616  1.00  0.00    -0.303 Br 
HETATM   22  C   UNL     1     -10.123   5.717  71.589  1.00  0.00    -0.241 A  
ENDBRANCH  14  16
ENDBRANCH   7  14
TORSDOF 3
ENDMDL
MODEL       39
REMARK 921   NORMALIZED FREE ENERGY PREDICTED BY IDOCK:   -5.98 KCAL/MOL
REMARK 922        TOTAL FREE ENERGY PREDICTED BY IDOCK:   -7.64 KCAL/MOL
REMARK 923 INTER-LIGAND FREE ENERGY PREDICTED BY IDOCK:   -6.96 KCAL/MOL
REMARK 924 INTRA-LIGAND FREE ENERGY PREDICTED BY IDOCK:   -0.69 KCAL/MOL
REMARK 927      BINDING AFFINITY PREDICTED BY RF-SCORE:    0.00 PKD
ROOT
HETATM    1  N   UNL     1      -9.666   9.820  69.584  1.00  0.00    -0.209 NA 
HETATM    2  C   UNL     1     -10.884   9.955  70.296  1.00  0.00    -0.310 A  
HETATM    3  H1  UNL     1      -9.397  10.557  68.932  1.00  0.00     0.000 HD 
HETATM    4  H2  UNL     1      -9.668   8.928  69.091  1.00  0.00     0.000 HD 
HETATM    5  C   UNL     1     -11.254   8.939  71.195  1.00  0.00    -0.352 A  
HETATM    6  C   UNL     1     -12.338   9.185  72.063  1.00  0.00    -0.448 A  
HETATM    7  C   UNL     1     -11.818  10.978  70.013  1.00  0.00    -0.435 A  
HETATM    8  C   UNL     1     -13.111  10.339  71.949  1.00  0.00    -0.568 A  
HETATM    9  C   UNL     1     -12.883  11.209  70.891  1.00  0.00    -0.374 A  
ENDROOT
BRANCH   5  10
HETATM   10  C   UNL     1     -10.512   7.620  71.362  1.00  0.00    -0.230 C  
HETATM   11  O   UNL     1     -11.607   6.502  69.453  1.00  0.00    -0.339 OA 
HETATM   12  O   UNL     1     -10.615   5.256  71.005  1.00  0.00    -0.228 OA 
HETATM   13  C   UNL     1     -10.933   6.374  70.603  1.00  0.00    -0.298 C  
ENDBRANCH   5  10
BRANCH   7  14
HETATM   14  C   UNL     1     -11.748  11.861  68.813  1.00  0.00    -0.321 C  
HETATM   15  O   UNL     1     -12.038  11.394  67.715  1.00  0.00    -0.637 OA 
BRANCH  14  16
HETATM   16  C   UNL     1     -11.328  13.291  68.910  1.00  0.00    -0.333 A  
HETATM   17  C   UNL     1     -10.080  13.651  68.381  1.00  0.00    -0.241 A  
HETATM   18  C   UNL     1      -9.698  14.994  68.322  1.00  0.00    -0.215 A  
HETATM   19  C   UNL     1     -10.563  15.980  68.793  1.00  0.00    -0.262 A  
HETATM   20  C   UNL     1     -11.778  15.631  69.378  1.00  0.00    -0.395 A  
HETATM   21 BR   UNL     1     -10.091  17.802  68.623  1.00  0.00    -0.385 Br 
HETATM   22  C   UNL     1     -12.145  14.285  69.466  1.00  0.00    -0.376 A  
ENDBRANCH  14  16
ENDBRANCH   7  14
TORSDOF 3
ENDMDL
MODEL       40
REMARK 921   NORMALIZED FREE ENERGY PREDICTED BY IDOCK:   -5.97 KCAL/MOL
REMARK 922        TOTAL FREE ENERGY PREDICTED BY IDOCK:   -7.63 KCAL/MOL
REMARK 923 INTER-LIGAND FREE ENERGY PREDICTED BY IDOCK:   -6.97 KCAL/MOL
REMARK 924 INTRA-LIGAND FREE ENERGY PREDICTED BY IDOCK:   -0.66 KCAL/MOL
REMARK 927      BINDING AFFINITY PREDICTED BY RF-SCORE:    0.00 PKD
ROOT
HETATM    1  N   UNL     1      -9.999  12.977  63.832  1.00  0.00    -0.755 NA 
HETATM    2  C   UNL     1     -10.363  12.157  64.930  1.00  0.00    -0.289 A  
HETATM    3  H1  UNL     1     -10.211  13.973  63.875  1.00  0.00     0.000 HD 
HETATM    4  H2  UNL     1     -10.405  12.590  62.981  1.00  0.00     0.000 HD 
HETATM    5  C   UNL     1     -10.072  10.782  64.870  1.00  0.00    -0.387 A  
HETATM    6  C   UNL     1     -10.225  10.021  66.046  1.00  0.00    -0.277 A  
HETATM    7  C   UNL     1     -11.158  12.631  65.999  1.00  0.00    -0.321 A  
HETATM    8  C   UNL     1     -10.777  10.572  67.201  1.00  0.00    -0.323 A  
HETATM    9  C   UNL     1     -11.291  11.862  67.161  1.00  0.00    -0.393 A  
ENDROOT
BRANCH   5  10
HETATM   10  C   UNL     1      -9.515  10.070  63.645  1.00  0.00    -0.253 C  
HETATM   11  O   UNL     1      -7.220   9.861  64.530  1.00  0.00    -0.127 OA 
HETATM   12  O   UNL     1      -7.551   9.665  62.339  1.00  0.00    -0.107 OA 
HETATM   13  C   UNL     1      -8.021   9.871  63.457  1.00  0.00    -0.155 C  
ENDBRANCH   5  10
BRANCH   7  14
HETATM   14  C   UNL     1     -11.883  13.934  65.984  1.00  0.00    -0.393 C  
HETATM   15  O   UNL     1     -13.002  13.984  65.480  1.00  0.00    -0.681 OA 
BRANCH  14  16
HETATM   16  C   UNL     1     -11.284  15.177  66.555  1.00  0.00    -0.283 A  
HETATM   17  C   UNL     1     -10.755  16.124  65.668  1.00  0.00    -0.321 A  
HETATM   18  C   UNL     1     -10.308  17.362  66.139  1.00  0.00    -0.329 A  
HETATM   19  C   UNL     1     -10.387  17.654  67.499  1.00  0.00    -0.365 A  
HETATM   20  C   UNL     1     -10.853  16.698  68.399  1.00  0.00    -0.361 A  
HETATM   21 BR   UNL     1      -9.877  19.362  68.124  1.00  0.00    -0.520 Br 
HETATM   22  C   UNL     1     -11.269  15.448  67.931  1.00  0.00    -0.329 A  
ENDBRANCH  14  16
ENDBRANCH   7  14
TORSDOF 3
ENDMDL
MODEL       41
REMARK 921   NORMALIZED FREE ENERGY PREDICTED BY IDOCK:   -5.92 KCAL/MOL
REMARK 922        TOTAL FREE ENERGY PREDICTED BY IDOCK:   -7.57 KCAL/MOL
REMARK 923 INTER-LIGAND FREE ENERGY PREDICTED BY IDOCK:   -6.74 KCAL/MOL
REMARK 924 INTRA-LIGAND FREE ENERGY PREDICTED BY IDOCK:   -0.83 KCAL/MOL
REMARK 927      BINDING AFFINITY PREDICTED BY RF-SCORE:    0.00 PKD
ROOT
HETATM    1  N   UNL     1      -9.167  14.253  68.775  1.00  0.00    -0.330 NA 
HETATM    2  C   UNL     1     -10.216  13.817  67.926  1.00  0.00    -0.245 A  
HETATM    3  H1  UNL     1      -8.569  13.553  69.212  1.00  0.00     0.000 HD 
HETATM    4  H2  UNL     1      -9.558  14.854  69.501  1.00  0.00     0.000 HD 
HETATM    5  C   UNL     1     -11.041  14.783  67.324  1.00  0.00    -0.334 A  
HETATM    6  C   UNL     1     -11.925  14.360  66.311  1.00  0.00    -0.391 A  
HETATM    7  C   UNL     1     -10.571  12.454  67.800  1.00  0.00    -0.236 A  
HETATM    8  C   UNL     1     -12.083  13.010  66.003  1.00  0.00    -0.493 A  
HETATM    9  C   UNL     1     -11.446  12.055  66.783  1.00  0.00    -0.410 A  
ENDROOT
BRANCH   5  10
HETATM   10  C   UNL     1     -10.987  16.275  67.624  1.00  0.00    -0.245 C  
HETATM   11  O   UNL     1      -9.859  16.888  65.516  1.00  0.00    -0.559 OA 
HETATM   12  O   UNL     1      -9.794  18.311  67.223  1.00  0.00    -0.301 OA 
HETATM   13  C   UNL     1     -10.153  17.222  66.778  1.00  0.00    -0.302 C  
ENDBRANCH   5  10
BRANCH   7  14
HETATM   14  C   UNL     1     -10.063  11.375  68.695  1.00  0.00    -0.210 C  
HETATM   15  O   UNL     1      -8.909  10.978  68.550  1.00  0.00    -0.147 OA 
BRANCH  14  16
HETATM   16  C   UNL     1     -10.918  10.760  69.754  1.00  0.00    -0.314 A  
HETATM   17  C   UNL     1     -11.981  11.516  70.267  1.00  0.00    -0.455 A  
HETATM   18  C   UNL     1     -12.892  10.941  71.158  1.00  0.00    -0.508 A  
HETATM   19  C   UNL     1     -12.740   9.609  71.539  1.00  0.00    -0.387 A  
HETATM   20  C   UNL     1     -11.653   8.866  71.085  1.00  0.00    -0.360 A  
HETATM   21 BR   UNL     1     -14.027   8.802  72.663  1.00  0.00    -0.213 Br 
HETATM   22  C   UNL     1     -10.724   9.451  70.220  1.00  0.00    -0.299 A  
ENDBRANCH  14  16
ENDBRANCH   7  14
TORSDOF 3
ENDMDL
MODEL       42
REMARK 921   NORMALIZED FREE ENERGY PREDICTED BY IDOCK:   -5.91 KCAL/MOL
REMARK 922        TOTAL FREE ENERGY PREDICTED BY IDOCK:   -7.56 KCAL/MOL
REMARK 923 INTER-LIGAND FREE ENERGY PREDICTED BY IDOCK:   -6.90 KCAL/MOL
REMARK 924 INTRA-LIGAND FREE ENERGY PREDICTED BY IDOCK:   -0.66 KCAL/MOL
REMARK 927      BINDING AFFINITY PREDICTED BY RF-SCORE:    0.00 PKD
ROOT
HETATM    1  N   UNL     1      -8.759  13.700  66.510  1.00  0.00    -0.445 NA 
HETATM    2  C   UNL     1     -10.043  13.349  66.025  1.00  0.00    -0.304 A  
HETATM    3  H1  UNL     1      -8.048  12.973  66.584  1.00  0.00     0.000 HD 
HETATM    4  H2  UNL     1      -8.861  14.154  67.418  1.00  0.00     0.000 HD 
HETATM    5  C   UNL     1     -11.023  14.353  65.924  1.00  0.00    -0.312 A  
HETATM    6  C   UNL     1     -12.213  14.050  65.231  1.00  0.00    -0.451 A  
HETATM    7  C   UNL     1     -10.428  12.006  65.803  1.00  0.00    -0.290 A  
HETATM    8  C   UNL     1     -12.479  12.761  64.775  1.00  0.00    -0.539 A  
HETATM    9  C   UNL     1     -11.610  11.728  65.107  1.00  0.00    -0.211 A  
ENDROOT
BRANCH   5  10
HETATM   10  C   UNL     1     -10.856  15.778  66.435  1.00  0.00    -0.226 C  
HETATM   11  O   UNL     1     -11.335  16.851  64.264  1.00  0.00    -1.202 OA 
HETATM   12  O   UNL     1     -10.271  18.018  65.830  1.00  0.00    -0.574 OA 
HETATM   13  C   UNL     1     -10.782  16.956  65.479  1.00  0.00    -0.163 C  
ENDBRANCH   5  10
BRANCH   7  14
HETATM   14  C   UNL     1      -9.641  10.827  66.265  1.00  0.00    -0.195 C  
HETATM   15  O   UNL     1      -8.525  10.636  65.789  1.00  0.00    -0.169 OA 
BRANCH  14  16
HETATM   16  C   UNL     1     -10.174   9.872  67.282  1.00  0.00    -0.277 A  
HETATM   17  C   UNL     1     -10.142   8.503  66.983  1.00  0.00    -0.347 A  
HETATM   18  C   UNL     1     -10.501   7.560  67.950  1.00  0.00    -0.266 A  
HETATM   19  C   UNL     1     -10.893   7.985  69.218  1.00  0.00    -0.059 A  
HETATM   20  C   UNL     1     -10.988   9.344  69.508  1.00  0.00    -0.193 A  
HETATM   21 BR   UNL     1     -11.281   6.709  70.557  1.00  0.00    -0.417 Br 
HETATM   22  C   UNL     1     -10.661  10.287  68.529  1.00  0.00    -0.262 A  
ENDBRANCH  14  16
ENDBRANCH   7  14
TORSDOF 3
ENDMDL
MODEL       43
REMARK 921   NORMALIZED FREE ENERGY PREDICTED BY IDOCK:   -5.89 KCAL/MOL
REMARK 922        TOTAL FREE ENERGY PREDICTED BY IDOCK:   -7.54 KCAL/MOL
REMARK 923 INTER-LIGAND FREE ENERGY PREDICTED BY IDOCK:   -7.44 KCAL/MOL
REMARK 924 INTRA-LIGAND FREE ENERGY PREDICTED BY IDOCK:   -0.10 KCAL/MOL
REMARK 927      BINDING AFFINITY PREDICTED BY RF-SCORE:    0.00 PKD
ROOT
HETATM    1  N   UNL     1     -13.737   9.941  72.491  1.00  0.00    -0.610 NA 
HETATM    2  C   UNL     1     -12.638   9.972  71.596  1.00  0.00    -0.427 A  
HETATM    3  H1  UNL     1     -14.326  10.770  72.570  1.00  0.00     0.000 HD 
HETATM    4  H2  UNL     1     -13.401   9.686  73.419  1.00  0.00     0.000 HD 
HETATM    5  C   UNL     1     -11.825   8.829  71.487  1.00  0.00    -0.377 A  
HETATM    6  C   UNL     1     -10.884   8.783  70.439  1.00  0.00    -0.256 A  
HETATM    7  C   UNL     1     -12.227  11.156  70.942  1.00  0.00    -0.468 A  
HETATM    8  C   UNL     1     -10.662   9.884  69.614  1.00  0.00    -0.277 A  
HETATM    9  C   UNL     1     -11.296  11.087  69.899  1.00  0.00    -0.364 A  
ENDROOT
BRANCH   5  10
HETATM   10  C   UNL     1     -11.949   7.595  72.370  1.00  0.00    -0.298 C  
HETATM   11  O   UNL     1      -9.820   7.960  73.565  1.00  0.00    -0.293 OA 
HETATM   12  O   UNL     1     -10.735   5.933  73.593  1.00  0.00    -0.262 OA 
HETATM   13  C   UNL     1     -10.779   7.099  73.204  1.00  0.00    -0.346 C  
ENDBRANCH   5  10
BRANCH   7  14
HETATM   14  C   UNL     1     -12.731  12.517  71.287  1.00  0.00    -0.252 C  
HETATM   15  O   UNL     1     -13.556  12.632  72.190  1.00  0.00    -0.517 OA 
BRANCH  14  16
HETATM   16  C   UNL     1     -12.269  13.737  70.561  1.00  0.00    -0.440 A  
HETATM   17  C   UNL     1     -11.897  14.856  71.320  1.00  0.00    -0.391 A  
HETATM   18  C   UNL     1     -11.329  15.973  70.700  1.00  0.00    -0.424 A  
HETATM   19  C   UNL     1     -11.134  15.974  69.321  1.00  0.00    -0.331 A  
HETATM   20  C   UNL     1     -11.557  14.894  68.548  1.00  0.00    -0.347 A  
HETATM   21 BR   UNL     1     -10.276  17.440  68.495  1.00  0.00    -0.386 Br 
HETATM   22  C   UNL     1     -12.155  13.791  69.165  1.00  0.00    -0.374 A  
ENDBRANCH  14  16
ENDBRANCH   7  14
TORSDOF 3
ENDMDL
MODEL       44
REMARK 921   NORMALIZED FREE ENERGY PREDICTED BY IDOCK:   -5.88 KCAL/MOL
REMARK 922        TOTAL FREE ENERGY PREDICTED BY IDOCK:   -7.53 KCAL/MOL
REMARK 923 INTER-LIGAND FREE ENERGY PREDICTED BY IDOCK:   -6.57 KCAL/MOL
REMARK 924 INTRA-LIGAND FREE ENERGY PREDICTED BY IDOCK:   -0.96 KCAL/MOL
REMARK 927      BINDING AFFINITY PREDICTED BY RF-SCORE:    0.00 PKD
ROOT
HETATM    1  N   UNL     1      -8.811  14.148  66.206  1.00  0.00    -0.455 NA 
HETATM    2  C   UNL     1     -10.085  13.900  65.636  1.00  0.00    -0.313 A  
HETATM    3  H1  UNL     1      -8.232  13.353  66.473  1.00  0.00     0.000 HD 
HETATM    4  H2  UNL     1      -8.925  14.759  67.015  1.00  0.00     0.000 HD 
HETATM    5  C   UNL     1     -10.885  14.997  65.269  1.00  0.00    -0.399 A  
HETATM    6  C   UNL     1     -12.039  14.748  64.499  1.00  0.00    -0.460 A  
HETATM    7  C   UNL     1     -10.652  12.605  65.582  1.00  0.00    -0.299 A  
HETATM    8  C   UNL     1     -12.458  13.449  64.220  1.00  0.00    -0.321 A  
HETATM    9  C   UNL     1     -11.794  12.378  64.806  1.00  0.00    -0.442 A  
ENDROOT
BRANCH   5  10
HETATM   10  C   UNL     1     -10.547  16.451  65.569  1.00  0.00    -0.346 C  
HETATM   11  O   UNL     1     -10.552  16.181  68.023  1.00  0.00    -0.282 OA 
HETATM   12  O   UNL     1     -10.760  18.222  67.165  1.00  0.00    -0.385 OA 
HETATM   13  C   UNL     1     -10.647  17.012  66.977  1.00  0.00    -0.226 C  
ENDBRANCH   5  10
BRANCH   7  14
HETATM   14  C   UNL     1     -10.102  11.424  66.308  1.00  0.00    -0.224 C  
HETATM   15  O   UNL     1      -9.129  10.839  65.839  1.00  0.00    -0.175 OA 
BRANCH  14  16
HETATM   16  C   UNL     1     -10.705  10.931  67.582  1.00  0.00    -0.288 A  
HETATM   17  C   UNL     1     -10.291   9.684  68.070  1.00  0.00    -0.262 A  
HETATM   18  C   UNL     1     -10.719   9.237  69.323  1.00  0.00    -0.211 A  
HETATM   19  C   UNL     1     -11.564  10.037  70.091  1.00  0.00    -0.252 A  
HETATM   20  C   UNL     1     -12.032  11.250  69.591  1.00  0.00    -0.423 A  
HETATM   21 BR   UNL     1     -12.063   9.480  71.826  1.00  0.00    -0.434 Br 
HETATM   22  C   UNL     1     -11.629  11.681  68.324  1.00  0.00    -0.378 A  
ENDBRANCH  14  16
ENDBRANCH   7  14
TORSDOF 3
ENDMDL
MODEL       45
REMARK 921   NORMALIZED FREE ENERGY PREDICTED BY IDOCK:   -5.88 KCAL/MOL
REMARK 922        TOTAL FREE ENERGY PREDICTED BY IDOCK:   -7.53 KCAL/MOL
REMARK 923 INTER-LIGAND FREE ENERGY PREDICTED BY IDOCK:   -6.62 KCAL/MOL
REMARK 924 INTRA-LIGAND FREE ENERGY PREDICTED BY IDOCK:   -0.91 KCAL/MOL
REMARK 927      BINDING AFFINITY PREDICTED BY RF-SCORE:    0.00 PKD
ROOT
HETATM    1  N   UNL     1     -12.656  10.599  69.125  1.00  0.00    -0.676 NA 
HETATM    2  C   UNL     1     -11.252  10.681  68.943  1.00  0.00    -0.275 A  
HETATM    3  H1  UNL     1     -13.265  11.012  68.419  1.00  0.00     0.000 HD 
HETATM    4  H2  UNL     1     -12.895  10.990  70.036  1.00  0.00     0.000 HD 
HETATM    5  C   UNL     1     -10.412  10.113  69.917  1.00  0.00    -0.322 A  
HETATM    6  C   UNL     1      -9.040   9.994  69.620  1.00  0.00    -0.230 A  
HETATM    7  C   UNL     1     -10.666  11.458  67.917  1.00  0.00    -0.242 A  
HETATM    8  C   UNL     1      -8.498  10.543  68.459  1.00  0.00    -0.131 A  
HETATM    9  C   UNL     1      -9.302  11.320  67.634  1.00  0.00    -0.162 A  
ENDROOT
BRANCH   5  10
HETATM   10  C   UNL     1     -10.893   9.532  71.240  1.00  0.00    -0.413 C  
HETATM   11  O   UNL     1     -10.966   7.196  70.446  1.00  0.00    -0.249 OA 
HETATM   12  O   UNL     1     -12.118   7.750  72.266  1.00  0.00    -0.311 OA 
HETATM   13  C   UNL     1     -11.385   8.098  71.341  1.00  0.00    -0.259 C  
ENDBRANCH   5  10
BRANCH   7  14
HETATM   14  C   UNL     1     -11.416  12.440  67.083  1.00  0.00    -0.357 C  
HETATM   15  O   UNL     1     -12.220  12.021  66.253  1.00  0.00    -0.548 OA 
BRANCH  14  16
HETATM   16  C   UNL     1     -11.212  13.912  67.222  1.00  0.00    -0.329 A  
HETATM   17  C   UNL     1     -11.751  14.550  68.349  1.00  0.00    -0.367 A  
HETATM   18  C   UNL     1     -11.474  15.897  68.598  1.00  0.00    -0.391 A  
HETATM   19  C   UNL     1     -10.659  16.610  67.720  1.00  0.00    -0.342 A  
HETATM   20  C   UNL     1     -10.169  16.005  66.565  1.00  0.00    -0.301 A  
HETATM   21 BR   UNL     1     -10.202  18.402  68.108  1.00  0.00    -0.412 Br 
HETATM   22  C   UNL     1     -10.474  14.666  66.299  1.00  0.00    -0.302 A  
ENDBRANCH  14  16
ENDBRANCH   7  14
TORSDOF 3
ENDMDL
MODEL       46
REMARK 921   NORMALIZED FREE ENERGY PREDICTED BY IDOCK:   -5.86 KCAL/MOL
REMARK 922        TOTAL FREE ENERGY PREDICTED BY IDOCK:   -7.51 KCAL/MOL
REMARK 923 INTER-LIGAND FREE ENERGY PREDICTED BY IDOCK:   -6.82 KCAL/MOL
REMARK 924 INTRA-LIGAND FREE ENERGY PREDICTED BY IDOCK:   -0.69 KCAL/MOL
REMARK 927      BINDING AFFINITY PREDICTED BY RF-SCORE:    0.00 PKD
ROOT
HETATM    1  N   UNL     1     -10.992  15.830  64.571  1.00  0.00    -0.820 NA 
HETATM    2  C   UNL     1     -11.076  15.665  65.977  1.00  0.00    -0.136 A  
HETATM    3  H1  UNL     1     -11.509  15.186  63.972  1.00  0.00     0.000 HD 
HETATM    4  H2  UNL     1     -10.010  15.821  64.295  1.00  0.00     0.000 HD 
HETATM    5  C   UNL     1     -10.362  16.552  66.803  1.00  0.00    -0.296 A  
HETATM    6  C   UNL     1     -10.630  16.528  68.186  1.00  0.00    -0.329 A  
HETATM    7  C   UNL     1     -11.704  14.546  66.572  1.00  0.00    -0.380 A  
HETATM    8  C   UNL     1     -11.471  15.569  68.747  1.00  0.00    -0.363 A  
HETATM    9  C   UNL     1     -11.965  14.547  67.947  1.00  0.00    -0.322 A  
ENDROOT
BRANCH   5  10
HETATM   10  C   UNL     1      -9.381  17.602  66.299  1.00  0.00    -0.217 C  
HETATM   11  O   UNL     1      -7.374  16.486  67.205  1.00  0.00    -0.136 OA 
HETATM   12  O   UNL     1      -7.262  18.645  66.683  1.00  0.00    -0.207 OA 
HETATM   13  C   UNL     1      -7.934  17.619  66.762  1.00  0.00    -0.239 C  
ENDBRANCH   5  10
BRANCH   7  14
HETATM   14  C   UNL     1     -12.126  13.330  65.820  1.00  0.00    -0.441 C  
HETATM   15  O   UNL     1     -13.066  13.416  65.034  1.00  0.00    -0.734 OA 
BRANCH  14  16
HETATM   16  C   UNL     1     -11.445  12.014  66.002  1.00  0.00    -0.399 A  
HETATM   17  C   UNL     1     -10.702  11.501  64.930  1.00  0.00    -0.357 A  
HETATM   18  C   UNL     1      -9.935  10.343  65.091  1.00  0.00    -0.390 A  
HETATM   19  C   UNL     1      -9.911   9.696  66.325  1.00  0.00    -0.264 A  
HETATM   20  C   UNL     1     -10.694  10.160  67.379  1.00  0.00    -0.336 A  
HETATM   21 BR   UNL     1      -8.798   8.190  66.573  1.00  0.00    -0.189 Br 
HETATM   22  C   UNL     1     -11.486  11.299  67.207  1.00  0.00    -0.265 A  
ENDBRANCH  14  16
ENDBRANCH   7  14
TORSDOF 3
ENDMDL
MODEL       47
REMARK 921   NORMALIZED FREE ENERGY PREDICTED BY IDOCK:   -5.86 KCAL/MOL
REMARK 922        TOTAL FREE ENERGY PREDICTED BY IDOCK:   -7.51 KCAL/MOL
REMARK 923 INTER-LIGAND FREE ENERGY PREDICTED BY IDOCK:   -6.73 KCAL/MOL
REMARK 924 INTRA-LIGAND FREE ENERGY PREDICTED BY IDOCK:   -0.77 KCAL/MOL
REMARK 927      BINDING AFFINITY PREDICTED BY RF-SCORE:    0.00 PKD
ROOT
HETATM    1  N   UNL     1     -11.540  13.465  70.409  1.00  0.00    -0.525 NA 
HETATM    2  C   UNL     1     -11.579  13.210  69.015  1.00  0.00    -0.312 A  
HETATM    3  H1  UNL     1     -11.691  14.419  70.736  1.00  0.00     0.000 HD 
HETATM    4  H2  UNL     1     -10.654  13.125  70.782  1.00  0.00     0.000 HD 
HETATM    5  C   UNL     1     -11.370  11.894  68.565  1.00  0.00    -0.329 A  
HETATM    6  C   UNL     1     -11.637  11.607  67.211  1.00  0.00    -0.316 A  
HETATM    7  C   UNL     1     -11.648  14.247  68.057  1.00  0.00    -0.364 A  
HETATM    8  C   UNL     1     -11.967  12.615  66.307  1.00  0.00    -0.439 A  
HETATM    9  C   UNL     1     -11.920  13.941  66.719  1.00  0.00    -0.472 A  
ENDROOT
BRANCH   5  10
HETATM   10  C   UNL     1     -10.959  10.731  69.457  1.00  0.00    -0.317 C  
HETATM   11  O   UNL     1     -13.090  10.638  70.701  1.00  0.00    -0.318 OA 
HETATM   12  O   UNL     1     -11.286   9.685  71.585  1.00  0.00    -0.374 OA 
HETATM   13  C   UNL     1     -11.787  10.332  70.667  1.00  0.00    -0.347 C  
ENDBRANCH   5  10
BRANCH   7  14
HETATM   14  C   UNL     1     -11.450  15.691  68.376  1.00  0.00    -0.369 C  
HETATM   15  O   UNL     1     -12.149  16.207  69.245  1.00  0.00    -0.225 OA 
BRANCH  14  16
HETATM   16  C   UNL     1     -10.435  16.524  67.666  1.00  0.00    -0.305 A  
HETATM   17  C   UNL     1     -10.767  17.850  67.357  1.00  0.00    -0.306 A  
HETATM   18  C   UNL     1      -9.809  18.712  66.817  1.00  0.00    -0.365 A  
HETATM   19  C   UNL     1      -8.515  18.248  66.584  1.00  0.00    -0.265 A  
HETATM   20  C   UNL     1      -8.190  16.916  66.828  1.00  0.00    -0.275 A  
HETATM   21 BR   UNL     1      -7.192  19.438  65.949  1.00  0.00    -0.304 Br 
HETATM   22  C   UNL     1      -9.158  16.046  67.337  1.00  0.00    -0.207 A  
ENDBRANCH  14  16
ENDBRANCH   7  14
TORSDOF 3
ENDMDL
MODEL       48
REMARK 921   NORMALIZED FREE ENERGY PREDICTED BY IDOCK:   -5.84 KCAL/MOL
REMARK 922        TOTAL FREE ENERGY PREDICTED BY IDOCK:   -7.49 KCAL/MOL
REMARK 923 INTER-LIGAND FREE ENERGY PREDICTED BY IDOCK:   -7.25 KCAL/MOL
REMARK 924 INTRA-LIGAND FREE ENERGY PREDICTED BY IDOCK:   -0.23 KCAL/MOL
REMARK 927      BINDING AFFINITY PREDICTED BY RF-SCORE:    0.00 PKD
ROOT
HETATM    1  N   UNL     1      -9.662   9.954  70.527  1.00  0.00    -0.365 NA 
HETATM    2  C   UNL     1     -10.990   9.723  70.966  1.00  0.00    -0.332 A  
HETATM    3  H1  UNL     1      -9.406  10.890  70.215  1.00  0.00     0.000 HD 
HETATM    4  H2  UNL     1      -9.437   9.287  69.789  1.00  0.00     0.000 HD 
HETATM    5  C   UNL     1     -11.343   8.431  71.396  1.00  0.00    -0.317 A  
HETATM    6  C   UNL     1     -12.584   8.265  72.042  1.00  0.00    -0.387 A  
HETATM    7  C   UNL     1     -12.013  10.690  70.826  1.00  0.00    -0.477 A  
HETATM    8  C   UNL     1     -13.500   9.311  72.136  1.00  0.00    -0.539 A  
HETATM    9  C   UNL     1     -13.236  10.508  71.481  1.00  0.00    -0.470 A  
ENDROOT
BRANCH   5  10
HETATM   10  C   UNL     1     -10.439   7.210  71.294  1.00  0.00    -0.219 C  
HETATM   11  O   UNL     1     -11.604   6.231  69.350  1.00  0.00    -0.403 OA 
HETATM   12  O   UNL     1     -10.309   4.924  70.599  1.00  0.00    -0.228 OA 
HETATM   13  C   UNL     1     -10.796   6.035  70.400  1.00  0.00    -0.318 C  
ENDBRANCH   5  10
BRANCH   7  14
HETATM   14  C   UNL     1     -11.879  11.932  70.011  1.00  0.00    -0.328 C  
HETATM   15  O   UNL     1     -11.936  13.021  70.577  1.00  0.00    -0.322 OA 
BRANCH  14  16
HETATM   16  C   UNL     1     -11.687  11.887  68.531  1.00  0.00    -0.388 A  
HETATM   17  C   UNL     1     -11.965  13.046  67.794  1.00  0.00    -0.344 A  
HETATM   18  C   UNL     1     -11.673  13.102  66.428  1.00  0.00    -0.429 A  
HETATM   19  C   UNL     1     -11.105  11.997  65.797  1.00  0.00    -0.324 A  
HETATM   20  C   UNL     1     -10.882  10.818  66.505  1.00  0.00    -0.196 A  
HETATM   21 BR   UNL     1     -10.617  12.105  63.974  1.00  0.00    -0.481 Br 
HETATM   22  C   UNL     1     -11.204  10.753  67.863  1.00  0.00    -0.386 A  
ENDBRANCH  14  16
ENDBRANCH   7  14
TORSDOF 3
ENDMDL
MODEL       49
REMARK 921   NORMALIZED FREE ENERGY PREDICTED BY IDOCK:   -5.83 KCAL/MOL
REMARK 922        TOTAL FREE ENERGY PREDICTED BY IDOCK:   -7.47 KCAL/MOL
REMARK 923 INTER-LIGAND FREE ENERGY PREDICTED BY IDOCK:   -6.99 KCAL/MOL
REMARK 924 INTRA-LIGAND FREE ENERGY PREDICTED BY IDOCK:   -0.47 KCAL/MOL
REMARK 927      BINDING AFFINITY PREDICTED BY RF-SCORE:    0.00 PKD
ROOT
HETATM    1  N   UNL     1     -13.029   6.485  72.171  1.00  0.00    -0.515 NA 
HETATM    2  C   UNL     1     -11.833   7.244  72.211  1.00  0.00    -0.248 A  
HETATM    3  H1  UNL     1     -13.837   6.872  71.683  1.00  0.00     0.000 HD 
HETATM    4  H2  UNL     1     -13.302   6.247  73.124  1.00  0.00     0.000 HD 
HETATM    5  C   UNL     1     -10.719   6.711  72.884  1.00  0.00    -0.285 A  
HETATM    6  C   UNL     1      -9.477   7.358  72.724  1.00  0.00    -0.207 A  
HETATM    7  C   UNL     1     -11.768   8.581  71.754  1.00  0.00    -0.392 A  
HETATM    8  C   UNL     1      -9.370   8.564  72.036  1.00  0.00    -0.353 A  
HETATM    9  C   UNL     1     -10.524   9.202  71.597  1.00  0.00    -0.403 A  
ENDROOT
BRANCH   5  10
HETATM   10  C   UNL     1     -10.738   5.428  73.704  1.00  0.00    -0.337 C  
HETATM   11  O   UNL     1     -10.081   3.956  71.834  1.00  0.00    -0.180 OA 
HETATM   12  O   UNL     1     -11.049   3.057  73.623  1.00  0.00    -0.213 OA 
HETATM   13  C   UNL     1     -10.651   4.064  73.041  1.00  0.00    -0.174 C  
ENDBRANCH   5  10
BRANCH   7  14
HETATM   14  C   UNL     1     -12.964   9.403  71.411  1.00  0.00    -0.346 C  
HETATM   15  O   UNL     1     -14.061   8.853  71.340  1.00  0.00    -0.360 OA 
BRANCH  14  16
HETATM   16  C   UNL     1     -12.864  10.868  71.145  1.00  0.00    -0.508 A  
HETATM   17  C   UNL     1     -13.372  11.751  72.108  1.00  0.00    -0.334 A  
HETATM   18  C   UNL     1     -13.182  13.130  71.973  1.00  0.00    -0.543 A  
HETATM   19  C   UNL     1     -12.486  13.628  70.874  1.00  0.00    -0.371 A  
HETATM   20  C   UNL     1     -12.030  12.766  69.879  1.00  0.00    -0.368 A  
HETATM   21 BR   UNL     1     -12.141  15.481  70.742  1.00  0.00    -0.480 Br 
HETATM   22  C   UNL     1     -12.249  11.390  69.998  1.00  0.00    -0.377 A  
ENDBRANCH  14  16
ENDBRANCH   7  14
TORSDOF 3
ENDMDL
MODEL       50
REMARK 921   NORMALIZED FREE ENERGY PREDICTED BY IDOCK:   -5.82 KCAL/MOL
REMARK 922        TOTAL FREE ENERGY PREDICTED BY IDOCK:   -7.46 KCAL/MOL
REMARK 923 INTER-LIGAND FREE ENERGY PREDICTED BY IDOCK:   -7.04 KCAL/MOL
REMARK 924 INTRA-LIGAND FREE ENERGY PREDICTED BY IDOCK:   -0.42 KCAL/MOL
REMARK 927      BINDING AFFINITY PREDICTED BY RF-SCORE:    0.00 PKD
ROOT
HETATM    1  N   UNL     1     -12.192  14.140  68.805  1.00  0.00    -0.546 NA 
HETATM    2  C   UNL     1     -10.894  13.809  68.343  1.00  0.00    -0.252 A  
HETATM    3  H1  UNL     1     -12.738  13.423  69.283  1.00  0.00     0.000 HD 
HETATM    4  H2  UNL     1     -12.738  14.506  68.026  1.00  0.00     0.000 HD 
HETATM    5  C   UNL     1     -10.141  14.798  67.684  1.00  0.00    -0.227 A  
HETATM    6  C   UNL     1      -8.779  14.536  67.434  1.00  0.00    -0.210 A  
HETATM    7  C   UNL     1     -10.397  12.485  68.363  1.00  0.00    -0.237 A  
HETATM    8  C   UNL     1      -8.218  13.289  67.703  1.00  0.00    -0.179 A  
HETATM    9  C   UNL     1      -9.040  12.248  68.118  1.00  0.00    -0.196 A  
ENDROOT
BRANCH   5  10
HETATM   10  C   UNL     1     -10.670  16.172  67.298  1.00  0.00    -0.277 C  
HETATM   11  O   UNL     1     -10.306  15.880  64.874  1.00  0.00    -0.517 OA 
HETATM   12  O   UNL     1     -10.544  17.937  65.686  1.00  0.00    -0.587 OA 
HETATM   13  C   UNL     1     -10.482  16.727  65.896  1.00  0.00    -0.301 C  
ENDBRANCH   5  10
BRANCH   7  14
HETATM   14  C   UNL     1     -11.237  11.284  68.639  1.00  0.00    -0.250 C  
HETATM   15  O   UNL     1     -12.150  11.008  67.865  1.00  0.00    -0.600 OA 
BRANCH  14  16
HETATM   16  C   UNL     1     -11.004  10.417  69.832  1.00  0.00    -0.364 A  
HETATM   17  C   UNL     1     -12.057  10.248  70.742  1.00  0.00    -0.451 A  
HETATM   18  C   UNL     1     -11.938   9.341  71.799  1.00  0.00    -0.455 A  
HETATM   19  C   UNL     1     -10.766   8.602  71.949  1.00  0.00    -0.344 A  
HETATM   20  C   UNL     1      -9.690   8.806  71.088  1.00  0.00    -0.315 A  
HETATM   21 BR   UNL     1     -10.643   7.304  73.316  1.00  0.00    -0.432 Br 
HETATM   22  C   UNL     1      -9.797   9.737  70.051  1.00  0.00    -0.295 A  
ENDBRANCH  14  16
ENDBRANCH   7  14
TORSDOF 3
ENDMDL
MODEL       51
REMARK 921   NORMALIZED FREE ENERGY PREDICTED BY IDOCK:   -5.81 KCAL/MOL
REMARK 922        TOTAL FREE ENERGY PREDICTED BY IDOCK:   -7.44 KCAL/MOL
REMARK 923 INTER-LIGAND FREE ENERGY PREDICTED BY IDOCK:   -6.93 KCAL/MOL
REMARK 924 INTRA-LIGAND FREE ENERGY PREDICTED BY IDOCK:   -0.51 KCAL/MOL
REMARK 927      BINDING AFFINITY PREDICTED BY RF-SCORE:    0.00 PKD
ROOT
HETATM    1  N   UNL     1     -12.694   8.002  72.506  1.00  0.00    -0.572 NA 
HETATM    2  C   UNL     1     -11.380   8.372  72.125  1.00  0.00    -0.366 A  
HETATM    3  H1  UNL     1     -13.482   8.487  72.077  1.00  0.00     0.000 HD 
HETATM    4  H2  UNL     1     -12.776   8.071  73.519  1.00  0.00     0.000 HD 
HETATM    5  C   UNL     1     -10.293   7.704  72.717  1.00  0.00    -0.351 A  
HETATM    6  C   UNL     1      -9.011   7.913  72.171  1.00  0.00    -0.199 A  
HETATM    7  C   UNL     1     -11.116   9.497  71.309  1.00  0.00    -0.449 A  
HETATM    8  C   UNL     1      -8.794   8.853  71.166  1.00  0.00    -0.297 A  
HETATM    9  C   UNL     1      -9.837   9.682  70.772  1.00  0.00    -0.224 A  
ENDROOT
BRANCH   5  10
HETATM   10  C   UNL     1     -10.413   6.698  73.853  1.00  0.00    -0.351 C  
HETATM   11  O   UNL     1     -10.310   4.705  72.400  1.00  0.00    -0.193 OA 
HETATM   12  O   UNL     1     -11.142   4.498  74.452  1.00  0.00    -0.255 OA 
HETATM   13  C   UNL     1     -10.666   5.225  73.581  1.00  0.00    -0.294 C  
ENDBRANCH   5  10
BRANCH   7  14
HETATM   14  C   UNL     1     -12.133  10.531  70.962  1.00  0.00    -0.387 C  
HETATM   15  O   UNL     1     -13.166  10.592  71.624  1.00  0.00    -0.412 OA 
BRANCH  14  16
HETATM   16  C   UNL     1     -11.934  11.485  69.831  1.00  0.00    -0.426 A  
HETATM   17  C   UNL     1     -11.726  10.958  68.549  1.00  0.00    -0.307 A  
HETATM   18  C   UNL     1     -11.670  11.802  67.437  1.00  0.00    -0.304 A  
HETATM   19  C   UNL     1     -11.820  13.178  67.605  1.00  0.00    -0.359 A  
HETATM   20  C   UNL     1     -11.965  13.720  68.880  1.00  0.00    -0.394 A  
HETATM   21 BR   UNL     1     -11.846  14.311  66.094  1.00  0.00    -0.411 Br 
HETATM   22  C   UNL     1     -11.988  12.877  69.995  1.00  0.00    -0.380 A  
ENDBRANCH  14  16
ENDBRANCH   7  14
TORSDOF 3
ENDMDL
MODEL       52
REMARK 921   NORMALIZED FREE ENERGY PREDICTED BY IDOCK:   -5.78 KCAL/MOL
REMARK 922        TOTAL FREE ENERGY PREDICTED BY IDOCK:   -7.41 KCAL/MOL
REMARK 923 INTER-LIGAND FREE ENERGY PREDICTED BY IDOCK:   -6.92 KCAL/MOL
REMARK 924 INTRA-LIGAND FREE ENERGY PREDICTED BY IDOCK:   -0.49 KCAL/MOL
REMARK 927      BINDING AFFINITY PREDICTED BY RF-SCORE:    0.00 PKD
ROOT
HETATM    1  N   UNL     1     -10.483  14.819  66.339  1.00  0.00    -0.286 NA 
HETATM    2  C   UNL     1     -10.967  13.905  67.309  1.00  0.00    -0.290 A  
HETATM    3  H1  UNL     1     -10.199  15.750  66.644  1.00  0.00     0.000 HD 
HETATM    4  H2  UNL     1     -11.176  14.911  65.597  1.00  0.00     0.000 HD 
HETATM    5  C   UNL     1     -11.360  12.621  66.888  1.00  0.00    -0.373 A  
HETATM    6  C   UNL     1     -11.618  11.651  67.877  1.00  0.00    -0.369 A  
HETATM    7  C   UNL     1     -11.233  14.287  68.644  1.00  0.00    -0.287 A  
HETATM    8  C   UNL     1     -11.622  11.978  69.231  1.00  0.00    -0.380 A  
HETATM    9  C   UNL     1     -11.481  13.307  69.611  1.00  0.00    -0.267 A  
ENDROOT
BRANCH   5  10
HETATM   10  C   UNL     1     -11.440  12.175  65.434  1.00  0.00    -0.387 C  
HETATM   11  O   UNL     1     -13.149  13.834  64.785  1.00  0.00    -0.651 OA 
HETATM   12  O   UNL     1     -12.845  12.043  63.502  1.00  0.00    -0.749 OA 
HETATM   13  C   UNL     1     -12.543  12.671  64.515  1.00  0.00    -0.412 C  
ENDBRANCH   5  10
BRANCH   7  14
HETATM   14  C   UNL     1     -11.264  15.702  69.115  1.00  0.00    -0.315 C  
HETATM   15  O   UNL     1     -12.255  16.104  69.719  1.00  0.00    -0.163 OA 
BRANCH  14  16
HETATM   16  C   UNL     1     -10.130  16.641  68.866  1.00  0.00    -0.274 A  
HETATM   17  C   UNL     1      -8.828  16.186  69.116  1.00  0.00    -0.239 A  
HETATM   18  C   UNL     1      -7.725  16.973  68.772  1.00  0.00    -0.249 A  
HETATM   19  C   UNL     1      -7.923  18.219  68.179  1.00  0.00    -0.284 A  
HETATM   20  C   UNL     1      -9.213  18.709  67.983  1.00  0.00    -0.329 A  
HETATM   21 BR   UNL     1      -6.435  19.241  67.622  1.00  0.00    -0.233 Br 
HETATM   22  C   UNL     1     -10.315  17.934  68.357  1.00  0.00    -0.380 A  
ENDBRANCH  14  16
ENDBRANCH   7  14
TORSDOF 3
ENDMDL
MODEL       53
REMARK 921   NORMALIZED FREE ENERGY PREDICTED BY IDOCK:   -5.77 KCAL/MOL
REMARK 922        TOTAL FREE ENERGY PREDICTED BY IDOCK:   -7.39 KCAL/MOL
REMARK 923 INTER-LIGAND FREE ENERGY PREDICTED BY IDOCK:   -6.86 KCAL/MOL
REMARK 924 INTRA-LIGAND FREE ENERGY PREDICTED BY IDOCK:   -0.54 KCAL/MOL
REMARK 927      BINDING AFFINITY PREDICTED BY RF-SCORE:    0.00 PKD
ROOT
HETATM    1  N   UNL     1     -10.021  11.330  67.118  1.00  0.00    -0.190 NA 
HETATM    2  C   UNL     1     -10.749  11.828  66.008  1.00  0.00    -0.279 A  
HETATM    3  H1  UNL     1     -10.189  11.739  68.037  1.00  0.00     0.000 HD 
HETATM    4  H2  UNL     1      -9.024  11.384  66.911  1.00  0.00     0.000 HD 
HETATM    5  C   UNL     1     -10.515  11.263  64.741  1.00  0.00    -0.384 A  
HETATM    6  C   UNL     1     -11.397  11.599  63.694  1.00  0.00    -0.485 A  
HETATM    7  C   UNL     1     -11.567  12.978  66.093  1.00  0.00    -0.412 A  
HETATM    8  C   UNL     1     -12.390  12.562  63.862  1.00  0.00    -0.576 A  
HETATM    9  C   UNL     1     -12.440  13.289  65.045  1.00  0.00    -0.498 A  
ENDROOT
BRANCH   5  10
HETATM   10  C   UNL     1      -9.427  10.243  64.438  1.00  0.00    -0.360 C  
HETATM   11  O   UNL     1      -8.688  11.320  62.343  1.00  0.00    -0.306 OA 
HETATM   12  O   UNL     1      -8.160   9.189  62.702  1.00  0.00    -0.132 OA 
HETATM   13  C   UNL     1      -8.730  10.208  63.088  1.00  0.00    -0.211 C  
ENDBRANCH   5  10
BRANCH   7  14
HETATM   14  C   UNL     1     -11.573  13.912  67.256  1.00  0.00    -0.365 C  
HETATM   15  O   UNL     1     -12.146  13.571  68.288  1.00  0.00    -0.354 OA 
BRANCH  14  16
HETATM   16  C   UNL     1     -10.910  15.248  67.198  1.00  0.00    -0.322 A  
HETATM   17  C   UNL     1      -9.977  15.480  66.178  1.00  0.00    -0.332 A  
HETATM   18  C   UNL     1      -9.430  16.753  65.995  1.00  0.00    -0.257 A  
HETATM   19  C   UNL     1      -9.814  17.798  66.835  1.00  0.00    -0.312 A  
HETATM   20  C   UNL     1     -10.692  17.566  67.891  1.00  0.00    -0.340 A  
HETATM   21 BR   UNL     1      -9.154  19.541  66.527  1.00  0.00    -0.443 Br 
HETATM   22  C   UNL     1     -11.213  16.285  68.093  1.00  0.00    -0.298 A  
ENDBRANCH  14  16
ENDBRANCH   7  14
TORSDOF 3
ENDMDL
MODEL       54
REMARK 921   NORMALIZED FREE ENERGY PREDICTED BY IDOCK:   -5.77 KCAL/MOL
REMARK 922        TOTAL FREE ENERGY PREDICTED BY IDOCK:   -7.39 KCAL/MOL
REMARK 923 INTER-LIGAND FREE ENERGY PREDICTED BY IDOCK:   -6.54 KCAL/MOL
REMARK 924 INTRA-LIGAND FREE ENERGY PREDICTED BY IDOCK:   -0.86 KCAL/MOL
REMARK 927      BINDING AFFINITY PREDICTED BY RF-SCORE:    0.00 PKD
ROOT
HETATM    1  N   UNL     1      -9.616   8.725  70.300  1.00  0.00    -0.170 NA 
HETATM    2  C   UNL     1     -10.855   9.345  70.603  1.00  0.00    -0.283 A  
HETATM    3  H1  UNL     1      -9.107   9.031  69.472  1.00  0.00     0.000 HD 
HETATM    4  H2  UNL     1      -9.755   7.716  70.249  1.00  0.00     0.000 HD 
HETATM    5  C   UNL     1     -11.558   8.923  71.746  1.00  0.00    -0.422 A  
HETATM    6  C   UNL     1     -12.661   9.692  72.166  1.00  0.00    -0.427 A  
HETATM    7  C   UNL     1     -11.491  10.242  69.714  1.00  0.00    -0.320 A  
HETATM    8  C   UNL     1     -13.134  10.759  71.405  1.00  0.00    -0.469 A  
HETATM    9  C   UNL     1     -12.581  11.000  70.153  1.00  0.00    -0.281 A  
ENDROOT
BRANCH   5  10
HETATM   10  C   UNL     1     -11.158   7.741  72.618  1.00  0.00    -0.433 C  
HETATM   11  O   UNL     1     -11.402   6.052  70.834  1.00  0.00    -0.300 OA 
HETATM   12  O   UNL     1     -11.405   5.384  72.955  1.00  0.00    -0.302 OA 
HETATM   13  C   UNL     1     -11.351   6.309  72.147  1.00  0.00    -0.297 C  
ENDBRANCH   5  10
BRANCH   7  14
HETATM   14  C   UNL     1     -11.069  10.450  68.298  1.00  0.00    -0.281 C  
HETATM   15  O   UNL     1     -10.730   9.476  67.631  1.00  0.00    -0.274 OA 
BRANCH  14  16
HETATM   16  C   UNL     1     -11.041  11.807  67.676  1.00  0.00    -0.312 A  
HETATM   17  C   UNL     1     -10.309  12.815  68.319  1.00  0.00    -0.248 A  
HETATM   18  C   UNL     1     -10.137  14.061  67.711  1.00  0.00    -0.240 A  
HETATM   19  C   UNL     1     -10.698  14.303  66.459  1.00  0.00    -0.297 A  
HETATM   20  C   UNL     1     -11.479  13.332  65.837  1.00  0.00    -0.359 A  
HETATM   21 BR   UNL     1     -10.382  15.952  65.591  1.00  0.00    -0.427 Br 
HETATM   22  C   UNL     1     -11.678  12.097  66.461  1.00  0.00    -0.392 A  
ENDBRANCH  14  16
ENDBRANCH   7  14
TORSDOF 3
ENDMDL
MODEL       55
REMARK 921   NORMALIZED FREE ENERGY PREDICTED BY IDOCK:   -5.76 KCAL/MOL
REMARK 922        TOTAL FREE ENERGY PREDICTED BY IDOCK:   -7.39 KCAL/MOL
REMARK 923 INTER-LIGAND FREE ENERGY PREDICTED BY IDOCK:   -7.07 KCAL/MOL
REMARK 924 INTRA-LIGAND FREE ENERGY PREDICTED BY IDOCK:   -0.31 KCAL/MOL
REMARK 927      BINDING AFFINITY PREDICTED BY RF-SCORE:    0.00 PKD
ROOT
HETATM    1  N   UNL     1     -11.747  10.140  67.998  1.00  0.00    -0.615 NA 
HETATM    2  C   UNL     1     -11.804  11.408  68.630  1.00  0.00    -0.310 A  
HETATM    3  H1  UNL     1     -12.025   9.316  68.529  1.00  0.00     0.000 HD 
HETATM    4  H2  UNL     1     -10.806   9.996  67.632  1.00  0.00     0.000 HD 
HETATM    5  C   UNL     1     -11.420  12.545  67.896  1.00  0.00    -0.369 A  
HETATM    6  C   UNL     1     -11.696  13.813  68.447  1.00  0.00    -0.393 A  
HETATM    7  C   UNL     1     -12.065  11.554  70.012  1.00  0.00    -0.408 A  
HETATM    8  C   UNL     1     -12.208  13.948  69.736  1.00  0.00    -0.388 A  
HETATM    9  C   UNL     1     -12.342  12.821  70.537  1.00  0.00    -0.355 A  
ENDROOT
BRANCH   5  10
HETATM   10  C   UNL     1     -10.805  12.508  66.504  1.00  0.00    -0.287 C  
HETATM   11  O   UNL     1     -12.937  12.857  65.308  1.00  0.00    -0.703 OA 
HETATM   12  O   UNL     1     -11.208  12.005  64.199  1.00  0.00    -0.325 OA 
HETATM   13  C   UNL     1     -11.672  12.420  65.259  1.00  0.00    -0.390 C  
ENDBRANCH   5  10
BRANCH   7  14
HETATM   14  C   UNL     1     -12.071  10.421  70.983  1.00  0.00    -0.385 C  
HETATM   15  O   UNL     1     -12.885  10.434  71.903  1.00  0.00    -0.433 OA 
BRANCH  14  16
HETATM   16  C   UNL     1     -11.115   9.281  70.870  1.00  0.00    -0.374 A  
HETATM   17  C   UNL     1     -11.635   7.979  70.864  1.00  0.00    -0.284 A  
HETATM   18  C   UNL     1     -10.800   6.885  70.624  1.00  0.00    -0.280 A  
HETATM   19  C   UNL     1      -9.441   7.089  70.392  1.00  0.00    -0.162 A  
HETATM   20  C   UNL     1      -8.901   8.372  70.457  1.00  0.00    -0.156 A  
HETATM   21 BR   UNL     1      -8.329   5.622  69.969  1.00  0.00    -0.123 Br 
HETATM   22  C   UNL     1      -9.731   9.462  70.730  1.00  0.00    -0.332 A  
ENDBRANCH  14  16
ENDBRANCH   7  14
TORSDOF 3
ENDMDL
MODEL       56
REMARK 921   NORMALIZED FREE ENERGY PREDICTED BY IDOCK:   -5.75 KCAL/MOL
REMARK 922        TOTAL FREE ENERGY PREDICTED BY IDOCK:   -7.38 KCAL/MOL
REMARK 923 INTER-LIGAND FREE ENERGY PREDICTED BY IDOCK:   -6.58 KCAL/MOL
REMARK 924 INTRA-LIGAND FREE ENERGY PREDICTED BY IDOCK:   -0.79 KCAL/MOL
REMARK 927      BINDING AFFINITY PREDICTED BY RF-SCORE:    0.00 PKD
ROOT
HETATM    1  N   UNL     1     -11.748   6.641  69.447  1.00  0.00    -0.648 NA 
HETATM    2  C   UNL     1     -11.181   6.838  70.731  1.00  0.00    -0.304 A  
HETATM    3  H1  UNL     1     -12.394   7.342  69.084  1.00  0.00     0.000 HD 
HETATM    4  H2  UNL     1     -12.203   5.729  69.423  1.00  0.00     0.000 HD 
HETATM    5  C   UNL     1     -10.290   5.871  71.230  1.00  0.00    -0.276 A  
HETATM    6  C   UNL     1      -9.559   6.182  72.395  1.00  0.00    -0.159 A  
HETATM    7  C   UNL     1     -11.606   7.874  71.595  1.00  0.00    -0.311 A  
HETATM    8  C   UNL     1      -9.802   7.351  73.113  1.00  0.00    -0.304 A  
HETATM    9  C   UNL     1     -10.861   8.171  72.743  1.00  0.00    -0.390 A  
ENDROOT
BRANCH   5  10
HETATM   10  C   UNL     1      -9.991   4.541  70.553  1.00  0.00    -0.278 C  
HETATM   11  O   UNL     1      -8.781   5.529  68.642  1.00  0.00    -0.108 OA 
HETATM   12  O   UNL     1      -9.575   3.460  68.459  1.00  0.00    -0.164 OA 
HETATM   13  C   UNL     1      -9.451   4.480  69.135  1.00  0.00    -0.164 C  
ENDBRANCH   5  10
BRANCH   7  14
HETATM   14  C   UNL     1     -12.823   8.704  71.365  1.00  0.00    -0.264 C  
HETATM   15  O   UNL     1     -13.925   8.164  71.405  1.00  0.00    -0.335 OA 
BRANCH  14  16
HETATM   16  C   UNL     1     -12.738  10.167  71.080  1.00  0.00    -0.494 A  
HETATM   17  C   UNL     1     -13.336  11.053  71.987  1.00  0.00    -0.393 A  
HETATM   18  C   UNL     1     -13.169  12.433  71.842  1.00  0.00    -0.486 A  
HETATM   19  C   UNL     1     -12.405  12.930  70.788  1.00  0.00    -0.299 A  
HETATM   20  C   UNL     1     -11.858  12.064  69.845  1.00  0.00    -0.405 A  
HETATM   21 BR   UNL     1     -12.095  14.789  70.648  1.00  0.00    -0.406 Br 
HETATM   22  C   UNL     1     -12.052  10.686  69.972  1.00  0.00    -0.393 A  
ENDBRANCH  14  16
ENDBRANCH   7  14
TORSDOF 3
ENDMDL
MODEL       57
REMARK 921   NORMALIZED FREE ENERGY PREDICTED BY IDOCK:   -5.72 KCAL/MOL
REMARK 922        TOTAL FREE ENERGY PREDICTED BY IDOCK:   -7.34 KCAL/MOL
REMARK 923 INTER-LIGAND FREE ENERGY PREDICTED BY IDOCK:   -6.42 KCAL/MOL
REMARK 924 INTRA-LIGAND FREE ENERGY PREDICTED BY IDOCK:   -0.92 KCAL/MOL
REMARK 927      BINDING AFFINITY PREDICTED BY RF-SCORE:    0.00 PKD
ROOT
HETATM    1  N   UNL     1      -9.440  13.661  66.170  1.00  0.00    -0.466 NA 
HETATM    2  C   UNL     1     -10.253  12.698  66.820  1.00  0.00    -0.237 A  
HETATM    3  H1  UNL     1      -9.425  14.613  66.533  1.00  0.00     0.000 HD 
HETATM    4  H2  UNL     1      -9.688  13.690  65.181  1.00  0.00     0.000 HD 
HETATM    5  C   UNL     1     -10.274  11.385  66.317  1.00  0.00    -0.274 A  
HETATM    6  C   UNL     1     -10.896  10.388  67.096  1.00  0.00    -0.301 A  
HETATM    7  C   UNL     1     -11.169  13.045  67.840  1.00  0.00    -0.304 A  
HETATM    8  C   UNL     1     -11.589  10.705  68.262  1.00  0.00    -0.245 A  
HETATM    9  C   UNL     1     -11.770  12.039  68.605  1.00  0.00    -0.380 A  
ENDROOT
BRANCH   5  10
HETATM   10  C   UNL     1      -9.595  10.942  65.029  1.00  0.00    -0.299 C  
HETATM   11  O   UNL     1     -10.885  12.453  63.563  1.00  0.00    -0.437 OA 
HETATM   12  O   UNL     1      -9.853  10.702  62.661  1.00  0.00    -0.263 OA 
HETATM   13  C   UNL     1     -10.138  11.347  63.669  1.00  0.00    -0.377 C  
ENDBRANCH   5  10
BRANCH   7  14
HETATM   14  C   UNL     1     -11.551  14.447  68.175  1.00  0.00    -0.329 C  
HETATM   15  O   UNL     1     -11.689  15.258  67.263  1.00  0.00    -0.244 OA 
BRANCH  14  16
HETATM   16  C   UNL     1     -11.761  14.892  69.585  1.00  0.00    -0.356 A  
HETATM   17  C   UNL     1     -13.076  14.970  70.064  1.00  0.00     0.094 A  
HETATM   18  C   UNL     1     -13.322  15.248  71.411  1.00  0.00    -0.573 A  
HETATM   19  C   UNL     1     -12.253  15.449  72.282  1.00  0.00    -0.391 A  
HETATM   20  C   UNL     1     -10.944  15.436  71.806  1.00  0.00    -0.095 A  
HETATM   21 BR   UNL     1     -12.581  15.725  74.123  1.00  0.00    -0.730 Br 
HETATM   22  C   UNL     1     -10.700  15.190  70.452  1.00  0.00    -0.211 A  
ENDBRANCH  14  16
ENDBRANCH   7  14
TORSDOF 3
ENDMDL
MODEL       58
REMARK 921   NORMALIZED FREE ENERGY PREDICTED BY IDOCK:   -5.71 KCAL/MOL
REMARK 922        TOTAL FREE ENERGY PREDICTED BY IDOCK:   -7.33 KCAL/MOL
REMARK 923 INTER-LIGAND FREE ENERGY PREDICTED BY IDOCK:   -6.67 KCAL/MOL
REMARK 924 INTRA-LIGAND FREE ENERGY PREDICTED BY IDOCK:   -0.66 KCAL/MOL
REMARK 927      BINDING AFFINITY PREDICTED BY RF-SCORE:    0.00 PKD
ROOT
HETATM    1  N   UNL     1      -9.958  12.979  64.636  1.00  0.00    -0.586 NA 
HETATM    2  C   UNL     1     -10.510  12.874  65.938  1.00  0.00    -0.279 A  
HETATM    3  H1  UNL     1      -9.512  12.159  64.226  1.00  0.00     0.000 HD 
HETATM    4  H2  UNL     1      -9.299  13.757  64.618  1.00  0.00     0.000 HD 
HETATM    5  C   UNL     1     -11.124  14.006  66.502  1.00  0.00    -0.315 A  
HETATM    6  C   UNL     1     -11.866  13.834  67.688  1.00  0.00    -0.413 A  
HETATM    7  C   UNL     1     -10.314  11.736  66.753  1.00  0.00    -0.251 A  
HETATM    8  C   UNL     1     -11.885  12.615  68.363  1.00  0.00    -0.347 A  
HETATM    9  C   UNL     1     -11.066  11.582  67.924  1.00  0.00    -0.317 A  
ENDROOT
BRANCH   5  10
HETATM   10  C   UNL     1     -11.121  15.394  65.876  1.00  0.00    -0.247 C  
HETATM   11  O   UNL     1     -12.660  14.813  64.035  1.00  0.00    -0.822 OA 
HETATM   12  O   UNL     1     -11.384  16.623  63.839  1.00  0.00    -1.104 OA 
HETATM   13  C   UNL     1     -11.717  15.642  64.501  1.00  0.00    -0.220 C  
ENDBRANCH   5  10
BRANCH   7  14
HETATM   14  C   UNL     1      -9.340  10.649  66.448  1.00  0.00    -0.169 C  
HETATM   15  O   UNL     1      -8.416  10.882  65.672  1.00  0.00    -0.175 OA 
BRANCH  14  16
HETATM   16  C   UNL     1      -9.460   9.289  67.050  1.00  0.00    -0.205 A  
HETATM   17  C   UNL     1     -10.497   8.458  66.605  1.00  0.00    -0.221 A  
HETATM   18  C   UNL     1     -10.574   7.130  67.034  1.00  0.00    -0.413 A  
HETATM   19  C   UNL     1      -9.614   6.631  67.913  1.00  0.00    -0.119 A  
HETATM   20  C   UNL     1      -8.614   7.464  68.411  1.00  0.00    -0.124 A  
HETATM   21 BR   UNL     1      -9.657   4.810  68.416  1.00  0.00    -0.209 Br 
HETATM   22  C   UNL     1      -8.558   8.800  68.007  1.00  0.00    -0.134 A  
ENDBRANCH  14  16
ENDBRANCH   7  14
TORSDOF 3
ENDMDL
MODEL       59
REMARK 921   NORMALIZED FREE ENERGY PREDICTED BY IDOCK:   -5.69 KCAL/MOL
REMARK 922        TOTAL FREE ENERGY PREDICTED BY IDOCK:   -7.31 KCAL/MOL
REMARK 923 INTER-LIGAND FREE ENERGY PREDICTED BY IDOCK:   -6.74 KCAL/MOL
REMARK 924 INTRA-LIGAND FREE ENERGY PREDICTED BY IDOCK:   -0.57 KCAL/MOL
REMARK 927      BINDING AFFINITY PREDICTED BY RF-SCORE:    0.00 PKD
ROOT
HETATM    1  N   UNL     1     -12.143  10.766  68.407  1.00  0.00    -0.827 NA 
HETATM    2  C   UNL     1     -10.986  10.826  67.590  1.00  0.00    -0.306 A  
HETATM    3  H1  UNL     1     -12.286   9.945  68.993  1.00  0.00     0.000 HD 
HETATM    4  H2  UNL     1     -12.968  10.902  67.823  1.00  0.00     0.000 HD 
HETATM    5  C   UNL     1     -10.790  11.959  66.781  1.00  0.00    -0.307 A  
HETATM    6  C   UNL     1      -9.538  12.116  66.153  1.00  0.00    -0.250 A  
HETATM    7  C   UNL     1     -10.117   9.722  67.427  1.00  0.00    -0.259 A  
HETATM    8  C   UNL     1      -8.566  11.119  66.213  1.00  0.00    -0.180 A  
HETATM    9  C   UNL     1      -8.876   9.901  66.806  1.00  0.00    -0.147 A  
ENDROOT
BRANCH   5  10
HETATM   10  C   UNL     1     -11.805  13.080  66.603  1.00  0.00    -0.455 C  
HETATM   11  O   UNL     1     -12.613  12.305  64.403  1.00  0.00    -0.474 OA 
HETATM   12  O   UNL     1     -12.994  14.411  65.008  1.00  0.00    -0.643 OA 
HETATM   13  C   UNL     1     -12.496  13.318  65.271  1.00  0.00    -0.489 C  
ENDBRANCH   5  10
BRANCH   7  14
HETATM   14  C   UNL     1     -10.432   8.339  67.886  1.00  0.00    -0.198 C  
HETATM   15  O   UNL     1     -10.804   7.510  67.060  1.00  0.00    -0.348 OA 
BRANCH  14  16
HETATM   16  C   UNL     1     -10.314   7.938  69.320  1.00  0.00    -0.222 A  
HETATM   17  C   UNL     1      -9.782   8.867  70.224  1.00  0.00    -0.212 A  
HETATM   18  C   UNL     1      -9.776   8.595  71.596  1.00  0.00    -0.348 A  
HETATM   19  C   UNL     1     -10.300   7.393  72.064  1.00  0.00    -0.193 A  
HETATM   20  C   UNL     1     -10.775   6.435  71.171  1.00  0.00    -0.293 A  
HETATM   21 BR   UNL     1     -10.385   7.066  73.924  1.00  0.00    -0.291 Br 
HETATM   22  C   UNL     1     -10.751   6.694  69.797  1.00  0.00    -0.304 A  
ENDBRANCH  14  16
ENDBRANCH   7  14
TORSDOF 3
ENDMDL
MODEL       60
REMARK 921   NORMALIZED FREE ENERGY PREDICTED BY IDOCK:   -5.67 KCAL/MOL
REMARK 922        TOTAL FREE ENERGY PREDICTED BY IDOCK:   -7.29 KCAL/MOL
REMARK 923 INTER-LIGAND FREE ENERGY PREDICTED BY IDOCK:   -6.63 KCAL/MOL
REMARK 924 INTRA-LIGAND FREE ENERGY PREDICTED BY IDOCK:   -0.66 KCAL/MOL
REMARK 927      BINDING AFFINITY PREDICTED BY RF-SCORE:    0.00 PKD
ROOT
HETATM    1  N   UNL     1     -12.385  15.804  68.609  1.00  0.00    -0.396 NA 
HETATM    2  C   UNL     1     -12.134  14.560  69.240  1.00  0.00    -0.290 A  
HETATM    3  H1  UNL     1     -11.984  15.974  67.686  1.00  0.00     0.000 HD 
HETATM    4  H2  UNL     1     -12.100  16.556  69.236  1.00  0.00     0.000 HD 
HETATM    5  C   UNL     1     -12.686  14.326  70.512  1.00  0.00    -0.391 A  
HETATM    6  C   UNL     1     -12.627  13.016  71.029  1.00  0.00    -0.386 A  
HETATM    7  C   UNL     1     -11.215  13.619  68.720  1.00  0.00    -0.314 A  
HETATM    8  C   UNL     1     -11.927  12.007  70.370  1.00  0.00    -0.379 A  
HETATM    9  C   UNL     1     -11.177  12.322  69.244  1.00  0.00    -0.275 A  
ENDROOT
BRANCH   5  10
HETATM   10  C   UNL     1     -13.424  15.370  71.338  1.00  0.00    -0.607 C  
HETATM   11  O   UNL     1     -11.672  15.569  73.066  1.00  0.00    -0.453 OA 
HETATM   12  O   UNL     1     -13.730  16.271  73.534  1.00  0.00    -0.595 OA 
HETATM   13  C   UNL     1     -12.956  15.750  72.733  1.00  0.00    -0.490 C  
ENDBRANCH   5  10
BRANCH   7  14
HETATM   14  C   UNL     1     -10.255  13.913  67.617  1.00  0.00    -0.242 C  
HETATM   15  O   UNL     1     -10.328  13.262  66.578  1.00  0.00    -0.275 OA 
BRANCH  14  16
HETATM   16  C   UNL     1      -9.207  14.969  67.744  1.00  0.00    -0.181 A  
HETATM   17  C   UNL     1      -8.553  15.107  68.976  1.00  0.00    -0.219 A  
HETATM   18  C   UNL     1      -7.473  15.984  69.110  1.00  0.00    -0.216 A  
HETATM   19  C   UNL     1      -7.047  16.728  68.011  1.00  0.00    -0.152 A  
HETATM   20  C   UNL     1      -7.727  16.647  66.798  1.00  0.00    -0.292 A  
HETATM   21 BR   UNL     1      -5.525  17.838  68.162  1.00  0.00    -0.150 Br 
HETATM   22  C   UNL     1      -8.828  15.793  66.675  1.00  0.00    -0.324 A  
ENDBRANCH  14  16
ENDBRANCH   7  14
TORSDOF 3
ENDMDL
MODEL       61
REMARK 921   NORMALIZED FREE ENERGY PREDICTED BY IDOCK:   -5.67 KCAL/MOL
REMARK 922        TOTAL FREE ENERGY PREDICTED BY IDOCK:   -7.28 KCAL/MOL
REMARK 923 INTER-LIGAND FREE ENERGY PREDICTED BY IDOCK:   -6.83 KCAL/MOL
REMARK 924 INTRA-LIGAND FREE ENERGY PREDICTED BY IDOCK:   -0.46 KCAL/MOL
REMARK 927      BINDING AFFINITY PREDICTED BY RF-SCORE:    0.00 PKD
ROOT
HETATM    1  N   UNL     1      -9.848   9.699  71.064  1.00  0.00    -0.294 NA 
HETATM    2  C   UNL     1     -11.128   9.106  71.209  1.00  0.00    -0.335 A  
HETATM    3  H1  UNL     1      -9.792  10.685  70.811  1.00  0.00     0.000 HD 
HETATM    4  H2  UNL     1      -9.306   9.155  70.393  1.00  0.00     0.000 HD 
HETATM    5  C   UNL     1     -11.205   7.746  71.557  1.00  0.00    -0.278 A  
HETATM    6  C   UNL     1     -12.463   7.226  71.922  1.00  0.00    -0.337 A  
HETATM    7  C   UNL     1     -12.319   9.779  70.850  1.00  0.00    -0.379 A  
HETATM    8  C   UNL     1     -13.623   7.990  71.814  1.00  0.00    -0.395 A  
HETATM    9  C   UNL     1     -13.558   9.248  71.228  1.00  0.00    -0.287 A  
ENDROOT
BRANCH   5  10
HETATM   10  C   UNL     1     -10.008   6.810  71.654  1.00  0.00    -0.183 C  
HETATM   11  O   UNL     1      -9.985   6.732  74.121  1.00  0.00    -0.291 OA 
HETATM   12  O   UNL     1      -8.153   6.138  73.009  1.00  0.00    -0.111 OA 
HETATM   13  C   UNL     1      -9.310   6.555  72.979  1.00  0.00    -0.135 C  
ENDBRANCH   5  10
BRANCH   7  14
HETATM   14  C   UNL     1     -12.355  11.055  70.080  1.00  0.00    -0.305 C  
HETATM   15  O   UNL     1     -12.275  11.011  68.854  1.00  0.00    -0.519 OA 
BRANCH  14  16
HETATM   16  C   UNL     1     -12.478  12.381  70.755  1.00  0.00    -0.356 A  
HETATM   17  C   UNL     1     -13.202  12.449  71.953  1.00  0.00    -0.486 A  
HETATM   18  C   UNL     1     -13.233  13.633  72.695  1.00  0.00    -0.533 A  
HETATM   19  C   UNL     1     -12.541  14.753  72.239  1.00  0.00    -0.335 A  
HETATM   20  C   UNL     1     -11.869  14.717  71.019  1.00  0.00    -0.383 A  
HETATM   21 BR   UNL     1     -12.498  16.322  73.290  1.00  0.00    -0.557 Br 
HETATM   22  C   UNL     1     -11.866  13.543  70.262  1.00  0.00    -0.327 A  
ENDBRANCH  14  16
ENDBRANCH   7  14
TORSDOF 3
ENDMDL
MODEL       62
REMARK 921   NORMALIZED FREE ENERGY PREDICTED BY IDOCK:   -5.67 KCAL/MOL
REMARK 922        TOTAL FREE ENERGY PREDICTED BY IDOCK:   -7.28 KCAL/MOL
REMARK 923 INTER-LIGAND FREE ENERGY PREDICTED BY IDOCK:   -6.49 KCAL/MOL
REMARK 924 INTRA-LIGAND FREE ENERGY PREDICTED BY IDOCK:   -0.79 KCAL/MOL
REMARK 927      BINDING AFFINITY PREDICTED BY RF-SCORE:    0.00 PKD
ROOT
HETATM    1  N   UNL     1     -11.237  11.733  65.064  1.00  0.00    -0.288 NA 
HETATM    2  C   UNL     1     -11.255  12.447  66.289  1.00  0.00    -0.317 A  
HETATM    3  H1  UNL     1     -10.933  10.760  65.070  1.00  0.00     0.000 HD 
HETATM    4  H2  UNL     1     -10.675  12.251  64.389  1.00  0.00     0.000 HD 
HETATM    5  C   UNL     1     -11.673  13.790  66.281  1.00  0.00    -0.400 A  
HETATM    6  C   UNL     1     -11.907  14.418  67.520  1.00  0.00    -0.418 A  
HETATM    7  C   UNL     1     -10.707  11.919  67.481  1.00  0.00    -0.263 A  
HETATM    8  C   UNL     1     -11.607  13.784  68.724  1.00  0.00    -0.363 A  
HETATM    9  C   UNL     1     -10.957  12.555  68.703  1.00  0.00    -0.291 A  
ENDROOT
BRANCH   5  10
HETATM   10  C   UNL     1     -11.979  14.591  65.023  1.00  0.00    -0.399 C  
HETATM   11  O   UNL     1      -9.846  15.835  65.026  1.00  0.00    -0.336 OA 
HETATM   12  O   UNL     1     -11.558  16.638  63.855  1.00  0.00    -1.204 OA 
HETATM   13  C   UNL     1     -11.117  15.772  64.609  1.00  0.00    -0.361 C  
ENDBRANCH   5  10
BRANCH   7  14
HETATM   14  C   UNL     1      -9.861  10.692  67.538  1.00  0.00    -0.168 C  
HETATM   15  O   UNL     1      -9.254  10.344  66.528  1.00  0.00    -0.156 OA 
BRANCH  14  16
HETATM   16  C   UNL     1      -9.738   9.875  68.781  1.00  0.00    -0.164 A  
HETATM   17  C   UNL     1      -8.526   9.918  69.484  1.00  0.00    -0.184 A  
HETATM   18  C   UNL     1      -8.404   9.282  70.722  1.00  0.00    -0.230 A  
HETATM   19  C   UNL     1      -9.494   8.600  71.260  1.00  0.00    -0.224 A  
HETATM   20  C   UNL     1     -10.684   8.497  70.544  1.00  0.00    -0.246 A  
HETATM   21 BR   UNL     1      -9.362   7.826  72.979  1.00  0.00    -0.331 Br 
HETATM   22  C   UNL     1     -10.795   9.106  69.290  1.00  0.00    -0.150 A  
ENDBRANCH  14  16
ENDBRANCH   7  14
TORSDOF 3
ENDMDL
MODEL       63
REMARK 921   NORMALIZED FREE ENERGY PREDICTED BY IDOCK:   -5.65 KCAL/MOL
REMARK 922        TOTAL FREE ENERGY PREDICTED BY IDOCK:   -7.25 KCAL/MOL
REMARK 923 INTER-LIGAND FREE ENERGY PREDICTED BY IDOCK:   -6.74 KCAL/MOL
REMARK 924 INTRA-LIGAND FREE ENERGY PREDICTED BY IDOCK:   -0.52 KCAL/MOL
REMARK 927      BINDING AFFINITY PREDICTED BY RF-SCORE:    0.00 PKD
ROOT
HETATM    1  N   UNL     1     -10.385   9.250  71.367  1.00  0.00    -0.335 NA 
HETATM    2  C   UNL     1     -11.734   8.816  71.383  1.00  0.00    -0.305 A  
HETATM    3  H1  UNL     1     -10.189  10.242  71.501  1.00  0.00     0.000 HD 
HETATM    4  H2  UNL     1      -9.949   8.942  70.499  1.00  0.00     0.000 HD 
HETATM    5  C   UNL     1     -12.004   7.448  71.198  1.00  0.00    -0.351 A  
HETATM    6  C   UNL     1     -13.315   6.992  71.444  1.00  0.00    -0.335 A  
HETATM    7  C   UNL     1     -12.821   9.720  71.405  1.00  0.00    -0.489 A  
HETATM    8  C   UNL     1     -14.351   7.880  71.728  1.00  0.00    -0.589 A  
HETATM    9  C   UNL     1     -14.114   9.247  71.656  1.00  0.00    -0.230 A  
ENDROOT
BRANCH   5  10
HETATM   10  C   UNL     1     -10.958   6.402  70.837  1.00  0.00    -0.335 C  
HETATM   11  O   UNL     1     -11.025   6.848  68.410  1.00  0.00    -0.197 OA 
HETATM   12  O   UNL     1     -10.182   4.919  69.126  1.00  0.00    -0.195 OA 
HETATM   13  C   UNL     1     -10.713   5.996  69.394  1.00  0.00    -0.334 C  
ENDBRANCH   5  10
BRANCH   7  14
HETATM   14  C   UNL     1     -12.688  11.188  71.177  1.00  0.00    -0.408 C  
HETATM   15  O   UNL     1     -13.033  11.960  72.068  1.00  0.00    -0.394 OA 
BRANCH  14  16
HETATM   16  C   UNL     1     -12.155  11.743  69.897  1.00  0.00    -0.359 A  
HETATM   17  C   UNL     1     -11.897  13.119  69.830  1.00  0.00    -0.386 A  
HETATM   18  C   UNL     1     -11.271  13.667  68.706  1.00  0.00    -0.314 A  
HETATM   19  C   UNL     1     -10.904  12.839  67.647  1.00  0.00    -0.228 A  
HETATM   20  C   UNL     1     -11.211  11.480  67.675  1.00  0.00    -0.343 A  
HETATM   21 BR   UNL     1      -9.969  13.561  66.172  1.00  0.00    -0.306 Br 
HETATM   22  C   UNL     1     -11.866  10.939  68.785  1.00  0.00    -0.305 A  
ENDBRANCH  14  16
ENDBRANCH   7  14
TORSDOF 3
ENDMDL
MODEL       64
REMARK 921   NORMALIZED FREE ENERGY PREDICTED BY IDOCK:   -5.62 KCAL/MOL
REMARK 922        TOTAL FREE ENERGY PREDICTED BY IDOCK:   -7.22 KCAL/MOL
REMARK 923 INTER-LIGAND FREE ENERGY PREDICTED BY IDOCK:   -6.41 KCAL/MOL
REMARK 924 INTRA-LIGAND FREE ENERGY PREDICTED BY IDOCK:   -0.81 KCAL/MOL
REMARK 927      BINDING AFFINITY PREDICTED BY RF-SCORE:    0.00 PKD
ROOT
HETATM    1  N   UNL     1     -11.553  12.944  69.699  1.00  0.00    -0.431 NA 
HETATM    2  C   UNL     1     -11.709  13.124  68.301  1.00  0.00    -0.349 A  
HETATM    3  H1  UNL     1     -11.597  13.763  70.305  1.00  0.00     0.000 HD 
HETATM    4  H2  UNL     1     -10.678  12.451  69.873  1.00  0.00     0.000 HD 
HETATM    5  C   UNL     1     -11.648  11.994  67.465  1.00  0.00    -0.401 A  
HETATM    6  C   UNL     1     -12.029  12.147  66.117  1.00  0.00    -0.225 A  
HETATM    7  C   UNL     1     -11.749  14.404  67.702  1.00  0.00    -0.421 A  
HETATM    8  C   UNL     1     -12.328  13.399  65.585  1.00  0.00    -0.521 A  
HETATM    9  C   UNL     1     -12.136  14.534  66.364  1.00  0.00    -0.320 A  
ENDROOT
BRANCH   5  10
HETATM   10  C   UNL     1     -11.283  10.592  67.933  1.00  0.00    -0.376 C  
HETATM   11  O   UNL     1      -9.299  10.379  66.479  1.00  0.00    -0.158 OA 
HETATM   12  O   UNL     1     -10.220   8.538  67.319  1.00  0.00    -0.226 OA 
HETATM   13  C   UNL     1     -10.240   9.762  67.204  1.00  0.00    -0.228 C  
ENDBRANCH   5  10
BRANCH   7  14
HETATM   14  C   UNL     1     -11.403  15.668  68.414  1.00  0.00    -0.364 C  
HETATM   15  O   UNL     1     -12.010  15.954  69.443  1.00  0.00    -0.354 OA 
BRANCH  14  16
HETATM   16  C   UNL     1     -10.348  16.595  67.908  1.00  0.00    -0.310 A  
HETATM   17  C   UNL     1      -9.132  16.044  67.482  1.00  0.00    -0.203 A  
HETATM   18  C   UNL     1      -8.165  16.849  66.874  1.00  0.00    -0.245 A  
HETATM   19  C   UNL     1      -8.411  18.209  66.693  1.00  0.00    -0.264 A  
HETATM   20  C   UNL     1      -9.589  18.780  67.168  1.00  0.00    -0.328 A  
HETATM   21 BR   UNL     1      -7.148  19.278  65.781  1.00  0.00    -0.283 Br 
HETATM   22  C   UNL     1     -10.542  17.980  67.805  1.00  0.00    -0.409 A  
ENDBRANCH  14  16
ENDBRANCH   7  14
TORSDOF 3
ENDMDL
MODEL       65
REMARK 921   NORMALIZED FREE ENERGY PREDICTED BY IDOCK:   -5.62 KCAL/MOL
REMARK 922        TOTAL FREE ENERGY PREDICTED BY IDOCK:   -7.22 KCAL/MOL
REMARK 923 INTER-LIGAND FREE ENERGY PREDICTED BY IDOCK:   -6.43 KCAL/MOL
REMARK 924 INTRA-LIGAND FREE ENERGY PREDICTED BY IDOCK:   -0.79 KCAL/MOL
REMARK 927      BINDING AFFINITY PREDICTED BY RF-SCORE:    0.00 PKD
ROOT
HETATM    1  N   UNL     1     -10.727  12.932  68.719  1.00  0.00    -0.323 NA 
HETATM    2  C   UNL     1     -10.580  14.107  67.939  1.00  0.00    -0.243 A  
HETATM    3  H1  UNL     1     -10.943  12.055  68.245  1.00  0.00     0.000 HD 
HETATM    4  H2  UNL     1     -11.429  13.099  69.439  1.00  0.00     0.000 HD 
HETATM    5  C   UNL     1     -10.283  15.316  68.593  1.00  0.00    -0.223 A  
HETATM    6  C   UNL     1      -9.913  16.423  67.802  1.00  0.00    -0.248 A  
HETATM    7  C   UNL     1     -10.889  14.144  66.560  1.00  0.00    -0.298 A  
HETATM    8  C   UNL     1      -9.969  16.371  66.411  1.00  0.00    -0.318 A  
HETATM    9  C   UNL     1     -10.507  15.250  65.792  1.00  0.00    -0.365 A  
ENDROOT
BRANCH   5  10
HETATM   10  C   UNL     1     -10.245  15.495  70.104  1.00  0.00    -0.230 C  
HETATM   11  O   UNL     1     -12.597  14.836  70.467  1.00  0.00    -0.334 OA 
HETATM   12  O   UNL     1     -11.547  15.992  72.050  1.00  0.00    -0.445 OA 
HETATM   13  C   UNL     1     -11.517  15.476  70.935  1.00  0.00    -0.375 C  
ENDBRANCH   5  10
BRANCH   7  14
HETATM   14  C   UNL     1     -11.609  13.056  65.838  1.00  0.00    -0.363 C  
HETATM   15  O   UNL     1     -12.838  13.054  65.841  1.00  0.00    -0.349 OA 
BRANCH  14  16
HETATM   16  C   UNL     1     -10.881  11.969  65.119  1.00  0.00    -0.347 A  
HETATM   17  C   UNL     1     -10.794  12.042  63.722  1.00  0.00    -0.481 A  
HETATM   18  C   UNL     1     -10.010  11.127  63.014  1.00  0.00    -0.347 A  
HETATM   19  C   UNL     1      -9.312  10.137  63.701  1.00  0.00    -0.290 A  
HETATM   20  C   UNL     1      -9.438  10.015  65.083  1.00  0.00    -0.331 A  
HETATM   21 BR   UNL     1      -8.172   8.963  62.755  1.00  0.00    -0.198 Br 
HETATM   22  C   UNL     1     -10.249  10.910  65.787  1.00  0.00    -0.318 A  
ENDBRANCH  14  16
ENDBRANCH   7  14
TORSDOF 3
ENDMDL
MODEL       66
REMARK 921   NORMALIZED FREE ENERGY PREDICTED BY IDOCK:   -5.61 KCAL/MOL
REMARK 922        TOTAL FREE ENERGY PREDICTED BY IDOCK:   -7.21 KCAL/MOL
REMARK 923 INTER-LIGAND FREE ENERGY PREDICTED BY IDOCK:   -6.51 KCAL/MOL
REMARK 924 INTRA-LIGAND FREE ENERGY PREDICTED BY IDOCK:   -0.70 KCAL/MOL
REMARK 927      BINDING AFFINITY PREDICTED BY RF-SCORE:    0.00 PKD
ROOT
HETATM    1  N   UNL     1     -12.010  15.524  68.699  1.00  0.00    -0.556 NA 
HETATM    2  C   UNL     1     -10.795  15.305  68.001  1.00  0.00    -0.288 A  
HETATM    3  H1  UNL     1     -12.555  14.715  68.997  1.00  0.00     0.000 HD 
HETATM    4  H2  UNL     1     -12.605  16.136  68.142  1.00  0.00     0.000 HD 
HETATM    5  C   UNL     1     -10.044  16.421  67.590  1.00  0.00    -0.263 A  
HETATM    6  C   UNL     1      -8.739  16.199  67.106  1.00  0.00    -0.216 A  
HETATM    7  C   UNL     1     -10.399  14.024  67.553  1.00  0.00    -0.245 A  
HETATM    8  C   UNL     1      -8.248  14.910  66.909  1.00  0.00    -0.178 A  
HETATM    9  C   UNL     1      -9.096  13.824  67.082  1.00  0.00    -0.243 A  
ENDROOT
BRANCH   5  10
HETATM   10  C   UNL     1     -10.507  17.867  67.712  1.00  0.00    -0.409 C  
HETATM   11  O   UNL     1     -10.589  18.282  65.279  1.00  0.00    -0.562 OA 
HETATM   12  O   UNL     1     -10.501  20.019  66.665  1.00  0.00    -0.449 OA 
HETATM   13  C   UNL     1     -10.512  18.799  66.512  1.00  0.00    -0.427 C  
ENDBRANCH   5  10
BRANCH   7  14
HETATM   14  C   UNL     1     -11.293  12.830  67.549  1.00  0.00    -0.312 C  
HETATM   15  O   UNL     1     -12.298  12.844  66.844  1.00  0.00    -0.384 OA 
BRANCH  14  16
HETATM   16  C   UNL     1     -11.003  11.626  68.383  1.00  0.00    -0.265 A  
HETATM   17  C   UNL     1     -11.536  11.575  69.679  1.00  0.00    -0.373 A  
HETATM   18  C   UNL     1     -11.411  10.416  70.450  1.00  0.00    -0.417 A  
HETATM   19  C   UNL     1     -10.751   9.305  69.927  1.00  0.00    -0.234 A  
HETATM   20  C   UNL     1     -10.164   9.364  68.665  1.00  0.00    -0.222 A  
HETATM   21 BR   UNL     1     -10.669   7.705  70.928  1.00  0.00    -0.255 Br 
HETATM   22  C   UNL     1     -10.261  10.535  67.908  1.00  0.00    -0.213 A  
ENDBRANCH  14  16
ENDBRANCH   7  14
TORSDOF 3
ENDMDL
MODEL       67
REMARK 921   NORMALIZED FREE ENERGY PREDICTED BY IDOCK:   -5.60 KCAL/MOL
REMARK 922        TOTAL FREE ENERGY PREDICTED BY IDOCK:   -7.20 KCAL/MOL
REMARK 923 INTER-LIGAND FREE ENERGY PREDICTED BY IDOCK:   -6.59 KCAL/MOL
REMARK 924 INTRA-LIGAND FREE ENERGY PREDICTED BY IDOCK:   -0.61 KCAL/MOL
REMARK 927      BINDING AFFINITY PREDICTED BY RF-SCORE:    0.00 PKD
ROOT
HETATM    1  N   UNL     1      -9.601  12.717  68.079  1.00  0.00    -0.211 NA 
HETATM    2  C   UNL     1     -10.582  12.899  67.071  1.00  0.00    -0.252 A  
HETATM    3  H1  UNL     1      -9.583  13.366  68.865  1.00  0.00     0.000 HD 
HETATM    4  H2  UNL     1      -8.679  12.700  67.644  1.00  0.00     0.000 HD 
HETATM    5  C   UNL     1     -10.606  12.004  65.986  1.00  0.00    -0.303 A  
HETATM    6  C   UNL     1     -11.715  12.049  65.116  1.00  0.00    -0.315 A  
HETATM    7  C   UNL     1     -11.418  14.038  67.025  1.00  0.00    -0.370 A  
HETATM    8  C   UNL     1     -12.693  13.033  65.238  1.00  0.00    -0.432 A  
HETATM    9  C   UNL     1     -12.517  14.059  66.158  1.00  0.00    -0.467 A  
ENDROOT
BRANCH   5  10
HETATM   10  C   UNL     1      -9.562  10.927  65.731  1.00  0.00    -0.259 C  
HETATM   11  O   UNL     1     -10.751   9.162  66.982  1.00  0.00    -0.234 OA 
HETATM   12  O   UNL     1      -8.579   8.914  66.575  1.00  0.00    -0.119 OA 
HETATM   13  C   UNL     1      -9.593   9.604  66.478  1.00  0.00    -0.196 C  
ENDBRANCH   5  10
BRANCH   7  14
HETATM   14  C   UNL     1     -11.214  15.256  67.861  1.00  0.00    -0.331 C  
HETATM   15  O   UNL     1     -10.712  16.252  67.346  1.00  0.00    -0.319 OA 
BRANCH  14  16
HETATM   16  C   UNL     1     -11.595  15.295  69.304  1.00  0.00    -0.350 A  
HETATM   17  C   UNL     1     -12.327  14.218  69.824  1.00  0.00    -0.342 A  
HETATM   18  C   UNL     1     -12.591  14.139  71.194  1.00  0.00    -0.439 A  
HETATM   19  C   UNL     1     -12.124  15.137  72.047  1.00  0.00    -0.379 A  
HETATM   20  C   UNL     1     -11.450  16.243  71.535  1.00  0.00    -0.344 A  
HETATM   21 BR   UNL     1     -12.393  14.980  73.911  1.00  0.00    -0.590 Br 
HETATM   22  C   UNL     1     -11.215  16.338  70.161  1.00  0.00    -0.340 A  
ENDBRANCH  14  16
ENDBRANCH   7  14
TORSDOF 3
ENDMDL
MODEL       68
REMARK 921   NORMALIZED FREE ENERGY PREDICTED BY IDOCK:   -5.58 KCAL/MOL
REMARK 922        TOTAL FREE ENERGY PREDICTED BY IDOCK:   -7.17 KCAL/MOL
REMARK 923 INTER-LIGAND FREE ENERGY PREDICTED BY IDOCK:   -6.61 KCAL/MOL
REMARK 924 INTRA-LIGAND FREE ENERGY PREDICTED BY IDOCK:   -0.56 KCAL/MOL
REMARK 927      BINDING AFFINITY PREDICTED BY RF-SCORE:    0.00 PKD
ROOT
HETATM    1  N   UNL     1     -12.419  12.394  70.751  1.00  0.00    -0.324 NA 
HETATM    2  C   UNL     1     -12.013  13.388  69.825  1.00  0.00    -0.330 A  
HETATM    3  H1  UNL     1     -12.255  11.415  70.520  1.00  0.00     0.000 HD 
HETATM    4  H2  UNL     1     -13.408  12.523  70.961  1.00  0.00     0.000 HD 
HETATM    5  C   UNL     1     -12.239  14.739  70.144  1.00  0.00    -0.391 A  
HETATM    6  C   UNL     1     -11.632  15.721  69.335  1.00  0.00    -0.371 A  
HETATM    7  C   UNL     1     -11.550  13.070  68.527  1.00  0.00    -0.363 A  
HETATM    8  C   UNL     1     -10.940  15.379  68.175  1.00  0.00    -0.297 A  
HETATM    9  C   UNL     1     -10.944  14.059  67.744  1.00  0.00    -0.271 A  
ENDROOT
BRANCH   5  10
HETATM   10  C   UNL     1     -13.024  15.221  71.357  1.00  0.00    -0.503 C  
HETATM   11  O   UNL     1     -11.102  15.160  72.905  1.00  0.00    -0.037 OA 
HETATM   12  O   UNL     1     -13.161  15.171  73.746  1.00  0.00    -0.471 OA 
HETATM   13  C   UNL     1     -12.432  15.162  72.755  1.00  0.00    -0.389 C  
ENDBRANCH   5  10
BRANCH   7  14
HETATM   14  C   UNL     1     -11.657  11.715  67.913  1.00  0.00    -0.298 C  
HETATM   15  O   UNL     1     -12.358  10.869  68.463  1.00  0.00    -0.490 OA 
BRANCH  14  16
HETATM   16  C   UNL     1     -10.933  11.358  66.658  1.00  0.00    -0.341 A  
HETATM   17  C   UNL     1      -9.787  10.558  66.760  1.00  0.00    -0.237 A  
HETATM   18  C   UNL     1      -9.151  10.082  65.610  1.00  0.00    -0.222 A  
HETATM   19  C   UNL     1      -9.659  10.409  64.354  1.00  0.00    -0.316 A  
HETATM   20  C   UNL     1     -10.760  11.255  64.237  1.00  0.00    -0.416 A  
HETATM   21 BR   UNL     1      -8.861   9.686  62.801  1.00  0.00    -0.261 Br 
HETATM   22  C   UNL     1     -11.375  11.756  65.388  1.00  0.00    -0.284 A  
ENDBRANCH  14  16
ENDBRANCH   7  14
TORSDOF 3
ENDMDL
MODEL       69
REMARK 921   NORMALIZED FREE ENERGY PREDICTED BY IDOCK:   -5.56 KCAL/MOL
REMARK 922        TOTAL FREE ENERGY PREDICTED BY IDOCK:   -7.16 KCAL/MOL
REMARK 923 INTER-LIGAND FREE ENERGY PREDICTED BY IDOCK:   -6.48 KCAL/MOL
REMARK 924 INTRA-LIGAND FREE ENERGY PREDICTED BY IDOCK:   -0.68 KCAL/MOL
REMARK 927      BINDING AFFINITY PREDICTED BY RF-SCORE:    0.00 PKD
ROOT
HETATM    1  N   UNL     1      -9.451  13.765  67.384  1.00  0.00    -0.216 NA 
HETATM    2  C   UNL     1     -10.478  13.796  66.407  1.00  0.00    -0.284 A  
HETATM    3  H1  UNL     1      -9.229  12.875  67.831  1.00  0.00     0.000 HD 
HETATM    4  H2  UNL     1      -9.660  14.454  68.106  1.00  0.00     0.000 HD 
HETATM    5  C   UNL     1     -10.785  15.024  65.792  1.00  0.00    -0.351 A  
HETATM    6  C   UNL     1     -11.637  15.006  64.669  1.00  0.00    -0.386 A  
HETATM    7  C   UNL     1     -11.318  12.687  66.155  1.00  0.00    -0.375 A  
HETATM    8  C   UNL     1     -12.270  13.836  64.256  1.00  0.00    -0.444 A  
HETATM    9  C   UNL     1     -12.152  12.688  65.031  1.00  0.00    -0.497 A  
ENDROOT
BRANCH   5  10
HETATM   10  C   UNL     1     -10.190  16.365  66.196  1.00  0.00    -0.363 C  
HETATM   11  O   UNL     1     -11.135  16.351  68.477  1.00  0.00    -0.341 OA 
HETATM   12  O   UNL     1     -10.460  18.282  67.604  1.00  0.00    -0.380 OA 
HETATM   13  C   UNL     1     -10.624  17.070  67.470  1.00  0.00    -0.310 C  
ENDBRANCH   5  10
BRANCH   7  14
HETATM   14  C   UNL     1     -11.379  11.475  67.021  1.00  0.00    -0.269 C  
HETATM   15  O   UNL     1     -12.102  11.492  68.015  1.00  0.00    -0.617 OA 
BRANCH  14  16
HETATM   16  C   UNL     1     -10.584  10.248  66.719  1.00  0.00    -0.252 A  
HETATM   17  C   UNL     1      -9.922  10.177  65.486  1.00  0.00    -0.363 A  
HETATM   18  C   UNL     1      -9.056   9.115  65.208  1.00  0.00    -0.252 A  
HETATM   19  C   UNL     1      -8.851   8.122  66.164  1.00  0.00    -0.162 A  
HETATM   20  C   UNL     1      -9.551   8.148  67.369  1.00  0.00    -0.204 A  
HETATM   21 BR   UNL     1      -7.605   6.741  65.832  1.00  0.00    -0.090 Br 
HETATM   22  C   UNL     1     -10.442   9.193  67.632  1.00  0.00    -0.323 A  
ENDBRANCH  14  16
ENDBRANCH   7  14
TORSDOF 3
ENDMDL
MODEL       70
REMARK 921   NORMALIZED FREE ENERGY PREDICTED BY IDOCK:   -5.56 KCAL/MOL
REMARK 922        TOTAL FREE ENERGY PREDICTED BY IDOCK:   -7.15 KCAL/MOL
REMARK 923 INTER-LIGAND FREE ENERGY PREDICTED BY IDOCK:   -6.49 KCAL/MOL
REMARK 924 INTRA-LIGAND FREE ENERGY PREDICTED BY IDOCK:   -0.66 KCAL/MOL
REMARK 927      BINDING AFFINITY PREDICTED BY RF-SCORE:    0.00 PKD
ROOT
HETATM    1  N   UNL     1     -12.154  12.530  70.519  1.00  0.00    -0.495 NA 
HETATM    2  C   UNL     1     -11.873  13.553  69.580  1.00  0.00    -0.334 A  
HETATM    3  H1  UNL     1     -11.811  11.588  70.333  1.00  0.00     0.000 HD 
HETATM    4  H2  UNL     1     -13.161  12.490  70.673  1.00  0.00     0.000 HD 
HETATM    5  C   UNL     1     -12.346  14.853  69.837  1.00  0.00    -0.322 A  
HETATM    6  C   UNL     1     -11.872  15.903  69.025  1.00  0.00    -0.328 A  
HETATM    7  C   UNL     1     -11.289  13.285  68.320  1.00  0.00    -0.335 A  
HETATM    8  C   UNL     1     -11.066  15.655  67.915  1.00  0.00    -0.324 A  
HETATM    9  C   UNL     1     -10.819  14.343  67.533  1.00  0.00    -0.285 A  
ENDROOT
BRANCH   5  10
HETATM   10  C   UNL     1     -13.270  15.223  70.989  1.00  0.00    -0.546 C  
HETATM   11  O   UNL     1     -11.644  16.703  72.112  1.00  0.00    -0.386 OA 
HETATM   12  O   UNL     1     -13.364  15.912  73.279  1.00  0.00    -0.561 OA 
HETATM   13  C   UNL     1     -12.750  15.955  72.214  1.00  0.00    -0.440 C  
ENDBRANCH   5  10
BRANCH   7  14
HETATM   14  C   UNL     1     -11.126  11.916  67.751  1.00  0.00    -0.239 C  
HETATM   15  O   UNL     1     -11.997  11.077  67.968  1.00  0.00    -0.623 OA 
BRANCH  14  16
HETATM   16  C   UNL     1      -9.934  11.537  66.936  1.00  0.00    -0.231 A  
HETATM   17  C   UNL     1      -8.677  11.555  67.555  1.00  0.00    -0.145 A  
HETATM   18  C   UNL     1      -7.549  11.079  66.879  1.00  0.00    -0.133 A  
HETATM   19  C   UNL     1      -7.677  10.587  65.582  1.00  0.00    -0.139 A  
HETATM   20  C   UNL     1      -8.910  10.622  64.933  1.00  0.00    -0.204 A  
HETATM   21 BR   UNL     1      -6.174   9.852  64.704  1.00  0.00    -0.120 Br 
HETATM   22  C   UNL     1     -10.030  11.128  65.598  1.00  0.00    -0.297 A  
ENDBRANCH  14  16
ENDBRANCH   7  14
TORSDOF 3
ENDMDL
MODEL       71
REMARK 921   NORMALIZED FREE ENERGY PREDICTED BY IDOCK:   -5.54 KCAL/MOL
REMARK 922        TOTAL FREE ENERGY PREDICTED BY IDOCK:   -7.12 KCAL/MOL
REMARK 923 INTER-LIGAND FREE ENERGY PREDICTED BY IDOCK:   -6.20 KCAL/MOL
REMARK 924 INTRA-LIGAND FREE ENERGY PREDICTED BY IDOCK:   -0.92 KCAL/MOL
REMARK 927      BINDING AFFINITY PREDICTED BY RF-SCORE:    0.00 PKD
ROOT
HETATM    1  N   UNL     1     -12.227  14.423  68.388  1.00  0.00    -0.605 NA 
HETATM    2  C   UNL     1     -10.903  14.063  68.031  1.00  0.00    -0.246 A  
HETATM    3  H1  UNL     1     -12.708  13.874  69.099  1.00  0.00     0.000 HD 
HETATM    4  H2  UNL     1     -12.801  14.449  67.546  1.00  0.00     0.000 HD 
HETATM    5  C   UNL     1     -10.240  14.822  67.050  1.00  0.00    -0.253 A  
HETATM    6  C   UNL     1      -8.859  14.606  66.867  1.00  0.00    -0.267 A  
HETATM    7  C   UNL     1     -10.290  12.876  68.493  1.00  0.00    -0.239 A  
HETATM    8  C   UNL     1      -8.190  13.582  67.535  1.00  0.00    -0.186 A  
HETATM    9  C   UNL     1      -8.917  12.684  68.307  1.00  0.00    -0.176 A  
ENDROOT
BRANCH   5  10
HETATM   10  C   UNL     1     -10.888  15.927  66.228  1.00  0.00    -0.200 C  
HETATM   11  O   UNL     1     -11.738  14.425  64.462  1.00  0.00    -0.409 OA 
HETATM   12  O   UNL     1     -11.554  16.598  64.029  1.00  0.00    -1.197 OA 
HETATM   13  C   UNL     1     -11.399  15.670  64.820  1.00  0.00    -0.343 C  
ENDBRANCH   5  10
BRANCH   7  14
HETATM   14  C   UNL     1     -11.021  11.779  69.192  1.00  0.00    -0.209 C  
HETATM   15  O   UNL     1     -11.886  12.072  70.013  1.00  0.00    -0.323 OA 
BRANCH  14  16
HETATM   16  C   UNL     1     -10.724  10.340  68.927  1.00  0.00    -0.256 A  
HETATM   17  C   UNL     1     -10.948   9.846  67.635  1.00  0.00    -0.263 A  
HETATM   18  C   UNL     1     -10.560   8.546  67.298  1.00  0.00    -0.315 A  
HETATM   19  C   UNL     1      -9.948   7.737  68.254  1.00  0.00    -0.178 A  
HETATM   20  C   UNL     1      -9.776   8.195  69.558  1.00  0.00    -0.170 A  
HETATM   21 BR   UNL     1      -9.332   6.017  67.773  1.00  0.00    -0.105 Br 
HETATM   22  C   UNL     1     -10.195   9.483  69.903  1.00  0.00    -0.261 A  
ENDBRANCH  14  16
ENDBRANCH   7  14
TORSDOF 3
ENDMDL
MODEL       72
REMARK 921   NORMALIZED FREE ENERGY PREDICTED BY IDOCK:   -5.54 KCAL/MOL
REMARK 922        TOTAL FREE ENERGY PREDICTED BY IDOCK:   -7.12 KCAL/MOL
REMARK 923 INTER-LIGAND FREE ENERGY PREDICTED BY IDOCK:   -6.57 KCAL/MOL
REMARK 924 INTRA-LIGAND FREE ENERGY PREDICTED BY IDOCK:   -0.56 KCAL/MOL
REMARK 927      BINDING AFFINITY PREDICTED BY RF-SCORE:    0.00 PKD
ROOT
HETATM    1  N   UNL     1     -12.621  10.800  69.233  1.00  0.00    -0.657 NA 
HETATM    2  C   UNL     1     -11.280  10.371  69.404  1.00  0.00    -0.259 A  
HETATM    3  H1  UNL     1     -13.259  10.739  70.026  1.00  0.00     0.000 HD 
HETATM    4  H2  UNL     1     -13.029  10.303  68.442  1.00  0.00     0.000 HD 
HETATM    5  C   UNL     1     -10.401  10.456  68.310  1.00  0.00    -0.198 A  
HETATM    6  C   UNL     1      -9.027  10.248  68.547  1.00  0.00    -0.134 A  
HETATM    7  C   UNL     1     -10.842   9.705  70.572  1.00  0.00    -0.371 A  
HETATM    8  C   UNL     1      -8.560   9.836  69.794  1.00  0.00    -0.215 A  
HETATM    9  C   UNL     1      -9.473   9.514  70.791  1.00  0.00    -0.237 A  
ENDROOT
BRANCH   5  10
HETATM   10  C   UNL     1     -10.814  10.845  66.897  1.00  0.00    -0.307 C  
HETATM   11  O   UNL     1     -11.501  13.141  67.489  1.00  0.00    -0.291 OA 
HETATM   12  O   UNL     1     -12.248  12.250  65.594  1.00  0.00    -0.605 OA 
HETATM   13  C   UNL     1     -11.589  12.123  66.624  1.00  0.00    -0.350 C  
ENDBRANCH   5  10
BRANCH   7  14
HETATM   14  C   UNL     1     -11.758   9.178  71.624  1.00  0.00    -0.378 C  
HETATM   15  O   UNL     1     -12.768   9.818  71.906  1.00  0.00    -0.384 OA 
BRANCH  14  16
HETATM   16  C   UNL     1     -11.478   7.902  72.347  1.00  0.00    -0.433 A  
HETATM   17  C   UNL     1     -12.099   6.732  71.889  1.00  0.00    -0.375 A  
HETATM   18  C   UNL     1     -11.768   5.492  72.441  1.00  0.00    -0.182 A  
HETATM   19  C   UNL     1     -10.814   5.420  73.455  1.00  0.00    -0.293 A  
HETATM   20  C   UNL     1     -10.235   6.581  73.962  1.00  0.00    -0.374 A  
HETATM   21 BR   UNL     1     -10.291   3.735  74.133  1.00  0.00    -0.270 Br 
HETATM   22  C   UNL     1     -10.592   7.824  73.431  1.00  0.00    -0.254 A  
ENDBRANCH  14  16
ENDBRANCH   7  14
TORSDOF 3
ENDMDL
MODEL       73
REMARK 921   NORMALIZED FREE ENERGY PREDICTED BY IDOCK:   -5.48 KCAL/MOL
REMARK 922        TOTAL FREE ENERGY PREDICTED BY IDOCK:   -7.06 KCAL/MOL
REMARK 923 INTER-LIGAND FREE ENERGY PREDICTED BY IDOCK:   -6.20 KCAL/MOL
REMARK 924 INTRA-LIGAND FREE ENERGY PREDICTED BY IDOCK:   -0.86 KCAL/MOL
REMARK 927      BINDING AFFINITY PREDICTED BY RF-SCORE:    0.00 PKD
ROOT
HETATM    1  N   UNL     1     -12.974  12.495  71.466  1.00  0.00    -0.343 NA 
HETATM    2  C   UNL     1     -12.357  13.181  70.389  1.00  0.00    -0.279 A  
HETATM    3  H1  UNL     1     -12.849  11.486  71.539  1.00  0.00     0.000 HD 
HETATM    4  H2  UNL     1     -13.972  12.704  71.464  1.00  0.00     0.000 HD 
HETATM    5  C   UNL     1     -12.531  14.573  70.290  1.00  0.00    -0.405 A  
HETATM    6  C   UNL     1     -11.735  15.274  69.361  1.00  0.00    -0.361 A  
HETATM    7  C   UNL     1     -11.724  12.502  69.322  1.00  0.00    -0.379 A  
HETATM    8  C   UNL     1     -10.899  14.605  68.470  1.00  0.00    -0.256 A  
HETATM    9  C   UNL     1     -10.934  13.217  68.415  1.00  0.00    -0.287 A  
ENDROOT
BRANCH   5  10
HETATM   10  C   UNL     1     -13.456  15.394  71.177  1.00  0.00    -0.565 C  
HETATM   11  O   UNL     1     -11.680  16.139  72.723  1.00  0.00    -0.466 OA 
HETATM   12  O   UNL     1     -13.800  16.248  73.387  1.00  0.00    -0.562 OA 
HETATM   13  C   UNL     1     -12.988  15.939  72.516  1.00  0.00    -0.452 C  
ENDBRANCH   5  10
BRANCH   7  14
HETATM   14  C   UNL     1     -11.835  11.034  69.087  1.00  0.00    -0.337 C  
HETATM   15  O   UNL     1     -12.897  10.470  69.341  1.00  0.00    -0.082 OA 
BRANCH  14  16
HETATM   16  C   UNL     1     -10.691  10.231  68.560  1.00  0.00    -0.262 A  
HETATM   17  C   UNL     1      -9.642   9.921  69.436  1.00  0.00    -0.229 A  
HETATM   18  C   UNL     1      -8.616   9.061  69.035  1.00  0.00    -0.134 A  
HETATM   19  C   UNL     1      -8.637   8.509  67.755  1.00  0.00    -0.134 A  
HETATM   20  C   UNL     1      -9.641   8.858  66.854  1.00  0.00    -0.248 A  
HETATM   21 BR   UNL     1      -7.307   7.268  67.246  1.00  0.00    -0.100 Br 
HETATM   22  C   UNL     1     -10.648   9.745  67.246  1.00  0.00    -0.320 A  
ENDBRANCH  14  16
ENDBRANCH   7  14
TORSDOF 3
ENDMDL
MODEL       74
REMARK 921   NORMALIZED FREE ENERGY PREDICTED BY IDOCK:   -5.48 KCAL/MOL
REMARK 922        TOTAL FREE ENERGY PREDICTED BY IDOCK:   -7.05 KCAL/MOL
REMARK 923 INTER-LIGAND FREE ENERGY PREDICTED BY IDOCK:   -6.18 KCAL/MOL
REMARK 924 INTRA-LIGAND FREE ENERGY PREDICTED BY IDOCK:   -0.88 KCAL/MOL
REMARK 927      BINDING AFFINITY PREDICTED BY RF-SCORE:    0.00 PKD
ROOT
HETATM    1  N   UNL     1     -11.780   6.674  69.249  1.00  0.00    -0.628 NA 
HETATM    2  C   UNL     1     -10.816   7.450  69.940  1.00  0.00    -0.246 A  
HETATM    3  H1  UNL     1     -11.581   6.388  68.291  1.00  0.00     0.000 HD 
HETATM    4  H2  UNL     1     -12.674   7.164  69.268  1.00  0.00     0.000 HD 
HETATM    5  C   UNL     1     -11.091   7.846  71.262  1.00  0.00    -0.278 A  
HETATM    6  C   UNL     1     -10.043   8.413  72.015  1.00  0.00    -0.364 A  
HETATM    7  C   UNL     1      -9.673   7.984  69.301  1.00  0.00    -0.167 A  
HETATM    8  C   UNL     1      -8.809   8.703  71.438  1.00  0.00    -0.276 A  
HETATM    9  C   UNL     1      -8.642   8.537  70.068  1.00  0.00    -0.134 A  
ENDROOT
BRANCH   5  10
HETATM   10  C   UNL     1     -12.420   7.624  71.971  1.00  0.00    -0.301 C  
HETATM   11  O   UNL     1     -13.438   9.740  71.206  1.00  0.00    -0.376 OA 
HETATM   12  O   UNL     1     -14.310   8.701  72.968  1.00  0.00    -0.395 OA 
HETATM   13  C   UNL     1     -13.445   8.739  72.095  1.00  0.00    -0.427 C  
ENDBRANCH   5  10
BRANCH   7  14
HETATM   14  C   UNL     1      -9.477   7.998  67.823  1.00  0.00    -0.145 C  
HETATM   15  O   UNL     1      -9.014   7.000  67.276  1.00  0.00    -0.118 OA 
BRANCH  14  16
HETATM   16  C   UNL     1      -9.819   9.191  66.992  1.00  0.00    -0.267 A  
HETATM   17  C   UNL     1      -9.467   9.175  65.636  1.00  0.00    -0.309 A  
HETATM   18  C   UNL     1      -9.883  10.204  64.785  1.00  0.00    -0.382 A  
HETATM   19  C   UNL     1     -10.651  11.251  65.291  1.00  0.00    -0.261 A  
HETATM   20  C   UNL     1     -10.954  11.311  66.649  1.00  0.00    -0.326 A  
HETATM   21 BR   UNL     1     -11.299  12.589  64.124  1.00  0.00    -0.483 Br 
HETATM   22  C   UNL     1     -10.509  10.299  67.505  1.00  0.00    -0.293 A  
ENDBRANCH  14  16
ENDBRANCH   7  14
TORSDOF 3
ENDMDL
MODEL       75
REMARK 921   NORMALIZED FREE ENERGY PREDICTED BY IDOCK:   -5.47 KCAL/MOL
REMARK 922        TOTAL FREE ENERGY PREDICTED BY IDOCK:   -7.05 KCAL/MOL
REMARK 923 INTER-LIGAND FREE ENERGY PREDICTED BY IDOCK:   -6.38 KCAL/MOL
REMARK 924 INTRA-LIGAND FREE ENERGY PREDICTED BY IDOCK:   -0.67 KCAL/MOL
REMARK 927      BINDING AFFINITY PREDICTED BY RF-SCORE:    0.00 PKD
ROOT
HETATM    1  N   UNL     1      -9.331  14.407  66.155  1.00  0.00    -0.490 NA 
HETATM    2  C   UNL     1      -9.982  14.749  67.366  1.00  0.00    -0.223 A  
HETATM    3  H1  UNL     1      -8.312  14.437  66.122  1.00  0.00     0.000 HD 
HETATM    4  H2  UNL     1      -9.702  14.988  65.404  1.00  0.00     0.000 HD 
HETATM    5  C   UNL     1     -11.388  14.707  67.410  1.00  0.00    -0.368 A  
HETATM    6  C   UNL     1     -12.014  14.822  68.668  1.00  0.00    -0.292 A  
HETATM    7  C   UNL     1      -9.289  15.293  68.472  1.00  0.00    -0.200 A  
HETATM    8  C   UNL     1     -11.283  15.105  69.820  1.00  0.00    -0.298 A  
HETATM    9  C   UNL     1      -9.928  15.392  69.713  1.00  0.00    -0.251 A  
ENDROOT
BRANCH   5  10
HETATM   10  C   UNL     1     -12.283  14.458  66.205  1.00  0.00    -0.358 C  
HETATM   11  O   UNL     1     -12.158  11.996  66.338  1.00  0.00    -0.610 OA 
HETATM   12  O   UNL     1     -12.795  12.939  64.427  1.00  0.00    -0.696 OA 
HETATM   13  C   UNL     1     -12.411  13.076  65.587  1.00  0.00    -0.446 C  
ENDBRANCH   5  10
BRANCH   7  14
HETATM   14  C   UNL     1      -7.880  15.779  68.414  1.00  0.00    -0.136 C  
HETATM   15  O   UNL     1      -6.987  15.064  68.860  1.00  0.00    -0.102 OA 
BRANCH  14  16
HETATM   16  C   UNL     1      -7.529  17.111  67.838  1.00  0.00    -0.183 A  
HETATM   17  C   UNL     1      -7.238  18.159  68.724  1.00  0.00    -0.287 A  
HETATM   18  C   UNL     1      -6.772  19.384  68.240  1.00  0.00    -0.293 A  
HETATM   19  C   UNL     1      -6.597  19.566  66.869  1.00  0.00    -0.193 A  
HETATM   20  C   UNL     1      -6.942  18.555  65.975  1.00  0.00    -0.310 A  
HETATM   21 BR   UNL     1      -5.872  21.186  66.222  1.00  0.00    -0.331 Br 
HETATM   22  C   UNL     1      -7.439  17.341  66.458  1.00  0.00    -0.315 A  
ENDBRANCH  14  16
ENDBRANCH   7  14
TORSDOF 3
ENDMDL
MODEL       76
REMARK 921   NORMALIZED FREE ENERGY PREDICTED BY IDOCK:   -5.47 KCAL/MOL
REMARK 922        TOTAL FREE ENERGY PREDICTED BY IDOCK:   -7.05 KCAL/MOL
REMARK 923 INTER-LIGAND FREE ENERGY PREDICTED BY IDOCK:   -6.09 KCAL/MOL
REMARK 924 INTRA-LIGAND FREE ENERGY PREDICTED BY IDOCK:   -0.95 KCAL/MOL
REMARK 927      BINDING AFFINITY PREDICTED BY RF-SCORE:    0.00 PKD
ROOT
HETATM    1  N   UNL     1     -11.424  14.086  66.917  1.00  0.00    -0.338 NA 
HETATM    2  C   UNL     1     -11.671  14.098  68.313  1.00  0.00    -0.348 A  
HETATM    3  H1  UNL     1     -11.424  13.191  66.428  1.00  0.00     0.000 HD 
HETATM    4  H2  UNL     1     -10.541  14.562  66.733  1.00  0.00     0.000 HD 
HETATM    5  C   UNL     1     -11.671  15.333  68.987  1.00  0.00    -0.368 A  
HETATM    6  C   UNL     1     -12.141  15.362  70.315  1.00  0.00    -0.402 A  
HETATM    7  C   UNL     1     -11.746  12.912  69.079  1.00  0.00    -0.375 A  
HETATM    8  C   UNL     1     -12.469  14.190  70.995  1.00  0.00    -0.438 A  
HETATM    9  C   UNL     1     -12.221  12.962  70.394  1.00  0.00    -0.381 A  
ENDROOT
BRANCH   5  10
HETATM   10  C   UNL     1     -11.281  16.662  68.354  1.00  0.00    -0.239 C  
HETATM   11  O   UNL     1      -8.905  16.534  69.010  1.00  0.00    -0.257 OA 
HETATM   12  O   UNL     1      -9.764  18.510  68.459  1.00  0.00    -0.331 OA 
HETATM   13  C   UNL     1      -9.933  17.304  68.631  1.00  0.00    -0.327 C  
ENDBRANCH   5  10
BRANCH   7  14
HETATM   14  C   UNL     1     -11.348  11.567  68.572  1.00  0.00    -0.277 C  
HETATM   15  O   UNL     1     -12.011  11.051  67.676  1.00  0.00    -0.583 OA 
BRANCH  14  16
HETATM   16  C   UNL     1     -10.175  10.829  69.128  1.00  0.00    -0.229 A  
HETATM   17  C   UNL     1      -8.894  11.203  68.697  1.00  0.00    -0.155 A  
HETATM   18  C   UNL     1      -7.758  10.641  69.286  1.00  0.00    -0.142 A  
HETATM   19  C   UNL     1      -7.900   9.702  70.306  1.00  0.00    -0.178 A  
HETATM   20  C   UNL     1      -9.167   9.276  70.700  1.00  0.00    -0.321 A  
HETATM   21 BR   UNL     1      -6.367   9.016  71.171  1.00  0.00    -0.070 Br 
HETATM   22  C   UNL     1     -10.302   9.815  70.088  1.00  0.00    -0.335 A  
ENDBRANCH  14  16
ENDBRANCH   7  14
TORSDOF 3
ENDMDL
MODEL       77
REMARK 921   NORMALIZED FREE ENERGY PREDICTED BY IDOCK:   -5.46 KCAL/MOL
REMARK 922        TOTAL FREE ENERGY PREDICTED BY IDOCK:   -7.04 KCAL/MOL
REMARK 923 INTER-LIGAND FREE ENERGY PREDICTED BY IDOCK:   -6.23 KCAL/MOL
REMARK 924 INTRA-LIGAND FREE ENERGY PREDICTED BY IDOCK:   -0.80 KCAL/MOL
REMARK 927      BINDING AFFINITY PREDICTED BY RF-SCORE:    0.00 PKD
ROOT
HETATM    1  N   UNL     1      -9.248   8.734  71.480  1.00  0.00    -0.243 NA 
HETATM    2  C   UNL     1     -10.506   9.323  71.194  1.00  0.00    -0.331 A  
HETATM    3  H1  UNL     1      -8.423   9.089  70.998  1.00  0.00     0.000 HD 
HETATM    4  H2  UNL     1      -9.312   7.728  71.329  1.00  0.00     0.000 HD 
HETATM    5  C   UNL     1     -11.645   8.833  71.859  1.00  0.00    -0.432 A  
HETATM    6  C   UNL     1     -12.844   9.567  71.746  1.00  0.00    -0.496 A  
HETATM    7  C   UNL     1     -10.685  10.257  70.148  1.00  0.00    -0.334 A  
HETATM    8  C   UNL     1     -12.944  10.666  70.896  1.00  0.00    -0.429 A  
HETATM    9  C   UNL     1     -11.881  10.979  70.059  1.00  0.00    -0.435 A  
ENDROOT
BRANCH   5  10
HETATM   10  C   UNL     1     -11.657   7.612  72.767  1.00  0.00    -0.334 C  
HETATM   11  O   UNL     1     -11.030   6.009  70.997  1.00  0.00    -0.271 OA 
HETATM   12  O   UNL     1     -11.977   5.242  72.858  1.00  0.00    -0.227 OA 
HETATM   13  C   UNL     1     -11.584   6.204  72.201  1.00  0.00    -0.317 C  
ENDBRANCH   5  10
BRANCH   7  14
HETATM   14  C   UNL     1      -9.661  10.545  69.104  1.00  0.00    -0.199 C  
HETATM   15  O   UNL     1      -8.477  10.343  69.363  1.00  0.00    -0.161 OA 
BRANCH  14  16
HETATM   16  C   UNL     1     -10.033  11.076  67.759  1.00  0.00    -0.194 A  
HETATM   17  C   UNL     1     -10.280  10.157  66.730  1.00  0.00    -0.289 A  
HETATM   18  C   UNL     1     -10.763  10.593  65.493  1.00  0.00    -0.105 A  
HETATM   19  C   UNL     1     -10.998  11.951  65.282  1.00  0.00    -0.302 A  
HETATM   20  C   UNL     1     -10.698  12.880  66.275  1.00  0.00    -0.292 A  
HETATM   21 BR   UNL     1     -11.746  12.531  63.647  1.00  0.00    -0.624 Br 
HETATM   22  C   UNL     1     -10.184  12.446  67.500  1.00  0.00    -0.214 A  
ENDBRANCH  14  16
ENDBRANCH   7  14
TORSDOF 3
ENDMDL
MODEL       78
REMARK 921   NORMALIZED FREE ENERGY PREDICTED BY IDOCK:   -5.41 KCAL/MOL
REMARK 922        TOTAL FREE ENERGY PREDICTED BY IDOCK:   -6.97 KCAL/MOL
REMARK 923 INTER-LIGAND FREE ENERGY PREDICTED BY IDOCK:   -6.36 KCAL/MOL
REMARK 924 INTRA-LIGAND FREE ENERGY PREDICTED BY IDOCK:   -0.62 KCAL/MOL
REMARK 927      BINDING AFFINITY PREDICTED BY RF-SCORE:    0.00 PKD
ROOT
HETATM    1  N   UNL     1      -9.044  13.727  67.867  1.00  0.00    -0.184 NA 
HETATM    2  C   UNL     1     -10.059  13.689  66.878  1.00  0.00    -0.260 A  
HETATM    3  H1  UNL     1      -9.032  13.000  68.582  1.00  0.00     0.000 HD 
HETATM    4  H2  UNL     1      -9.061  14.638  68.323  1.00  0.00     0.000 HD 
HETATM    5  C   UNL     1     -10.077  14.692  65.892  1.00  0.00    -0.341 A  
HETATM    6  C   UNL     1     -10.938  14.521  64.789  1.00  0.00    -0.404 A  
HETATM    7  C   UNL     1     -11.149  12.790  66.944  1.00  0.00    -0.308 A  
HETATM    8  C   UNL     1     -11.846  13.465  64.734  1.00  0.00    -0.415 A  
HETATM    9  C   UNL     1     -11.988  12.631  65.835  1.00  0.00    -0.497 A  
ENDROOT
BRANCH   5  10
HETATM   10  C   UNL     1      -9.165  15.911  65.883  1.00  0.00    -0.332 C  
HETATM   11  O   UNL     1     -10.640  17.303  67.291  1.00  0.00    -0.338 OA 
HETATM   12  O   UNL     1      -9.086  18.297  66.049  1.00  0.00    -0.510 OA 
HETATM   13  C   UNL     1      -9.642  17.258  66.400  1.00  0.00    -0.274 C  
ENDBRANCH   5  10
BRANCH   7  14
HETATM   14  C   UNL     1     -11.478  11.967  68.144  1.00  0.00    -0.322 C  
HETATM   15  O   UNL     1     -12.158  12.467  69.037  1.00  0.00    -0.259 OA 
BRANCH  14  16
HETATM   16  C   UNL     1     -10.999  10.561  68.292  1.00  0.00    -0.314 A  
HETATM   17  C   UNL     1     -10.911  10.025  69.585  1.00  0.00    -0.301 A  
HETATM   18  C   UNL     1     -10.600   8.675  69.771  1.00  0.00    -0.224 A  
HETATM   19  C   UNL     1     -10.375   7.859  68.665  1.00  0.00    -0.201 A  
HETATM   20  C   UNL     1     -10.397   8.393  67.378  1.00  0.00    -0.355 A  
HETATM   21 BR   UNL     1     -10.054   6.013  68.910  1.00  0.00    -0.245 Br 
HETATM   22  C   UNL     1     -10.676   9.751  67.195  1.00  0.00    -0.273 A  
ENDBRANCH  14  16
ENDBRANCH   7  14
TORSDOF 3
ENDMDL
MODEL       79
REMARK 921   NORMALIZED FREE ENERGY PREDICTED BY IDOCK:   -5.41 KCAL/MOL
REMARK 922        TOTAL FREE ENERGY PREDICTED BY IDOCK:   -6.97 KCAL/MOL
REMARK 923 INTER-LIGAND FREE ENERGY PREDICTED BY IDOCK:   -6.20 KCAL/MOL
REMARK 924 INTRA-LIGAND FREE ENERGY PREDICTED BY IDOCK:   -0.77 KCAL/MOL
REMARK 927      BINDING AFFINITY PREDICTED BY RF-SCORE:    0.00 PKD
ROOT
HETATM    1  N   UNL     1     -10.938  11.571  65.724  1.00  0.00    -0.277 NA 
HETATM    2  C   UNL     1     -10.167  12.538  66.417  1.00  0.00    -0.244 A  
HETATM    3  H1  UNL     1     -10.963  10.617  66.082  1.00  0.00     0.000 HD 
HETATM    4  H2  UNL     1     -10.642  11.550  64.748  1.00  0.00     0.000 HD 
HETATM    5  C   UNL     1     -10.133  13.854  65.922  1.00  0.00    -0.331 A  
HETATM    6  C   UNL     1      -9.559  14.852  66.736  1.00  0.00    -0.265 A  
HETATM    7  C   UNL     1      -9.299  12.194  67.479  1.00  0.00    -0.181 A  
HETATM    8  C   UNL     1      -8.921  14.535  67.933  1.00  0.00    -0.187 A  
HETATM    9  C   UNL     1      -8.745  13.201  68.278  1.00  0.00    -0.165 A  
ENDROOT
BRANCH   5  10
HETATM   10  C   UNL     1     -10.752  14.298  64.604  1.00  0.00    -0.384 C  
HETATM   11  O   UNL     1     -13.087  13.933  65.319  1.00  0.00    -0.777 OA 
HETATM   12  O   UNL     1     -12.634  14.056  63.145  1.00  0.00    -0.733 OA 
HETATM   13  C   UNL     1     -12.223  14.067  64.305  1.00  0.00    -0.418 C  
ENDBRANCH   5  10
BRANCH   7  14
HETATM   14  C   UNL     1      -8.922  10.793  67.826  1.00  0.00    -0.137 C  
HETATM   15  O   UNL     1      -8.218  10.158  67.045  1.00  0.00    -0.117 OA 
BRANCH  14  16
HETATM   16  C   UNL     1      -9.381  10.143  69.089  1.00  0.00    -0.205 A  
HETATM   17  C   UNL     1     -10.726  10.288  69.457  1.00  0.00    -0.280 A  
HETATM   18  C   UNL     1     -11.239   9.589  70.553  1.00  0.00    -0.345 A  
HETATM   19  C   UNL     1     -10.407   8.744  71.285  1.00  0.00    -0.261 A  
HETATM   20  C   UNL     1      -9.055   8.639  70.968  1.00  0.00    -0.248 A  
HETATM   21 BR   UNL     1     -11.122   7.722  72.705  1.00  0.00    -0.460 Br 
HETATM   22  C   UNL     1      -8.535   9.364  69.892  1.00  0.00    -0.186 A  
ENDBRANCH  14  16
ENDBRANCH   7  14
TORSDOF 3
ENDMDL
MODEL       80
REMARK 921   NORMALIZED FREE ENERGY PREDICTED BY IDOCK:   -5.39 KCAL/MOL
REMARK 922        TOTAL FREE ENERGY PREDICTED BY IDOCK:   -6.96 KCAL/MOL
REMARK 923 INTER-LIGAND FREE ENERGY PREDICTED BY IDOCK:   -6.15 KCAL/MOL
REMARK 924 INTRA-LIGAND FREE ENERGY PREDICTED BY IDOCK:   -0.81 KCAL/MOL
REMARK 927      BINDING AFFINITY PREDICTED BY RF-SCORE:    0.00 PKD
ROOT
HETATM    1  N   UNL     1     -10.164  12.829  64.061  1.00  0.00    -0.557 NA 
HETATM    2  C   UNL     1     -10.643  12.539  65.363  1.00  0.00    -0.281 A  
HETATM    3  H1  UNL     1      -9.783  12.068  63.499  1.00  0.00     0.000 HD 
HETATM    4  H2  UNL     1      -9.469  13.573  64.123  1.00  0.00     0.000 HD 
HETATM    5  C   UNL     1     -11.168  13.590  66.138  1.00  0.00    -0.306 A  
HETATM    6  C   UNL     1     -11.848  13.259  67.327  1.00  0.00    -0.421 A  
HETATM    7  C   UNL     1     -10.458  11.278  65.975  1.00  0.00    -0.310 A  
HETATM    8  C   UNL     1     -11.887  11.949  67.801  1.00  0.00    -0.289 A  
HETATM    9  C   UNL     1     -11.148  10.968  67.152  1.00  0.00    -0.333 A  
ENDROOT
BRANCH   5  10
HETATM   10  C   UNL     1     -11.131  15.058  65.739  1.00  0.00    -0.346 C  
HETATM   11  O   UNL     1     -12.873  14.862  64.000  1.00  0.00    -0.701 OA 
HETATM   12  O   UNL     1     -11.503  16.613  63.958  1.00  0.00    -1.192 OA 
HETATM   13  C   UNL     1     -11.838  15.556  64.489  1.00  0.00    -0.216 C  
ENDBRANCH   5  10
BRANCH   7  14
HETATM   14  C   UNL     1      -9.558  10.216  65.439  1.00  0.00    -0.264 C  
HETATM   15  O   UNL     1      -9.641   9.912  64.251  1.00  0.00    -0.282 OA 
BRANCH  14  16
HETATM   16  C   UNL     1      -8.568   9.511  66.305  1.00  0.00    -0.141 A  
HETATM   17  C   UNL     1      -7.695  10.287  67.080  1.00  0.00    -0.100 A  
HETATM   18  C   UNL     1      -6.844   9.681  68.008  1.00  0.00    -0.073 A  
HETATM   19  C   UNL     1      -6.862   8.296  68.161  1.00  0.00    -0.069 A  
HETATM   20  C   UNL     1      -7.679   7.508  67.354  1.00  0.00    -0.117 A  
HETATM   21 BR   UNL     1      -5.785   7.484  69.485  1.00  0.00    -0.023 Br 
HETATM   22  C   UNL     1      -8.507   8.113  66.403  1.00  0.00    -0.133 A  
ENDBRANCH  14  16
ENDBRANCH   7  14
TORSDOF 3
ENDMDL
MODEL       81
REMARK 921   NORMALIZED FREE ENERGY PREDICTED BY IDOCK:   -5.39 KCAL/MOL
REMARK 922        TOTAL FREE ENERGY PREDICTED BY IDOCK:   -6.95 KCAL/MOL
REMARK 923 INTER-LIGAND FREE ENERGY PREDICTED BY IDOCK:   -5.99 KCAL/MOL
REMARK 924 INTRA-LIGAND FREE ENERGY PREDICTED BY IDOCK:   -0.97 KCAL/MOL
REMARK 927      BINDING AFFINITY PREDICTED BY RF-SCORE:    0.00 PKD
ROOT
HETATM    1  N   UNL     1      -9.195  13.937  68.790  1.00  0.00    -0.380 NA 
HETATM    2  C   UNL     1     -10.193  13.649  67.826  1.00  0.00    -0.242 A  
HETATM    3  H1  UNL     1      -8.348  13.369  68.802  1.00  0.00     0.000 HD 
HETATM    4  H2  UNL     1      -9.617  13.918  69.718  1.00  0.00     0.000 HD 
HETATM    5  C   UNL     1     -11.362  14.433  67.811  1.00  0.00    -0.331 A  
HETATM    6  C   UNL     1     -12.237  14.295  66.715  1.00  0.00    -0.384 A  
HETATM    7  C   UNL     1     -10.138  12.505  66.996  1.00  0.00    -0.222 A  
HETATM    8  C   UNL     1     -12.033  13.320  65.741  1.00  0.00    -0.463 A  
HETATM    9  C   UNL     1     -11.014  12.391  65.910  1.00  0.00    -0.323 A  
ENDROOT
BRANCH   5  10
HETATM   10  C   UNL     1     -11.707  15.488  68.852  1.00  0.00    -0.385 C  
HETATM   11  O   UNL     1     -12.016  13.884  70.703  1.00  0.00    -0.323 OA 
HETATM   12  O   UNL     1     -12.897  15.918  70.884  1.00  0.00    -0.439 OA 
HETATM   13  C   UNL     1     -12.266  15.104  70.212  1.00  0.00    -0.350 C  
ENDBRANCH   5  10
BRANCH   7  14
HETATM   14  C   UNL     1      -9.184  11.377  67.196  1.00  0.00    -0.166 C  
HETATM   15  O   UNL     1      -8.026  11.504  66.807  1.00  0.00    -0.156 OA 
BRANCH  14  16
HETATM   16  C   UNL     1      -9.598  10.099  67.847  1.00  0.00    -0.166 A  
HETATM   17  C   UNL     1      -9.638  10.052  69.247  1.00  0.00    -0.227 A  
HETATM   18  C   UNL     1     -10.148   8.928  69.903  1.00  0.00    -0.204 A  
HETATM   19  C   UNL     1     -10.618   7.847  69.159  1.00  0.00    -0.173 A  
HETATM   20  C   UNL     1     -10.527   7.856  67.769  1.00  0.00    -0.278 A  
HETATM   21 BR   UNL     1     -11.400   6.370  70.040  1.00  0.00    -0.487 Br 
HETATM   22  C   UNL     1      -9.986   8.967  67.115  1.00  0.00    -0.289 A  
ENDBRANCH  14  16
ENDBRANCH   7  14
TORSDOF 3
ENDMDL
MODEL       82
REMARK 921   NORMALIZED FREE ENERGY PREDICTED BY IDOCK:   -5.39 KCAL/MOL
REMARK 922        TOTAL FREE ENERGY PREDICTED BY IDOCK:   -6.95 KCAL/MOL
REMARK 923 INTER-LIGAND FREE ENERGY PREDICTED BY IDOCK:   -6.23 KCAL/MOL
REMARK 924 INTRA-LIGAND FREE ENERGY PREDICTED BY IDOCK:   -0.72 KCAL/MOL
REMARK 927      BINDING AFFINITY PREDICTED BY RF-SCORE:    0.00 PKD
ROOT
HETATM    1  N   UNL     1     -11.233   6.030  73.422  1.00  0.00    -0.455 NA 
HETATM    2  C   UNL     1     -10.909   5.950  72.044  1.00  0.00    -0.252 A  
HETATM    3  H1  UNL     1     -12.119   6.456  73.692  1.00  0.00     0.000 HD 
HETATM    4  H2  UNL     1     -10.475   6.504  73.913  1.00  0.00     0.000 HD 
HETATM    5  C   UNL     1      -9.687   5.362  71.672  1.00  0.00    -0.204 A  
HETATM    6  C   UNL     1      -9.477   5.079  70.308  1.00  0.00    -0.237 A  
HETATM    7  C   UNL     1     -11.682   6.588  71.047  1.00  0.00    -0.402 A  
HETATM    8  C   UNL     1     -10.385   5.487  69.333  1.00  0.00    -0.348 A  
HETATM    9  C   UNL     1     -11.460   6.288  69.698  1.00  0.00    -0.425 A  
ENDROOT
BRANCH   5  10
HETATM   10  C   UNL     1      -8.605   4.926  72.651  1.00  0.00    -0.119 C  
HETATM   11  O   UNL     1      -8.222   7.181  73.581  1.00  0.00    -0.116 OA 
HETATM   12  O   UNL     1      -6.658   5.624  73.855  1.00  0.00    -0.075 OA 
HETATM   13  C   UNL     1      -7.750   5.943  73.388  1.00  0.00    -0.101 C  
ENDBRANCH   5  10
BRANCH   7  14
HETATM   14  C   UNL     1     -12.752   7.586  71.334  1.00  0.00    -0.348 C  
HETATM   15  O   UNL     1     -13.863   7.184  71.671  1.00  0.00    -0.375 OA 
BRANCH  14  16
HETATM   16  C   UNL     1     -12.513   9.055  71.215  1.00  0.00    -0.346 A  
HETATM   17  C   UNL     1     -11.591   9.500  70.258  1.00  0.00    -0.219 A  
HETATM   18  C   UNL     1     -11.431  10.867  70.011  1.00  0.00    -0.411 A  
HETATM   19  C   UNL     1     -12.192  11.791  70.723  1.00  0.00    -0.326 A  
HETATM   20  C   UNL     1     -13.067  11.365  71.720  1.00  0.00    -0.523 A  
HETATM   21 BR   UNL     1     -12.051  13.632  70.321  1.00  0.00    -0.406 Br 
HETATM   22  C   UNL     1     -13.202  10.000  71.989  1.00  0.00    -0.545 A  
ENDBRANCH  14  16
ENDBRANCH   7  14
TORSDOF 3
ENDMDL
MODEL       83
REMARK 921   NORMALIZED FREE ENERGY PREDICTED BY IDOCK:   -5.38 KCAL/MOL
REMARK 922        TOTAL FREE ENERGY PREDICTED BY IDOCK:   -6.94 KCAL/MOL
REMARK 923 INTER-LIGAND FREE ENERGY PREDICTED BY IDOCK:   -5.90 KCAL/MOL
REMARK 924 INTRA-LIGAND FREE ENERGY PREDICTED BY IDOCK:   -1.04 KCAL/MOL
REMARK 927      BINDING AFFINITY PREDICTED BY RF-SCORE:    0.00 PKD
ROOT
HETATM    1  N   UNL     1     -11.951  10.470  68.368  1.00  0.00    -0.788 NA 
HETATM    2  C   UNL     1     -11.010  10.300  67.322  1.00  0.00    -0.210 A  
HETATM    3  H1  UNL     1     -12.557  11.290  68.353  1.00  0.00     0.000 HD 
HETATM    4  H2  UNL     1     -11.461  10.439  69.262  1.00  0.00     0.000 HD 
HETATM    5  C   UNL     1     -10.174   9.169  67.344  1.00  0.00    -0.310 A  
HETATM    6  C   UNL     1      -9.409   8.888  66.194  1.00  0.00    -0.301 A  
HETATM    7  C   UNL     1     -10.761  11.304  66.357  1.00  0.00    -0.320 A  
HETATM    8  C   UNL     1      -9.371   9.769  65.115  1.00  0.00    -0.322 A  
HETATM    9  C   UNL     1     -10.004  11.001  65.219  1.00  0.00    -0.320 A  
ENDROOT
BRANCH   5  10
HETATM   10  C   UNL     1     -10.100   8.172  68.492  1.00  0.00    -0.220 C  
HETATM   11  O   UNL     1      -9.476   9.842  70.200  1.00  0.00    -0.240 OA 
HETATM   12  O   UNL     1      -9.085   7.690  70.605  1.00  0.00    -0.155 OA 
HETATM   13  C   UNL     1      -9.499   8.554  69.834  1.00  0.00    -0.163 C  
ENDBRANCH   5  10
BRANCH   7  14
HETATM   14  C   UNL     1     -11.265  12.703  66.462  1.00  0.00    -0.296 C  
HETATM   15  O   UNL     1     -12.477  12.901  66.430  1.00  0.00    -0.422 OA 
BRANCH  14  16
HETATM   16  C   UNL     1     -10.339  13.867  66.596  1.00  0.00    -0.278 A  
HETATM   17  C   UNL     1      -9.520  13.932  67.732  1.00  0.00    -0.214 A  
HETATM   18  C   UNL     1      -8.541  14.924  67.842  1.00  0.00    -0.160 A  
HETATM   19  C   UNL     1      -8.381  15.854  66.816  1.00  0.00    -0.271 A  
HETATM   20  C   UNL     1      -9.230  15.838  65.712  1.00  0.00    -0.255 A  
HETATM   21 BR   UNL     1      -6.994  17.133  66.917  1.00  0.00    -0.272 Br 
HETATM   22  C   UNL     1     -10.230  14.866  65.618  1.00  0.00    -0.382 A  
ENDBRANCH  14  16
ENDBRANCH   7  14
TORSDOF 3
ENDMDL
MODEL       84
REMARK 921   NORMALIZED FREE ENERGY PREDICTED BY IDOCK:   -5.35 KCAL/MOL
REMARK 922        TOTAL FREE ENERGY PREDICTED BY IDOCK:   -6.91 KCAL/MOL
REMARK 923 INTER-LIGAND FREE ENERGY PREDICTED BY IDOCK:   -6.06 KCAL/MOL
REMARK 924 INTRA-LIGAND FREE ENERGY PREDICTED BY IDOCK:   -0.85 KCAL/MOL
REMARK 927      BINDING AFFINITY PREDICTED BY RF-SCORE:    0.00 PKD
ROOT
HETATM    1  N   UNL     1     -10.771  17.016  68.020  1.00  0.00    -0.369 NA 
HETATM    2  C   UNL     1      -9.754  16.069  67.741  1.00  0.00    -0.221 A  
HETATM    3  H1  UNL     1     -11.667  16.682  68.374  1.00  0.00     0.000 HD 
HETATM    4  H2  UNL     1     -10.936  17.579  67.186  1.00  0.00     0.000 HD 
HETATM    5  C   UNL     1      -8.519  16.531  67.251  1.00  0.00    -0.201 A  
HETATM    6  C   UNL     1      -7.446  15.618  67.195  1.00  0.00    -0.253 A  
HETATM    7  C   UNL     1      -9.989  14.675  67.770  1.00  0.00    -0.224 A  
HETATM    8  C   UNL     1      -7.627  14.267  67.484  1.00  0.00    -0.202 A  
HETATM    9  C   UNL     1      -8.909  13.787  67.720  1.00  0.00    -0.188 A  
ENDROOT
BRANCH   5  10
HETATM   10  C   UNL     1      -8.231  17.973  66.858  1.00  0.00    -0.259 C  
HETATM   11  O   UNL     1      -7.138  18.572  68.989  1.00  0.00    -0.288 OA 
HETATM   12  O   UNL     1      -7.902  20.197  67.678  1.00  0.00    -0.293 OA 
HETATM   13  C   UNL     1      -7.762  18.993  67.882  1.00  0.00    -0.266 C  
ENDBRANCH   5  10
BRANCH   7  14
HETATM   14  C   UNL     1     -11.345  14.060  67.859  1.00  0.00    -0.291 C  
HETATM   15  O   UNL     1     -12.212  14.420  67.067  1.00  0.00    -0.400 OA 
BRANCH  14  16
HETATM   16  C   UNL     1     -11.678  13.029  68.886  1.00  0.00    -0.371 A  
HETATM   17  C   UNL     1     -12.013  13.464  70.176  1.00  0.00    -0.396 A  
HETATM   18  C   UNL     1     -12.464  12.553  71.134  1.00  0.00    -0.322 A  
HETATM   19  C   UNL     1     -12.579  11.203  70.806  1.00  0.00    -0.352 A  
HETATM   20  C   UNL     1     -12.189  10.749  69.548  1.00  0.00    -0.292 A  
HETATM   21 BR   UNL     1     -13.283   9.986  72.068  1.00  0.00    -0.486 Br 
HETATM   22  C   UNL     1     -11.707  11.656  68.600  1.00  0.00    -0.386 A  
ENDBRANCH  14  16
ENDBRANCH   7  14
TORSDOF 3
ENDMDL
MODEL       85
REMARK 921   NORMALIZED FREE ENERGY PREDICTED BY IDOCK:   -5.30 KCAL/MOL
REMARK 922        TOTAL FREE ENERGY PREDICTED BY IDOCK:   -6.85 KCAL/MOL
REMARK 923 INTER-LIGAND FREE ENERGY PREDICTED BY IDOCK:   -6.36 KCAL/MOL
REMARK 924 INTRA-LIGAND FREE ENERGY PREDICTED BY IDOCK:   -0.49 KCAL/MOL
REMARK 927      BINDING AFFINITY PREDICTED BY RF-SCORE:    0.00 PKD
ROOT
HETATM    1  N   UNL     1     -10.672  12.306  67.558  1.00  0.00    -0.220 NA 
HETATM    2  C   UNL     1     -10.333  11.437  66.491  1.00  0.00    -0.236 A  
HETATM    3  H1  UNL     1     -10.637  11.946  68.512  1.00  0.00     0.000 HD 
HETATM    4  H2  UNL     1     -11.598  12.695  67.387  1.00  0.00     0.000 HD 
HETATM    5  C   UNL     1     -10.382  11.935  65.176  1.00  0.00    -0.318 A  
HETATM    6  C   UNL     1      -9.828  11.145  64.148  1.00  0.00    -0.340 A  
HETATM    7  C   UNL     1     -10.118  10.052  66.680  1.00  0.00    -0.289 A  
HETATM    8  C   UNL     1      -9.367   9.853  64.394  1.00  0.00    -0.326 A  
HETATM    9  C   UNL     1      -9.561   9.288  65.648  1.00  0.00    -0.324 A  
ENDROOT
BRANCH   5  10
HETATM   10  C   UNL     1     -10.913  13.309  64.791  1.00  0.00    -0.365 C  
HETATM   11  O   UNL     1     -13.222  12.547  64.366  1.00  0.00    -0.782 OA 
HETATM   12  O   UNL     1     -12.552  14.485  63.504  1.00  0.00    -0.746 OA 
HETATM   13  C   UNL     1     -12.283  13.478  64.158  1.00  0.00    -0.394 C  
ENDBRANCH   5  10
BRANCH   7  14
HETATM   14  C   UNL     1     -10.445   9.323  67.939  1.00  0.00    -0.236 C  
HETATM   15  O   UNL     1     -10.940   9.947  68.874  1.00  0.00    -0.220 OA 
BRANCH  14  16
HETATM   16  C   UNL     1     -10.181   7.862  68.095  1.00  0.00    -0.248 A  
HETATM   17  C   UNL     1     -10.948   6.967  67.336  1.00  0.00    -0.374 A  
HETATM   18  C   UNL     1     -10.652   5.601  67.342  1.00  0.00    -0.312 A  
HETATM   19  C   UNL     1      -9.588   5.127  68.108  1.00  0.00    -0.134 A  
HETATM   20  C   UNL     1      -8.858   5.997  68.914  1.00  0.00    -0.120 A  
HETATM   21 BR   UNL     1      -9.123   3.297  68.038  1.00  0.00    -0.234 Br 
HETATM   22  C   UNL     1      -9.176   7.358  68.934  1.00  0.00    -0.142 A  
ENDBRANCH  14  16
ENDBRANCH   7  14
TORSDOF 3
ENDMDL
MODEL       86
REMARK 921   NORMALIZED FREE ENERGY PREDICTED BY IDOCK:   -5.27 KCAL/MOL
REMARK 922        TOTAL FREE ENERGY PREDICTED BY IDOCK:   -6.82 KCAL/MOL
REMARK 923 INTER-LIGAND FREE ENERGY PREDICTED BY IDOCK:   -5.87 KCAL/MOL
REMARK 924 INTRA-LIGAND FREE ENERGY PREDICTED BY IDOCK:   -0.95 KCAL/MOL
REMARK 927      BINDING AFFINITY PREDICTED BY RF-SCORE:    0.00 PKD
ROOT
HETATM    1  N   UNL     1     -12.187  11.595  71.098  1.00  0.00    -0.271 NA 
HETATM    2  C   UNL     1     -11.738  11.544  69.754  1.00  0.00    -0.353 A  
HETATM    3  H1  UNL     1     -12.586  12.465  71.448  1.00  0.00     0.000 HD 
HETATM    4  H2  UNL     1     -11.423  11.312  71.712  1.00  0.00     0.000 HD 
HETATM    5  C   UNL     1     -11.186  10.344  69.273  1.00  0.00    -0.304 A  
HETATM    6  C   UNL     1     -10.958  10.229  67.887  1.00  0.00    -0.350 A  
HETATM    7  C   UNL     1     -11.665  12.696  68.937  1.00  0.00    -0.370 A  
HETATM    8  C   UNL     1     -11.141  11.312  67.029  1.00  0.00    -0.356 A  
HETATM    9  C   UNL     1     -11.443  12.559  67.562  1.00  0.00    -0.397 A  
ENDROOT
BRANCH   5  10
HETATM   10  C   UNL     1     -10.898   9.120  70.131  1.00  0.00    -0.269 C  
HETATM   11  O   UNL     1      -8.624   9.830  70.779  1.00  0.00    -0.183 OA 
HETATM   12  O   UNL     1      -9.181   7.687  70.985  1.00  0.00    -0.147 OA 
HETATM   13  C   UNL     1      -9.499   8.825  70.644  1.00  0.00    -0.197 C  
ENDBRANCH   5  10
BRANCH   7  14
HETATM   14  C   UNL     1     -11.816  14.090  69.445  1.00  0.00    -0.333 C  
HETATM   15  O   UNL     1     -12.745  14.345  70.207  1.00  0.00    -0.348 OA 
BRANCH  14  16
HETATM   16  C   UNL     1     -10.877  15.180  69.049  1.00  0.00    -0.242 A  
HETATM   17  C   UNL     1     -11.396  16.277  68.347  1.00  0.00    -0.312 A  
HETATM   18  C   UNL     1     -10.591  17.386  68.071  1.00  0.00    -0.389 A  
HETATM   19  C   UNL     1      -9.264  17.399  68.496  1.00  0.00    -0.277 A  
HETATM   20  C   UNL     1      -8.719  16.291  69.139  1.00  0.00    -0.212 A  
HETATM   21 BR   UNL     1      -8.203  18.937  68.214  1.00  0.00    -0.375 Br 
HETATM   22  C   UNL     1      -9.516  15.169  69.385  1.00  0.00    -0.185 A  
ENDBRANCH  14  16
ENDBRANCH   7  14
TORSDOF 3
ENDMDL
MODEL       87
REMARK 921   NORMALIZED FREE ENERGY PREDICTED BY IDOCK:   -5.26 KCAL/MOL
REMARK 922        TOTAL FREE ENERGY PREDICTED BY IDOCK:   -6.80 KCAL/MOL
REMARK 923 INTER-LIGAND FREE ENERGY PREDICTED BY IDOCK:   -6.01 KCAL/MOL
REMARK 924 INTRA-LIGAND FREE ENERGY PREDICTED BY IDOCK:   -0.79 KCAL/MOL
REMARK 927      BINDING AFFINITY PREDICTED BY RF-SCORE:    0.00 PKD
ROOT
HETATM    1  N   UNL     1      -9.935   9.382  70.282  1.00  0.00    -0.220 NA 
HETATM    2  C   UNL     1     -10.210   8.292  69.418  1.00  0.00    -0.204 A  
HETATM    3  H1  UNL     1      -9.751  10.297  69.872  1.00  0.00     0.000 HD 
HETATM    4  H2  UNL     1      -9.157   9.132  70.893  1.00  0.00     0.000 HD 
HETATM    5  C   UNL     1     -10.462   7.029  69.985  1.00  0.00    -0.233 A  
HETATM    6  C   UNL     1     -10.957   6.013  69.144  1.00  0.00    -0.429 A  
HETATM    7  C   UNL     1     -10.070   8.384  68.014  1.00  0.00    -0.245 A  
HETATM    8  C   UNL     1     -11.067   6.199  67.767  1.00  0.00    -0.306 A  
HETATM    9  C   UNL     1     -10.574   7.366  67.197  1.00  0.00    -0.413 A  
ENDROOT
BRANCH   5  10
HETATM   10  C   UNL     1     -10.323   6.704  71.466  1.00  0.00    -0.233 C  
HETATM   11  O   UNL     1     -12.345   7.941  72.158  1.00  0.00    -0.308 OA 
HETATM   12  O   UNL     1     -10.808   7.450  73.688  1.00  0.00    -0.346 OA 
HETATM   13  C   UNL     1     -11.168   7.410  72.513  1.00  0.00    -0.317 C  
ENDBRANCH   5  10
BRANCH   7  14
HETATM   14  C   UNL     1      -9.409   9.525  67.316  1.00  0.00    -0.134 C  
HETATM   15  O   UNL     1      -8.219   9.741  67.529  1.00  0.00    -0.113 OA 
BRANCH  14  16
HETATM   16  C   UNL     1     -10.155  10.413  66.376  1.00  0.00    -0.287 A  
HETATM   17  C   UNL     1     -11.046  11.349  66.917  1.00  0.00    -0.356 A  
HETATM   18  C   UNL     1     -11.666  12.294  66.094  1.00  0.00    -0.440 A  
HETATM   19  C   UNL     1     -11.395  12.302  64.726  1.00  0.00    -0.323 A  
HETATM   20  C   UNL     1     -10.560  11.338  64.167  1.00  0.00    -0.437 A  
HETATM   21 BR   UNL     1     -12.153  13.641  63.628  1.00  0.00    -0.269 Br 
HETATM   22  C   UNL     1      -9.967  10.373  64.987  1.00  0.00    -0.399 A  
ENDBRANCH  14  16
ENDBRANCH   7  14
TORSDOF 3
ENDMDL
MODEL       88
REMARK 921   NORMALIZED FREE ENERGY PREDICTED BY IDOCK:   -5.26 KCAL/MOL
REMARK 922        TOTAL FREE ENERGY PREDICTED BY IDOCK:   -6.80 KCAL/MOL
REMARK 923 INTER-LIGAND FREE ENERGY PREDICTED BY IDOCK:   -6.15 KCAL/MOL
REMARK 924 INTRA-LIGAND FREE ENERGY PREDICTED BY IDOCK:   -0.64 KCAL/MOL
REMARK 927      BINDING AFFINITY PREDICTED BY RF-SCORE:    0.00 PKD
ROOT
HETATM    1  N   UNL     1     -11.038   8.356  68.726  1.00  0.00    -0.379 NA 
HETATM    2  C   UNL     1     -10.510   8.114  70.019  1.00  0.00    -0.231 A  
HETATM    3  H1  UNL     1     -11.788   9.040  68.625  1.00  0.00     0.000 HD 
HETATM    4  H2  UNL     1     -11.341   7.471  68.321  1.00  0.00     0.000 HD 
HETATM    5  C   UNL     1      -9.475   7.170  70.159  1.00  0.00    -0.161 A  
HETATM    6  C   UNL     1      -8.804   7.103  71.396  1.00  0.00    -0.131 A  
HETATM    7  C   UNL     1     -11.095   8.650  71.189  1.00  0.00    -0.324 A  
HETATM    8  C   UNL     1      -9.231   7.845  72.495  1.00  0.00    -0.250 A  
HETATM    9  C   UNL     1     -10.408   8.578  72.406  1.00  0.00    -0.372 A  
ENDROOT
BRANCH   5  10
HETATM   10  C   UNL     1      -8.967   6.274  69.038  1.00  0.00    -0.123 C  
HETATM   11  O   UNL     1      -7.956   8.106  67.727  1.00  0.00    -0.122 OA 
HETATM   12  O   UNL     1      -8.398   6.176  66.715  1.00  0.00    -0.108 OA 
HETATM   13  C   UNL     1      -8.438   6.857  67.739  1.00  0.00    -0.123 C  
ENDBRANCH   5  10
BRANCH   7  14
HETATM   14  C   UNL     1     -12.430   9.314  71.224  1.00  0.00    -0.316 C  
HETATM   15  O   UNL     1     -13.434   8.620  71.354  1.00  0.00    -0.311 OA 
BRANCH  14  16
HETATM   16  C   UNL     1     -12.578  10.795  71.097  1.00  0.00    -0.532 A  
HETATM   17  C   UNL     1     -13.353  11.466  72.053  1.00  0.00    -0.388 A  
HETATM   18  C   UNL     1     -13.413  12.862  72.061  1.00  0.00    -0.568 A  
HETATM   19  C   UNL     1     -12.698  13.591  71.112  1.00  0.00    -0.344 A  
HETATM   20  C   UNL     1     -11.974  12.934  70.119  1.00  0.00    -0.373 A  
HETATM   21 BR   UNL     1     -12.697  15.479  71.183  1.00  0.00    -0.544 Br 
HETATM   22  C   UNL     1     -11.942  11.537  70.092  1.00  0.00    -0.452 A  
ENDBRANCH  14  16
ENDBRANCH   7  14
TORSDOF 3
ENDMDL
MODEL       89
REMARK 921   NORMALIZED FREE ENERGY PREDICTED BY IDOCK:   -5.24 KCAL/MOL
REMARK 922        TOTAL FREE ENERGY PREDICTED BY IDOCK:   -6.78 KCAL/MOL
REMARK 923 INTER-LIGAND FREE ENERGY PREDICTED BY IDOCK:   -5.72 KCAL/MOL
REMARK 924 INTRA-LIGAND FREE ENERGY PREDICTED BY IDOCK:   -1.05 KCAL/MOL
REMARK 927      BINDING AFFINITY PREDICTED BY RF-SCORE:    0.00 PKD
ROOT
HETATM    1  N   UNL     1     -11.260  16.761  69.295  1.00  0.00    -0.276 NA 
HETATM    2  C   UNL     1      -9.915  16.421  69.005  1.00  0.00    -0.267 A  
HETATM    3  H1  UNL     1     -11.930  16.010  69.458  1.00  0.00     0.000 HD 
HETATM    4  H2  UNL     1     -11.615  17.365  68.554  1.00  0.00     0.000 HD 
HETATM    5  C   UNL     1      -8.991  17.457  68.780  1.00  0.00    -0.219 A  
HETATM    6  C   UNL     1      -7.623  17.124  68.722  1.00  0.00    -0.259 A  
HETATM    7  C   UNL     1      -9.505  15.089  68.765  1.00  0.00    -0.210 A  
HETATM    8  C   UNL     1      -7.197  15.797  68.749  1.00  0.00    -0.137 A  
HETATM    9  C   UNL     1      -8.142  14.779  68.717  1.00  0.00    -0.158 A  
ENDROOT
BRANCH   5  10
HETATM   10  C   UNL     1      -9.355  18.932  68.681  1.00  0.00    -0.415 C  
HETATM   11  O   UNL     1     -10.677  18.700  66.609  1.00  0.00    -0.377 OA 
HETATM   12  O   UNL     1      -9.928  20.712  67.188  1.00  0.00    -0.452 OA 
HETATM   13  C   UNL     1      -9.991  19.508  67.428  1.00  0.00    -0.383 C  
ENDBRANCH   5  10
BRANCH   7  14
HETATM   14  C   UNL     1     -10.448  13.952  68.556  1.00  0.00    -0.250 C  
HETATM   15  O   UNL     1     -11.240  13.667  69.452  1.00  0.00    -0.249 OA 
BRANCH  14  16
HETATM   16  C   UNL     1     -10.452  13.151  67.297  1.00  0.00    -0.243 A  
HETATM   17  C   UNL     1     -10.624  13.828  66.082  1.00  0.00    -0.291 A  
HETATM   18  C   UNL     1     -10.499  13.147  64.868  1.00  0.00    -0.369 A  
HETATM   19  C   UNL     1     -10.203  11.785  64.867  1.00  0.00    -0.273 A  
HETATM   20  C   UNL     1     -10.090  11.088  66.067  1.00  0.00    -0.297 A  
HETATM   21 BR   UNL     1      -9.934  10.885  63.228  1.00  0.00    -0.372 Br 
HETATM   22  C   UNL     1     -10.248  11.763  67.281  1.00  0.00    -0.226 A  
ENDBRANCH  14  16
ENDBRANCH   7  14
TORSDOF 3
ENDMDL
MODEL       90
REMARK 921   NORMALIZED FREE ENERGY PREDICTED BY IDOCK:   -5.23 KCAL/MOL
REMARK 922        TOTAL FREE ENERGY PREDICTED BY IDOCK:   -6.77 KCAL/MOL
REMARK 923 INTER-LIGAND FREE ENERGY PREDICTED BY IDOCK:   -6.20 KCAL/MOL
REMARK 924 INTRA-LIGAND FREE ENERGY PREDICTED BY IDOCK:   -0.57 KCAL/MOL
REMARK 927      BINDING AFFINITY PREDICTED BY RF-SCORE:    0.00 PKD
ROOT
HETATM    1  N   UNL     1     -10.966   7.806  68.101  1.00  0.00    -0.444 NA 
HETATM    2  C   UNL     1     -10.577   8.056  69.441  1.00  0.00    -0.205 A  
HETATM    3  H1  UNL     1     -11.177   8.599  67.497  1.00  0.00     0.000 HD 
HETATM    4  H2  UNL     1     -11.764   7.171  68.101  1.00  0.00     0.000 HD 
HETATM    5  C   UNL     1     -10.287   6.960  70.274  1.00  0.00    -0.218 A  
HETATM    6  C   UNL     1      -9.684   7.218  71.521  1.00  0.00    -0.168 A  
HETATM    7  C   UNL     1     -10.636   9.345  70.019  1.00  0.00    -0.267 A  
HETATM    8  C   UNL     1      -9.501   8.520  71.984  1.00  0.00    -0.364 A  
HETATM    9  C   UNL     1     -10.025   9.581  71.255  1.00  0.00    -0.152 A  
ENDROOT
BRANCH   5  10
HETATM   10  C   UNL     1     -10.497   5.502  69.888  1.00  0.00    -0.386 C  
HETATM   11  O   UNL     1      -8.173   5.130  69.145  1.00  0.00    -0.084 OA 
HETATM   12  O   UNL     1      -9.759   3.728  68.461  1.00  0.00    -0.132 OA 
HETATM   13  C   UNL     1      -9.451   4.735  69.097  1.00  0.00    -0.149 C  
ENDBRANCH   5  10
BRANCH   7  14
HETATM   14  C   UNL     1     -11.317  10.511  69.386  1.00  0.00    -0.269 C  
HETATM   15  O   UNL     1     -11.470  10.519  68.167  1.00  0.00    -0.342 OA 
BRANCH  14  16
HETATM   16  C   UNL     1     -11.809  11.668  70.190  1.00  0.00    -0.428 A  
HETATM   17  C   UNL     1     -11.446  12.959  69.782  1.00  0.00    -0.203 A  
HETATM   18  C   UNL     1     -11.990  14.080  70.416  1.00  0.00    -0.398 A  
HETATM   19  C   UNL     1     -12.896  13.912  71.461  1.00  0.00    -0.361 A  
HETATM   20  C   UNL     1     -13.217  12.636  71.917  1.00  0.00    -0.504 A  
HETATM   21 BR   UNL     1     -13.708  15.424  72.251  1.00  0.00    -0.672 Br 
HETATM   22  C   UNL     1     -12.648  11.516  71.304  1.00  0.00    -0.452 A  
ENDBRANCH  14  16
ENDBRANCH   7  14
TORSDOF 3
ENDMDL
MODEL       91
REMARK 921   NORMALIZED FREE ENERGY PREDICTED BY IDOCK:   -5.23 KCAL/MOL
REMARK 922        TOTAL FREE ENERGY PREDICTED BY IDOCK:   -6.76 KCAL/MOL
REMARK 923 INTER-LIGAND FREE ENERGY PREDICTED BY IDOCK:   -5.89 KCAL/MOL
REMARK 924 INTRA-LIGAND FREE ENERGY PREDICTED BY IDOCK:   -0.88 KCAL/MOL
REMARK 927      BINDING AFFINITY PREDICTED BY RF-SCORE:    0.00 PKD
ROOT
HETATM    1  N   UNL     1     -11.553   6.812  69.404  1.00  0.00    -0.624 NA 
HETATM    2  C   UNL     1     -10.255   7.291  69.713  1.00  0.00    -0.210 A  
HETATM    3  H1  UNL     1     -12.149   7.372  68.796  1.00  0.00     0.000 HD 
HETATM    4  H2  UNL     1     -12.051   6.625  70.274  1.00  0.00     0.000 HD 
HETATM    5  C   UNL     1      -9.433   6.518  70.553  1.00  0.00    -0.173 A  
HETATM    6  C   UNL     1      -8.076   6.881  70.668  1.00  0.00    -0.118 A  
HETATM    7  C   UNL     1      -9.821   8.588  69.353  1.00  0.00    -0.185 A  
HETATM    8  C   UNL     1      -7.584   8.045  70.082  1.00  0.00    -0.081 A  
HETATM    9  C   UNL     1      -8.467   8.925  69.469  1.00  0.00    -0.128 A  
ENDROOT
BRANCH   5  10
HETATM   10  C   UNL     1      -9.883   5.259  71.281  1.00  0.00    -0.232 C  
HETATM   11  O   UNL     1     -11.601   6.392  72.645  1.00  0.00    -0.243 OA 
HETATM   12  O   UNL     1     -10.849   4.403  73.296  1.00  0.00    -0.212 OA 
HETATM   13  C   UNL     1     -10.799   5.331  72.491  1.00  0.00    -0.245 C  
ENDBRANCH   5  10
BRANCH   7  14
HETATM   14  C   UNL     1     -10.725   9.656  68.837  1.00  0.00    -0.206 C  
HETATM   15  O   UNL     1     -10.912   9.740  67.625  1.00  0.00    -0.280 OA 
BRANCH  14  16
HETATM   16  C   UNL     1     -11.401  10.625  69.749  1.00  0.00    -0.371 A  
HETATM   17  C   UNL     1     -11.286  11.993  69.462  1.00  0.00    -0.298 A  
HETATM   18  C   UNL     1     -12.010  12.933  70.201  1.00  0.00    -0.373 A  
HETATM   19  C   UNL     1     -12.848  12.508  71.229  1.00  0.00    -0.241 A  
HETATM   20  C   UNL     1     -12.923  11.158  71.565  1.00  0.00    -0.542 A  
HETATM   21 BR   UNL     1     -13.903  13.768  72.163  1.00  0.00    -0.660 Br 
HETATM   22  C   UNL     1     -12.174  10.221  70.847  1.00  0.00    -0.465 A  
ENDBRANCH  14  16
ENDBRANCH   7  14
TORSDOF 3
ENDMDL
MODEL       92
REMARK 921   NORMALIZED FREE ENERGY PREDICTED BY IDOCK:   -5.23 KCAL/MOL
REMARK 922        TOTAL FREE ENERGY PREDICTED BY IDOCK:   -6.76 KCAL/MOL
REMARK 923 INTER-LIGAND FREE ENERGY PREDICTED BY IDOCK:   -6.36 KCAL/MOL
REMARK 924 INTRA-LIGAND FREE ENERGY PREDICTED BY IDOCK:   -0.40 KCAL/MOL
REMARK 927      BINDING AFFINITY PREDICTED BY RF-SCORE:    0.00 PKD
ROOT
HETATM    1  N   UNL     1      -9.954   9.481  66.524  1.00  0.00    -0.243 NA 
HETATM    2  C   UNL     1     -10.527  10.491  67.338  1.00  0.00    -0.244 A  
HETATM    3  H1  UNL     1      -9.602   8.635  66.971  1.00  0.00     0.000 HD 
HETATM    4  H2  UNL     1      -9.208   9.893  65.963  1.00  0.00     0.000 HD 
HETATM    5  C   UNL     1     -11.011  11.659  66.722  1.00  0.00    -0.341 A  
HETATM    6  C   UNL     1     -11.780  12.548  67.500  1.00  0.00    -0.439 A  
HETATM    7  C   UNL     1     -10.474  10.447  68.750  1.00  0.00    -0.219 A  
HETATM    8  C   UNL     1     -11.947  12.355  68.869  1.00  0.00    -0.289 A  
HETATM    9  C   UNL     1     -11.250  11.334  69.504  1.00  0.00    -0.337 A  
ENDROOT
BRANCH   5  10
HETATM   10  C   UNL     1     -10.840  11.992  65.246  1.00  0.00    -0.340 C  
HETATM   11  O   UNL     1     -13.142  12.829  64.936  1.00  0.00    -0.833 OA 
HETATM   12  O   UNL     1     -11.967  12.223  63.147  1.00  0.00    -0.406 OA 
HETATM   13  C   UNL     1     -12.032  12.338  64.370  1.00  0.00    -0.394 C  
ENDBRANCH   5  10
BRANCH   7  14
HETATM   14  C   UNL     1      -9.629   9.490  69.522  1.00  0.00    -0.188 C  
HETATM   15  O   UNL     1      -8.410   9.525  69.378  1.00  0.00    -0.119 OA 
BRANCH  14  16
HETATM   16  C   UNL     1     -10.224   8.489  70.457  1.00  0.00    -0.220 A  
HETATM   17  C   UNL     1     -10.718   7.293  69.917  1.00  0.00    -0.257 A  
HETATM   18  C   UNL     1     -11.160   6.267  70.758  1.00  0.00    -0.377 A  
HETATM   19  C   UNL     1     -11.109   6.436  72.140  1.00  0.00    -0.263 A  
HETATM   20  C   UNL     1     -10.679   7.643  72.687  1.00  0.00    -0.377 A  
HETATM   21 BR   UNL     1     -11.610   5.014  73.279  1.00  0.00    -0.076 Br 
HETATM   22  C   UNL     1     -10.269   8.681  71.845  1.00  0.00    -0.404 A  
ENDBRANCH  14  16
ENDBRANCH   7  14
TORSDOF 3
ENDMDL
MODEL       93
REMARK 921   NORMALIZED FREE ENERGY PREDICTED BY IDOCK:   -5.21 KCAL/MOL
REMARK 922        TOTAL FREE ENERGY PREDICTED BY IDOCK:   -6.74 KCAL/MOL
REMARK 923 INTER-LIGAND FREE ENERGY PREDICTED BY IDOCK:   -6.11 KCAL/MOL
REMARK 924 INTRA-LIGAND FREE ENERGY PREDICTED BY IDOCK:   -0.63 KCAL/MOL
REMARK 927      BINDING AFFINITY PREDICTED BY RF-SCORE:    0.00 PKD
ROOT
HETATM    1  N   UNL     1     -13.237   9.744  70.637  1.00  0.00    -0.599 NA 
HETATM    2  C   UNL     1     -11.844   9.711  70.375  1.00  0.00    -0.155 A  
HETATM    3  H1  UNL     1     -13.777  10.544  70.308  1.00  0.00     0.000 HD 
HETATM    4  H2  UNL     1     -13.388   9.633  71.639  1.00  0.00     0.000 HD 
HETATM    5  C   UNL     1     -11.099   8.608  70.829  1.00  0.00    -0.295 A  
HETATM    6  C   UNL     1      -9.774   8.470  70.371  1.00  0.00    -0.193 A  
HETATM    7  C   UNL     1     -11.149  10.816  69.832  1.00  0.00    -0.339 A  
HETATM    8  C   UNL     1      -9.165   9.460  69.601  1.00  0.00    -0.195 A  
HETATM    9  C   UNL     1      -9.836  10.656  69.377  1.00  0.00    -0.164 A  
ENDROOT
BRANCH   5  10
HETATM   10  C   UNL     1     -11.651   7.498  71.714  1.00  0.00    -0.304 C  
HETATM   11  O   UNL     1      -9.994   7.806  73.518  1.00  0.00    -0.317 OA 
HETATM   12  O   UNL     1     -11.110   5.886  73.399  1.00  0.00    -0.238 OA 
HETATM   13  C   UNL     1     -10.883   6.999  72.926  1.00  0.00    -0.301 C  
ENDBRANCH   5  10
BRANCH   7  14
HETATM   14  C   UNL     1     -11.732  12.182  69.698  1.00  0.00    -0.325 C  
HETATM   15  O   UNL     1     -12.328  12.669  70.656  1.00  0.00    -0.359 OA 
BRANCH  14  16
HETATM   16  C   UNL     1     -11.617  12.969  68.435  1.00  0.00    -0.370 A  
HETATM   17  C   UNL     1     -11.911  12.324  67.225  1.00  0.00    -0.330 A  
HETATM   18  C   UNL     1     -11.951  13.047  66.030  1.00  0.00    -0.498 A  
HETATM   19  C   UNL     1     -11.696  14.417  66.041  1.00  0.00    -0.375 A  
HETATM   20  C   UNL     1     -11.342  15.058  67.226  1.00  0.00    -0.337 A  
HETATM   21 BR   UNL     1     -11.850  15.414  64.444  1.00  0.00    -0.128 Br 
HETATM   22  C   UNL     1     -11.269  14.328  68.416  1.00  0.00    -0.291 A  
ENDBRANCH  14  16
ENDBRANCH   7  14
TORSDOF 3
ENDMDL
MODEL       94
REMARK 921   NORMALIZED FREE ENERGY PREDICTED BY IDOCK:   -5.20 KCAL/MOL
REMARK 922        TOTAL FREE ENERGY PREDICTED BY IDOCK:   -6.73 KCAL/MOL
REMARK 923 INTER-LIGAND FREE ENERGY PREDICTED BY IDOCK:   -5.95 KCAL/MOL
REMARK 924 INTRA-LIGAND FREE ENERGY PREDICTED BY IDOCK:   -0.78 KCAL/MOL
REMARK 927      BINDING AFFINITY PREDICTED BY RF-SCORE:    0.00 PKD
ROOT
HETATM    1  N   UNL     1     -10.205  13.572  69.118  1.00  0.00    -0.424 NA 
HETATM    2  C   UNL     1     -10.264  13.801  67.720  1.00  0.00    -0.241 A  
HETATM    3  H1  UNL     1     -10.606  14.268  69.745  1.00  0.00     0.000 HD 
HETATM    4  H2  UNL     1      -9.235  13.407  69.385  1.00  0.00     0.000 HD 
HETATM    5  C   UNL     1      -9.709  12.840  66.855  1.00  0.00    -0.234 A  
HETATM    6  C   UNL     1      -9.974  12.960  65.476  1.00  0.00    -0.226 A  
HETATM    7  C   UNL     1     -10.700  15.030  67.172  1.00  0.00    -0.303 A  
HETATM    8  C   UNL     1     -10.646  14.065  64.959  1.00  0.00    -0.426 A  
HETATM    9  C   UNL     1     -10.962  15.125  65.801  1.00  0.00    -0.350 A  
ENDROOT
BRANCH   5  10
HETATM   10  C   UNL     1      -8.915  11.624  67.311  1.00  0.00    -0.169 C  
HETATM   11  O   UNL     1     -10.803  10.547  68.480  1.00  0.00    -0.203 OA 
HETATM   12  O   UNL     1      -8.729   9.920  68.981  1.00  0.00    -0.133 OA 
HETATM   13  C   UNL     1      -9.477  10.650  68.332  1.00  0.00    -0.165 C  
ENDBRANCH   5  10
BRANCH   7  14
HETATM   14  C   UNL     1     -10.913  16.270  67.972  1.00  0.00    -0.328 C  
HETATM   15  O   UNL     1     -11.863  16.317  68.751  1.00  0.00    -0.278 OA 
BRANCH  14  16
HETATM   16  C   UNL     1     -10.012  17.453  67.848  1.00  0.00    -0.301 A  
HETATM   17  C   UNL     1      -8.793  17.432  68.540  1.00  0.00    -0.277 A  
HETATM   18  C   UNL     1      -7.855  18.451  68.351  1.00  0.00    -0.323 A  
HETATM   19  C   UNL     1      -8.134  19.494  67.470  1.00  0.00    -0.290 A  
HETATM   20  C   UNL     1      -9.367  19.559  66.824  1.00  0.00    -0.431 A  
HETATM   21 BR   UNL     1      -6.827  20.817  67.137  1.00  0.00    -0.417 Br 
HETATM   22  C   UNL     1     -10.318  18.557  67.039  1.00  0.00    -0.433 A  
ENDBRANCH  14  16
ENDBRANCH   7  14
TORSDOF 3
ENDMDL
MODEL       95
REMARK 921   NORMALIZED FREE ENERGY PREDICTED BY IDOCK:   -5.19 KCAL/MOL
REMARK 922        TOTAL FREE ENERGY PREDICTED BY IDOCK:   -6.72 KCAL/MOL
REMARK 923 INTER-LIGAND FREE ENERGY PREDICTED BY IDOCK:   -5.88 KCAL/MOL
REMARK 924 INTRA-LIGAND FREE ENERGY PREDICTED BY IDOCK:   -0.85 KCAL/MOL
REMARK 927      BINDING AFFINITY PREDICTED BY RF-SCORE:    0.00 PKD
ROOT
HETATM    1  N   UNL     1     -12.120  12.018  67.183  1.00  0.00    -0.532 NA 
HETATM    2  C   UNL     1     -10.842  11.422  67.045  1.00  0.00    -0.282 A  
HETATM    3  H1  UNL     1     -12.501  12.147  68.120  1.00  0.00     0.000 HD 
HETATM    4  H2  UNL     1     -12.792  11.494  66.623  1.00  0.00     0.000 HD 
HETATM    5  C   UNL     1     -10.317  11.244  65.751  1.00  0.00    -0.310 A  
HETATM    6  C   UNL     1      -8.964  10.867  65.632  1.00  0.00    -0.209 A  
HETATM    7  C   UNL     1     -10.153  10.844  68.136  1.00  0.00    -0.190 A  
HETATM    8  C   UNL     1      -8.199  10.546  66.750  1.00  0.00    -0.126 A  
HETATM    9  C   UNL     1      -8.808  10.483  67.998  1.00  0.00    -0.131 A  
ENDROOT
BRANCH   5  10
HETATM   10  C   UNL     1     -11.083  11.516  64.464  1.00  0.00    -0.340 C  
HETATM   11  O   UNL     1     -10.579  13.932  64.409  1.00  0.00    -0.400 OA 
HETATM   12  O   UNL     1     -12.289  13.162  63.214  1.00  0.00    -0.712 OA 
HETATM   13  C   UNL     1     -11.372  12.933  64.000  1.00  0.00    -0.415 C  
ENDBRANCH   5  10
BRANCH   7  14
HETATM   14  C   UNL     1     -10.771  10.588  69.469  1.00  0.00    -0.255 C  
HETATM   15  O   UNL     1     -11.331  11.514  70.051  1.00  0.00    -0.244 OA 
BRANCH  14  16
HETATM   16  C   UNL     1     -10.720   9.244  70.117  1.00  0.00    -0.269 A  
HETATM   17  C   UNL     1     -11.020   8.121  69.333  1.00  0.00    -0.015 A  
HETATM   18  C   UNL     1     -10.856   6.833  69.851  1.00  0.00    -0.310 A  
HETATM   19  C   UNL     1     -10.393   6.666  71.155  1.00  0.00    -0.206 A  
HETATM   20  C   UNL     1     -10.151   7.774  71.964  1.00  0.00    -0.244 A  
HETATM   21 BR   UNL     1     -10.074   4.927  71.822  1.00  0.00    -0.271 Br 
HETATM   22  C   UNL     1     -10.347   9.061  71.456  1.00  0.00    -0.412 A  
ENDBRANCH  14  16
ENDBRANCH   7  14
TORSDOF 3
ENDMDL
MODEL       96
REMARK 921   NORMALIZED FREE ENERGY PREDICTED BY IDOCK:   -5.19 KCAL/MOL
REMARK 922        TOTAL FREE ENERGY PREDICTED BY IDOCK:   -6.72 KCAL/MOL
REMARK 923 INTER-LIGAND FREE ENERGY PREDICTED BY IDOCK:   -6.07 KCAL/MOL
REMARK 924 INTRA-LIGAND FREE ENERGY PREDICTED BY IDOCK:   -0.64 KCAL/MOL
REMARK 927      BINDING AFFINITY PREDICTED BY RF-SCORE:    0.00 PKD
ROOT
HETATM    1  N   UNL     1      -9.545  12.493  64.978  1.00  0.00    -0.469 NA 
HETATM    2  C   UNL     1     -10.363  12.124  66.075  1.00  0.00    -0.237 A  
HETATM    3  H1  UNL     1      -9.437  13.484  64.760  1.00  0.00     0.000 HD 
HETATM    4  H2  UNL     1      -9.869  12.005  64.144  1.00  0.00     0.000 HD 
HETATM    5  C   UNL     1     -10.512  10.758  66.375  1.00  0.00    -0.293 A  
HETATM    6  C   UNL     1     -11.132  10.412  67.592  1.00  0.00    -0.361 A  
HETATM    7  C   UNL     1     -11.169  13.058  66.767  1.00  0.00    -0.333 A  
HETATM    8  C   UNL     1     -11.706  11.378  68.416  1.00  0.00    -0.373 A  
HETATM    9  C   UNL     1     -11.771  12.695  67.977  1.00  0.00    -0.402 A  
ENDROOT
BRANCH   5  10
HETATM   10  C   UNL     1      -9.970   9.622  65.519  1.00  0.00    -0.279 C  
HETATM   11  O   UNL     1      -8.101   9.070  67.036  1.00  0.00    -0.104 OA 
HETATM   12  O   UNL     1      -8.011   8.382  64.924  1.00  0.00    -0.120 OA 
HETATM   13  C   UNL     1      -8.614   8.997  65.801  1.00  0.00    -0.160 C  
ENDBRANCH   5  10
BRANCH   7  14
HETATM   14  C   UNL     1     -11.429  14.447  66.291  1.00  0.00    -0.359 C  
HETATM   15  O   UNL     1     -12.299  14.631  65.443  1.00  0.00    -0.305 OA 
BRANCH  14  16
HETATM   16  C   UNL     1     -10.659  15.616  66.809  1.00  0.00    -0.307 A  
HETATM   17  C   UNL     1      -9.638  16.144  66.006  1.00  0.00    -0.381 A  
HETATM   18  C   UNL     1      -8.978  17.318  66.381  1.00  0.00    -0.282 A  
HETATM   19  C   UNL     1      -9.338  17.966  67.561  1.00  0.00    -0.253 A  
HETATM   20  C   UNL     1     -10.307  17.418  68.399  1.00  0.00    -0.379 A  
HETATM   21 BR   UNL     1      -8.518  19.605  68.019  1.00  0.00    -0.346 Br 
HETATM   22  C   UNL     1     -10.943  16.226  68.039  1.00  0.00    -0.328 A  
ENDBRANCH  14  16
ENDBRANCH   7  14
TORSDOF 3
ENDMDL
MODEL       97
REMARK 921   NORMALIZED FREE ENERGY PREDICTED BY IDOCK:   -5.16 KCAL/MOL
REMARK 922        TOTAL FREE ENERGY PREDICTED BY IDOCK:   -6.69 KCAL/MOL
REMARK 923 INTER-LIGAND FREE ENERGY PREDICTED BY IDOCK:   -6.11 KCAL/MOL
REMARK 924 INTRA-LIGAND FREE ENERGY PREDICTED BY IDOCK:   -0.58 KCAL/MOL
REMARK 927      BINDING AFFINITY PREDICTED BY RF-SCORE:    0.00 PKD
ROOT
HETATM    1  N   UNL     1      -8.222  13.313  66.709  1.00  0.00    -0.413 NA 
HETATM    2  C   UNL     1      -9.194  14.220  66.216  1.00  0.00    -0.151 A  
HETATM    3  H1  UNL     1      -8.369  12.314  66.566  1.00  0.00     0.000 HD 
HETATM    4  H2  UNL     1      -8.082  13.487  67.704  1.00  0.00     0.000 HD 
HETATM    5  C   UNL     1      -8.992  15.597  66.414  1.00  0.00    -0.362 A  
HETATM    6  C   UNL     1      -9.834  16.495  65.728  1.00  0.00    -0.275 A  
HETATM    7  C   UNL     1     -10.434  13.789  65.691  1.00  0.00    -0.312 A  
HETATM    8  C   UNL     1     -10.921  16.045  64.982  1.00  0.00    -0.393 A  
HETATM    9  C   UNL     1     -11.252  14.696  65.007  1.00  0.00    -0.388 A  
ENDROOT
BRANCH   5  10
HETATM   10  C   UNL     1      -7.868  16.194  67.250  1.00  0.00    -0.207 C  
HETATM   11  O   UNL     1      -8.704  15.324  69.404  1.00  0.00    -0.232 OA 
HETATM   12  O   UNL     1      -7.263  17.018  69.414  1.00  0.00    -0.207 OA 
HETATM   13  C   UNL     1      -7.940  16.220  68.767  1.00  0.00    -0.221 C  
ENDBRANCH   5  10
BRANCH   7  14
HETATM   14  C   UNL     1     -10.950  12.395  65.809  1.00  0.00    -0.298 C  
HETATM   15  O   UNL     1     -11.402  11.842  64.810  1.00  0.00    -0.316 OA 
BRANCH  14  16
HETATM   16  C   UNL     1     -10.938  11.657  67.107  1.00  0.00    -0.330 A  
HETATM   17  C   UNL     1     -11.353  12.340  68.259  1.00  0.00    -0.339 A  
HETATM   18  C   UNL     1     -11.492  11.660  69.473  1.00  0.00    -0.371 A  
HETATM   19  C   UNL     1     -11.214  10.296  69.537  1.00  0.00    -0.261 A  
HETATM   20  C   UNL     1     -10.741   9.619  68.414  1.00  0.00    -0.251 A  
HETATM   21 BR   UNL     1     -11.496   9.355  71.151  1.00  0.00    -0.454 Br 
HETATM   22  C   UNL     1     -10.572  10.307  67.209  1.00  0.00    -0.324 A  
ENDBRANCH  14  16
ENDBRANCH   7  14
TORSDOF 3
ENDMDL
MODEL       98
REMARK 921   NORMALIZED FREE ENERGY PREDICTED BY IDOCK:   -5.15 KCAL/MOL
REMARK 922        TOTAL FREE ENERGY PREDICTED BY IDOCK:   -6.67 KCAL/MOL
REMARK 923 INTER-LIGAND FREE ENERGY PREDICTED BY IDOCK:   -6.06 KCAL/MOL
REMARK 924 INTRA-LIGAND FREE ENERGY PREDICTED BY IDOCK:   -0.62 KCAL/MOL
REMARK 927      BINDING AFFINITY PREDICTED BY RF-SCORE:    0.00 PKD
ROOT
HETATM    1  N   UNL     1     -10.243  11.355  67.383  1.00  0.00    -0.190 NA 
HETATM    2  C   UNL     1     -10.609  11.786  66.083  1.00  0.00    -0.260 A  
HETATM    3  H1  UNL     1     -10.566  11.894  68.186  1.00  0.00     0.000 HD 
HETATM    4  H2  UNL     1      -9.228  11.269  67.430  1.00  0.00     0.000 HD 
HETATM    5  C   UNL     1     -10.163  11.042  64.976  1.00  0.00    -0.360 A  
HETATM    6  C   UNL     1     -10.715  11.339  63.713  1.00  0.00    -0.448 A  
HETATM    7  C   UNL     1     -11.254  13.023  65.849  1.00  0.00    -0.315 A  
HETATM    8  C   UNL     1     -11.573  12.421  63.533  1.00  0.00    -0.577 A  
HETATM    9  C   UNL     1     -11.800  13.294  64.590  1.00  0.00    -0.420 A  
ENDROOT
BRANCH   5  10
HETATM   10  C   UNL     1      -9.188   9.875  65.055  1.00  0.00    -0.295 C  
HETATM   11  O   UNL     1     -10.606   8.500  66.537  1.00  0.00    -0.200 OA 
HETATM   12  O   UNL     1      -8.434   8.042  66.396  1.00  0.00    -0.123 OA 
HETATM   13  C   UNL     1      -9.380   8.752  66.060  1.00  0.00    -0.232 C  
ENDBRANCH   5  10
BRANCH   7  14
HETATM   14  C   UNL     1     -11.404  14.092  66.878  1.00  0.00    -0.329 C  
HETATM   15  O   UNL     1     -12.345  14.028  67.665  1.00  0.00    -0.274 OA 
BRANCH  14  16
HETATM   16  C   UNL     1     -10.450  15.236  66.972  1.00  0.00    -0.292 A  
HETATM   17  C   UNL     1     -10.788  16.311  67.806  1.00  0.00    -0.315 A  
HETATM   18  C   UNL     1      -9.872  17.342  68.036  1.00  0.00    -0.284 A  
HETATM   19  C   UNL     1      -8.617  17.300  67.432  1.00  0.00    -0.205 A  
HETATM   20  C   UNL     1      -8.293  16.270  66.552  1.00  0.00    -0.343 A  
HETATM   21 BR   UNL     1      -7.343  18.639  67.821  1.00  0.00    -0.248 Br 
HETATM   22  C   UNL     1      -9.222  15.257  66.297  1.00  0.00    -0.350 A  
ENDBRANCH  14  16
ENDBRANCH   7  14
TORSDOF 3
ENDMDL
MODEL       99
REMARK 921   NORMALIZED FREE ENERGY PREDICTED BY IDOCK:   -5.13 KCAL/MOL
REMARK 922        TOTAL FREE ENERGY PREDICTED BY IDOCK:   -6.65 KCAL/MOL
REMARK 923 INTER-LIGAND FREE ENERGY PREDICTED BY IDOCK:   -6.13 KCAL/MOL
REMARK 924 INTRA-LIGAND FREE ENERGY PREDICTED BY IDOCK:   -0.52 KCAL/MOL
REMARK 927      BINDING AFFINITY PREDICTED BY RF-SCORE:    0.00 PKD
ROOT
HETATM    1  N   UNL     1      -9.314  10.235  68.935  1.00  0.00    -0.168 NA 
HETATM    2  C   UNL     1     -10.509  10.336  69.692  1.00  0.00    -0.253 A  
HETATM    3  H1  UNL     1      -9.102  10.966  68.257  1.00  0.00     0.000 HD 
HETATM    4  H2  UNL     1      -9.297   9.332  68.462  1.00  0.00     0.000 HD 
HETATM    5  C   UNL     1     -10.801   9.326  70.627  1.00  0.00    -0.339 A  
HETATM    6  C   UNL     1     -11.860   9.547  71.530  1.00  0.00    -0.478 A  
HETATM    7  C   UNL     1     -11.496  11.312  69.423  1.00  0.00    -0.370 A  
HETATM    8  C   UNL     1     -12.685  10.665  71.422  1.00  0.00    -0.545 A  
HETATM    9  C   UNL     1     -12.535  11.519  70.336  1.00  0.00    -0.324 A  
ENDROOT
BRANCH   5  10
HETATM   10  C   UNL     1      -9.997   8.044  70.794  1.00  0.00    -0.202 C  
HETATM   11  O   UNL     1     -11.813   6.543  70.055  1.00  0.00    -0.404 OA 
HETATM   12  O   UNL     1     -10.127   5.695  71.231  1.00  0.00    -0.190 OA 
HETATM   13  C   UNL     1     -10.662   6.680  70.725  1.00  0.00    -0.238 C  
ENDBRANCH   5  10
BRANCH   7  14
HETATM   14  C   UNL     1     -11.509  12.169  68.202  1.00  0.00    -0.317 C  
HETATM   15  O   UNL     1     -12.140  11.789  67.218  1.00  0.00    -0.595 OA 
BRANCH  14  16
HETATM   16  C   UNL     1     -10.773  13.466  68.141  1.00  0.00    -0.267 A  
HETATM   17  C   UNL     1     -10.825  14.309  69.260  1.00  0.00    -0.241 A  
HETATM   18  C   UNL     1     -10.046  15.469  69.308  1.00  0.00    -0.256 A  
HETATM   19  C   UNL     1      -9.214  15.788  68.237  1.00  0.00    -0.188 A  
HETATM   20  C   UNL     1      -9.200  14.992  67.094  1.00  0.00    -0.229 A  
HETATM   21 BR   UNL     1      -8.086  17.300  68.342  1.00  0.00    -0.266 Br 
HETATM   22  C   UNL     1     -10.005  13.850  67.033  1.00  0.00    -0.258 A  
ENDBRANCH  14  16
ENDBRANCH   7  14
TORSDOF 3
ENDMDL
MODEL      100
REMARK 921   NORMALIZED FREE ENERGY PREDICTED BY IDOCK:   -5.13 KCAL/MOL
REMARK 922        TOTAL FREE ENERGY PREDICTED BY IDOCK:   -6.64 KCAL/MOL
REMARK 923 INTER-LIGAND FREE ENERGY PREDICTED BY IDOCK:   -5.91 KCAL/MOL
REMARK 924 INTRA-LIGAND FREE ENERGY PREDICTED BY IDOCK:   -0.73 KCAL/MOL
REMARK 927      BINDING AFFINITY PREDICTED BY RF-SCORE:    0.00 PKD
ROOT
HETATM    1  N   UNL     1     -11.612   6.787  69.382  1.00  0.00    -0.624 NA 
HETATM    2  C   UNL     1     -10.631   7.730  69.781  1.00  0.00    -0.241 A  
HETATM    3  H1  UNL     1     -11.798   6.667  68.387  1.00  0.00     0.000 HD 
HETATM    4  H2  UNL     1     -12.488   6.999  69.858  1.00  0.00     0.000 HD 
HETATM    5  C   UNL     1     -10.375   7.896  71.154  1.00  0.00    -0.225 A  
HETATM    6  C   UNL     1      -9.250   8.657  71.530  1.00  0.00    -0.316 A  
HETATM    7  C   UNL     1     -10.029   8.628  68.869  1.00  0.00    -0.197 A  
HETATM    8  C   UNL     1      -8.488   9.342  70.586  1.00  0.00    -0.258 A  
HETATM    9  C   UNL     1      -8.909   9.369  69.262  1.00  0.00    -0.150 A  
ENDROOT
BRANCH   5  10
HETATM   10  C   UNL     1     -11.176   7.237  72.268  1.00  0.00    -0.305 C  
HETATM   11  O   UNL     1     -10.453   4.937  71.734  1.00  0.00    -0.200 OA 
HETATM   12  O   UNL     1     -12.286   5.232  72.960  1.00  0.00    -0.094 OA 
HETATM   13  C   UNL     1     -11.355   5.729  72.328  1.00  0.00    -0.278 C  
ENDBRANCH   5  10
BRANCH   7  14
HETATM   14  C   UNL     1     -10.509   8.846  67.475  1.00  0.00    -0.269 C  
HETATM   15  O   UNL     1     -10.691   7.870  66.750  1.00  0.00    -0.304 OA 
BRANCH  14  16
HETATM   16  C   UNL     1     -10.767  10.214  66.934  1.00  0.00    -0.231 A  
HETATM   17  C   UNL     1     -10.392  10.483  65.611  1.00  0.00    -0.274 A  
HETATM   18  C   UNL     1     -10.732  11.700  65.013  1.00  0.00    -0.351 A  
HETATM   19  C   UNL     1     -11.448  12.650  65.738  1.00  0.00    -0.358 A  
HETATM   20  C   UNL     1     -11.773  12.420  67.073  1.00  0.00    -0.423 A  
HETATM   21 BR   UNL     1     -11.997  14.253  64.901  1.00  0.00    -0.454 Br 
HETATM   22  C   UNL     1     -11.403  11.216  67.680  1.00  0.00    -0.356 A  
ENDBRANCH  14  16
ENDBRANCH   7  14
TORSDOF 3
ENDMDL
MODEL      101
REMARK 921   NORMALIZED FREE ENERGY PREDICTED BY IDOCK:   -5.08 KCAL/MOL
REMARK 922        TOTAL FREE ENERGY PREDICTED BY IDOCK:   -6.59 KCAL/MOL
REMARK 923 INTER-LIGAND FREE ENERGY PREDICTED BY IDOCK:   -5.78 KCAL/MOL
REMARK 924 INTRA-LIGAND FREE ENERGY PREDICTED BY IDOCK:   -0.82 KCAL/MOL
REMARK 927      BINDING AFFINITY PREDICTED BY RF-SCORE:    0.00 PKD
ROOT
HETATM    1  N   UNL     1      -9.521  18.267  68.346  1.00  0.00    -0.311 NA 
HETATM    2  C   UNL     1      -8.540  17.264  68.546  1.00  0.00    -0.270 A  
HETATM    3  H1  UNL     1     -10.492  18.053  68.570  1.00  0.00     0.000 HD 
HETATM    4  H2  UNL     1      -9.469  18.593  67.381  1.00  0.00     0.000 HD 
HETATM    5  C   UNL     1      -7.200  17.560  68.236  1.00  0.00    -0.217 A  
HETATM    6  C   UNL     1      -6.208  16.648  68.650  1.00  0.00    -0.142 A  
HETATM    7  C   UNL     1      -8.876  15.931  68.876  1.00  0.00    -0.225 A  
HETATM    8  C   UNL     1      -6.541  15.424  69.226  1.00  0.00    -0.143 A  
HETATM    9  C   UNL     1      -7.876  15.044  69.290  1.00  0.00    -0.190 A  
ENDROOT
BRANCH   5  10
HETATM   10  C   UNL     1      -6.732  18.843  67.562  1.00  0.00    -0.208 C  
HETATM   11  O   UNL     1      -6.435  20.105  69.663  1.00  0.00    -0.336 OA 
HETATM   12  O   UNL     1      -6.621  21.226  67.751  1.00  0.00    -0.397 OA 
HETATM   13  C   UNL     1      -6.612  20.144  68.336  1.00  0.00    -0.302 C  
ENDBRANCH   5  10
BRANCH   7  14
HETATM   14  C   UNL     1     -10.262  15.383  68.821  1.00  0.00    -0.217 C  
HETATM   15  O   UNL     1     -10.999  15.535  69.792  1.00  0.00    -0.247 OA 
BRANCH  14  16
HETATM   16  C   UNL     1     -10.774  14.652  67.624  1.00  0.00    -0.271 A  
HETATM   17  C   UNL     1     -10.871  15.351  66.413  1.00  0.00    -0.303 A  
HETATM   18  C   UNL     1     -11.213  14.682  65.235  1.00  0.00    -0.358 A  
HETATM   19  C   UNL     1     -11.460  13.310  65.266  1.00  0.00    -0.295 A  
HETATM   20  C   UNL     1     -11.428  12.616  66.473  1.00  0.00    -0.409 A  
HETATM   21 BR   UNL     1     -11.823  12.386  63.659  1.00  0.00    -0.642 Br 
HETATM   22  C   UNL     1     -11.118  13.293  67.656  1.00  0.00    -0.292 A  
ENDBRANCH  14  16
ENDBRANCH   7  14
TORSDOF 3
ENDMDL
MODEL      102
REMARK 921   NORMALIZED FREE ENERGY PREDICTED BY IDOCK:   -5.06 KCAL/MOL
REMARK 922        TOTAL FREE ENERGY PREDICTED BY IDOCK:   -6.57 KCAL/MOL
REMARK 923 INTER-LIGAND FREE ENERGY PREDICTED BY IDOCK:   -5.86 KCAL/MOL
REMARK 924 INTRA-LIGAND FREE ENERGY PREDICTED BY IDOCK:   -0.71 KCAL/MOL
REMARK 927      BINDING AFFINITY PREDICTED BY RF-SCORE:    0.00 PKD
ROOT
HETATM    1  N   UNL     1     -11.642  14.422  65.937  1.00  0.00    -0.356 NA 
HETATM    2  C   UNL     1     -11.497  14.568  67.340  1.00  0.00    -0.368 A  
HETATM    3  H1  UNL     1     -11.848  13.497  65.561  1.00  0.00     0.000 HD 
HETATM    4  H2  UNL     1     -10.808  14.787  65.479  1.00  0.00     0.000 HD 
HETATM    5  C   UNL     1     -11.213  15.844  67.859  1.00  0.00    -0.297 A  
HETATM    6  C   UNL     1     -11.299  16.025  69.255  1.00  0.00    -0.356 A  
HETATM    7  C   UNL     1     -11.455  13.458  68.216  1.00  0.00    -0.350 A  
HETATM    8  C   UNL     1     -11.522  14.951  70.113  1.00  0.00    -0.320 A  
HETATM    9  C   UNL     1     -11.548  13.660  69.598  1.00  0.00    -0.342 A  
ENDROOT
BRANCH   5  10
HETATM   10  C   UNL     1     -10.905  17.071  67.014  1.00  0.00    -0.048 C  
HETATM   11  O   UNL     1      -8.913  16.101  65.926  1.00  0.00    -0.351 OA 
HETATM   12  O   UNL     1      -9.176  18.309  65.915  1.00  0.00    -0.503 OA 
HETATM   13  C   UNL     1      -9.591  17.205  66.263  1.00  0.00    -0.252 C  
ENDBRANCH   5  10
BRANCH   7  14
HETATM   14  C   UNL     1     -11.321  12.044  67.764  1.00  0.00    -0.303 C  
HETATM   15  O   UNL     1     -12.169  11.227  68.112  1.00  0.00    -0.622 OA 
BRANCH  14  16
HETATM   16  C   UNL     1     -10.184  11.594  66.908  1.00  0.00    -0.244 A  
HETATM   17  C   UNL     1      -8.897  11.594  67.464  1.00  0.00    -0.158 A  
HETATM   18  C   UNL     1      -7.820  11.055  66.755  1.00  0.00    -0.149 A  
HETATM   19  C   UNL     1      -8.027  10.518  65.486  1.00  0.00    -0.145 A  
HETATM   20  C   UNL     1      -9.288  10.569  64.896  1.00  0.00    -0.278 A  
HETATM   21 BR   UNL     1      -6.593   9.700  64.568  1.00  0.00    -0.108 Br 
HETATM   22  C   UNL     1     -10.358  11.137  65.593  1.00  0.00    -0.311 A  
ENDBRANCH  14  16
ENDBRANCH   7  14
TORSDOF 3
ENDMDL
MODEL      103
REMARK 921   NORMALIZED FREE ENERGY PREDICTED BY IDOCK:   -5.06 KCAL/MOL
REMARK 922        TOTAL FREE ENERGY PREDICTED BY IDOCK:   -6.57 KCAL/MOL
REMARK 923 INTER-LIGAND FREE ENERGY PREDICTED BY IDOCK:   -6.30 KCAL/MOL
REMARK 924 INTRA-LIGAND FREE ENERGY PREDICTED BY IDOCK:   -0.27 KCAL/MOL
REMARK 927      BINDING AFFINITY PREDICTED BY RF-SCORE:    0.00 PKD
ROOT
HETATM    1  N   UNL     1     -12.534  13.708  68.083  1.00  0.00    -0.206 NA 
HETATM    2  C   UNL     1     -11.578  14.735  68.282  1.00  0.00    -0.323 A  
HETATM    3  H1  UNL     1     -12.483  13.150  67.231  1.00  0.00     0.000 HD 
HETATM    4  H2  UNL     1     -13.469  14.107  68.160  1.00  0.00     0.000 HD 
HETATM    5  C   UNL     1     -11.650  15.504  69.457  1.00  0.00    -0.361 A  
HETATM    6  C   UNL     1     -10.570  16.360  69.755  1.00  0.00    -0.288 A  
HETATM    7  C   UNL     1     -10.668  15.128  67.273  1.00  0.00    -0.305 A  
HETATM    8  C   UNL     1      -9.524  16.549  68.855  1.00  0.00    -0.260 A  
HETATM    9  C   UNL     1      -9.599  15.974  67.592  1.00  0.00    -0.218 A  
ENDROOT
BRANCH   5  10
HETATM   10  C   UNL     1     -12.772  15.414  70.481  1.00  0.00    -0.455 C  
HETATM   11  O   UNL     1     -11.277  15.256  72.440  1.00  0.00    -0.397 OA 
HETATM   12  O   UNL     1     -13.390  14.591  72.642  1.00  0.00    -0.426 OA 
HETATM   13  C   UNL     1     -12.495  15.039  71.927  1.00  0.00    -0.339 C  
ENDBRANCH   5  10
BRANCH   7  14
HETATM   14  C   UNL     1     -10.761  14.691  65.851  1.00  0.00    -0.309 C  
HETATM   15  O   UNL     1     -11.159  15.492  65.009  1.00  0.00    -0.388 OA 
BRANCH  14  16
HETATM   16  C   UNL     1     -10.394  13.308  65.425  1.00  0.00    -0.316 A  
HETATM   17  C   UNL     1     -10.785  12.884  64.147  1.00  0.00    -0.443 A  
HETATM   18  C   UNL     1     -10.350  11.653  63.647  1.00  0.00    -0.466 A  
HETATM   19  C   UNL     1      -9.525  10.843  64.425  1.00  0.00    -0.247 A  
HETATM   20  C   UNL     1      -9.180  11.225  65.719  1.00  0.00    -0.236 A  
HETATM   21 BR   UNL     1      -8.856   9.226  63.713  1.00  0.00    -0.069 Br 
HETATM   22  C   UNL     1      -9.642  12.441  66.231  1.00  0.00    -0.245 A  
ENDBRANCH  14  16
ENDBRANCH   7  14
TORSDOF 3
ENDMDL
MODEL      104
REMARK 921   NORMALIZED FREE ENERGY PREDICTED BY IDOCK:   -5.05 KCAL/MOL
REMARK 922        TOTAL FREE ENERGY PREDICTED BY IDOCK:   -6.56 KCAL/MOL
REMARK 923 INTER-LIGAND FREE ENERGY PREDICTED BY IDOCK:   -5.65 KCAL/MOL
REMARK 924 INTRA-LIGAND FREE ENERGY PREDICTED BY IDOCK:   -0.91 KCAL/MOL
REMARK 927      BINDING AFFINITY PREDICTED BY RF-SCORE:    0.00 PKD
ROOT
HETATM    1  N   UNL     1      -9.709  12.533  68.756  1.00  0.00    -0.416 NA 
HETATM    2  C   UNL     1     -10.082  12.709  67.400  1.00  0.00    -0.218 A  
HETATM    3  H1  UNL     1      -9.208  13.286  69.226  1.00  0.00     0.000 HD 
HETATM    4  H2  UNL     1      -9.167  11.673  68.841  1.00  0.00     0.000 HD 
HETATM    5  C   UNL     1     -10.772  11.669  66.751  1.00  0.00    -0.299 A  
HETATM    6  C   UNL     1     -11.338  11.937  65.488  1.00  0.00    -0.334 A  
HETATM    7  C   UNL     1      -9.639  13.808  66.628  1.00  0.00    -0.295 A  
HETATM    8  C   UNL     1     -11.111  13.145  64.833  1.00  0.00    -0.335 A  
HETATM    9  C   UNL     1     -10.219  14.060  65.380  1.00  0.00    -0.368 A  
ENDROOT
BRANCH   5  10
HETATM   10  C   UNL     1     -11.030  10.295  67.354  1.00  0.00    -0.317 C  
HETATM   11  O   UNL     1      -9.073   9.217  66.303  1.00  0.00    -0.151 OA 
HETATM   12  O   UNL     1     -10.729   7.939  67.059  1.00  0.00    -0.339 OA 
HETATM   13  C   UNL     1     -10.274   9.067  66.876  1.00  0.00    -0.269 C  
ENDBRANCH   5  10
BRANCH   7  14
HETATM   14  C   UNL     1      -8.570  14.753  67.062  1.00  0.00    -0.234 C  
HETATM   15  O   UNL     1      -7.465  14.305  67.357  1.00  0.00    -0.182 OA 
BRANCH  14  16
HETATM   16  C   UNL     1      -8.808  16.224  67.155  1.00  0.00    -0.212 A  
HETATM   17  C   UNL     1      -7.998  17.075  66.390  1.00  0.00    -0.342 A  
HETATM   18  C   UNL     1      -8.266  18.445  66.334  1.00  0.00    -0.280 A  
HETATM   19  C   UNL     1      -9.344  18.969  67.046  1.00  0.00    -0.309 A  
HETATM   20  C   UNL     1     -10.119  18.144  67.859  1.00  0.00    -0.366 A  
HETATM   21 BR   UNL     1      -9.769  20.803  66.892  1.00  0.00    -0.125 Br 
HETATM   22  C   UNL     1      -9.830  16.779  67.939  1.00  0.00    -0.257 A  
ENDBRANCH  14  16
ENDBRANCH   7  14
TORSDOF 3
ENDMDL
MODEL      105
REMARK 921   NORMALIZED FREE ENERGY PREDICTED BY IDOCK:   -5.01 KCAL/MOL
REMARK 922        TOTAL FREE ENERGY PREDICTED BY IDOCK:   -6.51 KCAL/MOL
REMARK 923 INTER-LIGAND FREE ENERGY PREDICTED BY IDOCK:   -5.74 KCAL/MOL
REMARK 924 INTRA-LIGAND FREE ENERGY PREDICTED BY IDOCK:   -0.77 KCAL/MOL
REMARK 927      BINDING AFFINITY PREDICTED BY RF-SCORE:    0.00 PKD
ROOT
HETATM    1  N   UNL     1     -11.011  11.354  64.608  1.00  0.00    -0.290 NA 
HETATM    2  C   UNL     1     -10.036  11.702  65.576  1.00  0.00    -0.242 A  
HETATM    3  H1  UNL     1     -11.676  12.066  64.307  1.00  0.00     0.000 HD 
HETATM    4  H2  UNL     1     -11.527  10.539  64.936  1.00  0.00     0.000 HD 
HETATM    5  C   UNL     1      -9.119  10.719  65.991  1.00  0.00    -0.204 A  
HETATM    6  C   UNL     1      -8.019  11.128  66.772  1.00  0.00    -0.156 A  
HETATM    7  C   UNL     1     -10.057  12.937  66.263  1.00  0.00    -0.281 A  
HETATM    8  C   UNL     1      -7.906  12.436  67.239  1.00  0.00    -0.166 A  
HETATM    9  C   UNL     1      -8.952  13.326  67.028  1.00  0.00    -0.230 A  
ENDROOT
BRANCH   5  10
HETATM   10  C   UNL     1      -9.179   9.254  65.583  1.00  0.00    -0.291 C  
HETATM   11  O   UNL     1     -10.535   8.538  67.518  1.00  0.00    -0.249 OA 
HETATM   12  O   UNL     1      -9.393   7.007  66.380  1.00  0.00    -0.167 OA 
HETATM   13  C   UNL     1      -9.695   8.188  66.536  1.00  0.00    -0.239 C  
ENDBRANCH   5  10
BRANCH   7  14
HETATM   14  C   UNL     1     -11.204  13.890  66.228  1.00  0.00    -0.309 C  
HETATM   15  O   UNL     1     -12.318  13.467  65.931  1.00  0.00    -0.434 OA 
BRANCH  14  16
HETATM   16  C   UNL     1     -11.033  15.341  66.537  1.00  0.00    -0.295 A  
HETATM   17  C   UNL     1     -11.191  15.757  67.866  1.00  0.00    -0.313 A  
HETATM   18  C   UNL     1     -10.910  17.077  68.232  1.00  0.00    -0.341 A  
HETATM   19  C   UNL     1     -10.471  17.983  67.268  1.00  0.00    -0.380 A  
HETATM   20  C   UNL     1     -10.370  17.598  65.933  1.00  0.00    -0.261 A  
HETATM   21 BR   UNL     1      -9.994  19.738  67.779  1.00  0.00    -0.569 Br 
HETATM   22  C   UNL     1     -10.683  16.287  65.563  1.00  0.00    -0.326 A  
ENDBRANCH  14  16
ENDBRANCH   7  14
TORSDOF 3
ENDMDL
MODEL      106
REMARK 921   NORMALIZED FREE ENERGY PREDICTED BY IDOCK:   -5.00 KCAL/MOL
REMARK 922        TOTAL FREE ENERGY PREDICTED BY IDOCK:   -6.50 KCAL/MOL
REMARK 923 INTER-LIGAND FREE ENERGY PREDICTED BY IDOCK:   -5.83 KCAL/MOL
REMARK 924 INTRA-LIGAND FREE ENERGY PREDICTED BY IDOCK:   -0.67 KCAL/MOL
REMARK 927      BINDING AFFINITY PREDICTED BY RF-SCORE:    0.00 PKD
ROOT
HETATM    1  N   UNL     1     -10.223   9.539  66.250  1.00  0.00    -0.255 NA 
HETATM    2  C   UNL     1     -10.723  10.393  67.265  1.00  0.00    -0.273 A  
HETATM    3  H1  UNL     1     -10.076   8.554  66.469  1.00  0.00     0.000 HD 
HETATM    4  H2  UNL     1      -9.354   9.929  65.887  1.00  0.00     0.000 HD 
HETATM    5  C   UNL     1     -10.925  11.752  66.962  1.00  0.00    -0.333 A  
HETATM    6  C   UNL     1     -11.631  12.539  67.894  1.00  0.00    -0.403 A  
HETATM    7  C   UNL     1     -10.860   9.974  68.608  1.00  0.00    -0.265 A  
HETATM    8  C   UNL     1     -12.003  12.034  69.138  1.00  0.00    -0.326 A  
HETATM    9  C   UNL     1     -11.571  10.768  69.515  1.00  0.00    -0.375 A  
ENDROOT
BRANCH   5  10
HETATM   10  C   UNL     1     -10.512  12.417  65.657  1.00  0.00    -0.290 C  
HETATM   11  O   UNL     1     -12.809  12.997  64.964  1.00  0.00    -0.689 OA 
HETATM   12  O   UNL     1     -11.202  12.952  63.428  1.00  0.00    -0.394 OA 
HETATM   13  C   UNL     1     -11.538  12.789  64.600  1.00  0.00    -0.338 C  
ENDBRANCH   5  10
BRANCH   7  14
HETATM   14  C   UNL     1     -10.291   8.705  69.147  1.00  0.00    -0.217 C  
HETATM   15  O   UNL     1     -10.403   7.676  68.485  1.00  0.00    -0.196 OA 
BRANCH  14  16
HETATM   16  C   UNL     1      -9.600   8.650  70.469  1.00  0.00    -0.210 A  
HETATM   17  C   UNL     1     -10.314   8.153  71.569  1.00  0.00    -0.265 A  
HETATM   18  C   UNL     1      -9.674   7.953  72.795  1.00  0.00    -0.322 A  
HETATM   19  C   UNL     1      -8.318   8.249  72.924  1.00  0.00    -0.180 A  
HETATM   20  C   UNL     1      -7.613   8.801  71.857  1.00  0.00    -0.051 A  
HETATM   21 BR   UNL     1      -7.428   7.884  74.551  1.00  0.00    -0.243 Br 
HETATM   22  C   UNL     1      -8.262   9.032  70.641  1.00  0.00    -0.207 A  
ENDBRANCH  14  16
ENDBRANCH   7  14
TORSDOF 3
ENDMDL
MODEL      107
REMARK 921   NORMALIZED FREE ENERGY PREDICTED BY IDOCK:   -4.98 KCAL/MOL
REMARK 922        TOTAL FREE ENERGY PREDICTED BY IDOCK:   -6.47 KCAL/MOL
REMARK 923 INTER-LIGAND FREE ENERGY PREDICTED BY IDOCK:   -5.76 KCAL/MOL
REMARK 924 INTRA-LIGAND FREE ENERGY PREDICTED BY IDOCK:   -0.72 KCAL/MOL
REMARK 927      BINDING AFFINITY PREDICTED BY RF-SCORE:    0.00 PKD
ROOT
HETATM    1  N   UNL     1      -9.192   9.096  71.013  1.00  0.00    -0.258 NA 
HETATM    2  C   UNL     1     -10.524   9.579  70.973  1.00  0.00    -0.306 A  
HETATM    3  H1  UNL     1      -8.495   9.535  70.412  1.00  0.00     0.000 HD 
HETATM    4  H2  UNL     1      -9.199   8.093  70.833  1.00  0.00     0.000 HD 
HETATM    5  C   UNL     1     -11.486   8.973  71.801  1.00  0.00    -0.442 A  
HETATM    6  C   UNL     1     -12.742   9.601  71.927  1.00  0.00    -0.499 A  
HETATM    7  C   UNL     1     -10.959  10.523  70.013  1.00  0.00    -0.351 A  
HETATM    8  C   UNL     1     -13.079  10.711  71.154  1.00  0.00    -0.415 A  
HETATM    9  C   UNL     1     -12.207  11.139  70.161  1.00  0.00    -0.417 A  
ENDROOT
BRANCH   5  10
HETATM   10  C   UNL     1     -11.239   7.731  72.646  1.00  0.00    -0.438 C  
HETATM   11  O   UNL     1     -11.451   6.139  70.772  1.00  0.00    -0.324 OA 
HETATM   12  O   UNL     1     -11.670   5.386  72.853  1.00  0.00    -0.297 OA 
HETATM   13  C   UNL     1     -11.489   6.338  72.095  1.00  0.00    -0.307 C  
ENDBRANCH   5  10
BRANCH   7  14
HETATM   14  C   UNL     1     -10.160  10.928  68.821  1.00  0.00    -0.194 C  
HETATM   15  O   UNL     1      -9.902  12.117  68.656  1.00  0.00    -0.188 OA 
BRANCH  14  16
HETATM   16  C   UNL     1      -9.673   9.931  67.823  1.00  0.00    -0.175 A  
HETATM   17  C   UNL     1      -8.367  10.070  67.333  1.00  0.00    -0.118 A  
HETATM   18  C   UNL     1      -7.815   9.090  66.503  1.00  0.00    -0.100 A  
HETATM   19  C   UNL     1      -8.569   7.969  66.160  1.00  0.00    -0.148 A  
HETATM   20  C   UNL     1      -9.889   7.850  66.589  1.00  0.00    -0.311 A  
HETATM   21 BR   UNL     1      -7.791   6.596  65.121  1.00  0.00    -0.120 Br 
HETATM   22  C   UNL     1     -10.451   8.846  67.392  1.00  0.00    -0.347 A  
ENDBRANCH  14  16
ENDBRANCH   7  14
TORSDOF 3
ENDMDL
MODEL      108
REMARK 921   NORMALIZED FREE ENERGY PREDICTED BY IDOCK:   -4.97 KCAL/MOL
REMARK 922        TOTAL FREE ENERGY PREDICTED BY IDOCK:   -6.45 KCAL/MOL
REMARK 923 INTER-LIGAND FREE ENERGY PREDICTED BY IDOCK:   -5.77 KCAL/MOL
REMARK 924 INTRA-LIGAND FREE ENERGY PREDICTED BY IDOCK:   -0.68 KCAL/MOL
REMARK 927      BINDING AFFINITY PREDICTED BY RF-SCORE:    0.00 PKD
ROOT
HETATM    1  N   UNL     1     -12.229  11.166  70.527  1.00  0.00    -0.357 NA 
HETATM    2  C   UNL     1     -11.516  10.256  69.706  1.00  0.00    -0.256 A  
HETATM    3  H1  UNL     1     -12.609  12.012  70.103  1.00  0.00     0.000 HD 
HETATM    4  H2  UNL     1     -11.641  11.430  71.317  1.00  0.00     0.000 HD 
HETATM    5  C   UNL     1     -10.991   9.090  70.292  1.00  0.00    -0.274 A  
HETATM    6  C   UNL     1     -10.490   8.088  69.437  1.00  0.00    -0.223 A  
HETATM    7  C   UNL     1     -11.166  10.556  68.369  1.00  0.00    -0.339 A  
HETATM    8  C   UNL     1     -10.387   8.291  68.062  1.00  0.00    -0.268 A  
HETATM    9  C   UNL     1     -10.675   9.544  67.536  1.00  0.00    -0.311 A  
ENDROOT
BRANCH   5  10
HETATM   10  C   UNL     1     -11.005   8.791  71.785  1.00  0.00    -0.415 C  
HETATM   11  O   UNL     1      -8.551   8.857  72.050  1.00  0.00    -0.367 OA 
HETATM   12  O   UNL     1      -9.774   7.837  73.602  1.00  0.00    -0.293 OA 
HETATM   13  C   UNL     1      -9.730   8.444  72.533  1.00  0.00    -0.289 C  
ENDBRANCH   5  10
BRANCH   7  14
HETATM   14  C   UNL     1     -11.288  11.912  67.760  1.00  0.00    -0.292 C  
HETATM   15  O   UNL     1     -12.144  12.100  66.899  1.00  0.00    -0.600 OA 
BRANCH  14  16
HETATM   16  C   UNL     1     -10.397  13.040  68.162  1.00  0.00    -0.244 A  
HETATM   17  C   UNL     1      -9.015  12.886  67.988  1.00  0.00    -0.196 A  
HETATM   18  C   UNL     1      -8.149  13.958  68.219  1.00  0.00    -0.150 A  
HETATM   19  C   UNL     1      -8.664  15.188  68.626  1.00  0.00    -0.174 A  
HETATM   20  C   UNL     1     -10.029  15.337  68.862  1.00  0.00    -0.225 A  
HETATM   21 BR   UNL     1      -7.507  16.666  68.841  1.00  0.00    -0.232 Br 
HETATM   22  C   UNL     1     -10.890  14.254  68.662  1.00  0.00    -0.265 A  
ENDBRANCH  14  16
ENDBRANCH   7  14
TORSDOF 3
ENDMDL
MODEL      109
REMARK 921   NORMALIZED FREE ENERGY PREDICTED BY IDOCK:   -4.91 KCAL/MOL
REMARK 922        TOTAL FREE ENERGY PREDICTED BY IDOCK:   -6.39 KCAL/MOL
REMARK 923 INTER-LIGAND FREE ENERGY PREDICTED BY IDOCK:   -5.73 KCAL/MOL
REMARK 924 INTRA-LIGAND FREE ENERGY PREDICTED BY IDOCK:   -0.66 KCAL/MOL
REMARK 927      BINDING AFFINITY PREDICTED BY RF-SCORE:    0.00 PKD
ROOT
HETATM    1  N   UNL     1      -9.637  13.100  68.537  1.00  0.00    -0.368 NA 
HETATM    2  C   UNL     1      -9.865  13.523  67.203  1.00  0.00    -0.245 A  
HETATM    3  H1  UNL     1      -9.409  13.802  69.241  1.00  0.00     0.000 HD 
HETATM    4  H2  UNL     1      -8.910  12.384  68.537  1.00  0.00     0.000 HD 
HETATM    5  C   UNL     1     -10.178  12.554  66.233  1.00  0.00    -0.265 A  
HETATM    6  C   UNL     1     -10.626  13.000  64.973  1.00  0.00    -0.336 A  
HETATM    7  C   UNL     1      -9.620  14.849  66.778  1.00  0.00    -0.265 A  
HETATM    8  C   UNL     1     -10.631  14.353  64.642  1.00  0.00    -0.331 A  
HETATM    9  C   UNL     1     -10.079  15.273  65.525  1.00  0.00    -0.408 A  
ENDROOT
BRANCH   5  10
HETATM   10  C   UNL     1     -10.155  11.051  66.474  1.00  0.00    -0.270 C  
HETATM   11  O   UNL     1     -12.112  11.034  67.978  1.00  0.00    -0.615 OA 
HETATM   12  O   UNL     1     -10.713   9.306  68.014  1.00  0.00    -0.232 OA 
HETATM   13  C   UNL     1     -11.004  10.411  67.559  1.00  0.00    -0.295 C  
ENDBRANCH   5  10
BRANCH   7  14
HETATM   14  C   UNL     1      -8.891  15.864  67.592  1.00  0.00    -0.174 C  
HETATM   15  O   UNL     1      -8.866  15.738  68.813  1.00  0.00    -0.180 OA 
BRANCH  14  16
HETATM   16  C   UNL     1      -8.202  17.031  66.965  1.00  0.00    -0.232 A  
HETATM   17  C   UNL     1      -8.781  18.299  67.112  1.00  0.00    -0.256 A  
HETATM   18  C   UNL     1      -8.109  19.439  66.664  1.00  0.00    -0.310 A  
HETATM   19  C   UNL     1      -6.856  19.314  66.066  1.00  0.00    -0.245 A  
HETATM   20  C   UNL     1      -6.298  18.055  65.858  1.00  0.00    -0.294 A  
HETATM   21 BR   UNL     1      -5.902  20.862  65.551  1.00  0.00    -0.277 Br 
HETATM   22  C   UNL     1      -6.985  16.912  66.277  1.00  0.00    -0.131 A  
ENDBRANCH  14  16
ENDBRANCH   7  14
TORSDOF 3
ENDMDL
MODEL      110
REMARK 921   NORMALIZED FREE ENERGY PREDICTED BY IDOCK:   -4.88 KCAL/MOL
REMARK 922        TOTAL FREE ENERGY PREDICTED BY IDOCK:   -6.35 KCAL/MOL
REMARK 923 INTER-LIGAND FREE ENERGY PREDICTED BY IDOCK:   -5.67 KCAL/MOL
REMARK 924 INTRA-LIGAND FREE ENERGY PREDICTED BY IDOCK:   -0.68 KCAL/MOL
REMARK 927      BINDING AFFINITY PREDICTED BY RF-SCORE:    0.00 PKD
ROOT
HETATM    1  N   UNL     1      -8.919  16.419  67.811  1.00  0.00    -0.197 NA 
HETATM    2  C   UNL     1      -9.809  16.236  66.723  1.00  0.00    -0.245 A  
HETATM    3  H1  UNL     1      -8.560  15.595  68.292  1.00  0.00     0.000 HD 
HETATM    4  H2  UNL     1      -9.355  17.036  68.495  1.00  0.00     0.000 HD 
HETATM    5  C   UNL     1     -10.305  17.373  66.060  1.00  0.00    -0.309 A  
HETATM    6  C   UNL     1     -10.999  17.182  64.847  1.00  0.00     0.206 A  
HETATM    7  C   UNL     1     -10.350  14.972  66.391  1.00  0.00    -0.293 A  
HETATM    8  C   UNL     1     -11.308  15.906  64.381  1.00  0.00    -0.276 A  
HETATM    9  C   UNL     1     -11.030  14.804  65.179  1.00  0.00    -0.403 A  
ENDROOT
BRANCH   5  10
HETATM   10  C   UNL     1     -10.070  18.808  66.511  1.00  0.00    -0.437 C  
HETATM   11  O   UNL     1      -7.847  19.014  65.457  1.00  0.00    -0.406 OA 
HETATM   12  O   UNL     1      -8.409  20.437  67.071  1.00  0.00    -0.322 OA 
HETATM   13  C   UNL     1      -8.707  19.465  66.379  1.00  0.00    -0.355 C  
ENDBRANCH   5  10
BRANCH   7  14
HETATM   14  C   UNL     1     -10.243  13.766  67.261  1.00  0.00    -0.253 C  
HETATM   15  O   UNL     1      -9.376  12.932  67.014  1.00  0.00    -0.219 OA 
BRANCH  14  16
HETATM   16  C   UNL     1     -11.163  13.541  68.416  1.00  0.00    -0.309 A  
HETATM   17  C   UNL     1     -11.198  12.265  68.994  1.00  0.00    -0.319 A  
HETATM   18  C   UNL     1     -11.936  12.037  70.159  1.00  0.00    -0.401 A  
HETATM   19  C   UNL     1     -12.643  13.085  70.747  1.00  0.00    -0.241 A  
HETATM   20  C   UNL     1     -12.666  14.343  70.147  1.00  0.00    -0.259 A  
HETATM   21 BR   UNL     1     -13.559  12.804  72.375  1.00  0.00    -0.299 Br 
HETATM   22  C   UNL     1     -11.954  14.561  68.964  1.00  0.00    -0.334 A  
ENDBRANCH  14  16
ENDBRANCH   7  14
TORSDOF 3
ENDMDL
MODEL      111
REMARK 921   NORMALIZED FREE ENERGY PREDICTED BY IDOCK:   -4.88 KCAL/MOL
REMARK 922        TOTAL FREE ENERGY PREDICTED BY IDOCK:   -6.35 KCAL/MOL
REMARK 923 INTER-LIGAND FREE ENERGY PREDICTED BY IDOCK:   -5.61 KCAL/MOL
REMARK 924 INTRA-LIGAND FREE ENERGY PREDICTED BY IDOCK:   -0.75 KCAL/MOL
REMARK 927      BINDING AFFINITY PREDICTED BY RF-SCORE:    0.00 PKD
ROOT
HETATM    1  N   UNL     1      -8.724  11.784  66.271  1.00  0.00    -0.334 NA 
HETATM    2  C   UNL     1      -9.549  11.381  67.351  1.00  0.00    -0.174 A  
HETATM    3  H1  UNL     1      -8.974  12.627  65.754  1.00  0.00     0.000 HD 
HETATM    4  H2  UNL     1      -8.636  11.009  65.615  1.00  0.00     0.000 HD 
HETATM    5  C   UNL     1      -9.205  10.217  68.063  1.00  0.00    -0.138 A  
HETATM    6  C   UNL     1      -9.888   9.952  69.267  1.00  0.00    -0.217 A  
HETATM    7  C   UNL     1     -10.790  11.999  67.629  1.00  0.00    -0.273 A  
HETATM    8  C   UNL     1     -10.965  10.735  69.679  1.00  0.00    -0.320 A  
HETATM    9  C   UNL     1     -11.449  11.726  68.833  1.00  0.00    -0.357 A  
ENDROOT
BRANCH   5  10
HETATM   10  C   UNL     1      -8.082   9.266  67.674  1.00  0.00    -0.104 C  
HETATM   11  O   UNL     1      -9.081   8.614  65.512  1.00  0.00    -0.193 OA 
HETATM   12  O   UNL     1      -7.523   7.309  66.414  1.00  0.00    -0.080 OA 
HETATM   13  C   UNL     1      -8.224   8.316  66.497  1.00  0.00    -0.106 C  
ENDBRANCH   5  10
BRANCH   7  14
HETATM   14  C   UNL     1     -11.469  12.955  66.708  1.00  0.00    -0.340 C  
HETATM   15  O   UNL     1     -12.343  12.534  65.955  1.00  0.00    -0.615 OA 
BRANCH  14  16
HETATM   16  C   UNL     1     -11.109  14.404  66.670  1.00  0.00    -0.326 A  
HETATM   17  C   UNL     1     -11.270  15.156  67.842  1.00  0.00    -0.334 A  
HETATM   18  C   UNL     1     -10.823  16.478  67.901  1.00  0.00    -0.326 A  
HETATM   19  C   UNL     1     -10.214  17.053  66.787  1.00  0.00    -0.298 A  
HETATM   20  C   UNL     1     -10.105  16.337  65.597  1.00  0.00    -0.340 A  
HETATM   21 BR   UNL     1      -9.518  18.806  66.896  1.00  0.00    -0.352 Br 
HETATM   22  C   UNL     1     -10.583  15.025  65.529  1.00  0.00    -0.380 A  
ENDBRANCH  14  16
ENDBRANCH   7  14
TORSDOF 3
ENDMDL
MODEL      112
REMARK 921   NORMALIZED FREE ENERGY PREDICTED BY IDOCK:   -4.88 KCAL/MOL
REMARK 922        TOTAL FREE ENERGY PREDICTED BY IDOCK:   -6.35 KCAL/MOL
REMARK 923 INTER-LIGAND FREE ENERGY PREDICTED BY IDOCK:   -5.42 KCAL/MOL
REMARK 924 INTRA-LIGAND FREE ENERGY PREDICTED BY IDOCK:   -0.93 KCAL/MOL
REMARK 927      BINDING AFFINITY PREDICTED BY RF-SCORE:    0.00 PKD
ROOT
HETATM    1  N   UNL     1     -11.210   7.263  67.779  1.00  0.00    -0.502 NA 
HETATM    2  C   UNL     1     -10.421   8.027  68.675  1.00  0.00    -0.167 A  
HETATM    3  H1  UNL     1     -11.268   7.559  66.805  1.00  0.00     0.000 HD 
HETATM    4  H2  UNL     1     -12.155   7.183  68.156  1.00  0.00     0.000 HD 
HETATM    5  C   UNL     1     -10.343   7.620  70.020  1.00  0.00    -0.223 A  
HETATM    6  C   UNL     1      -9.384   8.241  70.845  1.00  0.00    -0.187 A  
HETATM    7  C   UNL     1      -9.854   9.271  68.314  1.00  0.00    -0.179 A  
HETATM    8  C   UNL     1      -8.626   9.319  70.392  1.00  0.00    -0.250 A  
HETATM    9  C   UNL     1      -8.899   9.868  69.145  1.00  0.00    -0.165 A  
ENDROOT
BRANCH   5  10
HETATM   10  C   UNL     1     -11.161   6.490  70.629  1.00  0.00    -0.386 C  
HETATM   11  O   UNL     1     -12.863   7.966  71.640  1.00  0.00    -0.321 OA 
HETATM   12  O   UNL     1     -12.651   5.888  72.403  1.00  0.00    -0.091 OA 
HETATM   13  C   UNL     1     -12.266   6.768  71.635  1.00  0.00    -0.365 C  
ENDBRANCH   5  10
BRANCH   7  14
HETATM   14  C   UNL     1     -10.205  10.017  67.071  1.00  0.00    -0.237 C  
HETATM   15  O   UNL     1     -10.320   9.394  66.018  1.00  0.00    -0.218 OA 
BRANCH  14  16
HETATM   16  C   UNL     1     -10.411  11.495  67.069  1.00  0.00    -0.263 A  
HETATM   17  C   UNL     1     -11.516  12.009  67.762  1.00  0.00    -0.394 A  
HETATM   18  C   UNL     1     -11.680  13.389  67.908  1.00  0.00    -0.396 A  
HETATM   19  C   UNL     1     -10.740  14.259  67.358  1.00  0.00    -0.282 A  
HETATM   20  C   UNL     1      -9.672  13.763  66.614  1.00  0.00    -0.293 A  
HETATM   21 BR   UNL     1     -10.906  16.120  67.639  1.00  0.00    -0.261 Br 
HETATM   22  C   UNL     1      -9.527  12.384  66.441  1.00  0.00    -0.240 A  
ENDBRANCH  14  16
ENDBRANCH   7  14
TORSDOF 3
ENDMDL
MODEL      113
REMARK 921   NORMALIZED FREE ENERGY PREDICTED BY IDOCK:   -4.86 KCAL/MOL
REMARK 922        TOTAL FREE ENERGY PREDICTED BY IDOCK:   -6.33 KCAL/MOL
REMARK 923 INTER-LIGAND FREE ENERGY PREDICTED BY IDOCK:   -5.69 KCAL/MOL
REMARK 924 INTRA-LIGAND FREE ENERGY PREDICTED BY IDOCK:   -0.64 KCAL/MOL
REMARK 927      BINDING AFFINITY PREDICTED BY RF-SCORE:    0.00 PKD
ROOT
HETATM    1  N   UNL     1      -9.296  12.231  65.310  1.00  0.00    -0.430 NA 
HETATM    2  C   UNL     1      -9.124  11.206  66.274  1.00  0.00    -0.194 A  
HETATM    3  H1  UNL     1      -9.971  12.971  65.499  1.00  0.00     0.000 HD 
HETATM    4  H2  UNL     1      -9.517  11.805  64.411  1.00  0.00     0.000 HD 
HETATM    5  C   UNL     1      -8.193  10.184  66.012  1.00  0.00    -0.131 A  
HETATM    6  C   UNL     1      -7.861   9.306  67.063  1.00  0.00    -0.098 A  
HETATM    7  C   UNL     1      -9.969  11.075  67.401  1.00  0.00    -0.209 A  
HETATM    8  C   UNL     1      -8.528   9.352  68.286  1.00  0.00    -0.120 A  
HETATM    9  C   UNL     1      -9.617  10.201  68.436  1.00  0.00    -0.150 A  
ENDROOT
BRANCH   5  10
HETATM   10  C   UNL     1      -7.447  10.012  64.696  1.00  0.00    -0.143 C  
HETATM   11  O   UNL     1      -9.471  10.063  63.283  1.00  0.00    -0.295 OA 
HETATM   12  O   UNL     1      -7.600   9.194  62.452  1.00  0.00    -0.104 OA 
HETATM   13  C   UNL     1      -8.185   9.709  63.403  1.00  0.00    -0.160 C  
ENDBRANCH   5  10
BRANCH   7  14
HETATM   14  C   UNL     1     -11.244  11.828  67.576  1.00  0.00    -0.291 C  
HETATM   15  O   UNL     1     -12.027  11.897  66.632  1.00  0.00    -0.601 OA 
BRANCH  14  16
HETATM   16  C   UNL     1     -11.591  12.503  68.862  1.00  0.00    -0.364 A  
HETATM   17  C   UNL     1     -11.439  13.894  68.940  1.00  0.00    -0.340 A  
HETATM   18  C   UNL     1     -11.877  14.591  70.070  1.00  0.00    -0.372 A  
HETATM   19  C   UNL     1     -12.466  13.897  71.126  1.00  0.00    -0.372 A  
HETATM   20  C   UNL     1     -12.566  12.508  71.087  1.00  0.00    -0.349 A  
HETATM   21 BR   UNL     1     -13.149  14.846  72.609  1.00  0.00    -0.579 Br 
HETATM   22  C   UNL     1     -12.098  11.809  69.970  1.00  0.00    -0.387 A  
ENDBRANCH  14  16
ENDBRANCH   7  14
TORSDOF 3
ENDMDL
MODEL      114
REMARK 921   NORMALIZED FREE ENERGY PREDICTED BY IDOCK:   -4.84 KCAL/MOL
REMARK 922        TOTAL FREE ENERGY PREDICTED BY IDOCK:   -6.30 KCAL/MOL
REMARK 923 INTER-LIGAND FREE ENERGY PREDICTED BY IDOCK:   -5.57 KCAL/MOL
REMARK 924 INTRA-LIGAND FREE ENERGY PREDICTED BY IDOCK:   -0.73 KCAL/MOL
REMARK 927      BINDING AFFINITY PREDICTED BY RF-SCORE:    0.00 PKD
ROOT
HETATM    1  N   UNL     1      -9.597  10.845  69.053  1.00  0.00    -0.318 NA 
HETATM    2  C   UNL     1     -10.610  10.416  69.947  1.00  0.00    -0.251 A  
HETATM    3  H1  UNL     1      -8.761  10.271  68.950  1.00  0.00     0.000 HD 
HETATM    4  H2  UNL     1      -9.316  11.794  69.302  1.00  0.00     0.000 HD 
HETATM    5  C   UNL     1     -11.763  11.210  70.089  1.00  0.00    -0.439 A  
HETATM    6  C   UNL     1     -12.857  10.668  70.794  1.00  0.00    -0.439 A  
HETATM    7  C   UNL     1     -10.434   9.320  70.823  1.00  0.00    -0.343 A  
HETATM    8  C   UNL     1     -12.762   9.442  71.450  1.00  0.00    -0.425 A  
HETATM    9  C   UNL     1     -11.534   8.794  71.509  1.00  0.00    -0.375 A  
ENDROOT
BRANCH   5  10
HETATM   10  C   UNL     1     -11.950  12.583  69.458  1.00  0.00    -0.329 C  
HETATM   11  O   UNL     1     -11.953  11.762  67.130  1.00  0.00    -0.617 OA 
HETATM   12  O   UNL     1     -11.546  13.915  67.512  1.00  0.00    -0.320 OA 
HETATM   13  C   UNL     1     -11.782  12.796  67.964  1.00  0.00    -0.356 C  
ENDBRANCH   5  10
BRANCH   7  14
HETATM   14  C   UNL     1      -9.121   8.659  71.075  1.00  0.00    -0.199 C  
HETATM   15  O   UNL     1      -8.254   9.276  71.689  1.00  0.00    -0.312 OA 
BRANCH  14  16
HETATM   16  C   UNL     1      -8.830   7.275  70.596  1.00  0.00    -0.148 A  
HETATM   17  C   UNL     1      -8.842   6.234  71.535  1.00  0.00    -0.138 A  
HETATM   18  C   UNL     1      -8.712   4.906  71.120  1.00  0.00    -0.143 A  
HETATM   19  C   UNL     1      -8.568   4.616  69.764  1.00  0.00    -0.073 A  
HETATM   20  C   UNL     1      -8.493   5.644  68.828  1.00  0.00    -0.102 A  
HETATM   21 BR   UNL     1      -8.493   2.817  69.192  1.00  0.00    -0.110 Br 
HETATM   22  C   UNL     1      -8.590   6.974  69.248  1.00  0.00    -0.136 A  
ENDBRANCH  14  16
ENDBRANCH   7  14
TORSDOF 3
ENDMDL
MODEL      115
REMARK 921   NORMALIZED FREE ENERGY PREDICTED BY IDOCK:   -4.83 KCAL/MOL
REMARK 922        TOTAL FREE ENERGY PREDICTED BY IDOCK:   -6.30 KCAL/MOL
REMARK 923 INTER-LIGAND FREE ENERGY PREDICTED BY IDOCK:   -6.77 KCAL/MOL
REMARK 924 INTRA-LIGAND FREE ENERGY PREDICTED BY IDOCK:    0.48 KCAL/MOL
REMARK 927      BINDING AFFINITY PREDICTED BY RF-SCORE:    0.00 PKD
ROOT
HETATM    1  N   UNL     1     -12.171  14.693  69.035  1.00  0.00    -0.562 NA 
HETATM    2  C   UNL     1     -12.352  13.612  69.934  1.00  0.00    -0.249 A  
HETATM    3  H1  UNL     1     -11.723  14.512  68.137  1.00  0.00     0.000 HD 
HETATM    4  H2  UNL     1     -11.665  15.439  69.512  1.00  0.00     0.000 HD 
HETATM    5  C   UNL     1     -12.970  13.862  71.173  1.00  0.00    -0.388 A  
HETATM    6  C   UNL     1     -13.352  12.754  71.957  1.00  0.00    -0.565 A  
HETATM    7  C   UNL     1     -11.783  12.337  69.709  1.00  0.00    -0.368 A  
HETATM    8  C   UNL     1     -13.011  11.454  71.591  1.00  0.00    -0.523 A  
HETATM    9  C   UNL     1     -12.181  11.250  70.496  1.00  0.00    -0.474 A  
ENDROOT
BRANCH   5  10
HETATM   10  C   UNL     1     -13.338  15.245  71.691  1.00  0.00    -0.553 C  
HETATM   11  O   UNL     1     -12.055  15.047  73.791  1.00  0.00    -0.478 OA 
HETATM   12  O   UNL     1     -13.661  16.579  73.651  1.00  0.00    -0.505 OA 
HETATM   13  C   UNL     1     -13.042  15.657  73.123  1.00  0.00    -0.558 C  
ENDBRANCH   5  10
BRANCH   7  14
HETATM   14  C   UNL     1     -10.763  12.053  68.659  1.00  0.00    -0.236 C  
HETATM   15  O   UNL     1     -10.679  12.808  67.694  1.00  0.00    -0.215 OA 
BRANCH  14  16
HETATM   16  C   UNL     1      -9.849  10.875  68.745  1.00  0.00    -0.203 A  
HETATM   17  C   UNL     1      -9.997  10.002  69.831  1.00  0.00    -0.280 A  
HETATM   18  C   UNL     1      -9.262   8.814  69.888  1.00  0.00    -0.160 A  
HETATM   19  C   UNL     1      -8.377   8.498  68.859  1.00  0.00    -0.118 A  
HETATM   20  C   UNL     1      -8.175   9.387  67.806  1.00  0.00    -0.114 A  
HETATM   21 BR   UNL     1      -7.458   6.847  68.884  1.00  0.00    -0.097 Br 
HETATM   22  C   UNL     1      -8.886  10.590  67.766  1.00  0.00    -0.125 A  
ENDBRANCH  14  16
ENDBRANCH   7  14
TORSDOF 3
ENDMDL
MODEL      116
REMARK 921   NORMALIZED FREE ENERGY PREDICTED BY IDOCK:   -4.83 KCAL/MOL
REMARK 922        TOTAL FREE ENERGY PREDICTED BY IDOCK:   -6.29 KCAL/MOL
REMARK 923 INTER-LIGAND FREE ENERGY PREDICTED BY IDOCK:   -5.49 KCAL/MOL
REMARK 924 INTRA-LIGAND FREE ENERGY PREDICTED BY IDOCK:   -0.81 KCAL/MOL
REMARK 927      BINDING AFFINITY PREDICTED BY RF-SCORE:    0.00 PKD
ROOT
HETATM    1  N   UNL     1      -9.414  15.904  68.550  1.00  0.00    -0.203 NA 
HETATM    2  C   UNL     1     -10.119  15.775  67.327  1.00  0.00    -0.247 A  
HETATM    3  H1  UNL     1      -9.380  15.104  69.181  1.00  0.00     0.000 HD 
HETATM    4  H2  UNL     1      -9.778  16.710  69.058  1.00  0.00     0.000 HD 
HETATM    5  C   UNL     1     -10.166  16.879  66.456  1.00  0.00    -0.320 A  
HETATM    6  C   UNL     1     -10.665  16.675  65.154  1.00  0.00    -0.205 A  
HETATM    7  C   UNL     1     -10.917  14.646  67.028  1.00  0.00    -0.317 A  
HETATM    8  C   UNL     1     -11.223  15.456  64.774  1.00  0.00    -0.404 A  
HETATM    9  C   UNL     1     -11.397  14.460  65.726  1.00  0.00    -0.330 A  
ENDROOT
BRANCH   5  10
HETATM   10  C   UNL     1      -9.632  18.265  66.790  1.00  0.00    -0.299 C  
HETATM   11  O   UNL     1      -7.457  17.945  65.667  1.00  0.00    -0.544 OA 
HETATM   12  O   UNL     1      -7.659  19.562  67.180  1.00  0.00    -0.237 OA 
HETATM   13  C   UNL     1      -8.172  18.624  66.573  1.00  0.00    -0.286 C  
ENDBRANCH   5  10
BRANCH   7  14
HETATM   14  C   UNL     1     -11.293  13.604  68.026  1.00  0.00    -0.285 C  
HETATM   15  O   UNL     1     -12.111  13.885  68.898  1.00  0.00    -0.351 OA 
BRANCH  14  16
HETATM   16  C   UNL     1     -10.697  12.235  67.998  1.00  0.00    -0.245 A  
HETATM   17  C   UNL     1      -9.428  12.054  68.565  1.00  0.00    -0.136 A  
HETATM   18  C   UNL     1      -8.885  10.773  68.688  1.00  0.00    -0.152 A  
HETATM   19  C   UNL     1      -9.609   9.668  68.243  1.00  0.00    -0.140 A  
HETATM   20  C   UNL     1     -10.844   9.840  67.622  1.00  0.00    -0.301 A  
HETATM   21 BR   UNL     1      -8.921   7.928  68.500  1.00  0.00    -0.132 Br 
HETATM   22  C   UNL     1     -11.372  11.125  67.469  1.00  0.00    -0.351 A  
ENDBRANCH  14  16
ENDBRANCH   7  14
TORSDOF 3
ENDMDL
MODEL      117
REMARK 921   NORMALIZED FREE ENERGY PREDICTED BY IDOCK:   -4.82 KCAL/MOL
REMARK 922        TOTAL FREE ENERGY PREDICTED BY IDOCK:   -6.28 KCAL/MOL
REMARK 923 INTER-LIGAND FREE ENERGY PREDICTED BY IDOCK:   -5.51 KCAL/MOL
REMARK 924 INTRA-LIGAND FREE ENERGY PREDICTED BY IDOCK:   -0.77 KCAL/MOL
REMARK 927      BINDING AFFINITY PREDICTED BY RF-SCORE:    0.00 PKD
ROOT
HETATM    1  N   UNL     1      -9.295  12.485  68.841  1.00  0.00    -0.382 NA 
HETATM    2  C   UNL     1      -9.770  12.561  67.507  1.00  0.00    -0.196 A  
HETATM    3  H1  UNL     1      -8.821  13.296  69.237  1.00  0.00     0.000 HD 
HETATM    4  H2  UNL     1      -8.687  11.671  68.930  1.00  0.00     0.000 HD 
HETATM    5  C   UNL     1     -10.423  11.442  66.960  1.00  0.00    -0.271 A  
HETATM    6  C   UNL     1     -11.090  11.602  65.728  1.00  0.00    -0.313 A  
HETATM    7  C   UNL     1      -9.461  13.646  66.653  1.00  0.00    -0.285 A  
HETATM    8  C   UNL     1     -10.996  12.786  65.000  1.00  0.00    -0.319 A  
HETATM    9  C   UNL     1     -10.139  13.788  65.438  1.00  0.00    -0.307 A  
ENDROOT
BRANCH   5  10
HETATM   10  C   UNL     1     -10.539  10.088  67.646  1.00  0.00    -0.323 C  
HETATM   11  O   UNL     1     -12.411  10.742  69.117  1.00  0.00    -0.400 OA 
HETATM   12  O   UNL     1     -11.193   8.961  69.653  1.00  0.00    -0.114 OA 
HETATM   13  C   UNL     1     -11.393   9.903  68.889  1.00  0.00    -0.007 C  
ENDBRANCH   5  10
BRANCH   7  14
HETATM   14  C   UNL     1      -8.438  14.685  66.964  1.00  0.00    -0.210 C  
HETATM   15  O   UNL     1      -7.297  14.328  67.247  1.00  0.00    -0.170 OA 
BRANCH  14  16
HETATM   16  C   UNL     1      -8.764  16.142  66.949  1.00  0.00    -0.253 A  
HETATM   17  C   UNL     1      -9.916  16.569  67.625  1.00  0.00    -0.254 A  
HETATM   18  C   UNL     1     -10.193  17.932  67.758  1.00  0.00    -0.372 A  
HETATM   19  C   UNL     1      -9.319  18.872  67.214  1.00  0.00    -0.293 A  
HETATM   20  C   UNL     1      -8.205  18.460  66.487  1.00  0.00    -0.289 A  
HETATM   21 BR   UNL     1      -9.639  20.715  67.479  1.00  0.00    -0.409 Br 
HETATM   22  C   UNL     1      -7.946  17.096  66.327  1.00  0.00    -0.339 A  
ENDBRANCH  14  16
ENDBRANCH   7  14
TORSDOF 3
ENDMDL
MODEL      118
REMARK 921   NORMALIZED FREE ENERGY PREDICTED BY IDOCK:   -4.81 KCAL/MOL
REMARK 922        TOTAL FREE ENERGY PREDICTED BY IDOCK:   -6.27 KCAL/MOL
REMARK 923 INTER-LIGAND FREE ENERGY PREDICTED BY IDOCK:   -5.81 KCAL/MOL
REMARK 924 INTRA-LIGAND FREE ENERGY PREDICTED BY IDOCK:   -0.47 KCAL/MOL
REMARK 927      BINDING AFFINITY PREDICTED BY RF-SCORE:    0.00 PKD
ROOT
HETATM    1  N   UNL     1      -9.049  10.956  69.388  1.00  0.00    -0.400 NA 
HETATM    2  C   UNL     1      -9.969   9.971  69.827  1.00  0.00    -0.241 A  
HETATM    3  H1  UNL     1      -9.290  11.939  69.509  1.00  0.00     0.000 HD 
HETATM    4  H2  UNL     1      -8.830  10.789  68.406  1.00  0.00     0.000 HD 
HETATM    5  C   UNL     1      -9.637   8.614  69.657  1.00  0.00    -0.170 A  
HETATM    6  C   UNL     1     -10.441   7.651  70.298  1.00  0.00    -0.224 A  
HETATM    7  C   UNL     1     -11.274  10.295  70.266  1.00  0.00    -0.395 A  
HETATM    8  C   UNL     1     -11.610   8.009  70.966  1.00  0.00    -0.303 A  
HETATM    9  C   UNL     1     -12.054   9.324  70.905  1.00  0.00    -0.297 A  
ENDROOT
BRANCH   5  10
HETATM   10  C   UNL     1      -8.413   8.113  68.903  1.00  0.00    -0.130 C  
HETATM   11  O   UNL     1      -9.309   8.622  66.659  1.00  0.00    -0.165 OA 
HETATM   12  O   UNL     1      -7.631   7.175  66.845  1.00  0.00    -0.097 OA 
HETATM   13  C   UNL     1      -8.438   7.922  67.396  1.00  0.00    -0.122 C  
ENDBRANCH   5  10
BRANCH   7  14
HETATM   14  C   UNL     1     -11.899  11.639  70.099  1.00  0.00    -0.344 C  
HETATM   15  O   UNL     1     -12.464  12.154  71.060  1.00  0.00    -0.370 OA 
BRANCH  14  16
HETATM   16  C   UNL     1     -11.864  12.369  68.797  1.00  0.00    -0.358 A  
HETATM   17  C   UNL     1     -11.765  13.767  68.825  1.00  0.00    -0.391 A  
HETATM   18  C   UNL     1     -11.591  14.487  67.640  1.00  0.00    -0.402 A  
HETATM   19  C   UNL     1     -11.517  13.811  66.424  1.00  0.00    -0.336 A  
HETATM   20  C   UNL     1     -11.676  12.428  66.376  1.00  0.00    -0.453 A  
HETATM   21 BR   UNL     1     -11.181  14.774  64.834  1.00  0.00    -0.412 Br 
HETATM   22  C   UNL     1     -11.883  11.711  67.558  1.00  0.00    -0.196 A  
ENDBRANCH  14  16
ENDBRANCH   7  14
TORSDOF 3
ENDMDL
MODEL      119
REMARK 921   NORMALIZED FREE ENERGY PREDICTED BY IDOCK:   -4.80 KCAL/MOL
REMARK 922        TOTAL FREE ENERGY PREDICTED BY IDOCK:   -6.26 KCAL/MOL
REMARK 923 INTER-LIGAND FREE ENERGY PREDICTED BY IDOCK:   -6.06 KCAL/MOL
REMARK 924 INTRA-LIGAND FREE ENERGY PREDICTED BY IDOCK:   -0.20 KCAL/MOL
REMARK 927      BINDING AFFINITY PREDICTED BY RF-SCORE:    0.00 PKD
ROOT
HETATM    1  N   UNL     1     -10.520  16.358  65.918  1.00  0.00    -0.346 NA 
HETATM    2  C   UNL     1     -10.686  15.939  67.262  1.00  0.00    -0.306 A  
HETATM    3  H1  UNL     1      -9.956  17.186  65.730  1.00  0.00     0.000 HD 
HETATM    4  H2  UNL     1     -11.439  16.481  65.494  1.00  0.00     0.000 HD 
HETATM    5  C   UNL     1     -11.465  14.797  67.520  1.00  0.00    -0.369 A  
HETATM    6  C   UNL     1     -11.436  14.257  68.822  1.00  0.00    -0.327 A  
HETATM    7  C   UNL     1     -10.247  16.718  68.358  1.00  0.00    -0.296 A  
HETATM    8  C   UNL     1     -10.771  14.903  69.861  1.00  0.00    -0.198 A  
HETATM    9  C   UNL     1     -10.222  16.160  69.641  1.00  0.00    -0.243 A  
ENDROOT
BRANCH   5  10
HETATM   10  C   UNL     1     -12.271  14.045  66.470  1.00  0.00    -0.485 C  
HETATM   11  O   UNL     1     -10.354  12.757  65.596  1.00  0.00    -0.271 OA 
HETATM   12  O   UNL     1     -12.178  12.956  64.340  1.00  0.00    -0.383 OA 
HETATM   13  C   UNL     1     -11.589  13.230  65.384  1.00  0.00    -0.321 C  
ENDBRANCH   5  10
BRANCH   7  14
HETATM   14  C   UNL     1      -9.790  18.133  68.244  1.00  0.00    -0.351 C  
HETATM   15  O   UNL     1     -10.263  18.972  69.006  1.00  0.00    -0.353 OA 
BRANCH  14  16
HETATM   16  C   UNL     1      -8.784  18.557  67.226  1.00  0.00    -0.272 A  
HETATM   17  C   UNL     1      -8.963  19.796  66.595  1.00  0.00    -0.437 A  
HETATM   18  C   UNL     1      -7.981  20.302  65.738  1.00  0.00    -0.046 A  
HETATM   19  C   UNL     1      -6.819  19.568  65.509  1.00  0.00    -0.285 A  
HETATM   20  C   UNL     1      -6.657  18.308  66.080  1.00  0.00    -0.281 A  
HETATM   21 BR   UNL     1      -5.447  20.294  64.431  1.00  0.00    -0.252 Br 
HETATM   22  C   UNL     1      -7.654  17.788  66.911  1.00  0.00    -0.238 A  
ENDBRANCH  14  16
ENDBRANCH   7  14
TORSDOF 3
ENDMDL
MODEL      120
REMARK 921   NORMALIZED FREE ENERGY PREDICTED BY IDOCK:   -4.76 KCAL/MOL
REMARK 922        TOTAL FREE ENERGY PREDICTED BY IDOCK:   -6.22 KCAL/MOL
REMARK 923 INTER-LIGAND FREE ENERGY PREDICTED BY IDOCK:   -5.68 KCAL/MOL
REMARK 924 INTRA-LIGAND FREE ENERGY PREDICTED BY IDOCK:   -0.54 KCAL/MOL
REMARK 927      BINDING AFFINITY PREDICTED BY RF-SCORE:    0.00 PKD
ROOT
HETATM    1  N   UNL     1      -8.737  13.920  68.891  1.00  0.00    -0.371 NA 
HETATM    2  C   UNL     1      -8.368  15.288  68.872  1.00  0.00    -0.196 A  
HETATM    3  H1  UNL     1      -9.611  13.643  68.444  1.00  0.00     0.000 HD 
HETATM    4  H2  UNL     1      -8.742  13.592  69.856  1.00  0.00     0.000 HD 
HETATM    5  C   UNL     1      -7.163  15.670  69.489  1.00  0.00    -0.198 A  
HETATM    6  C   UNL     1      -6.692  16.980  69.269  1.00  0.00    -0.234 A  
HETATM    7  C   UNL     1      -9.241  16.302  68.413  1.00  0.00    -0.203 A  
HETATM    8  C   UNL     1      -7.455  17.918  68.576  1.00  0.00    -0.270 A  
HETATM    9  C   UNL     1      -8.751  17.595  68.195  1.00  0.00    -0.265 A  
ENDROOT
BRANCH   5  10
HETATM   10  C   UNL     1      -6.280  14.740  70.310  1.00  0.00    -0.167 C  
HETATM   11  O   UNL     1      -5.479  13.429  68.377  1.00  0.00    -0.075 OA 
HETATM   12  O   UNL     1      -5.301  12.558  70.416  1.00  0.00    -0.105 OA 
HETATM   13  C   UNL     1      -5.670  13.489  69.701  1.00  0.00    -0.104 C  
ENDBRANCH   5  10
BRANCH   7  14
HETATM   14  C   UNL     1     -10.689  16.088  68.129  1.00  0.00    -0.311 C  
HETATM   15  O   UNL     1     -11.521  16.680  68.812  1.00  0.00    -0.238 OA 
BRANCH  14  16
HETATM   16  C   UNL     1     -11.154  15.172  67.045  1.00  0.00    -0.328 A  
HETATM   17  C   UNL     1     -10.725  15.427  65.735  1.00  0.00    -0.360 A  
HETATM   18  C   UNL     1     -11.018  14.526  64.707  1.00  0.00    -0.404 A  
HETATM   19  C   UNL     1     -11.741  13.368  64.988  1.00  0.00    -0.325 A  
HETATM   20  C   UNL     1     -12.226  13.134  66.273  1.00  0.00    -0.423 A  
HETATM   21 BR   UNL     1     -12.051  12.100  63.622  1.00  0.00    -0.652 Br 
HETATM   22  C   UNL     1     -11.961  14.053  67.293  1.00  0.00    -0.448 A  
ENDBRANCH  14  16
ENDBRANCH   7  14
TORSDOF 3
ENDMDL
MODEL      121
REMARK 921   NORMALIZED FREE ENERGY PREDICTED BY IDOCK:   -4.74 KCAL/MOL
REMARK 922        TOTAL FREE ENERGY PREDICTED BY IDOCK:   -6.18 KCAL/MOL
REMARK 923 INTER-LIGAND FREE ENERGY PREDICTED BY IDOCK:   -5.75 KCAL/MOL
REMARK 924 INTRA-LIGAND FREE ENERGY PREDICTED BY IDOCK:   -0.43 KCAL/MOL
REMARK 927      BINDING AFFINITY PREDICTED BY RF-SCORE:    0.00 PKD
ROOT
HETATM    1  N   UNL     1      -8.757   9.862  69.245  1.00  0.00    -0.156 NA 
HETATM    2  C   UNL     1      -9.998   9.875  69.930  1.00  0.00    -0.252 A  
HETATM    3  H1  UNL     1      -8.619  10.511  68.471  1.00  0.00     0.000 HD 
HETATM    4  H2  UNL     1      -8.569   8.914  68.919  1.00  0.00     0.000 HD 
HETATM    5  C   UNL     1     -10.188   8.980  70.998  1.00  0.00    -0.347 A  
HETATM    6  C   UNL     1     -11.324   9.154  71.814  1.00  0.00    -0.451 A  
HETATM    7  C   UNL     1     -11.106  10.626  69.474  1.00  0.00    -0.328 A  
HETATM    8  C   UNL     1     -12.305  10.093  71.501  1.00  0.00    -0.505 A  
HETATM    9  C   UNL     1     -12.222  10.792  70.303  1.00  0.00    -0.431 A  
ENDROOT
BRANCH   5  10
HETATM   10  C   UNL     1      -9.206   7.885  71.393  1.00  0.00    -0.165 C  
HETATM   11  O   UNL     1      -7.299   9.412  71.746  1.00  0.00    -0.313 OA 
HETATM   12  O   UNL     1      -6.900   7.246  71.436  1.00  0.00    -0.051 OA 
HETATM   13  C   UNL     1      -7.717   8.163  71.507  1.00  0.00    -0.092 C  
ENDBRANCH   5  10
BRANCH   7  14
HETATM   14  C   UNL     1     -11.176  11.280  68.136  1.00  0.00    -0.286 C  
HETATM   15  O   UNL     1     -11.460  10.597  67.156  1.00  0.00    -0.359 OA 
BRANCH  14  16
HETATM   16  C   UNL     1     -10.901  12.737  67.955  1.00  0.00    -0.254 A  
HETATM   17  C   UNL     1      -9.628  13.120  67.513  1.00  0.00    -0.208 A  
HETATM   18  C   UNL     1      -9.360  14.455  67.197  1.00  0.00    -0.226 A  
HETATM   19  C   UNL     1     -10.367  15.410  67.324  1.00  0.00    -0.271 A  
HETATM   20  C   UNL     1     -11.619  15.054  67.821  1.00  0.00    -0.336 A  
HETATM   21 BR   UNL     1     -10.038  17.196  66.802  1.00  0.00    -0.313 Br 
HETATM   22  C   UNL     1     -11.875  13.724  68.168  1.00  0.00    -0.411 A  
ENDBRANCH  14  16
ENDBRANCH   7  14
TORSDOF 3
ENDMDL
MODEL      122
REMARK 921   NORMALIZED FREE ENERGY PREDICTED BY IDOCK:   -4.73 KCAL/MOL
REMARK 922        TOTAL FREE ENERGY PREDICTED BY IDOCK:   -6.18 KCAL/MOL
REMARK 923 INTER-LIGAND FREE ENERGY PREDICTED BY IDOCK:   -5.89 KCAL/MOL
REMARK 924 INTRA-LIGAND FREE ENERGY PREDICTED BY IDOCK:   -0.29 KCAL/MOL
REMARK 927      BINDING AFFINITY PREDICTED BY RF-SCORE:    0.00 PKD
ROOT
HETATM    1  N   UNL     1     -10.566  11.307  67.652  1.00  0.00    -0.202 NA 
HETATM    2  C   UNL     1     -11.167  11.375  68.934  1.00  0.00    -0.248 A  
HETATM    3  H1  UNL     1     -10.151  10.424  67.354  1.00  0.00     0.000 HD 
HETATM    4  H2  UNL     1      -9.865  12.043  67.576  1.00  0.00     0.000 HD 
HETATM    5  C   UNL     1     -11.739  12.593  69.346  1.00  0.00    -0.387 A  
HETATM    6  C   UNL     1     -12.530  12.592  70.512  1.00  0.00    -0.266 A  
HETATM    7  C   UNL     1     -11.063  10.327  69.877  1.00  0.00    -0.362 A  
HETATM    8  C   UNL     1     -12.639  11.458  71.314  1.00  0.00    -0.480 A  
HETATM    9  C   UNL     1     -11.863  10.342  71.025  1.00  0.00    -0.458 A  
ENDROOT
BRANCH   5  10
HETATM   10  C   UNL     1     -11.637  13.900  68.572  1.00  0.00    -0.367 C  
HETATM   11  O   UNL     1     -12.659  13.017  66.505  1.00  0.00    -0.303 OA 
HETATM   12  O   UNL     1     -11.445  14.877  66.395  1.00  0.00    -0.344 OA 
HETATM   13  C   UNL     1     -11.891  13.954  67.075  1.00  0.00    -0.415 C  
ENDBRANCH   5  10
BRANCH   7  14
HETATM   14  C   UNL     1     -10.139   9.165  69.732  1.00  0.00    -0.199 C  
HETATM   15  O   UNL     1      -9.218   9.237  68.922  1.00  0.00    -0.140 OA 
BRANCH  14  16
HETATM   16  C   UNL     1     -10.307   7.919  70.536  1.00  0.00    -0.205 A  
HETATM   17  C   UNL     1      -9.240   7.506  71.347  1.00  0.00    -0.150 A  
HETATM   18  C   UNL     1      -9.393   6.426  72.221  1.00  0.00    -0.141 A  
HETATM   19  C   UNL     1     -10.613   5.756  72.286  1.00  0.00    -0.218 A  
HETATM   20  C   UNL     1     -11.660   6.116  71.441  1.00  0.00    -0.283 A  
HETATM   21 BR   UNL     1     -10.853   4.362  73.538  1.00  0.00    -0.387 Br 
HETATM   22  C   UNL     1     -11.496   7.175  70.543  1.00  0.00    -0.334 A  
ENDBRANCH  14  16
ENDBRANCH   7  14
TORSDOF 3
ENDMDL
MODEL      123
REMARK 921   NORMALIZED FREE ENERGY PREDICTED BY IDOCK:   -4.73 KCAL/MOL
REMARK 922        TOTAL FREE ENERGY PREDICTED BY IDOCK:   -6.18 KCAL/MOL
REMARK 923 INTER-LIGAND FREE ENERGY PREDICTED BY IDOCK:   -5.53 KCAL/MOL
REMARK 924 INTRA-LIGAND FREE ENERGY PREDICTED BY IDOCK:   -0.65 KCAL/MOL
REMARK 927      BINDING AFFINITY PREDICTED BY RF-SCORE:    0.00 PKD
ROOT
HETATM    1  N   UNL     1      -7.916  13.515  66.770  1.00  0.00    -0.339 NA 
HETATM    2  C   UNL     1      -9.234  13.985  66.997  1.00  0.00    -0.254 A  
HETATM    3  H1  UNL     1      -7.755  12.858  66.007  1.00  0.00     0.000 HD 
HETATM    4  H2  UNL     1      -7.555  13.112  67.634  1.00  0.00     0.000 HD 
HETATM    5  C   UNL     1      -9.455  14.891  68.050  1.00  0.00    -0.198 A  
HETATM    6  C   UNL     1     -10.711  15.525  68.124  1.00  0.00    -0.282 A  
HETATM    7  C   UNL     1     -10.355  13.449  66.322  1.00  0.00    -0.291 A  
HETATM    8  C   UNL     1     -11.754  15.173  67.270  1.00  0.00    -0.169 A  
HETATM    9  C   UNL     1     -11.592  14.099  66.404  1.00  0.00    -0.380 A  
ENDROOT
BRANCH   5  10
HETATM   10  C   UNL     1      -8.402  15.305  69.068  1.00  0.00    -0.215 C  
HETATM   11  O   UNL     1      -8.217  17.633  68.266  1.00  0.00    -0.257 OA 
HETATM   12  O   UNL     1      -6.573  16.787  69.501  1.00  0.00    -0.226 OA 
HETATM   13  C   UNL     1      -7.656  16.623  68.943  1.00  0.00    -0.240 C  
ENDBRANCH   5  10
BRANCH   7  14
HETATM   14  C   UNL     1     -10.316  12.207  65.498  1.00  0.00    -0.263 C  
HETATM   15  O   UNL     1     -10.347  12.305  64.274  1.00  0.00    -0.309 OA 
BRANCH  14  16
HETATM   16  C   UNL     1     -10.248  10.850  66.119  1.00  0.00    -0.304 A  
HETATM   17  C   UNL     1     -10.825  10.672  67.384  1.00  0.00    -0.353 A  
HETATM   18  C   UNL     1     -10.911   9.397  67.949  1.00  0.00    -0.215 A  
HETATM   19  C   UNL     1     -10.417   8.297  67.251  1.00  0.00    -0.303 A  
HETATM   20  C   UNL     1      -9.785   8.468  66.021  1.00  0.00    -0.195 A  
HETATM   21 BR   UNL     1     -10.621   6.561  67.968  1.00  0.00    -0.355 Br 
HETATM   22  C   UNL     1      -9.671   9.748  65.471  1.00  0.00    -0.382 A  
ENDBRANCH  14  16
ENDBRANCH   7  14
TORSDOF 3
ENDMDL
MODEL      124
REMARK 921   NORMALIZED FREE ENERGY PREDICTED BY IDOCK:   -4.71 KCAL/MOL
REMARK 922        TOTAL FREE ENERGY PREDICTED BY IDOCK:   -6.16 KCAL/MOL
REMARK 923 INTER-LIGAND FREE ENERGY PREDICTED BY IDOCK:   -5.81 KCAL/MOL
REMARK 924 INTRA-LIGAND FREE ENERGY PREDICTED BY IDOCK:   -0.34 KCAL/MOL
REMARK 927      BINDING AFFINITY PREDICTED BY RF-SCORE:    0.00 PKD
ROOT
HETATM    1  N   UNL     1     -10.541  12.563  69.423  1.00  0.00    -0.419 NA 
HETATM    2  C   UNL     1      -9.958  11.840  68.352  1.00  0.00    -0.202 A  
HETATM    3  H1  UNL     1     -10.381  12.237  70.376  1.00  0.00     0.000 HD 
HETATM    4  H2  UNL     1     -11.545  12.638  69.264  1.00  0.00     0.000 HD 
HETATM    5  C   UNL     1     -10.179  12.290  67.037  1.00  0.00    -0.230 A  
HETATM    6  C   UNL     1      -9.417  11.711  66.003  1.00  0.00    -0.246 A  
HETATM    7  C   UNL     1      -9.313  10.596  68.539  1.00  0.00    -0.170 A  
HETATM    8  C   UNL     1      -8.568  10.633  66.243  1.00  0.00    -0.156 A  
HETATM    9  C   UNL     1      -8.556  10.042  67.501  1.00  0.00    -0.122 A  
ENDROOT
BRANCH   5  10
HETATM   10  C   UNL     1     -11.123  13.423  66.659  1.00  0.00    -0.310 C  
HETATM   11  O   UNL     1     -12.653  12.009  65.334  1.00  0.00    -0.340 OA 
HETATM   12  O   UNL     1     -12.679  14.211  65.020  1.00  0.00    -0.631 OA 
HETATM   13  C   UNL     1     -12.194  13.239  65.597  1.00  0.00    -0.462 C  
ENDBRANCH   5  10
BRANCH   7  14
HETATM   14  C   UNL     1      -9.376   9.807  69.803  1.00  0.00    -0.226 C  
HETATM   15  O   UNL     1      -8.344   9.634  70.447  1.00  0.00    -0.186 OA 
BRANCH  14  16
HETATM   16  C   UNL     1     -10.654   9.218  70.302  1.00  0.00    -0.278 A  
HETATM   17  C   UNL     1     -10.859   7.842  70.130  1.00  0.00    -0.248 A  
HETATM   18  C   UNL     1     -11.972   7.216  70.697  1.00  0.00    -0.312 A  
HETATM   19  C   UNL     1     -12.885   7.966  71.437  1.00  0.00    -0.280 A  
HETATM   20  C   UNL     1     -12.726   9.344  71.563  1.00  0.00    -0.444 A  
HETATM   21 BR   UNL     1     -14.335   7.106  72.289  1.00  0.00    -0.077 Br 
HETATM   22  C   UNL     1     -11.629   9.974  70.967  1.00  0.00    -0.476 A  
ENDBRANCH  14  16
ENDBRANCH   7  14
TORSDOF 3
ENDMDL
MODEL      125
REMARK 921   NORMALIZED FREE ENERGY PREDICTED BY IDOCK:   -4.67 KCAL/MOL
REMARK 922        TOTAL FREE ENERGY PREDICTED BY IDOCK:   -6.11 KCAL/MOL
REMARK 923 INTER-LIGAND FREE ENERGY PREDICTED BY IDOCK:   -5.79 KCAL/MOL
REMARK 924 INTRA-LIGAND FREE ENERGY PREDICTED BY IDOCK:   -0.32 KCAL/MOL
REMARK 927      BINDING AFFINITY PREDICTED BY RF-SCORE:    0.00 PKD
ROOT
HETATM    1  N   UNL     1      -9.031   9.613  70.765  1.00  0.00    -0.358 NA 
HETATM    2  C   UNL     1     -10.335   9.301  71.227  1.00  0.00    -0.327 A  
HETATM    3  H1  UNL     1      -8.888  10.486  70.258  1.00  0.00     0.000 HD 
HETATM    4  H2  UNL     1      -8.688   8.840  70.196  1.00  0.00     0.000 HD 
HETATM    5  C   UNL     1     -10.532   8.097  71.926  1.00  0.00    -0.312 A  
HETATM    6  C   UNL     1     -11.767   7.903  72.576  1.00  0.00    -0.423 A  
HETATM    7  C   UNL     1     -11.469  10.063  70.863  1.00  0.00    -0.452 A  
HETATM    8  C   UNL     1     -12.817   8.807  72.424  1.00  0.00    -0.434 A  
HETATM    9  C   UNL     1     -12.685   9.859  71.526  1.00  0.00    -0.515 A  
ENDROOT
BRANCH   5  10
HETATM   10  C   UNL     1      -9.471   7.020  72.108  1.00  0.00    -0.150 C  
HETATM   11  O   UNL     1      -8.701   7.834  74.308  1.00  0.00    -0.245 OA 
HETATM   12  O   UNL     1      -7.373   6.491  73.132  1.00  0.00    -0.085 OA 
HETATM   13  C   UNL     1      -8.432   7.113  73.212  1.00  0.00    -0.122 C  
ENDBRANCH   5  10
BRANCH   7  14
HETATM   14  C   UNL     1     -11.466  11.105  69.796  1.00  0.00    -0.312 C  
HETATM   15  O   UNL     1     -12.062  12.160  69.996  1.00  0.00    -0.313 OA 
BRANCH  14  16
HETATM   16  C   UNL     1     -10.766  10.898  68.494  1.00  0.00    -0.239 A  
HETATM   17  C   UNL     1     -10.899   9.653  67.863  1.00  0.00    -0.272 A  
HETATM   18  C   UNL     1     -10.380   9.451  66.581  1.00  0.00    -0.284 A  
HETATM   19  C   UNL     1      -9.725  10.494  65.928  1.00  0.00    -0.217 A  
HETATM   20  C   UNL     1      -9.533  11.716  66.568  1.00  0.00    -0.219 A  
HETATM   21 BR   UNL     1      -9.112  10.255  64.157  1.00  0.00    -0.313 Br 
HETATM   22  C   UNL     1     -10.023  11.906  67.863  1.00  0.00    -0.195 A  
ENDBRANCH  14  16
ENDBRANCH   7  14
TORSDOF 3
ENDMDL
MODEL      126
REMARK 921   NORMALIZED FREE ENERGY PREDICTED BY IDOCK:   -4.63 KCAL/MOL
REMARK 922        TOTAL FREE ENERGY PREDICTED BY IDOCK:   -6.05 KCAL/MOL
REMARK 923 INTER-LIGAND FREE ENERGY PREDICTED BY IDOCK:   -5.37 KCAL/MOL
REMARK 924 INTRA-LIGAND FREE ENERGY PREDICTED BY IDOCK:   -0.69 KCAL/MOL
REMARK 927      BINDING AFFINITY PREDICTED BY RF-SCORE:    0.00 PKD
ROOT
HETATM    1  N   UNL     1     -12.405  15.725  67.983  1.00  0.00     0.020 NA 
HETATM    2  C   UNL     1     -11.585  14.608  67.685  1.00  0.00    -0.361 A  
HETATM    3  H1  UNL     1     -12.314  16.564  67.411  1.00  0.00     0.000 HD 
HETATM    4  H2  UNL     1     -12.278  15.978  68.962  1.00  0.00     0.000 HD 
HETATM    5  C   UNL     1     -11.710  13.451  68.475  1.00  0.00    -0.392 A  
HETATM    6  C   UNL     1     -11.066  12.277  68.036  1.00  0.00    -0.285 A  
HETATM    7  C   UNL     1     -10.531  14.671  66.745  1.00  0.00    -0.277 A  
HETATM    8  C   UNL     1     -10.217  12.284  66.931  1.00  0.00    -0.229 A  
HETATM    9  C   UNL     1      -9.908  13.493  66.318  1.00  0.00    -0.306 A  
ENDROOT
BRANCH   5  10
HETATM   10  C   UNL     1     -12.568  13.349  69.728  1.00  0.00     0.024 C  
HETATM   11  O   UNL     1     -11.683  15.402  70.774  1.00  0.00    -0.286 OA 
HETATM   12  O   UNL     1     -12.713  13.902  72.052  1.00  0.00    -0.303 OA 
HETATM   13  C   UNL     1     -12.308  14.230  70.938  1.00  0.00    -0.359 C  
ENDBRANCH   5  10
BRANCH   7  14
HETATM   14  C   UNL     1     -10.020  15.940  66.150  1.00  0.00    -0.314 C  
HETATM   15  O   UNL     1     -10.475  16.315  65.072  1.00  0.00    -0.621 OA 
BRANCH  14  16
HETATM   16  C   UNL     1      -8.969  16.759  66.823  1.00  0.00    -0.265 A  
HETATM   17  C   UNL     1      -8.047  17.443  66.018  1.00  0.00    -0.180 A  
HETATM   18  C   UNL     1      -7.131  18.330  66.589  1.00  0.00    -0.241 A  
HETATM   19  C   UNL     1      -7.133  18.534  67.968  1.00  0.00    -0.236 A  
HETATM   20  C   UNL     1      -8.002  17.814  68.785  1.00  0.00    -0.240 A  
HETATM   21 BR   UNL     1      -5.963  19.807  68.731  1.00  0.00    -0.291 Br 
HETATM   22  C   UNL     1      -8.896  16.903  68.216  1.00  0.00    -0.228 A  
ENDBRANCH  14  16
ENDBRANCH   7  14
TORSDOF 3
ENDMDL
MODEL      127
REMARK 921   NORMALIZED FREE ENERGY PREDICTED BY IDOCK:   -4.59 KCAL/MOL
REMARK 922        TOTAL FREE ENERGY PREDICTED BY IDOCK:   -6.01 KCAL/MOL
REMARK 923 INTER-LIGAND FREE ENERGY PREDICTED BY IDOCK:   -5.28 KCAL/MOL
REMARK 924 INTRA-LIGAND FREE ENERGY PREDICTED BY IDOCK:   -0.73 KCAL/MOL
REMARK 927      BINDING AFFINITY PREDICTED BY RF-SCORE:    0.00 PKD
ROOT
HETATM    1  N   UNL     1      -8.983   9.107  64.659  1.00  0.00    -0.383 NA 
HETATM    2  C   UNL     1      -9.744   9.334  65.833  1.00  0.00    -0.285 A  
HETATM    3  H1  UNL     1      -8.872   9.870  63.992  1.00  0.00     0.000 HD 
HETATM    4  H2  UNL     1      -9.362   8.296  64.171  1.00  0.00     0.000 HD 
HETATM    5  C   UNL     1      -9.897   8.280  66.751  1.00  0.00    -0.333 A  
HETATM    6  C   UNL     1     -10.454   8.577  68.012  1.00  0.00    -0.249 A  
HETATM    7  C   UNL     1     -10.495  10.516  66.031  1.00  0.00    -0.226 A  
HETATM    8  C   UNL     1     -10.965   9.840  68.301  1.00  0.00    -0.215 A  
HETATM    9  C   UNL     1     -11.033  10.794  67.293  1.00  0.00    -0.359 A  
ENDROOT
BRANCH   5  10
HETATM   10  C   UNL     1      -9.423   6.853  66.516  1.00  0.00    -0.199 C  
HETATM   11  O   UNL     1      -7.302   7.115  67.752  1.00  0.00    -0.091 OA 
HETATM   12  O   UNL     1      -7.504   5.437  66.307  1.00  0.00    -0.084 OA 
HETATM   13  C   UNL     1      -7.999   6.430  66.837  1.00  0.00    -0.109 C  
ENDBRANCH   5  10
BRANCH   7  14
HETATM   14  C   UNL     1     -10.759  11.524  64.965  1.00  0.00    -0.290 C  
HETATM   15  O   UNL     1     -11.183  11.140  63.877  1.00  0.00    -0.279 OA 
BRANCH  14  16
HETATM   16  C   UNL     1     -10.516  12.982  65.179  1.00  0.00    -0.335 A  
HETATM   17  C   UNL     1     -11.389  13.894  64.570  1.00  0.00    -0.381 A  
HETATM   18  C   UNL     1     -11.291  15.260  64.847  1.00  0.00    -0.387 A  
HETATM   19  C   UNL     1     -10.317  15.717  65.733  1.00  0.00    -0.369 A  
HETATM   20  C   UNL     1      -9.404  14.829  66.296  1.00  0.00    -0.310 A  
HETATM   21 BR   UNL     1     -10.246  17.550  66.187  1.00  0.00    -0.290 Br 
HETATM   22  C   UNL     1      -9.483  13.467  65.993  1.00  0.00    -0.105 A  
ENDBRANCH  14  16
ENDBRANCH   7  14
TORSDOF 3
ENDMDL
MODEL      128
REMARK 921   NORMALIZED FREE ENERGY PREDICTED BY IDOCK:   -4.59 KCAL/MOL
REMARK 922        TOTAL FREE ENERGY PREDICTED BY IDOCK:   -6.01 KCAL/MOL
REMARK 923 INTER-LIGAND FREE ENERGY PREDICTED BY IDOCK:   -5.47 KCAL/MOL
REMARK 924 INTRA-LIGAND FREE ENERGY PREDICTED BY IDOCK:   -0.54 KCAL/MOL
REMARK 927      BINDING AFFINITY PREDICTED BY RF-SCORE:    0.00 PKD
ROOT
HETATM    1  N   UNL     1      -9.291  13.297  65.390  1.00  0.00    -0.305 NA 
HETATM    2  C   UNL     1      -9.624  12.467  66.490  1.00  0.00    -0.242 A  
HETATM    3  H1  UNL     1      -8.560  13.998  65.509  1.00  0.00     0.000 HD 
HETATM    4  H2  UNL     1     -10.137  13.756  65.054  1.00  0.00     0.000 HD 
HETATM    5  C   UNL     1     -10.632  11.501  66.325  1.00  0.00    -0.309 A  
HETATM    6  C   UNL     1     -10.797  10.536  67.339  1.00  0.00    -0.349 A  
HETATM    7  C   UNL     1      -9.107  12.688  67.788  1.00  0.00    -0.192 A  
HETATM    8  C   UNL     1     -10.082  10.608  68.533  1.00  0.00    -0.185 A  
HETATM    9  C   UNL     1      -9.276  11.714  68.778  1.00  0.00    -0.042 A  
ENDROOT
BRANCH   5  10
HETATM   10  C   UNL     1     -11.505  11.366  65.085  1.00  0.00     0.006 C  
HETATM   11  O   UNL     1     -12.494  13.621  65.261  1.00  0.00    -0.434 OA 
HETATM   12  O   UNL     1     -13.527  12.087  64.026  1.00  0.00    -0.655 OA 
HETATM   13  C   UNL     1     -12.592  12.380  64.770  1.00  0.00    -0.335 C  
ENDBRANCH   5  10
BRANCH   7  14
HETATM   14  C   UNL     1      -8.367  13.918  68.192  1.00  0.00    -0.163 C  
HETATM   15  O   UNL     1      -7.349  13.802  68.869  1.00  0.00    -0.109 OA 
BRANCH  14  16
HETATM   16  C   UNL     1      -8.832  15.282  67.803  1.00  0.00    -0.174 A  
HETATM   17  C   UNL     1      -8.020  16.039  66.947  1.00  0.00    -0.283 A  
HETATM   18  C   UNL     1      -8.471  17.263  66.444  1.00  0.00    -0.304 A  
HETATM   19  C   UNL     1      -9.734  17.733  66.798  1.00  0.00    -0.309 A  
HETATM   20  C   UNL     1     -10.525  17.021  67.696  1.00  0.00    -0.343 A  
HETATM   21 BR   UNL     1     -10.384  19.337  66.040  1.00  0.00    -0.517 Br 
HETATM   22  C   UNL     1     -10.060  15.813  68.225  1.00  0.00    -0.222 A  
ENDBRANCH  14  16
ENDBRANCH   7  14
TORSDOF 3
ENDMDL
MODEL      129
REMARK 921   NORMALIZED FREE ENERGY PREDICTED BY IDOCK:   -4.59 KCAL/MOL
REMARK 922        TOTAL FREE ENERGY PREDICTED BY IDOCK:   -6.01 KCAL/MOL
REMARK 923 INTER-LIGAND FREE ENERGY PREDICTED BY IDOCK:   -5.53 KCAL/MOL
REMARK 924 INTRA-LIGAND FREE ENERGY PREDICTED BY IDOCK:   -0.48 KCAL/MOL
REMARK 927      BINDING AFFINITY PREDICTED BY RF-SCORE:    0.00 PKD
ROOT
HETATM    1  N   UNL     1     -11.525   4.618  65.289  1.00  0.00    -1.096 NA 
HETATM    2  C   UNL     1     -10.167   4.609  65.695  1.00  0.00    -0.231 A  
HETATM    3  H1  UNL     1     -12.142   5.339  65.661  1.00  0.00     0.000 HD 
HETATM    4  H2  UNL     1     -11.934   3.703  65.481  1.00  0.00     0.000 HD 
HETATM    5  C   UNL     1      -9.317   3.613  65.182  1.00  0.00    -0.157 A  
HETATM    6  C   UNL     1      -7.931   3.747  65.405  1.00  0.00    -0.093 A  
HETATM    7  C   UNL     1      -9.679   5.450  66.722  1.00  0.00    -0.170 A  
HETATM    8  C   UNL     1      -7.421   4.754  66.222  1.00  0.00    -0.086 A  
HETATM    9  C   UNL     1      -8.299   5.572  66.923  1.00  0.00    -0.108 A  
ENDROOT
BRANCH   5  10
HETATM   10  C   UNL     1      -9.776   2.444  64.323  1.00  0.00    -0.110 C  
HETATM   11  O   UNL     1     -10.613   3.842  62.469  1.00  0.00    -0.188 OA 
HETATM   12  O   UNL     1     -11.322   1.741  62.637  1.00  0.00    -0.212 OA 
HETATM   13  C   UNL     1     -10.642   2.658  63.093  1.00  0.00    -0.208 C  
ENDBRANCH   5  10
BRANCH   7  14
HETATM   14  C   UNL     1     -10.551   6.246  67.633  1.00  0.00    -0.271 C  
HETATM   15  O   UNL     1     -11.169   7.203  67.175  1.00  0.00    -0.276 OA 
BRANCH  14  16
HETATM   16  C   UNL     1     -10.687   5.915  69.082  1.00  0.00    -0.394 A  
HETATM   17  C   UNL     1      -9.940   4.843  69.589  1.00  0.00    -0.302 A  
HETATM   18  C   UNL     1      -9.925   4.577  70.961  1.00  0.00    -0.257 A  
HETATM   19  C   UNL     1     -10.659   5.383  71.830  1.00  0.00    -0.222 A  
HETATM   20  C   UNL     1     -11.454   6.413  71.332  1.00  0.00    -0.363 A  
HETATM   21 BR   UNL     1     -10.561   5.088  73.693  1.00  0.00    -0.351 Br 
HETATM   22  C   UNL     1     -11.495   6.657  69.957  1.00  0.00    -0.434 A  
ENDBRANCH  14  16
ENDBRANCH   7  14
TORSDOF 3
ENDMDL
MODEL      130
REMARK 921   NORMALIZED FREE ENERGY PREDICTED BY IDOCK:   -4.58 KCAL/MOL
REMARK 922        TOTAL FREE ENERGY PREDICTED BY IDOCK:   -6.00 KCAL/MOL
REMARK 923 INTER-LIGAND FREE ENERGY PREDICTED BY IDOCK:   -4.97 KCAL/MOL
REMARK 924 INTRA-LIGAND FREE ENERGY PREDICTED BY IDOCK:   -1.03 KCAL/MOL
REMARK 927      BINDING AFFINITY PREDICTED BY RF-SCORE:    0.00 PKD
ROOT
HETATM    1  N   UNL     1     -11.962  10.050  69.611  1.00  0.00    -0.475 NA 
HETATM    2  C   UNL     1     -10.593   9.842  69.305  1.00  0.00    -0.221 A  
HETATM    3  H1  UNL     1     -12.509   9.264  69.963  1.00  0.00     0.000 HD 
HETATM    4  H2  UNL     1     -12.429  10.436  68.792  1.00  0.00     0.000 HD 
HETATM    5  C   UNL     1      -9.839  10.925  68.820  1.00  0.00    -0.203 A  
HETATM    6  C   UNL     1      -8.440  10.774  68.738  1.00  0.00    -0.148 A  
HETATM    7  C   UNL     1     -10.004   8.556  69.304  1.00  0.00    -0.195 A  
HETATM    8  C   UNL     1      -7.826   9.551  68.996  1.00  0.00    -0.077 A  
HETATM    9  C   UNL     1      -8.613   8.429  69.228  1.00  0.00    -0.130 A  
ENDROOT
BRANCH   5  10
HETATM   10  C   UNL     1     -10.417  12.287  68.458  1.00  0.00    -0.248 C  
HETATM   11  O   UNL     1     -11.817  11.451  66.604  1.00  0.00    -0.399 OA 
HETATM   12  O   UNL     1     -11.332  13.619  66.693  1.00  0.00    -0.309 OA 
HETATM   13  C   UNL     1     -11.206  12.496  67.177  1.00  0.00    -0.300 C  
ENDBRANCH   5  10
BRANCH   7  14
HETATM   14  C   UNL     1     -10.779   7.285  69.386  1.00  0.00    -0.225 C  
HETATM   15  O   UNL     1     -11.675   7.189  70.221  1.00  0.00    -0.262 OA 
BRANCH  14  16
HETATM   16  C   UNL     1     -10.492   6.127  68.488  1.00  0.00    -0.284 A  
HETATM   17  C   UNL     1     -10.767   6.266  67.121  1.00  0.00    -0.432 A  
HETATM   18  C   UNL     1     -10.392   5.266  66.219  1.00  0.00    -0.287 A  
HETATM   19  C   UNL     1      -9.742   4.124  66.683  1.00  0.00    -0.211 A  
HETATM   20  C   UNL     1      -9.519   3.946  68.047  1.00  0.00    -0.221 A  
HETATM   21 BR   UNL     1      -9.144   2.819  65.455  1.00  0.00    -0.125 Br 
HETATM   22  C   UNL     1      -9.924   4.931  68.952  1.00  0.00    -0.220 A  
ENDBRANCH  14  16
ENDBRANCH   7  14
TORSDOF 3
ENDMDL
MODEL      131
REMARK 921   NORMALIZED FREE ENERGY PREDICTED BY IDOCK:   -4.58 KCAL/MOL
REMARK 922        TOTAL FREE ENERGY PREDICTED BY IDOCK:   -6.00 KCAL/MOL
REMARK 923 INTER-LIGAND FREE ENERGY PREDICTED BY IDOCK:   -5.43 KCAL/MOL
REMARK 924 INTRA-LIGAND FREE ENERGY PREDICTED BY IDOCK:   -0.57 KCAL/MOL
REMARK 927      BINDING AFFINITY PREDICTED BY RF-SCORE:    0.00 PKD
ROOT
HETATM    1  N   UNL     1      -9.629  11.570  67.967  1.00  0.00    -0.174 NA 
HETATM    2  C   UNL     1     -10.253  11.647  66.697  1.00  0.00    -0.216 A  
HETATM    3  H1  UNL     1      -8.813  10.968  68.075  1.00  0.00     0.000 HD 
HETATM    4  H2  UNL     1     -10.326  11.307  68.663  1.00  0.00     0.000 HD 
HETATM    5  C   UNL     1     -11.379  12.477  66.549  1.00  0.00    -0.387 A  
HETATM    6  C   UNL     1     -11.850  12.727  65.244  1.00  0.00    -0.442 A  
HETATM    7  C   UNL     1      -9.897  10.796  65.625  1.00  0.00    -0.299 A  
HETATM    8  C   UNL     1     -11.312  12.070  64.140  1.00  0.00    -0.455 A  
HETATM    9  C   UNL     1     -10.372  11.066  64.336  1.00  0.00    -0.424 A  
ENDROOT
BRANCH   5  10
HETATM   10  C   UNL     1     -12.075  13.200  67.693  1.00  0.00    -0.281 C  
HETATM   11  O   UNL     1     -11.140  15.421  67.158  1.00  0.00    -0.327 OA 
HETATM   12  O   UNL     1     -11.957  15.060  69.195  1.00  0.00    -0.305 OA 
HETATM   13  C   UNL     1     -11.701  14.622  68.074  1.00  0.00    -0.342 C  
ENDBRANCH   5  10
BRANCH   7  14
HETATM   14  C   UNL     1      -9.022   9.598  65.768  1.00  0.00    -0.169 C  
HETATM   15  O   UNL     1      -8.051   9.480  65.025  1.00  0.00    -0.115 OA 
BRANCH  14  16
HETATM   16  C   UNL     1      -9.297   8.536  66.782  1.00  0.00    -0.232 A  
HETATM   17  C   UNL     1      -8.251   8.144  67.628  1.00  0.00    -0.127 A  
HETATM   18  C   UNL     1      -8.488   7.256  68.681  1.00  0.00    -0.129 A  
HETATM   19  C   UNL     1      -9.773   6.758  68.889  1.00  0.00    -0.137 A  
HETATM   20  C   UNL     1     -10.808   7.092  68.018  1.00  0.00    -0.229 A  
HETATM   21 BR   UNL     1     -10.118   5.638  70.371  1.00  0.00    -0.306 Br 
HETATM   22  C   UNL     1     -10.562   7.954  66.945  1.00  0.00    -0.333 A  
ENDBRANCH  14  16
ENDBRANCH   7  14
TORSDOF 3
ENDMDL
MODEL      132
REMARK 921   NORMALIZED FREE ENERGY PREDICTED BY IDOCK:   -4.58 KCAL/MOL
REMARK 922        TOTAL FREE ENERGY PREDICTED BY IDOCK:   -6.00 KCAL/MOL
REMARK 923 INTER-LIGAND FREE ENERGY PREDICTED BY IDOCK:   -5.35 KCAL/MOL
REMARK 924 INTRA-LIGAND FREE ENERGY PREDICTED BY IDOCK:   -0.65 KCAL/MOL
REMARK 927      BINDING AFFINITY PREDICTED BY RF-SCORE:    0.00 PKD
ROOT
HETATM    1  N   UNL     1     -12.660  12.475  70.321  1.00  0.00    -0.036 NA 
HETATM    2  C   UNL     1     -11.647  13.167  69.610  1.00  0.00    -0.253 A  
HETATM    3  H1  UNL     1     -12.711  11.460  70.235  1.00  0.00     0.000 HD 
HETATM    4  H2  UNL     1     -13.566  12.872  70.076  1.00  0.00     0.000 HD 
HETATM    5  C   UNL     1     -11.578  14.567  69.729  1.00  0.00    -0.345 A  
HETATM    6  C   UNL     1     -10.441  15.220  69.212  1.00  0.00    -0.258 A  
HETATM    7  C   UNL     1     -10.819  12.529  68.658  1.00  0.00    -0.280 A  
HETATM    8  C   UNL     1      -9.475  14.528  68.483  1.00  0.00    -0.211 A  
HETATM    9  C   UNL     1      -9.691  13.194  68.162  1.00  0.00    -0.228 A  
ENDROOT
BRANCH   5  10
HETATM   10  C   UNL     1     -12.604  15.424  70.457  1.00  0.00    -0.471 C  
HETATM   11  O   UNL     1     -11.580  15.153  72.687  1.00  0.00    -0.412 OA 
HETATM   12  O   UNL     1     -13.700  15.812  72.549  1.00  0.00    -0.528 OA 
HETATM   13  C   UNL     1     -12.672  15.457  71.974  1.00  0.00    -0.376 C  
ENDBRANCH   5  10
BRANCH   7  14
HETATM   14  C   UNL     1     -11.062  11.156  68.130  1.00  0.00    -0.264 C  
HETATM   15  O   UNL     1     -11.903  11.000  67.248  1.00  0.00    -0.468 OA 
BRANCH  14  16
HETATM   16  C   UNL     1     -10.318   9.969  68.647  1.00  0.00    -0.211 A  
HETATM   17  C   UNL     1     -10.545   8.729  68.035  1.00  0.00    -0.218 A  
HETATM   18  C   UNL     1      -9.778   7.615  68.388  1.00  0.00    -0.164 A  
HETATM   19  C   UNL     1      -8.782   7.740  69.356  1.00  0.00    -0.135 A  
HETATM   20  C   UNL     1      -8.589   8.951  70.015  1.00  0.00    -0.145 A  
HETATM   21 BR   UNL     1      -7.677   6.262  69.762  1.00  0.00    -0.107 Br 
HETATM   22  C   UNL     1      -9.379  10.056  69.685  1.00  0.00    -0.242 A  
ENDBRANCH  14  16
ENDBRANCH   7  14
TORSDOF 3
ENDMDL
MODEL      133
REMARK 921   NORMALIZED FREE ENERGY PREDICTED BY IDOCK:   -4.56 KCAL/MOL
REMARK 922        TOTAL FREE ENERGY PREDICTED BY IDOCK:   -5.97 KCAL/MOL
REMARK 923 INTER-LIGAND FREE ENERGY PREDICTED BY IDOCK:   -5.14 KCAL/MOL
REMARK 924 INTRA-LIGAND FREE ENERGY PREDICTED BY IDOCK:   -0.83 KCAL/MOL
REMARK 927      BINDING AFFINITY PREDICTED BY RF-SCORE:    0.00 PKD
ROOT
HETATM    1  N   UNL     1     -10.751   9.368  71.352  1.00  0.00    -0.352 NA 
HETATM    2  C   UNL     1     -10.559   9.270  69.951  1.00  0.00    -0.226 A  
HETATM    3  H1  UNL     1     -11.330  10.126  71.714  1.00  0.00     0.000 HD 
HETATM    4  H2  UNL     1      -9.840   9.402  71.809  1.00  0.00     0.000 HD 
HETATM    5  C   UNL     1      -9.759   8.226  69.452  1.00  0.00    -0.177 A  
HETATM    6  C   UNL     1      -9.761   7.997  68.061  1.00  0.00    -0.184 A  
HETATM    7  C   UNL     1     -10.993  10.274  69.055  1.00  0.00    -0.274 A  
HETATM    8  C   UNL     1     -10.421   8.857  67.186  1.00  0.00    -0.344 A  
HETATM    9  C   UNL     1     -10.992  10.024  67.678  1.00  0.00    -0.297 A  
ENDROOT
BRANCH   5  10
HETATM   10  C   UNL     1      -8.958   7.263  70.317  1.00  0.00    -0.151 C  
HETATM   11  O   UNL     1     -10.487   5.351  70.000  1.00  0.00    -0.280 OA 
HETATM   12  O   UNL     1      -9.078   5.328  71.721  1.00  0.00    -0.136 OA 
HETATM   13  C   UNL     1      -9.527   5.919  70.740  1.00  0.00    -0.165 C  
ENDBRANCH   5  10
BRANCH   7  14
HETATM   14  C   UNL     1     -11.473  11.620  69.481  1.00  0.00    -0.304 C  
HETATM   15  O   UNL     1     -12.158  11.711  70.497  1.00  0.00    -0.361 OA 
BRANCH  14  16
HETATM   16  C   UNL     1     -11.152  12.854  68.704  1.00  0.00    -0.307 A  
HETATM   17  C   UNL     1      -9.815  13.271  68.649  1.00  0.00    -0.096 A  
HETATM   18  C   UNL     1      -9.440  14.338  67.827  1.00  0.00    -0.216 A  
HETATM   19  C   UNL     1     -10.403  14.990  67.059  1.00  0.00    -0.269 A  
HETATM   20  C   UNL     1     -11.744  14.626  67.152  1.00  0.00    -0.392 A  
HETATM   21 BR   UNL     1      -9.883  16.365  65.872  1.00  0.00    -0.316 Br 
HETATM   22  C   UNL     1     -12.123  13.581  68.000  1.00  0.00    -0.298 A  
ENDBRANCH  14  16
ENDBRANCH   7  14
TORSDOF 3
ENDMDL
MODEL      134
REMARK 921   NORMALIZED FREE ENERGY PREDICTED BY IDOCK:   -4.53 KCAL/MOL
REMARK 922        TOTAL FREE ENERGY PREDICTED BY IDOCK:   -5.94 KCAL/MOL
REMARK 923 INTER-LIGAND FREE ENERGY PREDICTED BY IDOCK:   -5.26 KCAL/MOL
REMARK 924 INTRA-LIGAND FREE ENERGY PREDICTED BY IDOCK:   -0.69 KCAL/MOL
REMARK 927      BINDING AFFINITY PREDICTED BY RF-SCORE:    0.00 PKD
ROOT
HETATM    1  N   UNL     1      -9.529  11.559  67.482  1.00  0.00    -0.168 NA 
HETATM    2  C   UNL     1     -10.386  11.535  68.611  1.00  0.00    -0.210 A  
HETATM    3  H1  UNL     1      -9.018  10.712  67.238  1.00  0.00     0.000 HD 
HETATM    4  H2  UNL     1      -8.865  12.326  67.588  1.00  0.00     0.000 HD 
HETATM    5  C   UNL     1     -11.090  12.705  68.948  1.00  0.00    -0.307 A  
HETATM    6  C   UNL     1     -12.105  12.609  69.922  1.00  0.00    -0.322 A  
HETATM    7  C   UNL     1     -10.427  10.441  69.507  1.00  0.00    -0.274 A  
HETATM    8  C   UNL     1     -12.321  11.430  70.632  1.00  0.00    -0.466 A  
HETATM    9  C   UNL     1     -11.447  10.363  70.462  1.00  0.00    -0.431 A  
ENDROOT
BRANCH   5  10
HETATM   10  C   UNL     1     -10.897  14.055  68.272  1.00  0.00    -0.268 C  
HETATM   11  O   UNL     1     -12.518  13.632  66.459  1.00  0.00    -0.381 OA 
HETATM   12  O   UNL     1     -11.000  15.236  66.193  1.00  0.00    -0.327 OA 
HETATM   13  C   UNL     1     -11.464  14.336  66.891  1.00  0.00    -0.363 C  
ENDBRANCH   5  10
BRANCH   7  14
HETATM   14  C   UNL     1      -9.436   9.327  69.507  1.00  0.00    -0.173 C  
HETATM   15  O   UNL     1      -8.483   9.381  70.280  1.00  0.00    -0.174 OA 
BRANCH  14  16
HETATM   16  C   UNL     1      -9.567   8.155  68.592  1.00  0.00    -0.151 A  
HETATM   17  C   UNL     1     -10.504   7.163  68.916  1.00  0.00    -0.218 A  
HETATM   18  C   UNL     1     -10.763   6.117  68.027  1.00  0.00    -0.370 A  
HETATM   19  C   UNL     1     -10.085   6.060  66.810  1.00  0.00    -0.187 A  
HETATM   20  C   UNL     1      -9.108   7.004  66.503  1.00  0.00    -0.183 A  
HETATM   21 BR   UNL     1     -10.507   4.704  65.564  1.00  0.00    -0.147 Br 
HETATM   22  C   UNL     1      -8.826   8.031  67.408  1.00  0.00    -0.134 A  
ENDBRANCH  14  16
ENDBRANCH   7  14
TORSDOF 3
ENDMDL
MODEL      135
REMARK 921   NORMALIZED FREE ENERGY PREDICTED BY IDOCK:   -4.52 KCAL/MOL
REMARK 922        TOTAL FREE ENERGY PREDICTED BY IDOCK:   -5.93 KCAL/MOL
REMARK 923 INTER-LIGAND FREE ENERGY PREDICTED BY IDOCK:   -5.35 KCAL/MOL
REMARK 924 INTRA-LIGAND FREE ENERGY PREDICTED BY IDOCK:   -0.58 KCAL/MOL
REMARK 927      BINDING AFFINITY PREDICTED BY RF-SCORE:    0.00 PKD
ROOT
HETATM    1  N   UNL     1      -8.401  11.364  66.758  1.00  0.00    -0.159 NA 
HETATM    2  C   UNL     1      -9.236  11.832  65.711  1.00  0.00    -0.139 A  
HETATM    3  H1  UNL     1      -8.299  11.938  67.594  1.00  0.00     0.000 HD 
HETATM    4  H2  UNL     1      -7.475  11.166  66.379  1.00  0.00     0.000 HD 
HETATM    5  C   UNL     1      -9.376  11.040  64.557  1.00  0.00    -0.227 A  
HETATM    6  C   UNL     1     -10.376  11.395  63.629  1.00  0.00    -0.463 A  
HETATM    7  C   UNL     1      -9.791  13.132  65.709  1.00  0.00    -0.214 A  
HETATM    8  C   UNL     1     -11.116  12.566  63.772  1.00  0.00    -0.503 A  
HETATM    9  C   UNL     1     -10.787  13.461  64.783  1.00  0.00    -0.387 A  
ENDROOT
BRANCH   5  10
HETATM   10  C   UNL     1      -8.582   9.772  64.277  1.00  0.00    -0.202 C  
HETATM   11  O   UNL     1      -9.356   8.574  66.292  1.00  0.00    -0.193 OA 
HETATM   12  O   UNL     1      -7.511   7.874  65.267  1.00  0.00    -0.074 OA 
HETATM   13  C   UNL     1      -8.434   8.684  65.327  1.00  0.00    -0.179 C  
ENDBRANCH   5  10
BRANCH   7  14
HETATM   14  C   UNL     1      -9.385  14.213  66.653  1.00  0.00    -0.282 C  
HETATM   15  O   UNL     1      -8.312  14.785  66.474  1.00  0.00    -0.086 OA 
BRANCH  14  16
HETATM   16  C   UNL     1     -10.240  14.612  67.810  1.00  0.00    -0.229 A  
HETATM   17  C   UNL     1     -10.818  13.597  68.586  1.00  0.00    -0.283 A  
HETATM   18  C   UNL     1     -11.513  13.911  69.757  1.00  0.00    -0.281 A  
HETATM   19  C   UNL     1     -11.633  15.242  70.154  1.00  0.00    -0.299 A  
HETATM   20  C   UNL     1     -11.117  16.263  69.360  1.00  0.00    -0.328 A  
HETATM   21 BR   UNL     1     -12.484  15.661  71.788  1.00  0.00    -0.555 Br 
HETATM   22  C   UNL     1     -10.450  15.950  68.172  1.00  0.00    -0.270 A  
ENDBRANCH  14  16
ENDBRANCH   7  14
TORSDOF 3
ENDMDL
MODEL      136
REMARK 921   NORMALIZED FREE ENERGY PREDICTED BY IDOCK:   -4.52 KCAL/MOL
REMARK 922        TOTAL FREE ENERGY PREDICTED BY IDOCK:   -5.93 KCAL/MOL
REMARK 923 INTER-LIGAND FREE ENERGY PREDICTED BY IDOCK:   -5.22 KCAL/MOL
REMARK 924 INTRA-LIGAND FREE ENERGY PREDICTED BY IDOCK:   -0.71 KCAL/MOL
REMARK 927      BINDING AFFINITY PREDICTED BY RF-SCORE:    0.00 PKD
ROOT
HETATM    1  N   UNL     1      -7.853  10.021  66.180  1.00  0.00    -0.110 NA 
HETATM    2  C   UNL     1      -8.954  10.649  65.546  1.00  0.00    -0.191 A  
HETATM    3  H1  UNL     1      -7.782  10.067  67.196  1.00  0.00     0.000 HD 
HETATM    4  H2  UNL     1      -6.989  10.378  65.773  1.00  0.00     0.000 HD 
HETATM    5  C   UNL     1      -9.050  10.586  64.144  1.00  0.00    -0.258 A  
HETATM    6  C   UNL     1     -10.253  11.008  63.544  1.00  0.00    -0.424 A  
HETATM    7  C   UNL     1      -9.859  11.478  66.247  1.00  0.00    -0.245 A  
HETATM    8  C   UNL     1     -11.270  11.597  64.292  1.00  0.00    -0.392 A  
HETATM    9  C   UNL     1     -11.052  11.880  65.634  1.00  0.00    -0.362 A  
ENDROOT
BRANCH   5  10
HETATM   10  C   UNL     1      -7.978  10.011  63.230  1.00  0.00    -0.154 C  
HETATM   11  O   UNL     1      -8.224   7.688  64.030  1.00  0.00    -0.094 OA 
HETATM   12  O   UNL     1      -6.359   8.267  62.966  1.00  0.00    -0.084 OA 
HETATM   13  C   UNL     1      -7.454   8.597  63.417  1.00  0.00    -0.110 C  
ENDBRANCH   5  10
BRANCH   7  14
HETATM   14  C   UNL     1      -9.635  11.968  67.638  1.00  0.00    -0.188 C  
HETATM   15  O   UNL     1      -8.771  12.819  67.835  1.00  0.00    -0.166 OA 
BRANCH  14  16
HETATM   16  C   UNL     1     -10.423  11.448  68.794  1.00  0.00    -0.228 A  
HETATM   17  C   UNL     1     -11.516  12.203  69.243  1.00  0.00    -0.363 A  
HETATM   18  C   UNL     1     -12.367  11.698  70.229  1.00  0.00    -0.339 A  
HETATM   19  C   UNL     1     -12.127  10.437  70.771  1.00  0.00    -0.364 A  
HETATM   20  C   UNL     1     -11.010   9.703  70.379  1.00  0.00    -0.356 A  
HETATM   21 BR   UNL     1     -13.333   9.711  72.031  1.00  0.00    -0.543 Br 
HETATM   22  C   UNL     1     -10.140  10.223  69.416  1.00  0.00    -0.255 A  
ENDBRANCH  14  16
ENDBRANCH   7  14
TORSDOF 3
ENDMDL
MODEL      137
REMARK 921   NORMALIZED FREE ENERGY PREDICTED BY IDOCK:   -4.52 KCAL/MOL
REMARK 922        TOTAL FREE ENERGY PREDICTED BY IDOCK:   -5.93 KCAL/MOL
REMARK 923 INTER-LIGAND FREE ENERGY PREDICTED BY IDOCK:   -5.14 KCAL/MOL
REMARK 924 INTRA-LIGAND FREE ENERGY PREDICTED BY IDOCK:   -0.79 KCAL/MOL
REMARK 927      BINDING AFFINITY PREDICTED BY RF-SCORE:    0.00 PKD
ROOT
HETATM    1  N   UNL     1     -10.529   5.364  70.590  1.00  0.00    -0.266 NA 
HETATM    2  C   UNL     1     -10.170   6.230  71.654  1.00  0.00    -0.194 A  
HETATM    3  H1  UNL     1     -10.237   5.606  69.644  1.00  0.00     0.000 HD 
HETATM    4  H2  UNL     1     -11.540   5.231  70.600  1.00  0.00     0.000 HD 
HETATM    5  C   UNL     1     -10.574   5.897  72.960  1.00  0.00    -0.270 A  
HETATM    6  C   UNL     1     -10.024   6.630  74.030  1.00  0.00    -0.346 A  
HETATM    7  C   UNL     1      -9.576   7.495  71.434  1.00  0.00    -0.168 A  
HETATM    8  C   UNL     1      -9.211   7.740  73.808  1.00  0.00    -0.316 A  
HETATM    9  C   UNL     1      -9.030   8.203  72.511  1.00  0.00    -0.286 A  
ENDROOT
BRANCH   5  10
HETATM   10  C   UNL     1     -11.499   4.739  73.309  1.00  0.00    -0.361 C  
HETATM   11  O   UNL     1      -9.691   3.212  74.011  1.00  0.00    -0.094 OA 
HETATM   12  O   UNL     1     -11.676   2.359  73.483  1.00  0.00    -0.201 OA 
HETATM   13  C   UNL     1     -10.954   3.349  73.588  1.00  0.00    -0.237 C  
ENDBRANCH   5  10
BRANCH   7  14
HETATM   14  C   UNL     1      -9.480   8.148  70.097  1.00  0.00    -0.167 C  
HETATM   15  O   UNL     1      -8.937   7.541  69.178  1.00  0.00    -0.136 OA 
BRANCH  14  16
HETATM   16  C   UNL     1     -10.017   9.519  69.849  1.00  0.00    -0.259 A  
HETATM   17  C   UNL     1      -9.402  10.301  68.861  1.00  0.00    -0.180 A  
HETATM   18  C   UNL     1      -9.948  11.534  68.494  1.00  0.00    -0.207 A  
HETATM   19  C   UNL     1     -11.109  11.989  69.117  1.00  0.00    -0.215 A  
HETATM   20  C   UNL     1     -11.694  11.251  70.143  1.00  0.00    -0.429 A  
HETATM   21 BR   UNL     1     -11.904  13.608  68.553  1.00  0.00    -0.405 Br 
HETATM   22  C   UNL     1     -11.129  10.033  70.531  1.00  0.00    -0.400 A  
ENDBRANCH  14  16
ENDBRANCH   7  14
TORSDOF 3
ENDMDL
MODEL      138
REMARK 921   NORMALIZED FREE ENERGY PREDICTED BY IDOCK:   -4.52 KCAL/MOL
REMARK 922        TOTAL FREE ENERGY PREDICTED BY IDOCK:   -5.92 KCAL/MOL
REMARK 923 INTER-LIGAND FREE ENERGY PREDICTED BY IDOCK:   -5.03 KCAL/MOL
REMARK 924 INTRA-LIGAND FREE ENERGY PREDICTED BY IDOCK:   -0.90 KCAL/MOL
REMARK 927      BINDING AFFINITY PREDICTED BY RF-SCORE:    0.00 PKD
ROOT
HETATM    1  N   UNL     1     -10.341   5.956  67.897  1.00  0.00    -0.189 NA 
HETATM    2  C   UNL     1      -9.523   6.874  68.603  1.00  0.00    -0.134 A  
HETATM    3  H1  UNL     1     -10.410   6.042  66.883  1.00  0.00     0.000 HD 
HETATM    4  H2  UNL     1     -11.280   5.977  68.294  1.00  0.00     0.000 HD 
HETATM    5  C   UNL     1      -9.429   6.755  70.001  1.00  0.00    -0.158 A  
HETATM    6  C   UNL     1      -8.444   7.515  70.665  1.00  0.00    -0.132 A  
HETATM    7  C   UNL     1      -8.939   8.001  67.981  1.00  0.00    -0.130 A  
HETATM    8  C   UNL     1      -7.675   8.457  69.986  1.00  0.00    -0.090 A  
HETATM    9  C   UNL     1      -7.959   8.738  68.655  1.00  0.00    -0.107 A  
ENDROOT
BRANCH   5  10
HETATM   10  C   UNL     1     -10.257   5.796  70.845  1.00  0.00    -0.275 C  
HETATM   11  O   UNL     1     -12.234   7.269  70.983  1.00  0.00    -0.328 OA 
HETATM   12  O   UNL     1     -12.009   5.628  72.467  1.00  0.00    -0.258 OA 
HETATM   13  C   UNL     1     -11.554   6.239  71.502  1.00  0.00    -0.287 C  
ENDBRANCH   5  10
BRANCH   7  14
HETATM   14  C   UNL     1      -9.298   8.477  66.613  1.00  0.00    -0.189 C  
HETATM   15  O   UNL     1      -8.902   7.839  65.641  1.00  0.00    -0.147 OA 
BRANCH  14  16
HETATM   16  C   UNL     1     -10.115   9.707  66.395  1.00  0.00    -0.317 A  
HETATM   17  C   UNL     1     -10.859  10.207  67.474  1.00  0.00    -0.349 A  
HETATM   18  C   UNL     1     -11.531  11.427  67.364  1.00  0.00    -0.328 A  
HETATM   19  C   UNL     1     -11.462  12.150  66.174  1.00  0.00    -0.371 A  
HETATM   20  C   UNL     1     -10.778  11.635  65.075  1.00  0.00    -0.351 A  
HETATM   21 BR   UNL     1     -12.286  13.847  66.058  1.00  0.00    -0.507 Br 
HETATM   22  C   UNL     1     -10.134  10.399  65.175  1.00  0.00    -0.379 A  
ENDBRANCH  14  16
ENDBRANCH   7  14
TORSDOF 3
ENDMDL
MODEL      139
REMARK 921   NORMALIZED FREE ENERGY PREDICTED BY IDOCK:   -4.51 KCAL/MOL
REMARK 922        TOTAL FREE ENERGY PREDICTED BY IDOCK:   -5.92 KCAL/MOL
REMARK 923 INTER-LIGAND FREE ENERGY PREDICTED BY IDOCK:   -5.29 KCAL/MOL
REMARK 924 INTRA-LIGAND FREE ENERGY PREDICTED BY IDOCK:   -0.62 KCAL/MOL
REMARK 927      BINDING AFFINITY PREDICTED BY RF-SCORE:    0.00 PKD
ROOT
HETATM    1  N   UNL     1      -9.457  12.917  67.765  1.00  0.00    -0.195 NA 
HETATM    2  C   UNL     1     -10.562  12.961  66.878  1.00  0.00    -0.253 A  
HETATM    3  H1  UNL     1      -8.864  12.088  67.767  1.00  0.00     0.000 HD 
HETATM    4  H2  UNL     1      -9.788  13.088  68.714  1.00  0.00     0.000 HD 
HETATM    5  C   UNL     1     -11.380  14.105  66.876  1.00  0.00    -0.343 A  
HETATM    6  C   UNL     1     -12.329  14.239  65.842  1.00  0.00    -0.420 A  
HETATM    7  C   UNL     1     -10.973  11.837  66.124  1.00  0.00    -0.355 A  
HETATM    8  C   UNL     1     -12.552  13.214  64.924  1.00  0.00    -0.468 A  
HETATM    9  C   UNL     1     -11.911  11.994  65.098  1.00  0.00    -0.230 A  
ENDROOT
BRANCH   5  10
HETATM   10  C   UNL     1     -11.256  15.257  67.863  1.00  0.00    -0.333 C  
HETATM   11  O   UNL     1     -11.566  13.863  69.877  1.00  0.00    -0.269 OA 
HETATM   12  O   UNL     1     -11.889  16.058  70.028  1.00  0.00    -0.318 OA 
HETATM   13  C   UNL     1     -11.613  15.084  69.330  1.00  0.00    -0.315 C  
ENDBRANCH   5  10
BRANCH   7  14
HETATM   14  C   UNL     1     -10.461  10.454  66.345  1.00  0.00    -0.177 C  
HETATM   15  O   UNL     1     -10.805   9.848  67.356  1.00  0.00    -0.280 OA 
BRANCH  14  16
HETATM   16  C   UNL     1      -9.538   9.791  65.376  1.00  0.00    -0.359 A  
HETATM   17  C   UNL     1      -9.143  10.511  64.240  1.00  0.00    -0.256 A  
HETATM   18  C   UNL     1      -8.176   9.992  63.375  1.00  0.00    -0.164 A  
HETATM   19  C   UNL     1      -7.604   8.749  63.642  1.00  0.00    -0.124 A  
HETATM   20  C   UNL     1      -8.033   7.996  64.733  1.00  0.00    -0.143 A  
HETATM   21 BR   UNL     1      -6.226   8.091  62.530  1.00  0.00    -0.082 Br 
HETATM   22  C   UNL     1      -9.023   8.502  65.580  1.00  0.00    -0.209 A  
ENDBRANCH  14  16
ENDBRANCH   7  14
TORSDOF 3
ENDMDL
MODEL      140
REMARK 921   NORMALIZED FREE ENERGY PREDICTED BY IDOCK:   -4.51 KCAL/MOL
REMARK 922        TOTAL FREE ENERGY PREDICTED BY IDOCK:   -5.92 KCAL/MOL
REMARK 923 INTER-LIGAND FREE ENERGY PREDICTED BY IDOCK:   -5.03 KCAL/MOL
REMARK 924 INTRA-LIGAND FREE ENERGY PREDICTED BY IDOCK:   -0.89 KCAL/MOL
REMARK 927      BINDING AFFINITY PREDICTED BY RF-SCORE:    0.00 PKD
ROOT
HETATM    1  N   UNL     1      -8.809   7.506  65.234  1.00  0.00    -0.371 NA 
HETATM    2  C   UNL     1      -9.295   8.626  65.955  1.00  0.00    -0.218 A  
HETATM    3  H1  UNL     1      -9.223   6.592  65.414  1.00  0.00     0.000 HD 
HETATM    4  H2  UNL     1      -7.799   7.442  65.365  1.00  0.00     0.000 HD 
HETATM    5  C   UNL     1      -8.722   9.887  65.708  1.00  0.00    -0.157 A  
HETATM    6  C   UNL     1      -9.359  11.021  66.252  1.00  0.00    -0.206 A  
HETATM    7  C   UNL     1     -10.206   8.498  67.029  1.00  0.00    -0.371 A  
HETATM    8  C   UNL     1     -10.442  10.899  67.120  1.00  0.00    -0.281 A  
HETATM    9  C   UNL     1     -10.831   9.636  67.550  1.00  0.00    -0.265 A  
ENDROOT
BRANCH   5  10
HETATM   10  C   UNL     1      -7.510  10.125  64.819  1.00  0.00    -0.136 C  
HETATM   11  O   UNL     1      -8.814  10.492  62.755  1.00  0.00    -0.192 OA 
HETATM   12  O   UNL     1      -6.658   9.973  62.588  1.00  0.00    -0.111 OA 
HETATM   13  C   UNL     1      -7.636  10.172  63.306  1.00  0.00    -0.143 C  
ENDBRANCH   5  10
BRANCH   7  14
HETATM   14  C   UNL     1     -10.565   7.198  67.666  1.00  0.00    -0.248 C  
HETATM   15  O   UNL     1     -10.956   6.277  66.953  1.00  0.00    -0.358 OA 
BRANCH  14  16
HETATM   16  C   UNL     1     -10.471   6.989  69.141  1.00  0.00    -0.218 A  
HETATM   17  C   UNL     1      -9.299   7.398  69.793  1.00  0.00    -0.146 A  
HETATM   18  C   UNL     1      -9.212   7.352  71.187  1.00  0.00    -0.155 A  
HETATM   19  C   UNL     1     -10.298   6.895  71.933  1.00  0.00    -0.189 A  
HETATM   20  C   UNL     1     -11.444   6.427  71.294  1.00  0.00    -0.371 A  
HETATM   21 BR   UNL     1     -10.220   6.926  73.820  1.00  0.00    -0.408 Br 
HETATM   22  C   UNL     1     -11.517   6.443  69.898  1.00  0.00    -0.483 A  
ENDBRANCH  14  16
ENDBRANCH   7  14
TORSDOF 3
ENDMDL
MODEL      141
REMARK 921   NORMALIZED FREE ENERGY PREDICTED BY IDOCK:   -4.51 KCAL/MOL
REMARK 922        TOTAL FREE ENERGY PREDICTED BY IDOCK:   -5.92 KCAL/MOL
REMARK 923 INTER-LIGAND FREE ENERGY PREDICTED BY IDOCK:   -5.11 KCAL/MOL
REMARK 924 INTRA-LIGAND FREE ENERGY PREDICTED BY IDOCK:   -0.81 KCAL/MOL
REMARK 927      BINDING AFFINITY PREDICTED BY RF-SCORE:    0.00 PKD
ROOT
HETATM    1  N   UNL     1     -10.378   6.749  73.240  1.00  0.00    -0.241 NA 
HETATM    2  C   UNL     1     -10.431   6.439  71.858  1.00  0.00    -0.209 A  
HETATM    3  H1  UNL     1     -10.930   7.533  73.587  1.00  0.00     0.000 HD 
HETATM    4  H2  UNL     1      -9.405   6.886  73.512  1.00  0.00     0.000 HD 
HETATM    5  C   UNL     1      -9.669   5.358  71.381  1.00  0.00    -0.213 A  
HETATM    6  C   UNL     1      -9.901   4.914  70.063  1.00  0.00    -0.304 A  
HETATM    7  C   UNL     1     -11.078   7.274  70.918  1.00  0.00    -0.284 A  
HETATM    8  C   UNL     1     -10.757   5.603  69.206  1.00  0.00    -0.350 A  
HETATM    9  C   UNL     1     -11.304   6.812  69.617  1.00  0.00    -0.326 A  
ENDROOT
BRANCH   5  10
HETATM   10  C   UNL     1      -8.669   4.570  72.216  1.00  0.00    -0.126 C  
HETATM   11  O   UNL     1     -10.320   2.947  73.072  1.00  0.00    -0.137 OA 
HETATM   12  O   UNL     1      -8.392   3.190  74.152  1.00  0.00    -0.069 OA 
HETATM   13  C   UNL     1      -9.127   3.533  73.227  1.00  0.00    -0.097 C  
ENDBRANCH   5  10
BRANCH   7  14
HETATM   14  C   UNL     1     -11.558   8.653  71.222  1.00  0.00    -0.284 C  
HETATM   15  O   UNL     1     -12.267   8.831  72.209  1.00  0.00    -0.364 OA 
BRANCH  14  16
HETATM   16  C   UNL     1     -11.208   9.819  70.356  1.00  0.00    -0.362 A  
HETATM   17  C   UNL     1      -9.903   9.897  69.850  1.00  0.00    -0.285 A  
HETATM   18  C   UNL     1      -9.561  10.890  68.927  1.00  0.00    -0.192 A  
HETATM   19  C   UNL     1     -10.524  11.808  68.511  1.00  0.00    -0.215 A  
HETATM   20  C   UNL     1     -11.806  11.779  69.053  1.00  0.00    -0.379 A  
HETATM   21 BR   UNL     1     -10.091  13.087  67.189  1.00  0.00    -0.247 Br 
HETATM   22  C   UNL     1     -12.138  10.806  70.000  1.00  0.00    -0.423 A  
ENDBRANCH  14  16
ENDBRANCH   7  14
TORSDOF 3
ENDMDL
MODEL      142
REMARK 921   NORMALIZED FREE ENERGY PREDICTED BY IDOCK:   -4.51 KCAL/MOL
REMARK 922        TOTAL FREE ENERGY PREDICTED BY IDOCK:   -5.92 KCAL/MOL
REMARK 923 INTER-LIGAND FREE ENERGY PREDICTED BY IDOCK:   -5.29 KCAL/MOL
REMARK 924 INTRA-LIGAND FREE ENERGY PREDICTED BY IDOCK:   -0.62 KCAL/MOL
REMARK 927      BINDING AFFINITY PREDICTED BY RF-SCORE:    0.00 PKD
ROOT
HETATM    1  N   UNL     1     -13.377  10.647  72.410  1.00  0.00    -0.524 NA 
HETATM    2  C   UNL     1     -12.490  10.785  71.312  1.00  0.00    -0.399 A  
HETATM    3  H1  UNL     1     -13.385   9.767  72.924  1.00  0.00     0.000 HD 
HETATM    4  H2  UNL     1     -14.325  10.856  72.097  1.00  0.00     0.000 HD 
HETATM    5  C   UNL     1     -12.479  11.999  70.603  1.00  0.00    -0.335 A  
HETATM    6  C   UNL     1     -11.445  12.211  69.669  1.00  0.00    -0.308 A  
HETATM    7  C   UNL     1     -11.747   9.697  70.798  1.00  0.00    -0.390 A  
HETATM    8  C   UNL     1     -10.536  11.203  69.351  1.00  0.00    -0.174 A  
HETATM    9  C   UNL     1     -10.720   9.930  69.876  1.00  0.00    -0.318 A  
ENDROOT
BRANCH   5  10
HETATM   10  C   UNL     1     -13.456  13.144  70.834  1.00  0.00     0.367 C  
HETATM   11  O   UNL     1     -11.925  14.460  72.255  1.00  0.00    -0.156 OA 
HETATM   12  O   UNL     1     -14.106  14.889  72.338  1.00  0.00    -0.462 OA 
HETATM   13  C   UNL     1     -13.186  14.214  71.878  1.00  0.00    -0.387 C  
ENDBRANCH   5  10
BRANCH   7  14
HETATM   14  C   UNL     1     -11.979   8.274  71.181  1.00  0.00    -0.265 C  
HETATM   15  O   UNL     1     -12.912   8.008  71.935  1.00  0.00    -0.317 OA 
BRANCH  14  16
HETATM   16  C   UNL     1     -11.107   7.170  70.681  1.00  0.00    -0.294 A  
HETATM   17  C   UNL     1     -10.089   6.699  71.522  1.00  0.00    -0.200 A  
HETATM   18  C   UNL     1      -9.334   5.580  71.160  1.00  0.00    -0.181 A  
HETATM   19  C   UNL     1      -9.595   4.930  69.955  1.00  0.00    -0.191 A  
HETATM   20  C   UNL     1     -10.561   5.425  69.083  1.00  0.00    -0.241 A  
HETATM   21 BR   UNL     1      -8.644   3.359  69.511  1.00  0.00    -0.123 Br 
HETATM   22  C   UNL     1     -11.293   6.564  69.430  1.00  0.00    -0.395 A  
ENDBRANCH  14  16
ENDBRANCH   7  14
TORSDOF 3
ENDMDL
MODEL      143
REMARK 921   NORMALIZED FREE ENERGY PREDICTED BY IDOCK:   -4.50 KCAL/MOL
REMARK 922        TOTAL FREE ENERGY PREDICTED BY IDOCK:   -5.91 KCAL/MOL
REMARK 923 INTER-LIGAND FREE ENERGY PREDICTED BY IDOCK:   -5.36 KCAL/MOL
REMARK 924 INTRA-LIGAND FREE ENERGY PREDICTED BY IDOCK:   -0.55 KCAL/MOL
REMARK 927      BINDING AFFINITY PREDICTED BY RF-SCORE:    0.00 PKD
ROOT
HETATM    1  N   UNL     1     -10.483   7.672  70.104  1.00  0.00    -0.222 NA 
HETATM    2  C   UNL     1     -10.952   8.938  69.670  1.00  0.00    -0.123 A  
HETATM    3  H1  UNL     1      -9.935   7.107  69.457  1.00  0.00     0.000 HD 
HETATM    4  H2  UNL     1     -11.275   7.122  70.434  1.00  0.00     0.000 HD 
HETATM    5  C   UNL     1     -11.710   9.718  70.562  1.00  0.00    -0.343 A  
HETATM    6  C   UNL     1     -11.974  11.057  70.211  1.00  0.00    -0.452 A  
HETATM    7  C   UNL     1     -10.837   9.369  68.328  1.00  0.00    -0.163 A  
HETATM    8  C   UNL     1     -11.619  11.563  68.962  1.00  0.00    -0.383 A  
HETATM    9  C   UNL     1     -11.098  10.705  68.002  1.00  0.00    -0.361 A  
ENDROOT
BRANCH   5  10
HETATM   10  C   UNL     1     -12.193   9.246  71.927  1.00  0.00    -0.448 C  
HETATM   11  O   UNL     1     -14.365   8.398  71.115  1.00  0.00    -0.285 OA 
HETATM   12  O   UNL     1     -14.119   8.824  73.284  1.00  0.00    -0.215 OA 
HETATM   13  C   UNL     1     -13.635   8.826  72.153  1.00  0.00    -0.435 C  
ENDBRANCH   5  10
BRANCH   7  14
HETATM   14  C   UNL     1     -10.441   8.479  67.199  1.00  0.00    -0.299 C  
HETATM   15  O   UNL     1     -10.972   7.376  67.098  1.00  0.00    -0.312 OA 
BRANCH  14  16
HETATM   16  C   UNL     1      -9.413   8.888  66.196  1.00  0.00    -0.318 A  
HETATM   17  C   UNL     1      -8.213   8.166  66.146  1.00  0.00    -0.117 A  
HETATM   18  C   UNL     1      -7.277   8.418  65.139  1.00  0.00    -0.080 A  
HETATM   19  C   UNL     1      -7.539   9.395  64.180  1.00  0.00    -0.115 A  
HETATM   20  C   UNL     1      -8.699  10.162  64.255  1.00  0.00    -0.218 A  
HETATM   21 BR   UNL     1      -6.322   9.668  62.761  1.00  0.00    -0.106 Br 
HETATM   22  C   UNL     1      -9.620   9.932  65.282  1.00  0.00    -0.361 A  
ENDBRANCH  14  16
ENDBRANCH   7  14
TORSDOF 3
ENDMDL
MODEL      144
REMARK 921   NORMALIZED FREE ENERGY PREDICTED BY IDOCK:   -4.47 KCAL/MOL
REMARK 922        TOTAL FREE ENERGY PREDICTED BY IDOCK:   -5.87 KCAL/MOL
REMARK 923 INTER-LIGAND FREE ENERGY PREDICTED BY IDOCK:   -5.35 KCAL/MOL
REMARK 924 INTRA-LIGAND FREE ENERGY PREDICTED BY IDOCK:   -0.52 KCAL/MOL
REMARK 927      BINDING AFFINITY PREDICTED BY RF-SCORE:    0.00 PKD
ROOT
HETATM    1  N   UNL     1     -11.190   9.840  67.166  1.00  0.00    -0.196 NA 
HETATM    2  C   UNL     1     -10.286   9.827  66.074  1.00  0.00    -0.193 A  
HETATM    3  H1  UNL     1     -11.997  10.461  67.125  1.00  0.00     0.000 HD 
HETATM    4  H2  UNL     1     -10.671  10.029  68.023  1.00  0.00     0.000 HD 
HETATM    5  C   UNL     1      -9.172   8.970  66.131  1.00  0.00    -0.272 A  
HETATM    6  C   UNL     1      -8.412   8.794  64.957  1.00  0.00    -0.193 A  
HETATM    7  C   UNL     1     -10.365  10.761  65.015  1.00  0.00    -0.357 A  
HETATM    8  C   UNL     1      -8.664   9.543  63.810  1.00  0.00    -0.237 A  
HETATM    9  C   UNL     1      -9.605  10.564  63.856  1.00  0.00    -0.363 A  
ENDROOT
BRANCH   5  10
HETATM   10  C   UNL     1      -8.777   8.147  67.349  1.00  0.00    -0.124 C  
HETATM   11  O   UNL     1     -10.853   6.812  67.400  1.00  0.00    -0.287 OA 
HETATM   12  O   UNL     1      -9.598   6.920  69.232  1.00  0.00    -0.150 OA 
HETATM   13  C   UNL     1      -9.784   7.265  68.067  1.00  0.00    -0.141 C  
ENDBRANCH   5  10
BRANCH   7  14
HETATM   14  C   UNL     1     -11.227  11.977  65.039  1.00  0.00    -0.320 C  
HETATM   15  O   UNL     1     -12.095  12.106  64.179  1.00  0.00    -0.400 OA 
BRANCH  14  16
HETATM   16  C   UNL     1     -11.061  13.042  66.072  1.00  0.00    -0.301 A  
HETATM   17  C   UNL     1     -12.213  13.659  66.578  1.00  0.00    -0.454 A  
HETATM   18  C   UNL     1     -12.123  14.562  67.641  1.00  0.00    -0.266 A  
HETATM   19  C   UNL     1     -10.879  14.852  68.199  1.00  0.00    -0.256 A  
HETATM   20  C   UNL     1      -9.720  14.294  67.665  1.00  0.00    -0.220 A  
HETATM   21 BR   UNL     1     -10.767  15.995  69.700  1.00  0.00    -0.341 Br 
HETATM   22  C   UNL     1      -9.808  13.416  66.580  1.00  0.00    -0.278 A  
ENDBRANCH  14  16
ENDBRANCH   7  14
TORSDOF 3
ENDMDL
MODEL      145
REMARK 921   NORMALIZED FREE ENERGY PREDICTED BY IDOCK:   -4.44 KCAL/MOL
REMARK 922        TOTAL FREE ENERGY PREDICTED BY IDOCK:   -5.83 KCAL/MOL
REMARK 923 INTER-LIGAND FREE ENERGY PREDICTED BY IDOCK:   -4.97 KCAL/MOL
REMARK 924 INTRA-LIGAND FREE ENERGY PREDICTED BY IDOCK:   -0.86 KCAL/MOL
REMARK 927      BINDING AFFINITY PREDICTED BY RF-SCORE:    0.00 PKD
ROOT
HETATM    1  N   UNL     1      -9.920  11.847  68.868  1.00  0.00    -0.409 NA 
HETATM    2  C   UNL     1      -9.462  11.537  67.563  1.00  0.00    -0.169 A  
HETATM    3  H1  UNL     1     -10.817  12.320  68.972  1.00  0.00     0.000 HD 
HETATM    4  H2  UNL     1      -9.204  12.390  69.350  1.00  0.00     0.000 HD 
HETATM    5  C   UNL     1      -8.224  10.886  67.420  1.00  0.00    -0.117 A  
HETATM    6  C   UNL     1      -7.885  10.379  66.149  1.00  0.00    -0.135 A  
HETATM    7  C   UNL     1     -10.115  12.008  66.400  1.00  0.00    -0.242 A  
HETATM    8  C   UNL     1      -8.681  10.628  65.033  1.00  0.00    -0.186 A  
HETATM    9  C   UNL     1      -9.767  11.487  65.149  1.00  0.00    -0.268 A  
ENDROOT
BRANCH   5  10
HETATM   10  C   UNL     1      -7.256  10.609  68.563  1.00  0.00    -0.086 C  
HETATM   11  O   UNL     1      -6.844  12.986  69.088  1.00  0.00    -0.104 OA 
HETATM   12  O   UNL     1      -5.391  11.459  69.798  1.00  0.00    -0.052 OA 
HETATM   13  C   UNL     1      -6.420  11.719  69.177  1.00  0.00    -0.097 C  
ENDBRANCH   5  10
BRANCH   7  14
HETATM   14  C   UNL     1     -11.183  13.049  66.408  1.00  0.00    -0.300 C  
HETATM   15  O   UNL     1     -12.358  12.692  66.427  1.00  0.00    -0.521 OA 
BRANCH  14  16
HETATM   16  C   UNL     1     -10.864  14.507  66.385  1.00  0.00    -0.318 A  
HETATM   17  C   UNL     1     -11.025  15.200  65.177  1.00  0.00    -0.428 A  
HETATM   18  C   UNL     1     -10.873  16.589  65.132  1.00  0.00    -0.247 A  
HETATM   19  C   UNL     1     -10.556  17.287  66.296  1.00  0.00    -0.184 A  
HETATM   20  C   UNL     1     -10.332  16.604  67.489  1.00  0.00    -0.294 A  
HETATM   21 BR   UNL     1     -10.449  19.173  66.259  1.00  0.00    -0.549 Br 
HETATM   22  C   UNL     1     -10.453  15.211  67.525  1.00  0.00    -0.258 A  
ENDBRANCH  14  16
ENDBRANCH   7  14
TORSDOF 3
ENDMDL
MODEL      146
REMARK 921   NORMALIZED FREE ENERGY PREDICTED BY IDOCK:   -4.42 KCAL/MOL
REMARK 922        TOTAL FREE ENERGY PREDICTED BY IDOCK:   -5.82 KCAL/MOL
REMARK 923 INTER-LIGAND FREE ENERGY PREDICTED BY IDOCK:   -5.63 KCAL/MOL
REMARK 924 INTRA-LIGAND FREE ENERGY PREDICTED BY IDOCK:   -0.19 KCAL/MOL
REMARK 927      BINDING AFFINITY PREDICTED BY RF-SCORE:    0.00 PKD
ROOT
HETATM    1  N   UNL     1     -12.628  11.567  71.072  1.00  0.00    -0.387 NA 
HETATM    2  C   UNL     1     -11.662  11.730  70.048  1.00  0.00    -0.305 A  
HETATM    3  H1  UNL     1     -12.653  10.686  71.585  1.00  0.00     0.000 HD 
HETATM    4  H2  UNL     1     -13.554  11.750  70.686  1.00  0.00     0.000 HD 
HETATM    5  C   UNL     1     -11.629  12.946  69.341  1.00  0.00    -0.363 A  
HETATM    6  C   UNL     1     -10.530  13.187  68.491  1.00  0.00    -0.262 A  
HETATM    7  C   UNL     1     -10.851  10.664  69.595  1.00  0.00    -0.318 A  
HETATM    8  C   UNL     1      -9.572  12.206  68.247  1.00  0.00    -0.210 A  
HETATM    9  C   UNL     1      -9.761  10.927  68.757  1.00  0.00    -0.196 A  
ENDROOT
BRANCH   5  10
HETATM   10  C   UNL     1     -12.652  14.063  69.493  1.00  0.00     0.007 C  
HETATM   11  O   UNL     1     -11.410  15.265  71.256  1.00  0.00    -0.343 OA 
HETATM   12  O   UNL     1     -13.580  15.674  70.999  1.00  0.00    -0.588 OA 
HETATM   13  C   UNL     1     -12.584  15.044  70.651  1.00  0.00    -0.374 C  
ENDBRANCH   5  10
BRANCH   7  14
HETATM   14  C   UNL     1     -11.073   9.235  69.959  1.00  0.00    -0.205 C  
HETATM   15  O   UNL     1     -11.544   8.971  71.063  1.00  0.00    -0.277 OA 
BRANCH  14  16
HETATM   16  C   UNL     1     -10.733   8.121  69.026  1.00  0.00    -0.099 A  
HETATM   17  C   UNL     1     -10.797   6.808  69.512  1.00  0.00    -0.315 A  
HETATM   18  C   UNL     1     -10.622   5.724  68.648  1.00  0.00    -0.305 A  
HETATM   19  C   UNL     1     -10.381   5.951  67.294  1.00  0.00    -0.226 A  
HETATM   20  C   UNL     1     -10.253   7.251  66.810  1.00  0.00    -0.305 A  
HETATM   21 BR   UNL     1     -10.244   4.488  66.106  1.00  0.00    -0.243 Br 
HETATM   22  C   UNL     1     -10.395   8.334  67.682  1.00  0.00    -0.313 A  
ENDBRANCH  14  16
ENDBRANCH   7  14
TORSDOF 3
ENDMDL
MODEL      147
REMARK 921   NORMALIZED FREE ENERGY PREDICTED BY IDOCK:   -4.41 KCAL/MOL
REMARK 922        TOTAL FREE ENERGY PREDICTED BY IDOCK:   -5.80 KCAL/MOL
REMARK 923 INTER-LIGAND FREE ENERGY PREDICTED BY IDOCK:   -5.26 KCAL/MOL
REMARK 924 INTRA-LIGAND FREE ENERGY PREDICTED BY IDOCK:   -0.55 KCAL/MOL
REMARK 927      BINDING AFFINITY PREDICTED BY RF-SCORE:    0.00 PKD
ROOT
HETATM    1  N   UNL     1      -8.847  10.181  70.305  1.00  0.00    -0.302 NA 
HETATM    2  C   UNL     1      -9.769   9.130  70.540  1.00  0.00    -0.236 A  
HETATM    3  H1  UNL     1      -9.172  11.144  70.388  1.00  0.00     0.000 HD 
HETATM    4  H2  UNL     1      -8.427  10.052  69.385  1.00  0.00     0.000 HD 
HETATM    5  C   UNL     1      -9.320   7.801  70.425  1.00  0.00    -0.160 A  
HETATM    6  C   UNL     1     -10.171   6.774  70.880  1.00  0.00    -0.215 A  
HETATM    7  C   UNL     1     -11.153   9.361  70.713  1.00  0.00    -0.365 A  
HETATM    8  C   UNL     1     -11.470   7.042  71.305  1.00  0.00    -0.324 A  
HETATM    9  C   UNL     1     -11.979   8.328  71.172  1.00  0.00    -0.290 A  
ENDROOT
BRANCH   5  10
HETATM   10  C   UNL     1      -7.941   7.396  69.924  1.00  0.00    -0.121 C  
HETATM   11  O   UNL     1      -6.855   7.513  72.139  1.00  0.00    -0.057 OA 
HETATM   12  O   UNL     1      -5.586   7.575  70.314  1.00  0.00    -0.023 OA 
HETATM   13  C   UNL     1      -6.711   7.522  70.808  1.00  0.00    -0.043 C  
ENDBRANCH   5  10
BRANCH   7  14
HETATM   14  C   UNL     1     -11.820  10.666  70.440  1.00  0.00    -0.349 C  
HETATM   15  O   UNL     1     -12.505  11.179  71.322  1.00  0.00    -0.376 OA 
BRANCH  14  16
HETATM   16  C   UNL     1     -11.685  11.361  69.125  1.00  0.00    -0.410 A  
HETATM   17  C   UNL     1     -11.683  12.763  69.115  1.00  0.00    -0.375 A  
HETATM   18  C   UNL     1     -11.423  13.461  67.933  1.00  0.00    -0.350 A  
HETATM   19  C   UNL     1     -11.167  12.759  66.757  1.00  0.00    -0.295 A  
HETATM   20  C   UNL     1     -11.228  11.367  66.740  1.00  0.00    -0.319 A  
HETATM   21 BR   UNL     1     -10.717  13.699  65.181  1.00  0.00    -0.388 Br 
HETATM   22  C   UNL     1     -11.520  10.671  67.916  1.00  0.00    -0.261 A  
ENDBRANCH  14  16
ENDBRANCH   7  14
TORSDOF 3
ENDMDL
MODEL      148
REMARK 921   NORMALIZED FREE ENERGY PREDICTED BY IDOCK:   -4.41 KCAL/MOL
REMARK 922        TOTAL FREE ENERGY PREDICTED BY IDOCK:   -5.79 KCAL/MOL
REMARK 923 INTER-LIGAND FREE ENERGY PREDICTED BY IDOCK:   -5.07 KCAL/MOL
REMARK 924 INTRA-LIGAND FREE ENERGY PREDICTED BY IDOCK:   -0.73 KCAL/MOL
REMARK 927      BINDING AFFINITY PREDICTED BY RF-SCORE:    0.00 PKD
ROOT
HETATM    1  N   UNL     1      -8.703  13.180  68.646  1.00  0.00    -0.370 NA 
HETATM    2  C   UNL     1      -9.358  12.153  67.921  1.00  0.00    -0.192 A  
HETATM    3  H1  UNL     1      -7.958  12.923  69.292  1.00  0.00     0.000 HD 
HETATM    4  H2  UNL     1      -9.401  13.727  69.148  1.00  0.00     0.000 HD 
HETATM    5  C   UNL     1     -10.386  12.508  67.029  1.00  0.00    -0.236 A  
HETATM    6  C   UNL     1     -10.871  11.518  66.150  1.00  0.00    -0.330 A  
HETATM    7  C   UNL     1      -9.138  10.781  68.185  1.00  0.00    -0.151 A  
HETATM    8  C   UNL     1     -10.448  10.194  66.244  1.00  0.00    -0.192 A  
HETATM    9  C   UNL     1      -9.622   9.816  67.295  1.00  0.00    -0.194 A  
ENDROOT
BRANCH   5  10
HETATM   10  C   UNL     1     -10.956  13.912  66.883  1.00  0.00    -0.300 C  
HETATM   11  O   UNL     1     -10.351  14.152  64.502  1.00  0.00    -0.390 OA 
HETATM   12  O   UNL     1     -10.784  15.980  65.692  1.00  0.00    -0.349 OA 
HETATM   13  C   UNL     1     -10.671  14.757  65.653  1.00  0.00    -0.336 C  
ENDBRANCH   5  10
BRANCH   7  14
HETATM   14  C   UNL     1      -8.400  10.270  69.376  1.00  0.00    -0.161 C  
HETATM   15  O   UNL     1      -7.269  10.694  69.599  1.00  0.00    -0.129 OA 
BRANCH  14  16
HETATM   16  C   UNL     1      -8.994   9.256  70.296  1.00  0.00    -0.261 A  
HETATM   17  C   UNL     1     -10.264   9.511  70.831  1.00  0.00    -0.356 A  
HETATM   18  C   UNL     1     -10.923   8.537  71.586  1.00  0.00    -0.362 A  
HETATM   19  C   UNL     1     -10.311   7.305  71.810  1.00  0.00    -0.196 A  
HETATM   20  C   UNL     1      -9.024   7.061  71.337  1.00  0.00    -0.139 A  
HETATM   21 BR   UNL     1     -11.240   5.951  72.745  1.00  0.00    -0.300 Br 
HETATM   22  C   UNL     1      -8.353   8.048  70.609  1.00  0.00    -0.123 A  
ENDBRANCH  14  16
ENDBRANCH   7  14
TORSDOF 3
ENDMDL
MODEL      149
REMARK 921   NORMALIZED FREE ENERGY PREDICTED BY IDOCK:   -4.37 KCAL/MOL
REMARK 922        TOTAL FREE ENERGY PREDICTED BY IDOCK:   -5.75 KCAL/MOL
REMARK 923 INTER-LIGAND FREE ENERGY PREDICTED BY IDOCK:   -4.99 KCAL/MOL
REMARK 924 INTRA-LIGAND FREE ENERGY PREDICTED BY IDOCK:   -0.76 KCAL/MOL
REMARK 927      BINDING AFFINITY PREDICTED BY RF-SCORE:    0.00 PKD
ROOT
HETATM    1  N   UNL     1     -10.372   8.601  71.048  1.00  0.00    -0.205 NA 
HETATM    2  C   UNL     1     -10.458   8.085  69.730  1.00  0.00    -0.227 A  
HETATM    3  H1  UNL     1     -10.101   9.576  71.174  1.00  0.00     0.000 HD 
HETATM    4  H2  UNL     1      -9.745   8.010  71.594  1.00  0.00     0.000 HD 
HETATM    5  C   UNL     1     -10.831   6.740  69.556  1.00  0.00    -0.315 A  
HETATM    6  C   UNL     1     -11.137   6.302  68.251  1.00  0.00    -0.364 A  
HETATM    7  C   UNL     1     -10.018   8.814  68.601  1.00  0.00    -0.197 A  
HETATM    8  C   UNL     1     -10.947   7.127  67.145  1.00  0.00    -0.342 A  
HETATM    9  C   UNL     1     -10.338   8.364  67.315  1.00  0.00    -0.369 A  
ENDROOT
BRANCH   5  10
HETATM   10  C   UNL     1     -11.017   5.741  70.690  1.00  0.00    -0.319 C  
HETATM   11  O   UNL     1      -8.659   5.792  71.421  1.00  0.00    -0.127 OA 
HETATM   12  O   UNL     1      -9.937   4.077  72.028  1.00  0.00    -0.168 OA 
HETATM   13  C   UNL     1      -9.825   5.134  71.411  1.00  0.00    -0.179 C  
ENDBRANCH   5  10
BRANCH   7  14
HETATM   14  C   UNL     1      -9.218  10.070  68.681  1.00  0.00    -0.152 C  
HETATM   15  O   UNL     1      -7.996   9.990  68.777  1.00  0.00    -0.088 OA 
BRANCH  14  16
HETATM   16  C   UNL     1      -9.861  11.418  68.654  1.00  0.00    -0.199 A  
HETATM   17  C   UNL     1     -11.165  11.538  69.155  1.00  0.00    -0.337 A  
HETATM   18  C   UNL     1     -11.761  12.796  69.280  1.00  0.00    -0.376 A  
HETATM   19  C   UNL     1     -11.055  13.937  68.903  1.00  0.00    -0.266 A  
HETATM   20  C   UNL     1      -9.782  13.826  68.346  1.00  0.00    -0.219 A  
HETATM   21 BR   UNL     1     -11.820  15.644  69.164  1.00  0.00    -0.330 Br 
HETATM   22  C   UNL     1      -9.200  12.564  68.191  1.00  0.00    -0.209 A  
ENDBRANCH  14  16
ENDBRANCH   7  14
TORSDOF 3
ENDMDL
MODEL      150
REMARK 921   NORMALIZED FREE ENERGY PREDICTED BY IDOCK:   -4.34 KCAL/MOL
REMARK 922        TOTAL FREE ENERGY PREDICTED BY IDOCK:   -5.72 KCAL/MOL
REMARK 923 INTER-LIGAND FREE ENERGY PREDICTED BY IDOCK:   -4.96 KCAL/MOL
REMARK 924 INTRA-LIGAND FREE ENERGY PREDICTED BY IDOCK:   -0.76 KCAL/MOL
REMARK 927      BINDING AFFINITY PREDICTED BY RF-SCORE:    0.00 PKD
ROOT
HETATM    1  N   UNL     1     -11.370   6.838  67.513  1.00  0.00    -0.707 NA 
HETATM    2  C   UNL     1     -10.036   7.193  67.836  1.00  0.00    -0.154 A  
HETATM    3  H1  UNL     1     -12.088   7.561  67.541  1.00  0.00     0.000 HD 
HETATM    4  H2  UNL     1     -11.659   6.063  68.109  1.00  0.00     0.000 HD 
HETATM    5  C   UNL     1      -9.045   6.195  67.799  1.00  0.00    -0.117 A  
HETATM    6  C   UNL     1      -7.697   6.596  67.893  1.00  0.00    -0.108 A  
HETATM    7  C   UNL     1      -9.695   8.462  68.358  1.00  0.00    -0.168 A  
HETATM    8  C   UNL     1      -7.351   7.921  68.153  1.00  0.00    -0.099 A  
HETATM    9  C   UNL     1      -8.351   8.843  68.438  1.00  0.00    -0.125 A  
ENDROOT
BRANCH   5  10
HETATM   10  C   UNL     1      -9.318   4.714  67.573  1.00  0.00    -0.166 C  
HETATM   11  O   UNL     1      -9.838   4.220  69.936  1.00  0.00    -0.214 OA 
HETATM   12  O   UNL     1      -9.293   2.543  68.581  1.00  0.00    -0.169 OA 
HETATM   13  C   UNL     1      -9.463   3.751  68.739  1.00  0.00    -0.151 C  
ENDBRANCH   5  10
BRANCH   7  14
HETATM   14  C   UNL     1     -10.693   9.459  68.841  1.00  0.00    -0.178 C  
HETATM   15  O   UNL     1     -11.260   9.260  69.913  1.00  0.00    -0.217 OA 
BRANCH  14  16
HETATM   16  C   UNL     1     -11.026  10.685  68.057  1.00  0.00    -0.336 A  
HETATM   17  C   UNL     1     -10.753  10.685  66.682  1.00  0.00    -0.246 A  
HETATM   18  C   UNL     1     -11.169  11.750  65.878  1.00  0.00    -0.345 A  
HETATM   19  C   UNL     1     -11.857  12.819  66.449  1.00  0.00    -0.408 A  
HETATM   20  C   UNL     1     -12.080  12.861  67.823  1.00  0.00    -0.218 A  
HETATM   21 BR   UNL     1     -12.508  14.211  65.349  1.00  0.00    -0.465 Br 
HETATM   22  C   UNL     1     -11.635  11.811  68.631  1.00  0.00    -0.367 A  
ENDBRANCH  14  16
ENDBRANCH   7  14
TORSDOF 3
ENDMDL
MODEL      151
REMARK 921   NORMALIZED FREE ENERGY PREDICTED BY IDOCK:   -4.31 KCAL/MOL
REMARK 922        TOTAL FREE ENERGY PREDICTED BY IDOCK:   -5.68 KCAL/MOL
REMARK 923 INTER-LIGAND FREE ENERGY PREDICTED BY IDOCK:   -4.90 KCAL/MOL
REMARK 924 INTRA-LIGAND FREE ENERGY PREDICTED BY IDOCK:   -0.78 KCAL/MOL
REMARK 927      BINDING AFFINITY PREDICTED BY RF-SCORE:    0.00 PKD
ROOT
HETATM    1  N   UNL     1      -8.347  10.107  66.315  1.00  0.00    -0.127 NA 
HETATM    2  C   UNL     1      -9.104  10.727  65.289  1.00  0.00    -0.195 A  
HETATM    3  H1  UNL     1      -8.614  10.270  67.286  1.00  0.00     0.000 HD 
HETATM    4  H2  UNL     1      -7.365  10.353  66.197  1.00  0.00     0.000 HD 
HETATM    5  C   UNL     1      -8.735  10.503  63.951  1.00  0.00    -0.176 A  
HETATM    6  C   UNL     1      -9.620  10.929  62.940  1.00  0.00    -0.371 A  
HETATM    7  C   UNL     1     -10.099  11.694  65.562  1.00  0.00    -0.285 A  
HETATM    8  C   UNL     1     -10.760  11.672  63.240  1.00  0.00    -0.404 A  
HETATM    9  C   UNL     1     -10.971  12.099  64.545  1.00  0.00    -0.361 A  
ENDROOT
BRANCH   5  10
HETATM   10  C   UNL     1      -7.486   9.750  63.513  1.00  0.00    -0.126 C  
HETATM   11  O   UNL     1      -8.258   7.547  64.317  1.00  0.00    -0.103 OA 
HETATM   12  O   UNL     1      -6.087   7.857  63.949  1.00  0.00    -0.056 OA 
HETATM   13  C   UNL     1      -7.226   8.322  63.962  1.00  0.00    -0.090 C  
ENDBRANCH   5  10
BRANCH   7  14
HETATM   14  C   UNL     1     -10.299  12.331  66.895  1.00  0.00    -0.216 C  
HETATM   15  O   UNL     1     -10.450  11.612  67.879  1.00  0.00    -0.183 OA 
BRANCH  14  16
HETATM   16  C   UNL     1     -10.328  13.814  67.064  1.00  0.00    -0.260 A  
HETATM   17  C   UNL     1     -11.276  14.361  67.940  1.00  0.00    -0.304 A  
HETATM   18  C   UNL     1     -11.257  15.726  68.240  1.00  0.00    -0.356 A  
HETATM   19  C   UNL     1     -10.291  16.548  67.662  1.00  0.00    -0.291 A  
HETATM   20  C   UNL     1      -9.383  16.028  66.742  1.00  0.00    -0.260 A  
HETATM   21 BR   UNL     1     -10.201  18.373  68.142  1.00  0.00    -0.412 Br 
HETATM   22  C   UNL     1      -9.423  14.669  66.418  1.00  0.00    -0.325 A  
ENDBRANCH  14  16
ENDBRANCH   7  14
TORSDOF 3
ENDMDL
MODEL      152
REMARK 921   NORMALIZED FREE ENERGY PREDICTED BY IDOCK:   -4.30 KCAL/MOL
REMARK 922        TOTAL FREE ENERGY PREDICTED BY IDOCK:   -5.67 KCAL/MOL
REMARK 923 INTER-LIGAND FREE ENERGY PREDICTED BY IDOCK:   -5.12 KCAL/MOL
REMARK 924 INTRA-LIGAND FREE ENERGY PREDICTED BY IDOCK:   -0.55 KCAL/MOL
REMARK 927      BINDING AFFINITY PREDICTED BY RF-SCORE:    0.00 PKD
ROOT
HETATM    1  N   UNL     1     -10.447  12.535  69.427  1.00  0.00    -0.354 NA 
HETATM    2  C   UNL     1     -10.218  11.648  68.345  1.00  0.00    -0.207 A  
HETATM    3  H1  UNL     1     -10.177  13.513  69.322  1.00  0.00     0.000 HD 
HETATM    4  H2  UNL     1     -10.002  12.159  70.263  1.00  0.00     0.000 HD 
HETATM    5  C   UNL     1     -10.589  10.299  68.491  1.00  0.00    -0.240 A  
HETATM    6  C   UNL     1     -10.573   9.481  67.343  1.00  0.00    -0.337 A  
HETATM    7  C   UNL     1      -9.478  12.024  67.200  1.00  0.00    -0.187 A  
HETATM    8  C   UNL     1     -10.077   9.946  66.127  1.00  0.00    -0.315 A  
HETATM    9  C   UNL     1      -9.481  11.199  66.069  1.00  0.00    -0.234 A  
ENDROOT
BRANCH   5  10
HETATM   10  C   UNL     1     -11.095   9.677  69.785  1.00  0.00    -0.247 C  
HETATM   11  O   UNL     1     -13.187  10.985  69.860  1.00  0.00     0.087 OA 
HETATM   12  O   UNL     1     -12.450  10.026  71.726  1.00  0.00    -0.389 OA 
HETATM   13  C   UNL     1     -12.283  10.260  70.530  1.00  0.00    -0.301 C  
ENDBRANCH   5  10
BRANCH   7  14
HETATM   14  C   UNL     1      -8.675  13.276  67.102  1.00  0.00    -0.212 C  
HETATM   15  O   UNL     1      -7.453  13.206  67.204  1.00  0.00    -0.103 OA 
BRANCH  14  16
HETATM   16  C   UNL     1      -9.314  14.609  66.891  1.00  0.00    -0.258 A  
HETATM   17  C   UNL     1      -9.215  15.559  67.917  1.00  0.00    -0.187 A  
HETATM   18  C   UNL     1      -9.675  16.864  67.719  1.00  0.00    -0.250 A  
HETATM   19  C   UNL     1     -10.236  17.221  66.494  1.00  0.00    -0.325 A  
HETATM   20  C   UNL     1     -10.396  16.270  65.488  1.00  0.00    -0.363 A  
HETATM   21 BR   UNL     1     -10.766  19.009  66.189  1.00  0.00    -0.314 Br 
HETATM   22  C   UNL     1      -9.966  14.957  65.699  1.00  0.00    -0.389 A  
ENDBRANCH  14  16
ENDBRANCH   7  14
TORSDOF 3
ENDMDL
MODEL      153
REMARK 921   NORMALIZED FREE ENERGY PREDICTED BY IDOCK:   -4.30 KCAL/MOL
REMARK 922        TOTAL FREE ENERGY PREDICTED BY IDOCK:   -5.67 KCAL/MOL
REMARK 923 INTER-LIGAND FREE ENERGY PREDICTED BY IDOCK:   -5.12 KCAL/MOL
REMARK 924 INTRA-LIGAND FREE ENERGY PREDICTED BY IDOCK:   -0.55 KCAL/MOL
REMARK 927      BINDING AFFINITY PREDICTED BY RF-SCORE:    0.00 PKD
ROOT
HETATM    1  N   UNL     1     -11.402  12.394  69.644  1.00  0.00    -0.476 NA 
HETATM    2  C   UNL     1     -11.185  11.430  68.628  1.00  0.00    -0.243 A  
HETATM    3  H1  UNL     1     -11.217  12.135  70.612  1.00  0.00     0.000 HD 
HETATM    4  H2  UNL     1     -12.359  12.740  69.572  1.00  0.00     0.000 HD 
HETATM    5  C   UNL     1     -11.441  11.788  67.292  1.00  0.00    -0.373 A  
HETATM    6  C   UNL     1     -11.007  10.912  66.277  1.00  0.00    -0.130 A  
HETATM    7  C   UNL     1     -10.888  10.078  68.918  1.00  0.00    -0.250 A  
HETATM    8  C   UNL     1     -10.464   9.665  66.578  1.00  0.00    -0.213 A  
HETATM    9  C   UNL     1     -10.453   9.227  67.896  1.00  0.00    -0.290 A  
ENDROOT
BRANCH   5  10
HETATM   10  C   UNL     1     -12.076  13.101  66.857  1.00  0.00    -0.377 C  
HETATM   11  O   UNL     1      -9.938  14.229  66.354  1.00  0.00    -0.272 OA 
HETATM   12  O   UNL     1     -11.757  15.467  66.679  1.00  0.00    -0.053 OA 
HETATM   13  C   UNL     1     -11.240  14.352  66.643  1.00  0.00    -0.339 C  
ENDBRANCH   5  10
BRANCH   7  14
HETATM   14  C   UNL     1     -11.003   9.473  70.277  1.00  0.00    -0.269 C  
HETATM   15  O   UNL     1     -11.435  10.162  71.198  1.00  0.00    -0.357 OA 
BRANCH  14  16
HETATM   16  C   UNL     1     -10.600   8.061  70.548  1.00  0.00    -0.222 A  
HETATM   17  C   UNL     1      -9.423   7.838  71.275  1.00  0.00    -0.173 A  
HETATM   18  C   UNL     1      -9.072   6.545  71.673  1.00  0.00    -0.143 A  
HETATM   19  C   UNL     1      -9.899   5.472  71.345  1.00  0.00    -0.166 A  
HETATM   20  C   UNL     1     -11.040   5.673  70.570  1.00  0.00    -0.199 A  
HETATM   21 BR   UNL     1      -9.481   3.738  71.968  1.00  0.00    -0.213 Br 
HETATM   22  C   UNL     1     -11.371   6.962  70.144  1.00  0.00    -0.364 A  
ENDBRANCH  14  16
ENDBRANCH   7  14
TORSDOF 3
ENDMDL
MODEL      154
REMARK 921   NORMALIZED FREE ENERGY PREDICTED BY IDOCK:   -4.28 KCAL/MOL
REMARK 922        TOTAL FREE ENERGY PREDICTED BY IDOCK:   -5.65 KCAL/MOL
REMARK 923 INTER-LIGAND FREE ENERGY PREDICTED BY IDOCK:   -4.82 KCAL/MOL
REMARK 924 INTRA-LIGAND FREE ENERGY PREDICTED BY IDOCK:   -0.83 KCAL/MOL
REMARK 927      BINDING AFFINITY PREDICTED BY RF-SCORE:    0.00 PKD
ROOT
HETATM    1  N   UNL     1      -8.987  14.948  69.990  1.00  0.00    -0.251 NA 
HETATM    2  C   UNL     1      -9.415  15.668  68.847  1.00  0.00    -0.228 A  
HETATM    3  H1  UNL     1      -8.158  14.359  69.915  1.00  0.00     0.000 HD 
HETATM    4  H2  UNL     1      -9.762  14.382  70.334  1.00  0.00     0.000 HD 
HETATM    5  C   UNL     1     -10.559  16.479  68.951  1.00  0.00    -0.326 A  
HETATM    6  C   UNL     1     -10.843  17.363  67.890  1.00  0.00    -0.270 A  
HETATM    7  C   UNL     1      -8.843  15.469  67.568  1.00  0.00    -0.191 A  
HETATM    8  C   UNL     1     -10.100  17.345  66.712  1.00  0.00    -0.313 A  
HETATM    9  C   UNL     1      -9.134  16.362  66.531  1.00  0.00    -0.308 A  
ENDROOT
BRANCH   5  10
HETATM   10  C   UNL     1     -11.469  16.537  70.170  1.00  0.00     0.043 C  
HETATM   11  O   UNL     1     -12.324  14.234  69.922  1.00  0.00    -0.332 OA 
HETATM   12  O   UNL     1     -13.472  15.681  71.161  1.00  0.00    -0.552 OA 
HETATM   13  C   UNL     1     -12.504  15.457  70.436  1.00  0.00    -0.404 C  
ENDBRANCH   5  10
BRANCH   7  14
HETATM   14  C   UNL     1      -7.920  14.347  67.234  1.00  0.00    -0.180 C  
HETATM   15  O   UNL     1      -6.746  14.601  66.976  1.00  0.00    -0.120 OA 
BRANCH  14  16
HETATM   16  C   UNL     1      -8.384  12.928  67.197  1.00  0.00    -0.158 A  
HETATM   17  C   UNL     1      -9.660  12.663  66.681  1.00  0.00    -0.249 A  
HETATM   18  C   UNL     1     -10.089  11.346  66.497  1.00  0.00    -0.250 A  
HETATM   19  C   UNL     1      -9.242  10.290  66.831  1.00  0.00    -0.150 A  
HETATM   20  C   UNL     1      -7.997  10.540  67.403  1.00  0.00    -0.110 A  
HETATM   21 BR   UNL     1      -9.780   8.511  66.490  1.00  0.00    -0.334 Br 
HETATM   22  C   UNL     1      -7.582  11.857  67.617  1.00  0.00    -0.136 A  
ENDBRANCH  14  16
ENDBRANCH   7  14
TORSDOF 3
ENDMDL
MODEL      155
REMARK 921   NORMALIZED FREE ENERGY PREDICTED BY IDOCK:   -4.28 KCAL/MOL
REMARK 922        TOTAL FREE ENERGY PREDICTED BY IDOCK:   -5.64 KCAL/MOL
REMARK 923 INTER-LIGAND FREE ENERGY PREDICTED BY IDOCK:   -4.94 KCAL/MOL
REMARK 924 INTRA-LIGAND FREE ENERGY PREDICTED BY IDOCK:   -0.70 KCAL/MOL
REMARK 927      BINDING AFFINITY PREDICTED BY RF-SCORE:    0.00 PKD
ROOT
HETATM    1  N   UNL     1      -9.873  11.243  69.132  1.00  0.00    -0.416 NA 
HETATM    2  C   UNL     1      -9.792  11.005  67.737  1.00  0.00    -0.173 A  
HETATM    3  H1  UNL     1      -9.650  12.173  69.483  1.00  0.00     0.000 HD 
HETATM    4  H2  UNL     1      -9.294  10.559  69.619  1.00  0.00     0.000 HD 
HETATM    5  C   UNL     1     -10.100   9.720  67.253  1.00  0.00    -0.261 A  
HETATM    6  C   UNL     1     -10.240   9.554  65.861  1.00  0.00    -0.185 A  
HETATM    7  C   UNL     1      -9.250  11.952  66.838  1.00  0.00    -0.193 A  
HETATM    8  C   UNL     1      -9.952  10.588  64.973  1.00  0.00    -0.388 A  
HETATM    9  C   UNL     1      -9.406  11.770  65.459  1.00  0.00    -0.131 A  
ENDROOT
BRANCH   5  10
HETATM   10  C   UNL     1     -10.381   8.510  68.133  1.00  0.00    -0.258 C  
HETATM   11  O   UNL     1      -8.166   8.506  69.224  1.00  0.00    -0.111 OA 
HETATM   12  O   UNL     1      -9.399   6.656  69.285  1.00  0.00    -0.143 OA 
HETATM   13  C   UNL     1      -9.270   7.819  68.905  1.00  0.00    -0.140 C  
ENDBRANCH   5  10
BRANCH   7  14
HETATM   14  C   UNL     1      -8.505  13.172  67.262  1.00  0.00    -0.198 C  
HETATM   15  O   UNL     1      -7.343  13.055  67.643  1.00  0.00    -0.119 OA 
BRANCH  14  16
HETATM   16  C   UNL     1      -9.134  14.526  67.244  1.00  0.00    -0.217 A  
HETATM   17  C   UNL     1      -9.323  15.184  68.467  1.00  0.00    -0.192 A  
HETATM   18  C   UNL     1      -9.779  16.505  68.496  1.00  0.00    -0.239 A  
HETATM   19  C   UNL     1     -10.049  17.170  67.302  1.00  0.00    -0.294 A  
HETATM   20  C   UNL     1      -9.925  16.507  66.083  1.00  0.00    -0.363 A  
HETATM   21 BR   UNL     1     -10.570  18.986  67.335  1.00  0.00    -0.564 Br 
HETATM   22  C   UNL     1      -9.500  15.176  66.056  1.00  0.00    -0.358 A  
ENDBRANCH  14  16
ENDBRANCH   7  14
TORSDOF 3
ENDMDL
MODEL      156
REMARK 921   NORMALIZED FREE ENERGY PREDICTED BY IDOCK:   -4.25 KCAL/MOL
REMARK 922        TOTAL FREE ENERGY PREDICTED BY IDOCK:   -5.62 KCAL/MOL
REMARK 923 INTER-LIGAND FREE ENERGY PREDICTED BY IDOCK:   -5.05 KCAL/MOL
REMARK 924 INTRA-LIGAND FREE ENERGY PREDICTED BY IDOCK:   -0.57 KCAL/MOL
REMARK 927      BINDING AFFINITY PREDICTED BY RF-SCORE:    0.00 PKD
ROOT
HETATM    1  N   UNL     1      -8.516  15.520  69.186  1.00  0.00    -0.231 NA 
HETATM    2  C   UNL     1      -9.067  16.495  68.317  1.00  0.00    -0.214 A  
HETATM    3  H1  UNL     1      -8.938  14.592  69.210  1.00  0.00     0.000 HD 
HETATM    4  H2  UNL     1      -8.494  15.897  70.133  1.00  0.00     0.000 HD 
HETATM    5  C   UNL     1      -8.486  17.776  68.285  1.00  0.00    -0.277 A  
HETATM    6  C   UNL     1      -8.886  18.659  67.263  1.00  0.00    -0.283 A  
HETATM    7  C   UNL     1     -10.277  16.287  67.614  1.00  0.00    -0.272 A  
HETATM    8  C   UNL     1      -9.922  18.337  66.389  1.00  0.00    -0.385 A  
HETATM    9  C   UNL     1     -10.652  17.173  66.599  1.00  0.00    -0.179 A  
ENDROOT
BRANCH   5  10
HETATM   10  C   UNL     1      -7.385  18.248  69.225  1.00  0.00    -0.051 C  
HETATM   11  O   UNL     1      -5.574  17.015  68.087  1.00  0.00    -0.116 OA 
HETATM   12  O   UNL     1      -5.257  17.706  70.177  1.00  0.00    -0.188 OA 
HETATM   13  C   UNL     1      -6.003  17.618  69.203  1.00  0.00    -0.212 C  
ENDBRANCH   5  10
BRANCH   7  14
HETATM   14  C   UNL     1     -11.209  15.153  67.879  1.00  0.00    -0.329 C  
HETATM   15  O   UNL     1     -12.177  15.340  68.611  1.00  0.00    -0.182 OA 
BRANCH  14  16
HETATM   16  C   UNL     1     -10.993  13.800  67.286  1.00  0.00    -0.302 A  
HETATM   17  C   UNL     1     -10.429  13.721  66.005  1.00  0.00    -0.297 A  
HETATM   18  C   UNL     1     -10.081  12.482  65.461  1.00  0.00    -0.282 A  
HETATM   19  C   UNL     1     -10.298  11.318  66.196  1.00  0.00    -0.251 A  
HETATM   20  C   UNL     1     -10.914  11.377  67.444  1.00  0.00    -0.326 A  
HETATM   21 BR   UNL     1      -9.735   9.652  65.505  1.00  0.00    -0.332 Br 
HETATM   22  C   UNL     1     -11.292  12.615  67.973  1.00  0.00    -0.337 A  
ENDBRANCH  14  16
ENDBRANCH   7  14
TORSDOF 3
ENDMDL
MODEL      157
REMARK 921   NORMALIZED FREE ENERGY PREDICTED BY IDOCK:   -4.25 KCAL/MOL
REMARK 922        TOTAL FREE ENERGY PREDICTED BY IDOCK:   -5.61 KCAL/MOL
REMARK 923 INTER-LIGAND FREE ENERGY PREDICTED BY IDOCK:   -5.07 KCAL/MOL
REMARK 924 INTRA-LIGAND FREE ENERGY PREDICTED BY IDOCK:   -0.55 KCAL/MOL
REMARK 927      BINDING AFFINITY PREDICTED BY RF-SCORE:    0.00 PKD
ROOT
HETATM    1  N   UNL     1      -9.046  13.170  66.041  1.00  0.00    -0.444 NA 
HETATM    2  C   UNL     1      -9.916  12.940  67.137  1.00  0.00    -0.240 A  
HETATM    3  H1  UNL     1      -8.313  12.488  65.848  1.00  0.00     0.000 HD 
HETATM    4  H2  UNL     1      -8.621  14.091  66.145  1.00  0.00     0.000 HD 
HETATM    5  C   UNL     1     -10.927  13.881  67.404  1.00  0.00    -0.299 A  
HETATM    6  C   UNL     1     -11.922  13.535  68.341  1.00  0.00    -0.378 A  
HETATM    7  C   UNL     1      -9.700  11.899  68.069  1.00  0.00    -0.191 A  
HETATM    8  C   UNL     1     -11.842  12.360  69.084  1.00  0.00    -0.352 A  
HETATM    9  C   UNL     1     -10.704  11.568  68.986  1.00  0.00    -0.233 A  
ENDROOT
BRANCH   5  10
HETATM   10  C   UNL     1     -11.075  15.216  66.688  1.00  0.00    -0.308 C  
HETATM   11  O   UNL     1     -11.667  14.233  64.502  1.00  0.00    -0.399 OA 
HETATM   12  O   UNL     1     -10.933  16.330  64.575  1.00  0.00    -0.687 OA 
HETATM   13  C   UNL     1     -11.201  15.292  65.176  1.00  0.00    -0.370 C  
ENDBRANCH   5  10
BRANCH   7  14
HETATM   14  C   UNL     1      -8.445  11.097  68.148  1.00  0.00    -0.138 C  
HETATM   15  O   UNL     1      -7.559  11.457  68.918  1.00  0.00    -0.124 OA 
BRANCH  14  16
HETATM   16  C   UNL     1      -8.234   9.878  67.312  1.00  0.00    -0.121 A  
HETATM   17  C   UNL     1      -9.294   8.969  67.190  1.00  0.00    -0.184 A  
HETATM   18  C   UNL     1      -9.198   7.885  66.313  1.00  0.00    -0.231 A  
HETATM   19  C   UNL     1      -8.040   7.706  65.558  1.00  0.00    -0.130 A  
HETATM   20  C   UNL     1      -6.956   8.567  65.716  1.00  0.00    -0.071 A  
HETATM   21 BR   UNL     1      -7.947   6.300  64.299  1.00  0.00    -0.080 Br 
HETATM   22  C   UNL     1      -7.041   9.632  66.617  1.00  0.00    -0.086 A  
ENDBRANCH  14  16
ENDBRANCH   7  14
TORSDOF 3
ENDMDL
MODEL      158
REMARK 921   NORMALIZED FREE ENERGY PREDICTED BY IDOCK:   -4.23 KCAL/MOL
REMARK 922        TOTAL FREE ENERGY PREDICTED BY IDOCK:   -5.59 KCAL/MOL
REMARK 923 INTER-LIGAND FREE ENERGY PREDICTED BY IDOCK:   -4.79 KCAL/MOL
REMARK 924 INTRA-LIGAND FREE ENERGY PREDICTED BY IDOCK:   -0.80 KCAL/MOL
REMARK 927      BINDING AFFINITY PREDICTED BY RF-SCORE:    0.00 PKD
ROOT
HETATM    1  N   UNL     1     -10.991   9.239  67.666  1.00  0.00    -0.483 NA 
HETATM    2  C   UNL     1      -9.766   9.938  67.519  1.00  0.00    -0.160 A  
HETATM    3  H1  UNL     1     -11.852   9.695  67.365  1.00  0.00     0.000 HD 
HETATM    4  H2  UNL     1     -11.093   8.950  68.638  1.00  0.00     0.000 HD 
HETATM    5  C   UNL     1      -8.578   9.308  67.935  1.00  0.00    -0.120 A  
HETATM    6  C   UNL     1      -7.353   9.907  67.578  1.00  0.00    -0.090 A  
HETATM    7  C   UNL     1      -9.710  11.298  67.137  1.00  0.00    -0.201 A  
HETATM    8  C   UNL     1      -7.307  11.151  66.953  1.00  0.00    -0.138 A  
HETATM    9  C   UNL     1      -8.484  11.870  66.781  1.00  0.00    -0.167 A  
ENDROOT
BRANCH   5  10
HETATM   10  C   UNL     1      -8.517   7.976  68.668  1.00  0.00    -0.128 C  
HETATM   11  O   UNL     1      -8.111   6.624  66.643  1.00  0.00    -0.107 OA 
HETATM   12  O   UNL     1      -8.870   5.617  68.474  1.00  0.00    -0.109 OA 
HETATM   13  C   UNL     1      -8.531   6.657  67.914  1.00  0.00    -0.119 C  
ENDBRANCH   5  10
BRANCH   7  14
HETATM   14  C   UNL     1     -10.899  12.196  67.077  1.00  0.00    -0.247 C  
HETATM   15  O   UNL     1     -11.556  12.243  66.040  1.00  0.00    -0.368 OA 
BRANCH  14  16
HETATM   16  C   UNL     1     -11.308  13.041  68.238  1.00  0.00    -0.323 A  
HETATM   17  C   UNL     1     -12.036  12.437  69.273  1.00  0.00    -0.308 A  
HETATM   18  C   UNL     1     -12.324  13.147  70.442  1.00  0.00    -0.351 A  
HETATM   19  C   UNL     1     -11.887  14.463  70.578  1.00  0.00    -0.299 A  
HETATM   20  C   UNL     1     -11.218  15.095  69.532  1.00  0.00    -0.286 A  
HETATM   21 BR   UNL     1     -12.189  15.390  72.196  1.00  0.00    -0.520 Br 
HETATM   22  C   UNL     1     -10.958  14.395  68.350  1.00  0.00    -0.261 A  
ENDBRANCH  14  16
ENDBRANCH   7  14
TORSDOF 3
ENDMDL
MODEL      159
REMARK 921   NORMALIZED FREE ENERGY PREDICTED BY IDOCK:   -4.20 KCAL/MOL
REMARK 922        TOTAL FREE ENERGY PREDICTED BY IDOCK:   -5.56 KCAL/MOL
REMARK 923 INTER-LIGAND FREE ENERGY PREDICTED BY IDOCK:   -4.71 KCAL/MOL
REMARK 924 INTRA-LIGAND FREE ENERGY PREDICTED BY IDOCK:   -0.85 KCAL/MOL
REMARK 927      BINDING AFFINITY PREDICTED BY RF-SCORE:    0.00 PKD
ROOT
HETATM    1  N   UNL     1      -7.425   9.278  64.979  1.00  0.00    -0.104 NA 
HETATM    2  C   UNL     1      -8.459   8.601  65.673  1.00  0.00    -0.156 A  
HETATM    3  H1  UNL     1      -7.536  10.273  64.785  1.00  0.00     0.000 HD 
HETATM    4  H2  UNL     1      -7.242   8.790  64.102  1.00  0.00     0.000 HD 
HETATM    5  C   UNL     1      -8.306   7.228  65.939  1.00  0.00    -0.144 A  
HETATM    6  C   UNL     1      -9.220   6.619  66.822  1.00  0.00    -0.168 A  
HETATM    7  C   UNL     1      -9.705   9.207  65.955  1.00  0.00    -0.358 A  
HETATM    8  C   UNL     1     -10.324   7.311  67.315  1.00  0.00    -0.349 A  
HETATM    9  C   UNL     1     -10.595   8.588  66.840  1.00  0.00    -0.279 A  
ENDROOT
BRANCH   5  10
HETATM   10  C   UNL     1      -7.167   6.368  65.410  1.00  0.00    -0.070 C  
HETATM   11  O   UNL     1      -8.564   5.102  63.816  1.00  0.00    -0.136 OA 
HETATM   12  O   UNL     1      -6.598   4.261  64.427  1.00  0.00    -0.041 OA 
HETATM   13  C   UNL     1      -7.433   5.158  64.530  1.00  0.00    -0.072 C  
ENDBRANCH   5  10
BRANCH   7  14
HETATM   14  C   UNL     1     -10.154  10.501  65.365  1.00  0.00    -0.291 C  
HETATM   15  O   UNL     1     -10.161  10.625  64.143  1.00  0.00    -0.347 OA 
BRANCH  14  16
HETATM   16  C   UNL     1     -10.586  11.649  66.218  1.00  0.00    -0.301 A  
HETATM   17  C   UNL     1      -9.655  12.197  67.110  1.00  0.00    -0.195 A  
HETATM   18  C   UNL     1      -9.962  13.354  67.830  1.00  0.00    -0.236 A  
HETATM   19  C   UNL     1     -11.203  13.965  67.661  1.00  0.00    -0.295 A  
HETATM   20  C   UNL     1     -12.160  13.396  66.824  1.00  0.00    -0.419 A  
HETATM   21 BR   UNL     1     -11.583  15.585  68.557  1.00  0.00    -0.351 Br 
HETATM   22  C   UNL     1     -11.864  12.220  66.129  1.00  0.00    -0.398 A  
ENDBRANCH  14  16
ENDBRANCH   7  14
TORSDOF 3
ENDMDL
MODEL      160
REMARK 921   NORMALIZED FREE ENERGY PREDICTED BY IDOCK:   -4.18 KCAL/MOL
REMARK 922        TOTAL FREE ENERGY PREDICTED BY IDOCK:   -5.53 KCAL/MOL
REMARK 923 INTER-LIGAND FREE ENERGY PREDICTED BY IDOCK:   -5.08 KCAL/MOL
REMARK 924 INTRA-LIGAND FREE ENERGY PREDICTED BY IDOCK:   -0.45 KCAL/MOL
REMARK 927      BINDING AFFINITY PREDICTED BY RF-SCORE:    0.00 PKD
ROOT
HETATM    1  N   UNL     1     -10.711  12.628  67.356  1.00  0.00    -0.227 NA 
HETATM    2  C   UNL     1     -10.502  12.025  66.090  1.00  0.00    -0.236 A  
HETATM    3  H1  UNL     1     -10.676  12.041  68.189  1.00  0.00     0.000 HD 
HETATM    4  H2  UNL     1     -11.600  13.127  67.342  1.00  0.00     0.000 HD 
HETATM    5  C   UNL     1     -10.551  12.836  64.942  1.00  0.00    -0.336 A  
HETATM    6  C   UNL     1     -10.118  12.281  63.721  1.00  0.00    -0.376 A  
HETATM    7  C   UNL     1     -10.419  10.624  65.923  1.00  0.00    -0.243 A  
HETATM    8  C   UNL     1      -9.779  10.933  63.616  1.00  0.00    -0.374 A  
HETATM    9  C   UNL     1      -9.980  10.094  64.705  1.00  0.00    -0.304 A  
ENDROOT
BRANCH   5  10
HETATM   10  C   UNL     1     -10.956  14.304  64.937  1.00  0.00    -0.413 C  
HETATM   11  O   UNL     1      -8.844  15.122  65.918  1.00  0.00    -0.106 OA 
HETATM   12  O   UNL     1     -10.645  16.424  66.002  1.00  0.00    -0.319 OA 
HETATM   13  C   UNL     1     -10.141  15.351  65.676  1.00  0.00    -0.376 C  
ENDBRANCH   5  10
BRANCH   7  14
HETATM   14  C   UNL     1     -10.769   9.636  66.984  1.00  0.00    -0.155 C  
HETATM   15  O   UNL     1     -11.476   9.998  67.922  1.00  0.00    -0.210 OA 
BRANCH  14  16
HETATM   16  C   UNL     1     -10.280   8.226  66.943  1.00  0.00    -0.388 A  
HETATM   17  C   UNL     1      -8.897   8.009  66.861  1.00  0.00    -0.146 A  
HETATM   18  C   UNL     1      -8.378   6.714  66.956  1.00  0.00    -0.113 A  
HETATM   19  C   UNL     1      -9.242   5.635  67.132  1.00  0.00    -0.114 A  
HETATM   20  C   UNL     1     -10.621   5.831  67.152  1.00  0.00    -0.365 A  
HETATM   21 BR   UNL     1      -8.537   3.897  67.362  1.00  0.00    -0.117 Br 
HETATM   22  C   UNL     1     -11.140   7.122  67.024  1.00  0.00    -0.159 A  
ENDBRANCH  14  16
ENDBRANCH   7  14
TORSDOF 3
ENDMDL
MODEL      161
REMARK 921   NORMALIZED FREE ENERGY PREDICTED BY IDOCK:   -4.15 KCAL/MOL
REMARK 922        TOTAL FREE ENERGY PREDICTED BY IDOCK:   -5.50 KCAL/MOL
REMARK 923 INTER-LIGAND FREE ENERGY PREDICTED BY IDOCK:   -5.51 KCAL/MOL
REMARK 924 INTRA-LIGAND FREE ENERGY PREDICTED BY IDOCK:    0.01 KCAL/MOL
REMARK 927      BINDING AFFINITY PREDICTED BY RF-SCORE:    0.00 PKD
ROOT
HETATM    1  N   UNL     1      -9.863  13.160  67.035  1.00  0.00    -0.238 NA 
HETATM    2  C   UNL     1      -9.878  11.934  66.323  1.00  0.00    -0.225 A  
HETATM    3  H1  UNL     1      -9.606  13.150  68.021  1.00  0.00     0.000 HD 
HETATM    4  H2  UNL     1     -10.772  13.611  66.936  1.00  0.00     0.000 HD 
HETATM    5  C   UNL     1     -10.233  11.949  64.963  1.00  0.00    -0.316 A  
HETATM    6  C   UNL     1     -10.024  10.775  64.211  1.00  0.00    -0.403 A  
HETATM    7  C   UNL     1      -9.719  10.684  66.966  1.00  0.00    -0.207 A  
HETATM    8  C   UNL     1      -9.608   9.590  64.816  1.00  0.00    -0.093 A  
HETATM    9  C   UNL     1      -9.507   9.532  66.200  1.00  0.00    -0.281 A  
ENDROOT
BRANCH   5  10
HETATM   10  C   UNL     1     -10.747  13.173  64.217  1.00  0.00    -0.431 C  
HETATM   11  O   UNL     1     -13.135  12.699  64.627  1.00  0.00    -0.821 OA 
HETATM   12  O   UNL     1     -12.580  14.083  62.977  1.00  0.00    -0.643 OA 
HETATM   13  C   UNL     1     -12.220  13.335  63.884  1.00  0.00    -0.425 C  
ENDBRANCH   5  10
BRANCH   7  14
HETATM   14  C   UNL     1      -9.757  10.497  68.444  1.00  0.00    -0.159 C  
HETATM   15  O   UNL     1     -10.343  11.328  69.133  1.00  0.00    -0.202 OA 
BRANCH  14  16
HETATM   16  C   UNL     1      -9.097   9.334  69.109  1.00  0.00    -0.145 A  
HETATM   17  C   UNL     1      -9.292   9.162  70.487  1.00  0.00    -0.287 A  
HETATM   18  C   UNL     1      -8.812   8.019  71.132  1.00  0.00    -0.159 A  
HETATM   19  C   UNL     1      -8.134   7.045  70.400  1.00  0.00    -0.119 A  
HETATM   20  C   UNL     1      -7.880   7.233  69.043  1.00  0.00    -0.118 A  
HETATM   21 BR   UNL     1      -7.573   5.454  71.249  1.00  0.00    -0.104 Br 
HETATM   22  C   UNL     1      -8.332   8.392  68.406  1.00  0.00    -0.131 A  
ENDBRANCH  14  16
ENDBRANCH   7  14
TORSDOF 3
ENDMDL
MODEL      162
REMARK 921   NORMALIZED FREE ENERGY PREDICTED BY IDOCK:   -4.14 KCAL/MOL
REMARK 922        TOTAL FREE ENERGY PREDICTED BY IDOCK:   -5.49 KCAL/MOL
REMARK 923 INTER-LIGAND FREE ENERGY PREDICTED BY IDOCK:   -4.91 KCAL/MOL
REMARK 924 INTRA-LIGAND FREE ENERGY PREDICTED BY IDOCK:   -0.58 KCAL/MOL
REMARK 927      BINDING AFFINITY PREDICTED BY RF-SCORE:    0.00 PKD
ROOT
HETATM    1  N   UNL     1      -7.568   6.557  65.297  1.00  0.00    -0.082 NA 
HETATM    2  C   UNL     1      -8.844   6.560  65.913  1.00  0.00    -0.119 A  
HETATM    3  H1  UNL     1      -7.013   7.413  65.316  1.00  0.00     0.000 HD 
HETATM    4  H2  UNL     1      -7.668   6.251  64.330  1.00  0.00     0.000 HD 
HETATM    5  C   UNL     1      -9.609   5.380  65.885  1.00  0.00    -0.116 A  
HETATM    6  C   UNL     1     -10.765   5.321  66.689  1.00  0.00    -0.274 A  
HETATM    7  C   UNL     1      -9.448   7.743  66.398  1.00  0.00    -0.245 A  
HETATM    8  C   UNL     1     -11.220   6.436  67.388  1.00  0.00    -0.283 A  
HETATM    9  C   UNL     1     -10.592   7.661  67.200  1.00  0.00    -0.410 A  
ENDROOT
BRANCH   5  10
HETATM   10  C   UNL     1      -9.230   4.123  65.114  1.00  0.00    -0.153 C  
HETATM   11  O   UNL     1      -9.025   2.688  67.112  1.00  0.00    -0.133 OA 
HETATM   12  O   UNL     1      -8.052   2.042  65.219  1.00  0.00    -0.077 OA 
HETATM   13  C   UNL     1      -8.710   2.886  65.826  1.00  0.00    -0.128 C  
ENDBRANCH   5  10
BRANCH   7  14
HETATM   14  C   UNL     1      -8.938   9.116  66.114  1.00  0.00    -0.173 C  
HETATM   15  O   UNL     1      -7.744   9.351  66.282  1.00  0.00    -0.096 OA 
BRANCH  14  16
HETATM   16  C   UNL     1      -9.838  10.209  65.641  1.00  0.00    -0.347 A  
HETATM   17  C   UNL     1     -10.441  11.032  66.603  1.00  0.00    -0.307 A  
HETATM   18  C   UNL     1     -11.181  12.151  66.213  1.00  0.00    -0.382 A  
HETATM   19  C   UNL     1     -11.320  12.450  64.858  1.00  0.00    -0.317 A  
HETATM   20  C   UNL     1     -10.778  11.606  63.891  1.00  0.00    -0.459 A  
HETATM   21 BR   UNL     1     -12.234  14.018  64.332  1.00  0.00    -0.427 Br 
HETATM   22  C   UNL     1     -10.066  10.469  64.282  1.00  0.00    -0.380 A  
ENDBRANCH  14  16
ENDBRANCH   7  14
TORSDOF 3
ENDMDL
MODEL      163
REMARK 921   NORMALIZED FREE ENERGY PREDICTED BY IDOCK:   -4.14 KCAL/MOL
REMARK 922        TOTAL FREE ENERGY PREDICTED BY IDOCK:   -5.48 KCAL/MOL
REMARK 923 INTER-LIGAND FREE ENERGY PREDICTED BY IDOCK:   -5.09 KCAL/MOL
REMARK 924 INTRA-LIGAND FREE ENERGY PREDICTED BY IDOCK:   -0.39 KCAL/MOL
REMARK 927      BINDING AFFINITY PREDICTED BY RF-SCORE:    0.00 PKD
ROOT
HETATM    1  N   UNL     1      -8.560  13.463  67.147  1.00  0.00    -0.265 NA 
HETATM    2  C   UNL     1      -9.116  12.398  66.394  1.00  0.00    -0.149 A  
HETATM    3  H1  UNL     1      -7.788  13.262  67.782  1.00  0.00     0.000 HD 
HETATM    4  H2  UNL     1      -9.305  13.923  67.669  1.00  0.00     0.000 HD 
HETATM    5  C   UNL     1     -10.181  12.676  65.519  1.00  0.00    -0.298 A  
HETATM    6  C   UNL     1     -10.572  11.670  64.612  1.00  0.00    -0.366 A  
HETATM    7  C   UNL     1      -8.759  11.047  66.615  1.00  0.00    -0.160 A  
HETATM    8  C   UNL     1     -10.021  10.392  64.664  1.00  0.00    -0.408 A  
HETATM    9  C   UNL     1      -9.153  10.066  65.699  1.00  0.00    -0.222 A  
ENDROOT
BRANCH   5  10
HETATM   10  C   UNL     1     -10.888  14.020  65.418  1.00  0.00    -0.331 C  
HETATM   11  O   UNL     1     -13.155  13.066  65.200  1.00  0.00    -0.740 OA 
HETATM   12  O   UNL     1     -12.804  15.165  64.554  1.00  0.00    -0.283 OA 
HETATM   13  C   UNL     1     -12.348  14.117  65.008  1.00  0.00    -0.440 C  
ENDBRANCH   5  10
BRANCH   7  14
HETATM   14  C   UNL     1      -7.965  10.577  67.787  1.00  0.00    -0.106 C  
HETATM   15  O   UNL     1      -6.832  11.021  67.952  1.00  0.00    -0.066 OA 
BRANCH  14  16
HETATM   16  C   UNL     1      -8.506   9.577  68.756  1.00  0.00    -0.122 A  
HETATM   17  C   UNL     1      -8.362   8.217  68.451  1.00  0.00    -0.126 A  
HETATM   18  C   UNL     1      -8.726   7.241  69.384  1.00  0.00    -0.137 A  
HETATM   19  C   UNL     1      -9.236   7.625  70.622  1.00  0.00    -0.162 A  
HETATM   20  C   UNL     1      -9.442   8.972  70.913  1.00  0.00    -0.331 A  
HETATM   21 BR   UNL     1      -9.634   6.312  71.922  1.00  0.00    -0.165 Br 
HETATM   22  C   UNL     1      -9.108   9.945  69.967  1.00  0.00    -0.217 A  
ENDBRANCH  14  16
ENDBRANCH   7  14
TORSDOF 3
ENDMDL
MODEL      164
REMARK 921   NORMALIZED FREE ENERGY PREDICTED BY IDOCK:   -4.13 KCAL/MOL
REMARK 922        TOTAL FREE ENERGY PREDICTED BY IDOCK:   -5.47 KCAL/MOL
REMARK 923 INTER-LIGAND FREE ENERGY PREDICTED BY IDOCK:   -4.75 KCAL/MOL
REMARK 924 INTRA-LIGAND FREE ENERGY PREDICTED BY IDOCK:   -0.72 KCAL/MOL
REMARK 927      BINDING AFFINITY PREDICTED BY RF-SCORE:    0.00 PKD
ROOT
HETATM    1  N   UNL     1      -8.256  10.787  67.093  1.00  0.00    -0.121 NA 
HETATM    2  C   UNL     1      -9.488  11.236  67.631  1.00  0.00    -0.167 A  
HETATM    3  H1  UNL     1      -8.197   9.834  66.735  1.00  0.00     0.000 HD 
HETATM    4  H2  UNL     1      -7.522  10.924  67.788  1.00  0.00     0.000 HD 
HETATM    5  C   UNL     1      -9.568  12.551  68.126  1.00  0.00    -0.215 A  
HETATM    6  C   UNL     1     -10.843  13.062  68.444  1.00  0.00    -0.280 A  
HETATM    7  C   UNL     1     -10.582  10.366  67.848  1.00  0.00    -0.273 A  
HETATM    8  C   UNL     1     -11.979  12.256  68.403  1.00  0.00    -0.266 A  
HETATM    9  C   UNL     1     -11.840  10.895  68.157  1.00  0.00    -0.125 A  
ENDROOT
BRANCH   5  10
HETATM   10  C   UNL     1      -8.383  13.497  68.260  1.00  0.00    -0.165 C  
HETATM   11  O   UNL     1      -9.132  15.047  66.491  1.00  0.00    -0.261 OA 
HETATM   12  O   UNL     1      -6.997  15.074  67.111  1.00  0.00    -0.234 OA 
HETATM   13  C   UNL     1      -8.118  14.583  67.231  1.00  0.00    -0.196 C  
ENDBRANCH   5  10
BRANCH   7  14
HETATM   14  C   UNL     1     -10.493   8.880  67.765  1.00  0.00    -0.239 C  
HETATM   15  O   UNL     1     -10.458   8.349  66.658  1.00  0.00    -0.294 OA 
BRANCH  14  16
HETATM   16  C   UNL     1     -10.454   8.022  68.986  1.00  0.00    -0.212 A  
HETATM   17  C   UNL     1     -10.189   8.637  70.218  1.00  0.00    -0.213 A  
HETATM   18  C   UNL     1     -10.275   7.907  71.406  1.00  0.00    -0.226 A  
HETATM   19  C   UNL     1     -10.625   6.559  71.365  1.00  0.00    -0.228 A  
HETATM   20  C   UNL     1     -10.830   5.921  70.144  1.00  0.00    -0.402 A  
HETATM   21 BR   UNL     1     -10.841   5.595  72.976  1.00  0.00    -0.333 Br 
HETATM   22  C   UNL     1     -10.711   6.644  68.954  1.00  0.00    -0.304 A  
ENDBRANCH  14  16
ENDBRANCH   7  14
TORSDOF 3
ENDMDL
MODEL      165
REMARK 921   NORMALIZED FREE ENERGY PREDICTED BY IDOCK:   -4.12 KCAL/MOL
REMARK 922        TOTAL FREE ENERGY PREDICTED BY IDOCK:   -5.46 KCAL/MOL
REMARK 923 INTER-LIGAND FREE ENERGY PREDICTED BY IDOCK:   -4.81 KCAL/MOL
REMARK 924 INTRA-LIGAND FREE ENERGY PREDICTED BY IDOCK:   -0.65 KCAL/MOL
REMARK 927      BINDING AFFINITY PREDICTED BY RF-SCORE:    0.00 PKD
ROOT
HETATM    1  N   UNL     1     -11.620   6.895  68.638  1.00  0.00    -0.334 NA 
HETATM    2  C   UNL     1     -11.037   6.158  69.699  1.00  0.00    -0.419 A  
HETATM    3  H1  UNL     1     -11.203   6.829  67.710  1.00  0.00     0.000 HD 
HETATM    4  H2  UNL     1     -11.673   7.877  68.907  1.00  0.00     0.000 HD 
HETATM    5  C   UNL     1     -11.613   6.250  70.979  1.00  0.00    -0.337 A  
HETATM    6  C   UNL     1     -11.176   5.346  71.968  1.00  0.00    -0.159 A  
HETATM    7  C   UNL     1      -9.806   5.476  69.561  1.00  0.00    -0.253 A  
HETATM    8  C   UNL     1     -10.112   4.476  71.737  1.00  0.00    -0.254 A  
HETATM    9  C   UNL     1      -9.394   4.579  70.553  1.00  0.00    -0.218 A  
ENDROOT
BRANCH   5  10
HETATM   10  C   UNL     1     -12.743   7.200  71.352  1.00  0.00    -0.433 C  
HETATM   11  O   UNL     1     -11.262   9.070  71.990  1.00  0.00    -0.361 OA 
HETATM   12  O   UNL     1     -13.362   9.064  72.721  1.00  0.00    -0.418 OA 
HETATM   13  C   UNL     1     -12.471   8.502  72.087  1.00  0.00    -0.379 C  
ENDBRANCH   5  10
BRANCH   7  14
HETATM   14  C   UNL     1      -8.887   5.644  68.399  1.00  0.00    -0.108 C  
HETATM   15  O   UNL     1      -8.049   6.542  68.429  1.00  0.00    -0.109 OA 
BRANCH  14  16
HETATM   16  C   UNL     1      -8.963   4.758  67.200  1.00  0.00    -0.114 A  
HETATM   17  C   UNL     1     -10.049   4.916  66.328  1.00  0.00    -0.285 A  
HETATM   18  C   UNL     1     -10.098   4.209  65.123  1.00  0.00    -0.219 A  
HETATM   19  C   UNL     1      -9.061   3.341  64.788  1.00  0.00    -0.138 A  
HETATM   20  C   UNL     1      -8.007   3.128  65.674  1.00  0.00    -0.086 A  
HETATM   21 BR   UNL     1      -9.075   2.462  63.116  1.00  0.00    -0.091 Br 
HETATM   22  C   UNL     1      -7.975   3.810  66.893  1.00  0.00    -0.095 A  
ENDBRANCH  14  16
ENDBRANCH   7  14
TORSDOF 3
ENDMDL
MODEL      166
REMARK 921   NORMALIZED FREE ENERGY PREDICTED BY IDOCK:   -4.11 KCAL/MOL
REMARK 922        TOTAL FREE ENERGY PREDICTED BY IDOCK:   -5.45 KCAL/MOL
REMARK 923 INTER-LIGAND FREE ENERGY PREDICTED BY IDOCK:   -4.78 KCAL/MOL
REMARK 924 INTRA-LIGAND FREE ENERGY PREDICTED BY IDOCK:   -0.67 KCAL/MOL
REMARK 927      BINDING AFFINITY PREDICTED BY RF-SCORE:    0.00 PKD
ROOT
HETATM    1  N   UNL     1     -11.193   6.683  69.488  1.00  0.00    -0.471 NA 
HETATM    2  C   UNL     1     -10.376   7.281  70.481  1.00  0.00    -0.206 A  
HETATM    3  H1  UNL     1     -10.776   6.448  68.588  1.00  0.00     0.000 HD 
HETATM    4  H2  UNL     1     -12.008   7.275  69.330  1.00  0.00     0.000 HD 
HETATM    5  C   UNL     1     -10.953   7.605  71.722  1.00  0.00    -0.276 A  
HETATM    6  C   UNL     1     -10.092   7.982  72.773  1.00  0.00    -0.378 A  
HETATM    7  C   UNL     1      -9.059   7.720  70.214  1.00  0.00    -0.152 A  
HETATM    8  C   UNL     1      -8.727   8.163  72.564  1.00  0.00    -0.266 A  
HETATM    9  C   UNL     1      -8.219   8.084  71.273  1.00  0.00    -0.119 A  
ENDROOT
BRANCH   5  10
HETATM   10  C   UNL     1     -12.437   7.493  72.041  1.00  0.00    -0.289 C  
HETATM   11  O   UNL     1     -12.798   9.923  72.285  1.00  0.00    -0.360 OA 
HETATM   12  O   UNL     1     -14.280   8.520  73.170  1.00  0.00    -0.170 OA 
HETATM   13  C   UNL     1     -13.227   8.683  72.556  1.00  0.00    -0.294 C  
ENDBRANCH   5  10
BRANCH   7  14
HETATM   14  C   UNL     1      -8.476   7.823  68.845  1.00  0.00    -0.129 C  
HETATM   15  O   UNL     1      -7.502   7.130  68.561  1.00  0.00    -0.100 OA 
BRANCH  14  16
HETATM   16  C   UNL     1      -9.039   8.747  67.816  1.00  0.00    -0.143 A  
HETATM   17  C   UNL     1      -9.318  10.067  68.194  1.00  0.00    -0.137 A  
HETATM   18  C   UNL     1      -9.715  11.008  67.240  1.00  0.00    -0.188 A  
HETATM   19  C   UNL     1      -9.836  10.629  65.904  1.00  0.00    -0.243 A  
HETATM   20  C   UNL     1      -9.623   9.306  65.525  1.00  0.00    -0.291 A  
HETATM   21 BR   UNL     1     -10.276  11.922  64.598  1.00  0.00    -0.328 Br 
HETATM   22  C   UNL     1      -9.257   8.358  66.486  1.00  0.00    -0.238 A  
ENDBRANCH  14  16
ENDBRANCH   7  14
TORSDOF 3
ENDMDL
MODEL      167
REMARK 921   NORMALIZED FREE ENERGY PREDICTED BY IDOCK:   -4.09 KCAL/MOL
REMARK 922        TOTAL FREE ENERGY PREDICTED BY IDOCK:   -5.42 KCAL/MOL
REMARK 923 INTER-LIGAND FREE ENERGY PREDICTED BY IDOCK:   -5.12 KCAL/MOL
REMARK 924 INTRA-LIGAND FREE ENERGY PREDICTED BY IDOCK:   -0.30 KCAL/MOL
REMARK 927      BINDING AFFINITY PREDICTED BY RF-SCORE:    0.00 PKD
ROOT
HETATM    1  N   UNL     1     -10.439  13.240  67.386  1.00  0.00    -0.242 NA 
HETATM    2  C   UNL     1     -10.913  13.611  68.669  1.00  0.00    -0.267 A  
HETATM    3  H1  UNL     1     -10.776  12.371  66.973  1.00  0.00     0.000 HD 
HETATM    4  H2  UNL     1      -9.420  13.223  67.402  1.00  0.00     0.000 HD 
HETATM    5  C   UNL     1     -10.447  14.810  69.238  1.00  0.00    -0.231 A  
HETATM    6  C   UNL     1     -11.090  15.285  70.399  1.00  0.00    -0.324 A  
HETATM    7  C   UNL     1     -11.696  12.746  69.467  1.00  0.00    -0.383 A  
HETATM    8  C   UNL     1     -12.066  14.532  71.048  1.00  0.00    -0.409 A  
HETATM    9  C   UNL     1     -12.331  13.240  70.612  1.00  0.00    -0.416 A  
ENDROOT
BRANCH   5  10
HETATM   10  C   UNL     1      -9.351  15.682  68.640  1.00  0.00    -0.201 C  
HETATM   11  O   UNL     1     -10.889  17.401  67.760  1.00  0.00    -0.361 OA 
HETATM   12  O   UNL     1      -8.831  17.272  66.929  1.00  0.00    -0.224 OA 
HETATM   13  C   UNL     1      -9.680  16.830  67.701  1.00  0.00    -0.251 C  
ENDBRANCH   5  10
BRANCH   7  14
HETATM   14  C   UNL     1     -11.908  11.300  69.167  1.00  0.00    -0.355 C  
HETATM   15  O   UNL     1     -13.004  10.800  69.404  1.00  0.00    -0.078 OA 
BRANCH  14  16
HETATM   16  C   UNL     1     -10.824  10.446  68.597  1.00  0.00    -0.270 A  
HETATM   17  C   UNL     1      -9.681  10.220  69.377  1.00  0.00    -0.242 A  
HETATM   18  C   UNL     1      -8.700   9.320  68.949  1.00  0.00    -0.131 A  
HETATM   19  C   UNL     1      -8.860   8.647  67.739  1.00  0.00    -0.136 A  
HETATM   20  C   UNL     1      -9.960   8.909  66.926  1.00  0.00    -0.315 A  
HETATM   21 BR   UNL     1      -7.585   7.357  67.208  1.00  0.00    -0.110 Br 
HETATM   22  C   UNL     1     -10.924   9.833  67.339  1.00  0.00    -0.176 A  
ENDBRANCH  14  16
ENDBRANCH   7  14
TORSDOF 3
ENDMDL
MODEL      168
REMARK 921   NORMALIZED FREE ENERGY PREDICTED BY IDOCK:   -4.08 KCAL/MOL
REMARK 922        TOTAL FREE ENERGY PREDICTED BY IDOCK:   -5.41 KCAL/MOL
REMARK 923 INTER-LIGAND FREE ENERGY PREDICTED BY IDOCK:   -4.55 KCAL/MOL
REMARK 924 INTRA-LIGAND FREE ENERGY PREDICTED BY IDOCK:   -0.86 KCAL/MOL
REMARK 927      BINDING AFFINITY PREDICTED BY RF-SCORE:    0.00 PKD
ROOT
HETATM    1  N   UNL     1      -9.455  16.390  69.397  1.00  0.00    -0.179 NA 
HETATM    2  C   UNL     1      -8.279  16.521  68.617  1.00  0.00    -0.234 A  
HETATM    3  H1  UNL     1      -9.735  15.459  69.706  1.00  0.00     0.000 HD 
HETATM    4  H2  UNL     1     -10.233  16.820  68.898  1.00  0.00     0.000 HD 
HETATM    5  C   UNL     1      -7.893  17.805  68.191  1.00  0.00    -0.264 A  
HETATM    6  C   UNL     1      -6.614  17.955  67.618  1.00  0.00    -0.191 A  
HETATM    7  C   UNL     1      -7.580  15.403  68.107  1.00  0.00    -0.118 A  
HETATM    8  C   UNL     1      -5.803  16.854  67.352  1.00  0.00    -0.181 A  
HETATM    9  C   UNL     1      -6.308  15.574  67.548  1.00  0.00    -0.165 A  
ENDROOT
BRANCH   5  10
HETATM   10  C   UNL     1      -8.724  19.065  68.385  1.00  0.00    -0.381 C  
HETATM   11  O   UNL     1     -10.559  18.357  66.892  1.00  0.00    -0.386 OA 
HETATM   12  O   UNL     1     -10.345  20.515  67.385  1.00  0.00    -0.290 OA 
HETATM   13  C   UNL     1      -9.923  19.366  67.501  1.00  0.00    -0.368 C  
ENDBRANCH   5  10
BRANCH   7  14
HETATM   14  C   UNL     1      -8.110  14.009  68.125  1.00  0.00    -0.151 C  
HETATM   15  O   UNL     1      -7.739  13.245  69.013  1.00  0.00     0.007 OA 
BRANCH  14  16
HETATM   16  C   UNL     1      -9.071  13.517  67.094  1.00  0.00    -0.232 A  
HETATM   17  C   UNL     1      -9.922  12.457  67.436  1.00  0.00    -0.203 A  
HETATM   18  C   UNL     1     -10.930  12.048  66.558  1.00  0.00    -0.337 A  
HETATM   19  C   UNL     1     -11.088  12.698  65.336  1.00  0.00    -0.292 A  
HETATM   20  C   UNL     1     -10.210  13.712  64.958  1.00  0.00    -0.356 A  
HETATM   21 BR   UNL     1     -12.512  12.215  64.192  1.00  0.00    -0.444 Br 
HETATM   22  C   UNL     1      -9.181  14.097  65.822  1.00  0.00     0.218 A  
ENDBRANCH  14  16
ENDBRANCH   7  14
TORSDOF 3
ENDMDL
MODEL      169
REMARK 921   NORMALIZED FREE ENERGY PREDICTED BY IDOCK:   -4.07 KCAL/MOL
REMARK 922        TOTAL FREE ENERGY PREDICTED BY IDOCK:   -5.40 KCAL/MOL
REMARK 923 INTER-LIGAND FREE ENERGY PREDICTED BY IDOCK:   -4.51 KCAL/MOL
REMARK 924 INTRA-LIGAND FREE ENERGY PREDICTED BY IDOCK:   -0.88 KCAL/MOL
REMARK 927      BINDING AFFINITY PREDICTED BY RF-SCORE:    0.00 PKD
ROOT
HETATM    1  N   UNL     1      -7.483   8.333  69.002  1.00  0.00    -0.089 NA 
HETATM    2  C   UNL     1      -8.663   8.619  69.734  1.00  0.00    -0.132 A  
HETATM    3  H1  UNL     1      -7.358   8.766  68.088  1.00  0.00     0.000 HD 
HETATM    4  H2  UNL     1      -7.391   7.322  68.904  1.00  0.00     0.000 HD 
HETATM    5  C   UNL     1      -8.835   8.020  70.996  1.00  0.00    -0.153 A  
HETATM    6  C   UNL     1      -9.888   8.484  71.810  1.00  0.00    -0.339 A  
HETATM    7  C   UNL     1      -9.745   9.338  69.176  1.00  0.00    -0.164 A  
HETATM    8  C   UNL     1     -10.818   9.407  71.338  1.00  0.00    -0.430 A  
HETATM    9  C   UNL     1     -10.777   9.794  70.004  1.00  0.00    -0.326 A  
ENDROOT
BRANCH   5  10
HETATM   10  C   UNL     1      -7.908   6.966  71.585  1.00  0.00    -0.100 C  
HETATM   11  O   UNL     1      -9.152   5.039  70.672  1.00  0.00    -0.126 OA 
HETATM   12  O   UNL     1      -7.760   4.711  72.375  1.00  0.00    -0.083 OA 
HETATM   13  C   UNL     1      -8.284   5.494  71.584  1.00  0.00    -0.119 C  
ENDBRANCH   5  10
BRANCH   7  14
HETATM   14  C   UNL     1      -9.869   9.663  67.726  1.00  0.00    -0.159 C  
HETATM   15  O   UNL     1      -9.741   8.760  66.903  1.00  0.00    -0.174 OA 
BRANCH  14  16
HETATM   16  C   UNL     1     -10.137  11.052  67.249  1.00  0.00    -0.222 A  
HETATM   17  C   UNL     1      -9.064  11.953  67.199  1.00  0.00    -0.178 A  
HETATM   18  C   UNL     1      -9.231  13.220  66.634  1.00  0.00    -0.222 A  
HETATM   19  C   UNL     1     -10.471  13.590  66.118  1.00  0.00    -0.296 A  
HETATM   20  C   UNL     1     -11.561  12.727  66.217  1.00  0.00    -0.433 A  
HETATM   21 BR   UNL     1     -10.672  15.263  65.263  1.00  0.00    -0.462 Br 
HETATM   22  C   UNL     1     -11.402  11.473  66.812  1.00  0.00    -0.309 A  
ENDBRANCH  14  16
ENDBRANCH   7  14
TORSDOF 3
ENDMDL
MODEL      170
REMARK 921   NORMALIZED FREE ENERGY PREDICTED BY IDOCK:   -4.05 KCAL/MOL
REMARK 922        TOTAL FREE ENERGY PREDICTED BY IDOCK:   -5.38 KCAL/MOL
REMARK 923 INTER-LIGAND FREE ENERGY PREDICTED BY IDOCK:   -5.05 KCAL/MOL
REMARK 924 INTRA-LIGAND FREE ENERGY PREDICTED BY IDOCK:   -0.33 KCAL/MOL
REMARK 927      BINDING AFFINITY PREDICTED BY RF-SCORE:    0.00 PKD
ROOT
HETATM    1  N   UNL     1      -8.143   7.318  70.381  1.00  0.00    -0.115 NA 
HETATM    2  C   UNL     1      -9.011   7.079  71.476  1.00  0.00    -0.139 A  
HETATM    3  H1  UNL     1      -8.392   8.044  69.709  1.00  0.00     0.000 HD 
HETATM    4  H2  UNL     1      -7.994   6.442  69.880  1.00  0.00     0.000 HD 
HETATM    5  C   UNL     1      -8.668   6.077  72.401  1.00  0.00    -0.126 A  
HETATM    6  C   UNL     1      -9.406   6.002  73.600  1.00  0.00    -0.135 A  
HETATM    7  C   UNL     1     -10.285   7.684  71.579  1.00  0.00    -0.212 A  
HETATM    8  C   UNL     1     -10.528   6.799  73.812  1.00  0.00    -0.383 A  
HETATM    9  C   UNL     1     -10.998   7.602  72.780  1.00  0.00    -0.432 A  
ENDROOT
BRANCH   5  10
HETATM   10  C   UNL     1      -7.495   5.119  72.243  1.00  0.00    -0.094 C  
HETATM   11  O   UNL     1      -8.381   4.012  70.222  1.00  0.00    -0.060 OA 
HETATM   12  O   UNL     1      -6.811   2.981  71.413  1.00  0.00    -0.030 OA 
HETATM   13  C   UNL     1      -7.553   3.952  71.272  1.00  0.00    -0.052 C  
ENDBRANCH   5  10
BRANCH   7  14
HETATM   14  C   UNL     1     -10.944   8.431  70.469  1.00  0.00    -0.242 C  
HETATM   15  O   UNL     1     -10.921   7.955  69.337  1.00  0.00    -0.156 OA 
BRANCH  14  16
HETATM   16  C   UNL     1     -11.623   9.742  70.695  1.00  0.00    -0.389 A  
HETATM   17  C   UNL     1     -12.576   9.825  71.720  1.00  0.00    -0.506 A  
HETATM   18  C   UNL     1     -13.140  11.057  72.063  1.00  0.00    -0.449 A  
HETATM   19  C   UNL     1     -12.753  12.209  71.380  1.00  0.00    -0.263 A  
HETATM   20  C   UNL     1     -11.854  12.130  70.319  1.00  0.00    -0.339 A  
HETATM   21 BR   UNL     1     -13.438  13.888  71.908  1.00  0.00    -0.545 Br 
HETATM   22  C   UNL     1     -11.315  10.893  69.955  1.00  0.00    -0.386 A  
ENDBRANCH  14  16
ENDBRANCH   7  14
TORSDOF 3
ENDMDL
MODEL      171
REMARK 921   NORMALIZED FREE ENERGY PREDICTED BY IDOCK:   -4.05 KCAL/MOL
REMARK 922        TOTAL FREE ENERGY PREDICTED BY IDOCK:   -5.37 KCAL/MOL
REMARK 923 INTER-LIGAND FREE ENERGY PREDICTED BY IDOCK:   -4.81 KCAL/MOL
REMARK 924 INTRA-LIGAND FREE ENERGY PREDICTED BY IDOCK:   -0.56 KCAL/MOL
REMARK 927      BINDING AFFINITY PREDICTED BY RF-SCORE:    0.00 PKD
ROOT
HETATM    1  N   UNL     1     -11.537  11.686  67.339  1.00  0.00    -0.539 NA 
HETATM    2  C   UNL     1     -11.724  11.494  68.731  1.00  0.00    -0.334 A  
HETATM    3  H1  UNL     1     -11.277  10.883  66.766  1.00  0.00     0.000 HD 
HETATM    4  H2  UNL     1     -10.853  12.428  67.196  1.00  0.00     0.000 HD 
HETATM    5  C   UNL     1     -12.082  12.601  69.521  1.00  0.00    -0.253 A  
HETATM    6  C   UNL     1     -12.489  12.363  70.850  1.00  0.00    -0.367 A  
HETATM    7  C   UNL     1     -11.399  10.280  69.379  1.00  0.00    -0.279 A  
HETATM    8  C   UNL     1     -12.412  11.092  71.415  1.00  0.00    -0.436 A  
HETATM    9  C   UNL     1     -11.818  10.062  70.696  1.00  0.00    -0.411 A  
ENDROOT
BRANCH   5  10
HETATM   10  C   UNL     1     -12.148  14.037  69.018  1.00  0.00    -0.358 C  
HETATM   11  O   UNL     1      -9.726  14.232  68.579  1.00  0.00    -0.219 OA 
HETATM   12  O   UNL     1     -10.935  16.087  68.784  1.00  0.00    -0.280 OA 
HETATM   13  C   UNL     1     -10.888  14.858  68.805  1.00  0.00    -0.252 C  
ENDBRANCH   5  10
BRANCH   7  14
HETATM   14  C   UNL     1     -10.622   9.178  68.742  1.00  0.00    -0.181 C  
HETATM   15  O   UNL     1     -11.015   8.022  68.875  1.00  0.00    -0.036 OA 
BRANCH  14  16
HETATM   16  C   UNL     1      -9.381   9.440  67.955  1.00  0.00    -0.140 A  
HETATM   17  C   UNL     1      -9.383   9.119  66.590  1.00  0.00    -0.228 A  
HETATM   18  C   UNL     1      -8.299   9.469  65.780  1.00  0.00    -0.132 A  
HETATM   19  C   UNL     1      -7.209  10.139  66.334  1.00  0.00    -0.108 A  
HETATM   20  C   UNL     1      -7.168  10.408  67.700  1.00  0.00    -0.086 A  
HETATM   21 BR   UNL     1      -5.789  10.701  65.222  1.00  0.00    -0.062 Br 
HETATM   22  C   UNL     1      -8.238  10.028  68.516  1.00  0.00    -0.108 A  
ENDBRANCH  14  16
ENDBRANCH   7  14
TORSDOF 3
ENDMDL
MODEL      172
REMARK 921   NORMALIZED FREE ENERGY PREDICTED BY IDOCK:   -4.01 KCAL/MOL
REMARK 922        TOTAL FREE ENERGY PREDICTED BY IDOCK:   -5.33 KCAL/MOL
REMARK 923 INTER-LIGAND FREE ENERGY PREDICTED BY IDOCK:   -4.69 KCAL/MOL
REMARK 924 INTRA-LIGAND FREE ENERGY PREDICTED BY IDOCK:   -0.64 KCAL/MOL
REMARK 927      BINDING AFFINITY PREDICTED BY RF-SCORE:    0.00 PKD
ROOT
HETATM    1  N   UNL     1      -8.279   6.688  70.358  1.00  0.00    -0.123 NA 
HETATM    2  C   UNL     1      -9.602   6.510  70.835  1.00  0.00    -0.175 A  
HETATM    3  H1  UNL     1      -8.144   7.099  69.434  1.00  0.00     0.000 HD 
HETATM    4  H2  UNL     1      -7.790   5.794  70.396  1.00  0.00     0.000 HD 
HETATM    5  C   UNL     1      -9.788   5.943  72.109  1.00  0.00    -0.185 A  
HETATM    6  C   UNL     1     -11.081   5.980  72.667  1.00  0.00    -0.314 A  
HETATM    7  C   UNL     1     -10.736   6.716  70.017  1.00  0.00    -0.287 A  
HETATM    8  C   UNL     1     -12.175   6.438  71.936  1.00  0.00    -0.332 A  
HETATM    9  C   UNL     1     -12.011   6.756  70.593  1.00  0.00    -0.418 A  
ENDROOT
BRANCH   5  10
HETATM   10  C   UNL     1      -8.671   5.368  72.970  1.00  0.00    -0.121 C  
HETATM   11  O   UNL     1      -8.457   7.357  74.416  1.00  0.00    -0.186 OA 
HETATM   12  O   UNL     1      -6.778   5.902  74.333  1.00  0.00    -0.075 OA 
HETATM   13  C   UNL     1      -7.893   6.240  73.940  1.00  0.00    -0.099 C  
ENDBRANCH   5  10
BRANCH   7  14
HETATM   14  C   UNL     1     -10.674   6.907  68.539  1.00  0.00    -0.207 C  
HETATM   15  O   UNL     1     -10.735   5.919  67.810  1.00  0.00    -0.255 OA 
BRANCH  14  16
HETATM   16  C   UNL     1     -10.532   8.260  67.923  1.00  0.00    -0.259 A  
HETATM   17  C   UNL     1      -9.954   8.349  66.649  1.00  0.00    -0.354 A  
HETATM   18  C   UNL     1      -9.922   9.571  65.971  1.00  0.00    -0.348 A  
HETATM   19  C   UNL     1     -10.466  10.707  66.568  1.00  0.00    -0.224 A  
HETATM   20  C   UNL     1     -10.987  10.644  67.858  1.00  0.00    -0.351 A  
HETATM   21 BR   UNL     1     -10.514  12.337  65.613  1.00  0.00    -0.305 Br 
HETATM   22  C   UNL     1     -10.989   9.429  68.548  1.00  0.00    -0.076 A  
ENDBRANCH  14  16
ENDBRANCH   7  14
TORSDOF 3
ENDMDL
MODEL      173
REMARK 921   NORMALIZED FREE ENERGY PREDICTED BY IDOCK:   -3.99 KCAL/MOL
REMARK 922        TOTAL FREE ENERGY PREDICTED BY IDOCK:   -5.31 KCAL/MOL
REMARK 923 INTER-LIGAND FREE ENERGY PREDICTED BY IDOCK:   -5.62 KCAL/MOL
REMARK 924 INTRA-LIGAND FREE ENERGY PREDICTED BY IDOCK:    0.31 KCAL/MOL
REMARK 927      BINDING AFFINITY PREDICTED BY RF-SCORE:    0.00 PKD
ROOT
HETATM    1  N   UNL     1      -8.845  13.598  68.874  1.00  0.00    -0.374 NA 
HETATM    2  C   UNL     1      -8.841  14.705  67.989  1.00  0.00    -0.169 A  
HETATM    3  H1  UNL     1      -9.471  12.817  68.678  1.00  0.00     0.000 HD 
HETATM    4  H2  UNL     1      -9.021  13.932  69.821  1.00  0.00     0.000 HD 
HETATM    5  C   UNL     1      -7.978  15.782  68.260  1.00  0.00    -0.130 A  
HETATM    6  C   UNL     1      -7.812  16.765  67.264  1.00  0.00    -0.200 A  
HETATM    7  C   UNL     1      -9.789  14.847  66.949  1.00  0.00    -0.246 A  
HETATM    8  C   UNL     1      -8.576  16.754  66.099  1.00  0.00    -0.299 A  
HETATM    9  C   UNL     1      -9.601  15.826  65.966  1.00  0.00    -0.388 A  
ENDROOT
BRANCH   5  10
HETATM   10  C   UNL     1      -7.137  15.918  69.522  1.00  0.00    -0.184 C  
HETATM   11  O   UNL     1      -5.822  13.864  69.139  1.00  0.00    -0.080 OA 
HETATM   12  O   UNL     1      -5.897  14.726  71.187  1.00  0.00    -0.109 OA 
HETATM   13  C   UNL     1      -6.257  14.781  70.012  1.00  0.00    -0.158 C  
ENDBRANCH   5  10
BRANCH   7  14
HETATM   14  C   UNL     1     -11.009  14.000  66.813  1.00  0.00    -0.297 C  
HETATM   15  O   UNL     1     -11.587  13.963  65.729  1.00  0.00    -0.322 OA 
BRANCH  14  16
HETATM   16  C   UNL     1     -11.550  13.207  67.956  1.00  0.00    -0.371 A  
HETATM   17  C   UNL     1     -11.528  11.808  67.859  1.00  0.00    -0.387 A  
HETATM   18  C   UNL     1     -11.894  11.018  68.952  1.00  0.00    -0.378 A  
HETATM   19  C   UNL     1     -12.285  11.625  70.144  1.00  0.00    -0.288 A  
HETATM   20  C   UNL     1     -12.370  13.012  70.233  1.00  0.00    -0.311 A  
HETATM   21 BR   UNL     1     -12.683  10.560  71.653  1.00  0.00    -0.524 Br 
HETATM   22  C   UNL     1     -12.035  13.801  69.129  1.00  0.00    -0.403 A  
ENDBRANCH  14  16
ENDBRANCH   7  14
TORSDOF 3
ENDMDL
MODEL      174
REMARK 921   NORMALIZED FREE ENERGY PREDICTED BY IDOCK:   -3.97 KCAL/MOL
REMARK 922        TOTAL FREE ENERGY PREDICTED BY IDOCK:   -5.28 KCAL/MOL
REMARK 923 INTER-LIGAND FREE ENERGY PREDICTED BY IDOCK:   -4.47 KCAL/MOL
REMARK 924 INTRA-LIGAND FREE ENERGY PREDICTED BY IDOCK:   -0.81 KCAL/MOL
REMARK 927      BINDING AFFINITY PREDICTED BY RF-SCORE:    0.00 PKD
ROOT
HETATM    1  N   UNL     1      -7.602   7.494  65.369  1.00  0.00    -0.089 NA 
HETATM    2  C   UNL     1      -8.738   7.503  66.217  1.00  0.00    -0.149 A  
HETATM    3  H1  UNL     1      -7.290   8.375  64.961  1.00  0.00     0.000 HD 
HETATM    4  H2  UNL     1      -7.753   6.819  64.621  1.00  0.00     0.000 HD 
HETATM    5  C   UNL     1      -9.169   6.288  66.779  1.00  0.00    -0.147 A  
HETATM    6  C   UNL     1     -10.147   6.338  67.793  1.00  0.00    -0.174 A  
HETATM    7  C   UNL     1      -9.553   8.647  66.379  1.00  0.00    -0.316 A  
HETATM    8  C   UNL     1     -10.773   7.533  68.140  1.00  0.00    -0.145 A  
HETATM    9  C   UNL     1     -10.514   8.678  67.396  1.00  0.00    -0.351 A  
ENDROOT
BRANCH   5  10
HETATM   10  C   UNL     1      -8.590   4.923  66.434  1.00  0.00    -0.110 C  
HETATM   11  O   UNL     1     -10.395   4.303  64.868  1.00  0.00    -0.219 OA 
HETATM   12  O   UNL     1      -9.110   2.699  65.719  1.00  0.00    -0.141 OA 
HETATM   13  C   UNL     1      -9.398   3.893  65.663  1.00  0.00    -0.161 C  
ENDBRANCH   5  10
BRANCH   7  14
HETATM   14  C   UNL     1      -9.458   9.865  65.524  1.00  0.00    -0.252 C  
HETATM   15  O   UNL     1      -9.114   9.741  64.351  1.00  0.00    -0.229 OA 
BRANCH  14  16
HETATM   16  C   UNL     1      -9.762  11.227  66.055  1.00  0.00    -0.253 A  
HETATM   17  C   UNL     1     -11.046  11.748  65.846  1.00  0.00    -0.355 A  
HETATM   18  C   UNL     1     -11.425  12.956  66.438  1.00  0.00    -0.389 A  
HETATM   19  C   UNL     1     -10.518  13.648  67.239  1.00  0.00    -0.260 A  
HETATM   20  C   UNL     1      -9.219  13.173  67.404  1.00  0.00    -0.213 A  
HETATM   21 BR   UNL     1     -11.060  15.229  68.120  1.00  0.00    -0.325 Br 
HETATM   22  C   UNL     1      -8.831  11.981  66.785  1.00  0.00    -0.198 A  
ENDBRANCH  14  16
ENDBRANCH   7  14
TORSDOF 3
ENDMDL
MODEL      175
REMARK 921   NORMALIZED FREE ENERGY PREDICTED BY IDOCK:   -3.94 KCAL/MOL
REMARK 922        TOTAL FREE ENERGY PREDICTED BY IDOCK:   -5.25 KCAL/MOL
REMARK 923 INTER-LIGAND FREE ENERGY PREDICTED BY IDOCK:   -4.86 KCAL/MOL
REMARK 924 INTRA-LIGAND FREE ENERGY PREDICTED BY IDOCK:   -0.40 KCAL/MOL
REMARK 927      BINDING AFFINITY PREDICTED BY RF-SCORE:    0.00 PKD
ROOT
HETATM    1  N   UNL     1      -8.857  12.305  67.329  1.00  0.00    -0.182 NA 
HETATM    2  C   UNL     1      -9.190  11.593  66.149  1.00  0.00    -0.219 A  
HETATM    3  H1  UNL     1      -8.070  11.982  67.890  1.00  0.00     0.000 HD 
HETATM    4  H2  UNL     1      -9.684  12.365  67.923  1.00  0.00     0.000 HD 
HETATM    5  C   UNL     1     -10.277  12.039  65.376  1.00  0.00    -0.295 A  
HETATM    6  C   UNL     1     -10.456  11.473  64.097  1.00  0.00    -0.408 A  
HETATM    7  C   UNL     1      -8.586  10.359  65.814  1.00  0.00    -0.172 A  
HETATM    8  C   UNL     1      -9.672  10.408  63.658  1.00  0.00    -0.338 A  
HETATM    9  C   UNL     1      -8.773   9.817  64.537  1.00  0.00    -0.222 A  
ENDROOT
BRANCH   5  10
HETATM   10  C   UNL     1     -11.225  13.158  65.783  1.00  0.00    -0.309 C  
HETATM   11  O   UNL     1     -13.168  12.266  64.548  1.00  0.00    -0.799 OA 
HETATM   12  O   UNL     1     -13.166  14.407  65.151  1.00  0.00    -0.602 OA 
HETATM   13  C   UNL     1     -12.581  13.326  65.120  1.00  0.00    -0.453 C  
ENDBRANCH   5  10
BRANCH   7  14
HETATM   14  C   UNL     1      -7.733   9.568  66.748  1.00  0.00    -0.098 C  
HETATM   15  O   UNL     1      -6.826  10.138  67.349  1.00  0.00    -0.076 OA 
BRANCH  14  16
HETATM   16  C   UNL     1      -7.946   8.106  66.964  1.00  0.00    -0.104 A  
HETATM   17  C   UNL     1      -6.959   7.220  66.509  1.00  0.00    -0.073 A  
HETATM   18  C   UNL     1      -7.042   5.857  66.806  1.00  0.00    -0.070 A  
HETATM   19  C   UNL     1      -8.113   5.377  67.558  1.00  0.00    -0.101 A  
HETATM   20  C   UNL     1      -9.132   6.237  67.962  1.00  0.00    -0.112 A  
HETATM   21 BR   UNL     1      -8.175   3.552  68.045  1.00  0.00    -0.095 Br 
HETATM   22  C   UNL     1      -9.065   7.595  67.637  1.00  0.00    -0.133 A  
ENDBRANCH  14  16
ENDBRANCH   7  14
TORSDOF 3
ENDMDL
MODEL      176
REMARK 921   NORMALIZED FREE ENERGY PREDICTED BY IDOCK:   -3.94 KCAL/MOL
REMARK 922        TOTAL FREE ENERGY PREDICTED BY IDOCK:   -5.25 KCAL/MOL
REMARK 923 INTER-LIGAND FREE ENERGY PREDICTED BY IDOCK:   -5.21 KCAL/MOL
REMARK 924 INTRA-LIGAND FREE ENERGY PREDICTED BY IDOCK:   -0.04 KCAL/MOL
REMARK 927      BINDING AFFINITY PREDICTED BY RF-SCORE:    0.00 PKD
ROOT
HETATM    1  N   UNL     1     -12.600  16.272  69.951  1.00  0.00    -0.356 NA 
HETATM    2  C   UNL     1     -12.615  14.887  70.254  1.00  0.00    -0.313 A  
HETATM    3  H1  UNL     1     -12.162  16.578  69.082  1.00  0.00     0.000 HD 
HETATM    4  H2  UNL     1     -12.177  16.776  70.729  1.00  0.00     0.000 HD 
HETATM    5  C   UNL     1     -13.219  14.466  71.452  1.00  0.00    -0.418 A  
HETATM    6  C   UNL     1     -13.434  13.085  71.636  1.00  0.00    -0.286 A  
HETATM    7  C   UNL     1     -11.899  13.937  69.490  1.00  0.00    -0.383 A  
HETATM    8  C   UNL     1     -12.945  12.148  70.729  1.00  0.00     0.017 A  
HETATM    9  C   UNL     1     -12.132  12.571  69.684  1.00  0.00    -0.272 A  
ENDROOT
BRANCH   5  10
HETATM   10  C   UNL     1     -13.741  15.404  72.533  1.00  0.00    -0.652 C  
HETATM   11  O   UNL     1     -11.686  16.767  72.658  1.00  0.00    -0.429 OA 
HETATM   12  O   UNL     1     -13.124  16.828  74.354  1.00  0.00    -0.280 OA 
HETATM   13  C   UNL     1     -12.817  16.369  73.255  1.00  0.00    -0.252 C  
ENDBRANCH   5  10
BRANCH   7  14
HETATM   14  C   UNL     1     -10.886  14.293  68.455  1.00  0.00    -0.253 C  
HETATM   15  O   UNL     1     -11.063  15.299  67.773  1.00  0.00    -0.300 OA 
BRANCH  14  16
HETATM   16  C   UNL     1      -9.671  13.458  68.221  1.00  0.00    -0.226 A  
HETATM   17  C   UNL     1      -8.484  14.106  67.850  1.00  0.00    -0.167 A  
HETATM   18  C   UNL     1      -7.288  13.390  67.752  1.00  0.00    -0.158 A  
HETATM   19  C   UNL     1      -7.276  12.023  68.023  1.00  0.00    -0.096 A  
HETATM   20  C   UNL     1      -8.459  11.356  68.333  1.00  0.00    -0.155 A  
HETATM   21 BR   UNL     1      -5.643  11.074  67.990  1.00  0.00    -0.042 Br 
HETATM   22  C   UNL     1      -9.661  12.067  68.398  1.00  0.00    -0.190 A  
ENDBRANCH  14  16
ENDBRANCH   7  14
TORSDOF 3
ENDMDL
MODEL      177
REMARK 921   NORMALIZED FREE ENERGY PREDICTED BY IDOCK:   -3.94 KCAL/MOL
REMARK 922        TOTAL FREE ENERGY PREDICTED BY IDOCK:   -5.25 KCAL/MOL
REMARK 923 INTER-LIGAND FREE ENERGY PREDICTED BY IDOCK:   -4.54 KCAL/MOL
REMARK 924 INTRA-LIGAND FREE ENERGY PREDICTED BY IDOCK:   -0.70 KCAL/MOL
REMARK 927      BINDING AFFINITY PREDICTED BY RF-SCORE:    0.00 PKD
ROOT
HETATM    1  N   UNL     1     -10.938   8.308  67.545  1.00  0.00    -0.477 NA 
HETATM    2  C   UNL     1      -9.580   8.697  67.667  1.00  0.00    -0.155 A  
HETATM    3  H1  UNL     1     -11.509   8.746  66.823  1.00  0.00     0.000 HD 
HETATM    4  H2  UNL     1     -11.398   8.428  68.447  1.00  0.00     0.000 HD 
HETATM    5  C   UNL     1      -8.793   8.093  68.664  1.00  0.00    -0.134 A  
HETATM    6  C   UNL     1      -7.401   8.311  68.631  1.00  0.00    -0.089 A  
HETATM    7  C   UNL     1      -9.036   9.784  66.945  1.00  0.00    -0.162 A  
HETATM    8  C   UNL     1      -6.827   9.203  67.727  1.00  0.00    -0.076 A  
HETATM    9  C   UNL     1      -7.650   9.979  66.920  1.00  0.00    -0.096 A  
ENDROOT
BRANCH   5  10
HETATM   10  C   UNL     1      -9.326   7.145  69.729  1.00  0.00    -0.146 C  
HETATM   11  O   UNL     1      -8.926   5.090  68.421  1.00  0.00    -0.104 OA 
HETATM   12  O   UNL     1     -10.359   5.022  70.121  1.00  0.00    -0.273 OA 
HETATM   13  C   UNL     1      -9.589   5.680  69.424  1.00  0.00    -0.143 C  
ENDBRANCH   5  10
BRANCH   7  14
HETATM   14  C   UNL     1      -9.854  10.768  66.178  1.00  0.00    -0.221 C  
HETATM   15  O   UNL     1     -10.259  10.459  65.060  1.00  0.00    -0.324 OA 
BRANCH  14  16
HETATM   16  C   UNL     1     -10.187  12.116  66.728  1.00  0.00    -0.224 A  
HETATM   17  C   UNL     1     -11.539  12.450  66.886  1.00  0.00    -0.437 A  
HETATM   18  C   UNL     1     -11.903  13.641  67.521  1.00  0.00    -0.416 A  
HETATM   19  C   UNL     1     -10.916  14.500  67.998  1.00  0.00    -0.260 A  
HETATM   20  C   UNL     1      -9.569  14.209  67.793  1.00  0.00    -0.219 A  
HETATM   21 BR   UNL     1     -11.406  16.060  68.946  1.00  0.00    -0.363 Br 
HETATM   22  C   UNL     1      -9.206  13.034  67.128  1.00  0.00    -0.226 A  
ENDBRANCH  14  16
ENDBRANCH   7  14
TORSDOF 3
ENDMDL
MODEL      178
REMARK 921   NORMALIZED FREE ENERGY PREDICTED BY IDOCK:   -3.93 KCAL/MOL
REMARK 922        TOTAL FREE ENERGY PREDICTED BY IDOCK:   -5.24 KCAL/MOL
REMARK 923 INTER-LIGAND FREE ENERGY PREDICTED BY IDOCK:   -4.29 KCAL/MOL
REMARK 924 INTRA-LIGAND FREE ENERGY PREDICTED BY IDOCK:   -0.95 KCAL/MOL
REMARK 927      BINDING AFFINITY PREDICTED BY RF-SCORE:    0.00 PKD
ROOT
HETATM    1  N   UNL     1      -8.220  11.957  69.310  1.00  0.00    -0.221 NA 
HETATM    2  C   UNL     1      -8.963  11.130  68.430  1.00  0.00    -0.165 A  
HETATM    3  H1  UNL     1      -7.577  11.518  69.968  1.00  0.00     0.000 HD 
HETATM    4  H2  UNL     1      -8.865  12.554  69.827  1.00  0.00     0.000 HD 
HETATM    5  C   UNL     1      -9.849  11.738  67.522  1.00  0.00    -0.195 A  
HETATM    6  C   UNL     1     -10.405  10.937  66.505  1.00  0.00    -0.299 A  
HETATM    7  C   UNL     1      -8.977   9.721  68.547  1.00  0.00    -0.124 A  
HETATM    8  C   UNL     1     -10.200   9.559  66.471  1.00  0.00    -0.307 A  
HETATM    9  C   UNL     1      -9.530   8.945  67.522  1.00  0.00    -0.172 A  
ENDROOT
BRANCH   5  10
HETATM   10  C   UNL     1     -10.184  13.223  67.503  1.00  0.00    -0.222 C  
HETATM   11  O   UNL     1     -11.181  13.256  69.762  1.00  0.00    -0.118 OA 
HETATM   12  O   UNL     1     -11.656  14.908  68.351  1.00  0.00    -0.301 OA 
HETATM   13  C   UNL     1     -11.076  13.845  68.564  1.00  0.00    -0.265 C  
ENDBRANCH   5  10
BRANCH   7  14
HETATM   14  C   UNL     1      -8.426   8.976  69.715  1.00  0.00    -0.132 C  
HETATM   15  O   UNL     1      -7.244   9.131  70.013  1.00  0.00    -0.054 OA 
BRANCH  14  16
HETATM   16  C   UNL     1      -9.266   8.045  70.525  1.00  0.00    -0.154 A  
HETATM   17  C   UNL     1      -9.164   6.671  70.269  1.00  0.00    -0.156 A  
HETATM   18  C   UNL     1      -9.823   5.748  71.086  1.00  0.00    -0.227 A  
HETATM   19  C   UNL     1     -10.587   6.199  72.161  1.00  0.00    -0.209 A  
HETATM   20  C   UNL     1     -10.746   7.564  72.389  1.00  0.00    -0.311 A  
HETATM   21 BR   UNL     1     -11.396   4.952  73.327  1.00  0.00    -0.339 Br 
HETATM   22  C   UNL     1     -10.114   8.487  71.551  1.00  0.00    -0.315 A  
ENDBRANCH  14  16
ENDBRANCH   7  14
TORSDOF 3
ENDMDL
MODEL      179
REMARK 921   NORMALIZED FREE ENERGY PREDICTED BY IDOCK:   -3.90 KCAL/MOL
REMARK 922        TOTAL FREE ENERGY PREDICTED BY IDOCK:   -5.20 KCAL/MOL
REMARK 923 INTER-LIGAND FREE ENERGY PREDICTED BY IDOCK:   -4.82 KCAL/MOL
REMARK 924 INTRA-LIGAND FREE ENERGY PREDICTED BY IDOCK:   -0.39 KCAL/MOL
REMARK 927      BINDING AFFINITY PREDICTED BY RF-SCORE:    0.00 PKD
ROOT
HETATM    1  N   UNL     1      -8.195  12.792  68.674  1.00  0.00    -0.337 NA 
HETATM    2  C   UNL     1      -7.747  14.132  68.790  1.00  0.00    -0.121 A  
HETATM    3  H1  UNL     1      -9.040  12.604  68.135  1.00  0.00     0.000 HD 
HETATM    4  H2  UNL     1      -8.306  12.398  69.608  1.00  0.00     0.000 HD 
HETATM    5  C   UNL     1      -6.582  14.390  69.535  1.00  0.00    -0.141 A  
HETATM    6  C   UNL     1      -6.018  15.680  69.456  1.00  0.00    -0.130 A  
HETATM    7  C   UNL     1      -8.514  15.229  68.336  1.00  0.00    -0.158 A  
HETATM    8  C   UNL     1      -6.659  16.712  68.774  1.00  0.00    -0.169 A  
HETATM    9  C   UNL     1      -7.932  16.500  68.259  1.00  0.00    -0.177 A  
ENDROOT
BRANCH   5  10
HETATM   10  C   UNL     1      -5.832  13.350  70.356  1.00  0.00    -0.162 C  
HETATM   11  O   UNL     1      -5.164  11.975  68.417  1.00  0.00    -0.049 OA 
HETATM   12  O   UNL     1      -5.127  11.064  70.446  1.00  0.00    -0.056 OA 
HETATM   13  C   UNL     1      -5.368  12.041  69.739  1.00  0.00    -0.081 C  
ENDBRANCH   5  10
BRANCH   7  14
HETATM   14  C   UNL     1      -9.941  15.130  67.914  1.00  0.00    -0.221 C  
HETATM   15  O   UNL     1     -10.223  15.308  66.732  1.00  0.00    -0.262 OA 
BRANCH  14  16
HETATM   16  C   UNL     1     -11.032  14.831  68.888  1.00  0.00    -0.262 A  
HETATM   17  C   UNL     1     -11.331  13.487  69.153  1.00  0.00    -0.333 A  
HETATM   18  C   UNL     1     -12.247  13.150  70.154  1.00  0.00    -0.360 A  
HETATM   19  C   UNL     1     -12.867  14.157  70.891  1.00  0.00    -0.334 A  
HETATM   20  C   UNL     1     -12.626  15.497  70.595  1.00  0.00    -0.493 A  
HETATM   21 BR   UNL     1     -14.028  13.703  72.310  1.00  0.00    -0.602 Br 
HETATM   22  C   UNL     1     -11.735  15.833  69.572  1.00  0.00    -0.369 A  
ENDBRANCH  14  16
ENDBRANCH   7  14
TORSDOF 3
ENDMDL
MODEL      180
REMARK 921   NORMALIZED FREE ENERGY PREDICTED BY IDOCK:   -3.90 KCAL/MOL
REMARK 922        TOTAL FREE ENERGY PREDICTED BY IDOCK:   -5.20 KCAL/MOL
REMARK 923 INTER-LIGAND FREE ENERGY PREDICTED BY IDOCK:   -4.30 KCAL/MOL
REMARK 924 INTRA-LIGAND FREE ENERGY PREDICTED BY IDOCK:   -0.90 KCAL/MOL
REMARK 927      BINDING AFFINITY PREDICTED BY RF-SCORE:    0.00 PKD
ROOT
HETATM    1  N   UNL     1     -11.122   5.706  66.401  1.00  0.00    -0.758 NA 
HETATM    2  C   UNL     1      -9.826   5.933  66.929  1.00  0.00    -0.156 A  
HETATM    3  H1  UNL     1     -11.930   5.862  67.003  1.00  0.00     0.000 HD 
HETATM    4  H2  UNL     1     -11.166   4.758  66.029  1.00  0.00     0.000 HD 
HETATM    5  C   UNL     1      -8.712   5.717  66.098  1.00  0.00    -0.136 A  
HETATM    6  C   UNL     1      -7.453   6.161  66.550  1.00  0.00    -0.086 A  
HETATM    7  C   UNL     1      -9.603   6.198  68.300  1.00  0.00    -0.122 A  
HETATM    8  C   UNL     1      -7.283   6.675  67.834  1.00  0.00    -0.091 A  
HETATM    9  C   UNL     1      -8.347   6.644  68.726  1.00  0.00    -0.120 A  
ENDROOT
BRANCH   5  10
HETATM   10  C   UNL     1      -8.781   5.116  64.701  1.00  0.00    -0.120 C  
HETATM   11  O   UNL     1      -9.197   2.807  65.470  1.00  0.00    -0.151 OA 
HETATM   12  O   UNL     1      -8.442   3.133  63.404  1.00  0.00    -0.085 OA 
HETATM   13  C   UNL     1      -8.776   3.612  64.486  1.00  0.00    -0.105 C  
ENDBRANCH   5  10
BRANCH   7  14
HETATM   14  C   UNL     1     -10.641   6.039  69.359  1.00  0.00    -0.298 C  
HETATM   15  O   UNL     1     -11.730   6.588  69.210  1.00  0.00    -0.250 OA 
BRANCH  14  16
HETATM   16  C   UNL     1     -10.391   5.239  70.595  1.00  0.00    -0.324 A  
HETATM   17  C   UNL     1     -10.906   5.718  71.807  1.00  0.00    -0.311 A  
HETATM   18  C   UNL     1     -10.819   4.944  72.968  1.00  0.00    -0.331 A  
HETATM   19  C   UNL     1     -10.215   3.689  72.918  1.00  0.00    -0.163 A  
HETATM   20  C   UNL     1      -9.644   3.228  71.733  1.00  0.00    -0.226 A  
HETATM   21 BR   UNL     1     -10.185   2.598  74.460  1.00  0.00    -0.198 Br 
HETATM   22  C   UNL     1      -9.702   4.018  70.581  1.00  0.00    -0.266 A  
ENDBRANCH  14  16
ENDBRANCH   7  14
TORSDOF 3
ENDMDL
MODEL      181
REMARK 921   NORMALIZED FREE ENERGY PREDICTED BY IDOCK:   -3.89 KCAL/MOL
REMARK 922        TOTAL FREE ENERGY PREDICTED BY IDOCK:   -5.19 KCAL/MOL
REMARK 923 INTER-LIGAND FREE ENERGY PREDICTED BY IDOCK:   -4.43 KCAL/MOL
REMARK 924 INTRA-LIGAND FREE ENERGY PREDICTED BY IDOCK:   -0.77 KCAL/MOL
REMARK 927      BINDING AFFINITY PREDICTED BY RF-SCORE:    0.00 PKD
ROOT
HETATM    1  N   UNL     1     -11.766   6.576  68.553  1.00  0.00    -0.320 NA 
HETATM    2  C   UNL     1     -10.980   5.998  69.583  1.00  0.00    -0.400 A  
HETATM    3  H1  UNL     1     -11.528   6.369  67.583  1.00  0.00     0.000 HD 
HETATM    4  H2  UNL     1     -11.785   7.587  68.680  1.00  0.00     0.000 HD 
HETATM    5  C   UNL     1     -11.308   6.284  70.921  1.00  0.00    -0.389 A  
HETATM    6  C   UNL     1     -10.675   5.532  71.932  1.00  0.00    -0.292 A  
HETATM    7  C   UNL     1      -9.784   5.293  69.317  1.00  0.00    -0.235 A  
HETATM    8  C   UNL     1      -9.658   4.628  71.635  1.00  0.00    -0.221 A  
HETATM    9  C   UNL     1      -9.176   4.548  70.334  1.00  0.00    -0.194 A  
ENDROOT
BRANCH   5  10
HETATM   10  C   UNL     1     -12.365   7.289  71.356  1.00  0.00    -0.403 C  
HETATM   11  O   UNL     1     -11.197   9.258  70.433  1.00  0.00    -0.241 OA 
HETATM   12  O   UNL     1     -12.764   9.565  71.980  1.00  0.00    -0.380 OA 
HETATM   13  C   UNL     1     -12.108   8.785  71.292  1.00  0.00    -0.296 C  
ENDBRANCH   5  10
BRANCH   7  14
HETATM   14  C   UNL     1      -9.102   5.278  67.991  1.00  0.00    -0.110 C  
HETATM   15  O   UNL     1      -9.010   4.214  67.383  1.00  0.00    -0.111 OA 
BRANCH  14  16
HETATM   16  C   UNL     1      -8.525   6.515  67.387  1.00  0.00    -0.119 A  
HETATM   17  C   UNL     1      -7.323   7.009  67.914  1.00  0.00    -0.097 A  
HETATM   18  C   UNL     1      -6.670   8.081  67.300  1.00  0.00    -0.065 A  
HETATM   19  C   UNL     1      -7.218   8.663  66.158  1.00  0.00    -0.085 A  
HETATM   20  C   UNL     1      -8.443   8.222  65.662  1.00  0.00    -0.173 A  
HETATM   21 BR   UNL     1      -6.286  10.046  65.269  1.00  0.00    -0.115 Br 
HETATM   22  C   UNL     1      -9.112   7.171  66.296  1.00  0.00    -0.182 A  
ENDBRANCH  14  16
ENDBRANCH   7  14
TORSDOF 3
ENDMDL
MODEL      182
REMARK 921   NORMALIZED FREE ENERGY PREDICTED BY IDOCK:   -3.80 KCAL/MOL
REMARK 922        TOTAL FREE ENERGY PREDICTED BY IDOCK:   -5.08 KCAL/MOL
REMARK 923 INTER-LIGAND FREE ENERGY PREDICTED BY IDOCK:   -4.47 KCAL/MOL
REMARK 924 INTRA-LIGAND FREE ENERGY PREDICTED BY IDOCK:   -0.61 KCAL/MOL
REMARK 927      BINDING AFFINITY PREDICTED BY RF-SCORE:    0.00 PKD
ROOT
HETATM    1  N   UNL     1      -8.488  13.954  66.321  1.00  0.00    -0.072 NA 
HETATM    2  C   UNL     1      -9.815  13.525  66.068  1.00  0.00    -0.265 A  
HETATM    3  H1  UNL     1      -7.716  13.400  65.953  1.00  0.00     0.000 HD 
HETATM    4  H2  UNL     1      -8.363  14.066  67.327  1.00  0.00     0.000 HD 
HETATM    5  C   UNL     1     -10.879  14.290  66.578  1.00  0.00    -0.304 A  
HETATM    6  C   UNL     1     -12.183  13.990  66.133  1.00  0.00    -0.494 A  
HETATM    7  C   UNL     1     -10.106  12.274  65.477  1.00  0.00    -0.279 A  
HETATM    8  C   UNL     1     -12.436  12.887  65.320  1.00  0.00    -0.552 A  
HETATM    9  C   UNL     1     -11.406  11.999  65.036  1.00  0.00    -0.365 A  
ENDROOT
BRANCH   5  10
HETATM   10  C   UNL     1     -10.718  15.481  67.511  1.00  0.00    -0.300 C  
HETATM   11  O   UNL     1      -9.166  14.345  69.059  1.00  0.00    -0.134 OA 
HETATM   12  O   UNL     1     -10.246  16.159  69.758  1.00  0.00    -0.260 OA 
HETATM   13  C   UNL     1     -10.040  15.340  68.864  1.00  0.00    -0.225 C  
ENDBRANCH   5  10
BRANCH   7  14
HETATM   14  C   UNL     1      -9.099  11.192  65.276  1.00  0.00    -0.167 C  
HETATM   15  O   UNL     1      -8.422  11.195  64.251  1.00  0.00     0.125 OA 
BRANCH  14  16
HETATM   16  C   UNL     1      -8.897  10.107  66.281  1.00  0.00    -0.163 A  
HETATM   17  C   UNL     1      -9.822   9.054  66.313  1.00  0.00    -0.361 A  
HETATM   18  C   UNL     1      -9.606   7.947  67.137  1.00  0.00    -0.222 A  
HETATM   19  C   UNL     1      -8.464   7.890  67.934  1.00  0.00    -0.126 A  
HETATM   20  C   UNL     1      -7.568   8.957  67.958  1.00  0.00    -0.093 A  
HETATM   21 BR   UNL     1      -8.119   6.350  68.972  1.00  0.00    -0.112 Br 
HETATM   22  C   UNL     1      -7.802  10.079  67.157  1.00  0.00    -0.099 A  
ENDBRANCH  14  16
ENDBRANCH   7  14
TORSDOF 3
ENDMDL
MODEL      183
REMARK 921   NORMALIZED FREE ENERGY PREDICTED BY IDOCK:   -3.77 KCAL/MOL
REMARK 922        TOTAL FREE ENERGY PREDICTED BY IDOCK:   -5.04 KCAL/MOL
REMARK 923 INTER-LIGAND FREE ENERGY PREDICTED BY IDOCK:   -4.40 KCAL/MOL
REMARK 924 INTRA-LIGAND FREE ENERGY PREDICTED BY IDOCK:   -0.64 KCAL/MOL
REMARK 927      BINDING AFFINITY PREDICTED BY RF-SCORE:    0.00 PKD
ROOT
HETATM    1  N   UNL     1      -9.068  13.641  66.671  1.00  0.00    -0.399 NA 
HETATM    2  C   UNL     1      -9.304  12.284  66.334  1.00  0.00    -0.219 A  
HETATM    3  H1  UNL     1      -8.133  13.913  66.975  1.00  0.00     0.000 HD 
HETATM    4  H2  UNL     1      -9.742  13.927  67.380  1.00  0.00     0.000 HD 
HETATM    5  C   UNL     1     -10.594  11.909  65.915  1.00  0.00    -0.306 A  
HETATM    6  C   UNL     1     -10.764  10.622  65.366  1.00  0.00    -0.106 A  
HETATM    7  C   UNL     1      -8.349  11.268  66.565  1.00  0.00    -0.168 A  
HETATM    8  C   UNL     1      -9.725   9.694  65.358  1.00  0.00    -0.365 A  
HETATM    9  C   UNL     1      -8.534   9.999  66.005  1.00  0.00    -0.137 A  
ENDROOT
BRANCH   5  10
HETATM   10  C   UNL     1     -11.808  12.827  65.931  1.00  0.00    -0.490 C  
HETATM   11  O   UNL     1     -11.980  13.014  63.475  1.00  0.00    -0.514 OA 
HETATM   12  O   UNL     1     -12.982  14.542  64.743  1.00  0.00    -0.562 OA 
HETATM   13  C   UNL     1     -12.281  13.533  64.672  1.00  0.00    -0.406 C  
ENDBRANCH   5  10
BRANCH   7  14
HETATM   14  C   UNL     1      -7.116  11.455  67.383  1.00  0.00    -0.114 C  
HETATM   15  O   UNL     1      -6.438  12.465  67.212  1.00  0.00    -0.150 OA 
BRANCH  14  16
HETATM   16  C   UNL     1      -6.682  10.448  68.397  1.00  0.00    -0.060 A  
HETATM   17  C   UNL     1      -7.054  10.651  69.733  1.00  0.00    -0.140 A  
HETATM   18  C   UNL     1      -6.792   9.674  70.696  1.00  0.00    -0.119 A  
HETATM   19  C   UNL     1      -6.155   8.491  70.326  1.00  0.00    -0.030 A  
HETATM   20  C   UNL     1      -5.724   8.303  69.014  1.00  0.00    -0.035 A  
HETATM   21 BR   UNL     1      -5.890   7.126  71.606  1.00  0.00    -0.037 Br 
HETATM   22  C   UNL     1      -5.958   9.296  68.058  1.00  0.00    -0.049 A  
ENDBRANCH  14  16
ENDBRANCH   7  14
TORSDOF 3
ENDMDL
MODEL      184
REMARK 921   NORMALIZED FREE ENERGY PREDICTED BY IDOCK:   -3.74 KCAL/MOL
REMARK 922        TOTAL FREE ENERGY PREDICTED BY IDOCK:   -5.02 KCAL/MOL
REMARK 923 INTER-LIGAND FREE ENERGY PREDICTED BY IDOCK:   -4.31 KCAL/MOL
REMARK 924 INTRA-LIGAND FREE ENERGY PREDICTED BY IDOCK:   -0.71 KCAL/MOL
REMARK 927      BINDING AFFINITY PREDICTED BY RF-SCORE:    0.00 PKD
ROOT
HETATM    1  N   UNL     1      -8.243  13.223  67.809  1.00  0.00    -0.154 NA 
HETATM    2  C   UNL     1      -9.037  12.844  66.698  1.00  0.00    -0.177 A  
HETATM    3  H1  UNL     1      -7.526  12.578  68.140  1.00  0.00     0.000 HD 
HETATM    4  H2  UNL     1      -8.856  13.463  68.588  1.00  0.00     0.000 HD 
HETATM    5  C   UNL     1     -10.027  13.733  66.243  1.00  0.00    -0.312 A  
HETATM    6  C   UNL     1     -10.650  13.455  65.009  1.00  0.00    -0.370 A  
HETATM    7  C   UNL     1      -8.992  11.544  66.143  1.00  0.00    -0.201 A  
HETATM    8  C   UNL     1     -10.401  12.269  64.322  1.00  0.00    -0.375 A  
HETATM    9  C   UNL     1      -9.613  11.291  64.915  1.00  0.00    -0.266 A  
ENDROOT
BRANCH   5  10
HETATM   10  C   UNL     1     -10.413  15.029  66.943  1.00  0.00    -0.279 C  
HETATM   11  O   UNL     1     -11.614  13.930  68.799  1.00  0.00    -0.287 OA 
HETATM   12  O   UNL     1     -12.018  16.075  68.377  1.00  0.00    -0.220 OA 
HETATM   13  C   UNL     1     -11.421  15.042  68.080  1.00  0.00    -0.342 C  
ENDBRANCH   5  10
BRANCH   7  14
HETATM   14  C   UNL     1      -8.305  10.387  66.787  1.00  0.00    -0.126 C  
HETATM   15  O   UNL     1      -7.467  10.604  67.658  1.00  0.00    -0.090 OA 
BRANCH  14  16
HETATM   16  C   UNL     1      -8.603   8.977  66.397  1.00  0.00    -0.136 A  
HETATM   17  C   UNL     1      -7.799   8.377  65.419  1.00  0.00    -0.108 A  
HETATM   18  C   UNL     1      -7.946   7.021  65.116  1.00  0.00    -0.128 A  
HETATM   19  C   UNL     1      -8.901   6.261  65.790  1.00  0.00    -0.111 A  
HETATM   20  C   UNL     1      -9.748   6.859  66.720  1.00  0.00    -0.232 A  
HETATM   21 BR   UNL     1      -9.033   4.407  65.454  1.00  0.00    -0.145 Br 
HETATM   22  C   UNL     1      -9.622   8.223  66.998  1.00  0.00    -0.249 A  
ENDBRANCH  14  16
ENDBRANCH   7  14
TORSDOF 3
ENDMDL
MODEL      185
REMARK 921   NORMALIZED FREE ENERGY PREDICTED BY IDOCK:   -3.68 KCAL/MOL
REMARK 922        TOTAL FREE ENERGY PREDICTED BY IDOCK:   -4.95 KCAL/MOL
REMARK 923 INTER-LIGAND FREE ENERGY PREDICTED BY IDOCK:   -4.33 KCAL/MOL
REMARK 924 INTRA-LIGAND FREE ENERGY PREDICTED BY IDOCK:   -0.61 KCAL/MOL
REMARK 927      BINDING AFFINITY PREDICTED BY RF-SCORE:    0.00 PKD
ROOT
HETATM    1  N   UNL     1     -11.865  11.672  68.491  1.00  0.00    -0.436 NA 
HETATM    2  C   UNL     1     -10.626  12.269  68.149  1.00  0.00    -0.214 A  
HETATM    3  H1  UNL     1     -11.865  10.875  69.127  1.00  0.00     0.000 HD 
HETATM    4  H2  UNL     1     -12.355  11.412  67.636  1.00  0.00     0.000 HD 
HETATM    5  C   UNL     1     -10.627  13.368  67.271  1.00  0.00    -0.256 A  
HETATM    6  C   UNL     1      -9.429  14.095  67.118  1.00  0.00    -0.237 A  
HETATM    7  C   UNL     1      -9.384  11.699  68.513  1.00  0.00    -0.169 A  
HETATM    8  C   UNL     1      -8.240  13.666  67.705  1.00  0.00    -0.179 A  
HETATM    9  C   UNL     1      -8.207  12.440  68.359  1.00  0.00    -0.144 A  
ENDROOT
BRANCH   5  10
HETATM   10  C   UNL     1     -11.857  13.888  66.540  1.00  0.00    -0.440 C  
HETATM   11  O   UNL     1     -11.763  12.215  64.727  1.00  0.00    -0.352 OA 
HETATM   12  O   UNL     1     -12.932  14.080  64.410  1.00  0.00    -0.505 OA 
HETATM   13  C   UNL     1     -12.206  13.409  65.141  1.00  0.00    -0.434 C  
ENDBRANCH   5  10
BRANCH   7  14
HETATM   14  C   UNL     1      -9.231  10.325  69.074  1.00  0.00    -0.183 C  
HETATM   15  O   UNL     1      -9.598  10.111  70.226  1.00  0.00    -0.118 OA 
BRANCH  14  16
HETATM   16  C   UNL     1      -8.638   9.210  68.277  1.00  0.00    -0.129 A  
HETATM   17  C   UNL     1      -7.417   9.438  67.628  1.00  0.00    -0.087 A  
HETATM   18  C   UNL     1      -6.752   8.390  66.984  1.00  0.00    -0.062 A  
HETATM   19  C   UNL     1      -7.309   7.113  66.987  1.00  0.00    -0.089 A  
HETATM   20  C   UNL     1      -8.552   6.887  67.574  1.00  0.00    -0.121 A  
HETATM   21 BR   UNL     1      -6.365   5.675  66.204  1.00  0.00    -0.040 Br 
HETATM   22  C   UNL     1      -9.232   7.943  68.189  1.00  0.00    -0.136 A  
ENDBRANCH  14  16
ENDBRANCH   7  14
TORSDOF 3
ENDMDL
MODEL      186
REMARK 921   NORMALIZED FREE ENERGY PREDICTED BY IDOCK:   -3.66 KCAL/MOL
REMARK 922        TOTAL FREE ENERGY PREDICTED BY IDOCK:   -4.92 KCAL/MOL
REMARK 923 INTER-LIGAND FREE ENERGY PREDICTED BY IDOCK:   -4.01 KCAL/MOL
REMARK 924 INTRA-LIGAND FREE ENERGY PREDICTED BY IDOCK:   -0.91 KCAL/MOL
REMARK 927      BINDING AFFINITY PREDICTED BY RF-SCORE:    0.00 PKD
ROOT
HETATM    1  N   UNL     1      -9.465   6.403  72.007  1.00  0.00    -0.152 NA 
HETATM    2  C   UNL     1      -8.593   6.837  70.977  1.00  0.00    -0.136 A  
HETATM    3  H1  UNL     1     -10.463   6.340  71.807  1.00  0.00     0.000 HD 
HETATM    4  H2  UNL     1      -9.329   6.994  72.827  1.00  0.00     0.000 HD 
HETATM    5  C   UNL     1      -7.216   6.924  71.253  1.00  0.00    -0.076 A  
HETATM    6  C   UNL     1      -6.336   7.131  70.172  1.00  0.00    -0.031 A  
HETATM    7  C   UNL     1      -9.068   7.348  69.747  1.00  0.00    -0.141 A  
HETATM    8  C   UNL     1      -6.812   7.379  68.886  1.00  0.00    -0.072 A  
HETATM    9  C   UNL     1      -8.178   7.540  68.684  1.00  0.00    -0.129 A  
ENDROOT
BRANCH   5  10
HETATM   10  C   UNL     1      -6.596   6.722  72.629  1.00  0.00    -0.062 C  
HETATM   11  O   UNL     1      -7.410   8.860  73.558  1.00  0.00    -0.367 OA 
HETATM   12  O   UNL     1      -5.715   7.827  74.561  1.00  0.00    -0.075 OA 
HETATM   13  C   UNL     1      -6.530   7.854  73.640  1.00  0.00    -0.093 C  
ENDBRANCH   5  10
BRANCH   7  14
HETATM   14  C   UNL     1     -10.493   7.703  69.487  1.00  0.00    -0.227 C  
HETATM   15  O   UNL     1     -11.316   6.800  69.361  1.00  0.00    -0.257 OA 
BRANCH  14  16
HETATM   16  C   UNL     1     -10.943   9.121  69.369  1.00  0.00    -0.108 A  
HETATM   17  C   UNL     1     -11.398   9.769  70.526  1.00  0.00    -0.382 A  
HETATM   18  C   UNL     1     -11.701  11.133  70.500  1.00  0.00    -0.392 A  
HETATM   19  C   UNL     1     -11.552  11.852  69.316  1.00  0.00    -0.315 A  
HETATM   20  C   UNL     1     -11.161  11.207  68.145  1.00  0.00    -0.324 A  
HETATM   21 BR   UNL     1     -11.864  13.716  69.303  1.00  0.00    -0.406 Br 
HETATM   22  C   UNL     1     -10.889   9.836  68.164  1.00  0.00    -0.264 A  
ENDBRANCH  14  16
ENDBRANCH   7  14
TORSDOF 3
ENDMDL
MODEL      187
REMARK 921   NORMALIZED FREE ENERGY PREDICTED BY IDOCK:   -3.62 KCAL/MOL
REMARK 922        TOTAL FREE ENERGY PREDICTED BY IDOCK:   -4.87 KCAL/MOL
REMARK 923 INTER-LIGAND FREE ENERGY PREDICTED BY IDOCK:   -4.23 KCAL/MOL
REMARK 924 INTRA-LIGAND FREE ENERGY PREDICTED BY IDOCK:   -0.64 KCAL/MOL
REMARK 927      BINDING AFFINITY PREDICTED BY RF-SCORE:    0.00 PKD
ROOT
HETATM    1  N   UNL     1     -11.432   6.948  68.640  1.00  0.00    -0.481 NA 
HETATM    2  C   UNL     1     -10.245   7.495  69.191  1.00  0.00    -0.202 A  
HETATM    3  H1  UNL     1     -11.353   6.284  67.871  1.00  0.00     0.000 HD 
HETATM    4  H2  UNL     1     -12.046   7.711  68.356  1.00  0.00     0.000 HD 
HETATM    5  C   UNL     1     -10.355   8.412  70.251  1.00  0.00    -0.212 A  
HETATM    6  C   UNL     1      -9.179   8.771  70.940  1.00  0.00    -0.261 A  
HETATM    7  C   UNL     1      -8.974   7.289  68.606  1.00  0.00    -0.128 A  
HETATM    8  C   UNL     1      -7.925   8.344  70.507  1.00  0.00    -0.098 A  
HETATM    9  C   UNL     1      -7.819   7.647  69.310  1.00  0.00    -0.121 A  
ENDROOT
BRANCH   5  10
HETATM   10  C   UNL     1     -11.669   8.980  70.770  1.00  0.00    -0.286 C  
HETATM   11  O   UNL     1     -12.286   6.972  72.066  1.00  0.00    -0.310 OA 
HETATM   12  O   UNL     1     -13.871   8.438  71.533  1.00  0.00    -0.360 OA 
HETATM   13  C   UNL     1     -12.691   8.099  71.467  1.00  0.00    -0.308 C  
ENDBRANCH   5  10
BRANCH   7  14
HETATM   14  C   UNL     1      -8.766   6.694  67.255  1.00  0.00    -0.118 C  
HETATM   15  O   UNL     1      -8.541   5.490  67.165  1.00  0.00    -0.111 OA 
BRANCH  14  16
HETATM   16  C   UNL     1      -8.815   7.521  66.013  1.00  0.00    -0.179 A  
HETATM   17  C   UNL     1      -9.344   8.816  66.102  1.00  0.00    -0.297 A  
HETATM   18  C   UNL     1      -9.288   9.680  65.004  1.00  0.00    -0.319 A  
HETATM   19  C   UNL     1      -8.705   9.249  63.814  1.00  0.00    -0.167 A  
HETATM   20  C   UNL     1      -8.232   7.944  63.693  1.00  0.00    -0.008 A  
HETATM   21 BR   UNL     1      -8.538  10.447  62.362  1.00  0.00    -0.281 Br 
HETATM   22  C   UNL     1      -8.317   7.071  64.781  1.00  0.00     0.018 A  
ENDBRANCH  14  16
ENDBRANCH   7  14
TORSDOF 3
ENDMDL
MODEL      188
REMARK 921   NORMALIZED FREE ENERGY PREDICTED BY IDOCK:   -3.54 KCAL/MOL
REMARK 922        TOTAL FREE ENERGY PREDICTED BY IDOCK:   -4.77 KCAL/MOL
REMARK 923 INTER-LIGAND FREE ENERGY PREDICTED BY IDOCK:   -4.19 KCAL/MOL
REMARK 924 INTRA-LIGAND FREE ENERGY PREDICTED BY IDOCK:   -0.58 KCAL/MOL
REMARK 927      BINDING AFFINITY PREDICTED BY RF-SCORE:    0.00 PKD
ROOT
HETATM    1  N   UNL     1      -8.903   6.786  65.343  1.00  0.00    -0.364 NA 
HETATM    2  C   UNL     1      -9.239   6.176  66.578  1.00  0.00    -0.149 A  
HETATM    3  H1  UNL     1      -8.488   7.717  65.355  1.00  0.00     0.000 HD 
HETATM    4  H2  UNL     1      -9.729   6.801  64.745  1.00  0.00     0.000 HD 
HETATM    5  C   UNL     1      -9.812   4.891  66.560  1.00  0.00    -0.225 A  
HETATM    6  C   UNL     1      -9.930   4.203  67.785  1.00  0.00    -0.036 A  
HETATM    7  C   UNL     1      -9.183   6.873  67.807  1.00  0.00    -0.119 A  
HETATM    8  C   UNL     1      -9.619   4.817  68.996  1.00  0.00    -0.233 A  
HETATM    9  C   UNL     1      -9.296   6.168  69.011  1.00  0.00    -0.133 A  
ENDROOT
BRANCH   5  10
HETATM   10  C   UNL     1     -10.236   4.151  65.299  1.00  0.00    -0.204 C  
HETATM   11  O   UNL     1      -8.157   2.833  65.105  1.00  0.00    -0.081 OA 
HETATM   12  O   UNL     1      -9.459   3.059  63.316  1.00  0.00    -0.094 OA 
HETATM   13  C   UNL     1      -9.245   3.325  64.498  1.00  0.00    -0.138 C  
ENDBRANCH   5  10
BRANCH   7  14
HETATM   14  C   UNL     1      -9.001   8.348  67.920  1.00  0.00    -0.137 C  
HETATM   15  O   UNL     1      -8.130   8.892  67.246  1.00  0.00    -0.103 OA 
BRANCH  14  16
HETATM   16  C   UNL     1      -9.840   9.179  68.835  1.00  0.00    -0.179 A  
HETATM   17  C   UNL     1     -10.787  10.040  68.263  1.00  0.00    -0.286 A  
HETATM   18  C   UNL     1     -11.689  10.736  69.072  1.00  0.00    -0.357 A  
HETATM   19  C   UNL     1     -11.645  10.574  70.456  1.00  0.00    -0.350 A  
HETATM   20  C   UNL     1     -10.669   9.769  71.040  1.00  0.00    -0.342 A  
HETATM   21 BR   UNL     1     -12.927  11.435  71.544  1.00  0.00    -0.412 Br 
HETATM   22  C   UNL     1      -9.746   9.099  70.232  1.00  0.00    -0.248 A  
ENDBRANCH  14  16
ENDBRANCH   7  14
TORSDOF 3
ENDMDL
MODEL      189
REMARK 921   NORMALIZED FREE ENERGY PREDICTED BY IDOCK:   -3.51 KCAL/MOL
REMARK 922        TOTAL FREE ENERGY PREDICTED BY IDOCK:   -4.74 KCAL/MOL
REMARK 923 INTER-LIGAND FREE ENERGY PREDICTED BY IDOCK:   -4.03 KCAL/MOL
REMARK 924 INTRA-LIGAND FREE ENERGY PREDICTED BY IDOCK:   -0.71 KCAL/MOL
REMARK 927      BINDING AFFINITY PREDICTED BY RF-SCORE:    0.00 PKD
ROOT
HETATM    1  N   UNL     1      -9.304   9.552  69.359  1.00  0.00    -0.170 NA 
HETATM    2  C   UNL     1      -8.627   8.951  68.268  1.00  0.00    -0.134 A  
HETATM    3  H1  UNL     1     -10.044   9.027  69.825  1.00  0.00     0.000 HD 
HETATM    4  H2  UNL     1      -9.676  10.453  69.061  1.00  0.00     0.000 HD 
HETATM    5  C   UNL     1      -7.607   9.675  67.626  1.00  0.00    -0.091 A  
HETATM    6  C   UNL     1      -6.791   8.992  66.702  1.00  0.00    -0.080 A  
HETATM    7  C   UNL     1      -9.051   7.730  67.694  1.00  0.00    -0.138 A  
HETATM    8  C   UNL     1      -7.061   7.678  66.328  1.00  0.00    -0.070 A  
HETATM    9  C   UNL     1      -8.222   7.065  66.784  1.00  0.00    -0.111 A  
ENDROOT
BRANCH   5  10
HETATM   10  C   UNL     1      -7.262  11.128  67.922  1.00  0.00    -0.090 C  
HETATM   11  O   UNL     1      -9.474  12.019  67.283  1.00  0.00    -0.177 OA 
HETATM   12  O   UNL     1      -7.738  13.407  67.364  1.00  0.00    -0.161 OA 
HETATM   13  C   UNL     1      -8.173  12.262  67.483  1.00  0.00    -0.170 C  
ENDBRANCH   5  10
BRANCH   7  14
HETATM   14  C   UNL     1     -10.355   7.074  68.000  1.00  0.00    -0.193 C  
HETATM   15  O   UNL     1     -11.240   7.089  67.149  1.00  0.00    -0.315 OA 
BRANCH  14  16
HETATM   16  C   UNL     1     -10.615   6.408  69.311  1.00  0.00    -0.311 A  
HETATM   17  C   UNL     1      -9.875   5.261  69.628  1.00  0.00    -0.275 A  
HETATM   18  C   UNL     1      -9.980   4.679  70.895  1.00  0.00    -0.273 A  
HETATM   19  C   UNL     1     -10.827   5.244  71.847  1.00  0.00    -0.149 A  
HETATM   20  C   UNL     1     -11.614   6.347  71.524  1.00  0.00    -0.364 A  
HETATM   21 BR   UNL     1     -10.895   4.520  73.590  1.00  0.00    -0.385 Br 
HETATM   22  C   UNL     1     -11.533   6.908  70.246  1.00  0.00    -0.373 A  
ENDBRANCH  14  16
ENDBRANCH   7  14
TORSDOF 3
ENDMDL
MODEL      190
REMARK 921   NORMALIZED FREE ENERGY PREDICTED BY IDOCK:   -3.51 KCAL/MOL
REMARK 922        TOTAL FREE ENERGY PREDICTED BY IDOCK:   -4.74 KCAL/MOL
REMARK 923 INTER-LIGAND FREE ENERGY PREDICTED BY IDOCK:   -3.97 KCAL/MOL
REMARK 924 INTRA-LIGAND FREE ENERGY PREDICTED BY IDOCK:   -0.76 KCAL/MOL
REMARK 927      BINDING AFFINITY PREDICTED BY RF-SCORE:    0.00 PKD
ROOT
HETATM    1  N   UNL     1      -9.571   7.291  66.491  1.00  0.00    -0.285 NA 
HETATM    2  C   UNL     1      -9.312   8.394  65.639  1.00  0.00     0.005 A  
HETATM    3  H1  UNL     1     -10.257   7.400  67.237  1.00  0.00     0.000 HD 
HETATM    4  H2  UNL     1      -8.691   6.972  66.897  1.00  0.00     0.000 HD 
HETATM    5  C   UNL     1      -8.364   8.243  64.611  1.00  0.00    -0.115 A  
HETATM    6  C   UNL     1      -8.280   9.256  63.634  1.00  0.00    -0.166 A  
HETATM    7  C   UNL     1      -9.837   9.683  65.889  1.00  0.00    -0.358 A  
HETATM    8  C   UNL     1      -9.011  10.437  63.749  1.00  0.00    -0.247 A  
HETATM    9  C   UNL     1      -9.748  10.672  64.903  1.00  0.00    -0.341 A  
ENDROOT
BRANCH   5  10
HETATM   10  C   UNL     1      -7.479   7.018  64.424  1.00  0.00    -0.100 C  
HETATM   11  O   UNL     1      -6.299   7.264  66.578  1.00  0.00    -0.041 OA 
HETATM   12  O   UNL     1      -5.379   6.016  64.983  1.00  0.00    -0.016 OA 
HETATM   13  C   UNL     1      -6.300   6.747  65.343  1.00  0.00    -0.042 C  
ENDBRANCH   5  10
BRANCH   7  14
HETATM   14  C   UNL     1     -10.504  10.078  67.162  1.00  0.00    -0.244 C  
HETATM   15  O   UNL     1     -11.013   9.206  67.861  1.00  0.00    -0.141 OA 
BRANCH  14  16
HETATM   16  C   UNL     1     -10.577  11.502  67.606  1.00  0.00    -0.235 A  
HETATM   17  C   UNL     1     -11.844  12.072  67.794  1.00  0.00    -0.308 A  
HETATM   18  C   UNL     1     -11.969  13.354  68.338  1.00  0.00    -0.359 A  
HETATM   19  C   UNL     1     -10.827  14.069  68.692  1.00  0.00    -0.258 A  
HETATM   20  C   UNL     1      -9.561  13.539  68.452  1.00  0.00    -0.196 A  
HETATM   21 BR   UNL     1     -10.996  15.759  69.519  1.00  0.00    -0.326 Br 
HETATM   22  C   UNL     1      -9.436  12.271  67.878  1.00  0.00    -0.200 A  
ENDBRANCH  14  16
ENDBRANCH   7  14
TORSDOF 3
ENDMDL
MODEL      191
REMARK 921   NORMALIZED FREE ENERGY PREDICTED BY IDOCK:   -3.47 KCAL/MOL
REMARK 922        TOTAL FREE ENERGY PREDICTED BY IDOCK:   -4.69 KCAL/MOL
REMARK 923 INTER-LIGAND FREE ENERGY PREDICTED BY IDOCK:   -3.85 KCAL/MOL
REMARK 924 INTRA-LIGAND FREE ENERGY PREDICTED BY IDOCK:   -0.84 KCAL/MOL
REMARK 927      BINDING AFFINITY PREDICTED BY RF-SCORE:    0.00 PKD
ROOT
HETATM    1  N   UNL     1      -9.340   6.187  66.043  1.00  0.00    -0.320 NA 
HETATM    2  C   UNL     1      -8.364   6.925  66.759  1.00  0.00    -0.116 A  
HETATM    3  H1  UNL     1     -10.236   6.629  65.841  1.00  0.00     0.000 HD 
HETATM    4  H2  UNL     1      -9.509   5.306  66.527  1.00  0.00     0.000 HD 
HETATM    5  C   UNL     1      -7.129   6.314  67.038  1.00  0.00    -0.073 A  
HETATM    6  C   UNL     1      -6.089   7.122  67.542  1.00  0.00    -0.041 A  
HETATM    7  C   UNL     1      -8.646   8.178  67.350  1.00  0.00    -0.125 A  
HETATM    8  C   UNL     1      -6.307   8.455  67.884  1.00  0.00    -0.056 A  
HETATM    9  C   UNL     1      -7.598   8.968  67.838  1.00  0.00    -0.093 A  
ENDROOT
BRANCH   5  10
HETATM   10  C   UNL     1      -6.802   4.855  66.752  1.00  0.00    -0.062 C  
HETATM   11  O   UNL     1      -5.835   5.275  64.520  1.00  0.00    -0.020 OA 
HETATM   12  O   UNL     1      -6.501   3.216  65.034  1.00  0.00    -0.033 OA 
HETATM   13  C   UNL     1      -6.386   4.395  65.365  1.00  0.00    -0.035 C  
ENDBRANCH   5  10
BRANCH   7  14
HETATM   14  C   UNL     1     -10.019   8.743  67.493  1.00  0.00    -0.198 C  
HETATM   15  O   UNL     1     -10.855   8.113  68.136  1.00  0.00    -0.079 OA 
BRANCH  14  16
HETATM   16  C   UNL     1     -10.405  10.044  66.871  1.00  0.00    -0.297 A  
HETATM   17  C   UNL     1      -9.974  10.305  65.563  1.00  0.00    -0.364 A  
HETATM   18  C   UNL     1     -10.420  11.444  64.885  1.00  0.00    -0.363 A  
HETATM   19  C   UNL     1     -11.296  12.325  65.516  1.00  0.00    -0.349 A  
HETATM   20  C   UNL     1     -11.683  12.109  66.837  1.00  0.00    -0.374 A  
HETATM   21 BR   UNL     1     -11.979  13.810  64.568  1.00  0.00    -0.482 Br 
HETATM   22  C   UNL     1     -11.210  10.988  67.525  1.00  0.00    -0.372 A  
ENDBRANCH  14  16
ENDBRANCH   7  14
TORSDOF 3
ENDMDL
MODEL      192
REMARK 921   NORMALIZED FREE ENERGY PREDICTED BY IDOCK:   -3.25 KCAL/MOL
REMARK 922        TOTAL FREE ENERGY PREDICTED BY IDOCK:   -4.44 KCAL/MOL
REMARK 923 INTER-LIGAND FREE ENERGY PREDICTED BY IDOCK:   -3.73 KCAL/MOL
REMARK 924 INTRA-LIGAND FREE ENERGY PREDICTED BY IDOCK:   -0.71 KCAL/MOL
REMARK 927      BINDING AFFINITY PREDICTED BY RF-SCORE:    0.00 PKD
ROOT
HETATM    1  N   UNL     1      -9.212   5.149  66.905  1.00  0.00    -0.116 NA 
HETATM    2  C   UNL     1      -9.296   6.560  66.795  1.00  0.00    -0.156 A  
HETATM    3  H1  UNL     1      -9.816   4.675  67.577  1.00  0.00     0.000 HD 
HETATM    4  H2  UNL     1      -8.244   4.889  67.090  1.00  0.00     0.000 HD 
HETATM    5  C   UNL     1      -8.463   7.213  65.868  1.00  0.00    -0.151 A  
HETATM    6  C   UNL     1      -8.711   8.575  65.601  1.00  0.00    -0.213 A  
HETATM    7  C   UNL     1     -10.052   7.347  67.694  1.00  0.00    -0.240 A  
HETATM    8  C   UNL     1      -9.659   9.296  66.324  1.00  0.00    -0.313 A  
HETATM    9  C   UNL     1     -10.292   8.695  67.405  1.00  0.00    -0.353 A  
ENDROOT
BRANCH   5  10
HETATM   10  C   UNL     1      -7.364   6.533  65.064  1.00  0.00    -0.078 C  
HETATM   11  O   UNL     1      -8.893   5.079  63.781  1.00  0.00    -0.124 OA 
HETATM   12  O   UNL     1      -6.740   4.536  63.901  1.00  0.00    -0.041 OA 
HETATM   13  C   UNL     1      -7.648   5.300  64.223  1.00  0.00    -0.074 C  
ENDBRANCH   5  10
BRANCH   7  14
HETATM   14  C   UNL     1     -10.637   6.830  68.964  1.00  0.00    -0.230 C  
HETATM   15  O   UNL     1     -11.634   6.114  68.910  1.00  0.00    -0.172 OA 
BRANCH  14  16
HETATM   16  C   UNL     1     -10.050   7.163  70.296  1.00  0.00    -0.195 A  
HETATM   17  C   UNL     1      -9.136   6.263  70.860  1.00  0.00    -0.153 A  
HETATM   18  C   UNL     1      -8.455   6.590  72.036  1.00  0.00    -0.114 A  
HETATM   19  C   UNL     1      -8.690   7.818  72.652  1.00  0.00    -0.146 A  
HETATM   20  C   UNL     1      -9.642   8.695  72.136  1.00  0.00    -0.378 A  
HETATM   21 BR   UNL     1      -7.698   8.304  74.185  1.00  0.00    -0.242 Br 
HETATM   22  C   UNL     1     -10.346   8.353  70.978  1.00  0.00    -0.244 A  
ENDBRANCH  14  16
ENDBRANCH   7  14
TORSDOF 3
ENDMDL
MODEL      193
REMARK 921   NORMALIZED FREE ENERGY PREDICTED BY IDOCK:   -3.18 KCAL/MOL
REMARK 922        TOTAL FREE ENERGY PREDICTED BY IDOCK:   -4.36 KCAL/MOL
REMARK 923 INTER-LIGAND FREE ENERGY PREDICTED BY IDOCK:   -4.75 KCAL/MOL
REMARK 924 INTRA-LIGAND FREE ENERGY PREDICTED BY IDOCK:    0.39 KCAL/MOL
REMARK 927      BINDING AFFINITY PREDICTED BY RF-SCORE:    0.00 PKD
ROOT
HETATM    1  N   UNL     1      -8.700  16.066  69.502  1.00  0.00    -0.148 NA 
HETATM    2  C   UNL     1      -8.278  16.652  68.283  1.00  0.00    -0.200 A  
HETATM    3  H1  UNL     1      -9.407  15.331  69.473  1.00  0.00     0.000 HD 
HETATM    4  H2  UNL     1      -9.017  16.803  70.132  1.00  0.00     0.000 HD 
HETATM    5  C   UNL     1      -7.303  17.666  68.325  1.00  0.00    -0.234 A  
HETATM    6  C   UNL     1      -6.725  18.079  67.107  1.00  0.00    -0.203 A  
HETATM    7  C   UNL     1      -8.918  16.383  67.051  1.00  0.00    -0.232 A  
HETATM    8  C   UNL     1      -7.192  17.604  65.884  1.00  0.00    -0.235 A  
HETATM    9  C   UNL     1      -8.323  16.797  65.854  1.00  0.00     0.006 A  
ENDROOT
BRANCH   5  10
HETATM   10  C   UNL     1      -6.760  18.290  69.603  1.00  0.00    -0.022 C  
HETATM   11  O   UNL     1      -6.815  20.610  68.760  1.00  0.00    -0.140 OA 
HETATM   12  O   UNL     1      -5.535  20.133  70.514  1.00  0.00    -0.243 OA 
HETATM   13  C   UNL     1      -6.311  19.741  69.645  1.00  0.00    -0.342 C  
ENDBRANCH   5  10
BRANCH   7  14
HETATM   14  C   UNL     1     -10.217  15.662  66.928  1.00  0.00    -0.281 C  
HETATM   15  O   UNL     1     -10.981  15.968  66.016  1.00  0.00    -0.233 OA 
BRANCH  14  16
HETATM   16  C   UNL     1     -10.618  14.589  67.885  1.00  0.00    -0.243 A  
HETATM   17  C   UNL     1     -11.618  14.879  68.824  1.00  0.00    -0.348 A  
HETATM   18  C   UNL     1     -12.125  13.872  69.650  1.00  0.00    -0.404 A  
HETATM   19  C   UNL     1     -11.632  12.573  69.541  1.00  0.00    -0.281 A  
HETATM   20  C   UNL     1     -10.596  12.285  68.655  1.00  0.00    -0.249 A  
HETATM   21 BR   UNL     1     -12.387  11.192  70.586  1.00  0.00    -0.486 Br 
HETATM   22  C   UNL     1     -10.066  13.300  67.852  1.00  0.00    -0.235 A  
ENDBRANCH  14  16
ENDBRANCH   7  14
TORSDOF 3
ENDMDL
MODEL      194
REMARK 921   NORMALIZED FREE ENERGY PREDICTED BY IDOCK:   -3.17 KCAL/MOL
REMARK 922        TOTAL FREE ENERGY PREDICTED BY IDOCK:   -4.34 KCAL/MOL
REMARK 923 INTER-LIGAND FREE ENERGY PREDICTED BY IDOCK:   -3.56 KCAL/MOL
REMARK 924 INTRA-LIGAND FREE ENERGY PREDICTED BY IDOCK:   -0.78 KCAL/MOL
REMARK 927      BINDING AFFINITY PREDICTED BY RF-SCORE:    0.00 PKD
ROOT
HETATM    1  N   UNL     1      -9.632   7.207  67.448  1.00  0.00    -0.132 NA 
HETATM    2  C   UNL     1      -9.994   8.419  68.088  1.00  0.00    -0.191 A  
HETATM    3  H1  UNL     1      -9.977   6.329  67.833  1.00  0.00     0.000 HD 
HETATM    4  H2  UNL     1      -8.615   7.160  67.381  1.00  0.00     0.000 HD 
HETATM    5  C   UNL     1      -9.516   9.631  67.557  1.00  0.00    -0.157 A  
HETATM    6  C   UNL     1     -10.062  10.832  68.053  1.00  0.00    -0.198 A  
HETATM    7  C   UNL     1     -10.669   8.447  69.330  1.00  0.00    -0.162 A  
HETATM    8  C   UNL     1     -10.947  10.837  69.129  1.00  0.00    -0.293 A  
HETATM    9  C   UNL     1     -11.209   9.650  69.801  1.00  0.00    -0.208 A  
ENDROOT
BRANCH   5  10
HETATM   10  C   UNL     1      -8.512   9.738  66.417  1.00  0.00    -0.128 C  
HETATM   11  O   UNL     1      -6.522   9.790  67.877  1.00  0.00    -0.059 OA 
HETATM   12  O   UNL     1      -6.343  10.530  65.787  1.00  0.00    -0.113 OA 
HETATM   13  C   UNL     1      -7.052  10.066  66.679  1.00  0.00    -0.091 C  
ENDBRANCH   5  10
BRANCH   7  14
HETATM   14  C   UNL     1     -10.860   7.252  70.202  1.00  0.00    -0.256 C  
HETATM   15  O   UNL     1     -11.800   6.496  69.974  1.00  0.00    -0.404 OA 
BRANCH  14  16
HETATM   16  C   UNL     1      -9.946   6.956  71.345  1.00  0.00    -0.190 A  
HETATM   17  C   UNL     1      -9.251   5.739  71.337  1.00  0.00    -0.157 A  
HETATM   18  C   UNL     1      -8.283   5.471  72.309  1.00  0.00    -0.111 A  
HETATM   19  C   UNL     1      -8.009   6.420  73.293  1.00  0.00    -0.104 A  
HETATM   20  C   UNL     1      -8.736   7.607  73.348  1.00  0.00    -0.253 A  
HETATM   21 BR   UNL     1      -6.632   6.103  74.546  1.00  0.00    -0.079 Br 
HETATM   22  C   UNL     1      -9.727   7.860  72.395  1.00  0.00    -0.275 A  
ENDBRANCH  14  16
ENDBRANCH   7  14
TORSDOF 3
ENDMDL
MODEL      195
REMARK 921   NORMALIZED FREE ENERGY PREDICTED BY IDOCK:   -3.14 KCAL/MOL
REMARK 922        TOTAL FREE ENERGY PREDICTED BY IDOCK:   -4.30 KCAL/MOL
REMARK 923 INTER-LIGAND FREE ENERGY PREDICTED BY IDOCK:   -3.82 KCAL/MOL
REMARK 924 INTRA-LIGAND FREE ENERGY PREDICTED BY IDOCK:   -0.49 KCAL/MOL
REMARK 927      BINDING AFFINITY PREDICTED BY RF-SCORE:    0.00 PKD
ROOT
HETATM    1  N   UNL     1     -10.196   6.167  69.730  1.00  0.00    -0.182 NA 
HETATM    2  C   UNL     1     -10.389   7.395  69.048  1.00  0.00    -0.210 A  
HETATM    3  H1  UNL     1      -9.828   5.372  69.209  1.00  0.00     0.000 HD 
HETATM    4  H2  UNL     1     -11.073   5.895  70.173  1.00  0.00     0.000 HD 
HETATM    5  C   UNL     1     -10.897   8.492  69.766  1.00  0.00    -0.177 A  
HETATM    6  C   UNL     1     -10.869   9.759  69.148  1.00  0.00    -0.231 A  
HETATM    7  C   UNL     1     -10.256   7.511  67.645  1.00  0.00    -0.275 A  
HETATM    8  C   UNL     1     -10.480   9.909  67.818  1.00  0.00    -0.292 A  
HETATM    9  C   UNL     1     -10.224   8.779  67.052  1.00  0.00    -0.351 A  
ENDROOT
BRANCH   5  10
HETATM   10  C   UNL     1     -11.396   8.428  71.203  1.00  0.00    -0.310 C  
HETATM   11  O   UNL     1      -9.155   8.180  72.208  1.00  0.00    -0.157 OA 
HETATM   12  O   UNL     1     -10.938   7.593  73.399  1.00  0.00    -0.371 OA 
HETATM   13  C   UNL     1     -10.477   8.018  72.341  1.00  0.00    -0.301 C  
ENDBRANCH   5  10
BRANCH   7  14
HETATM   14  C   UNL     1     -10.137   6.347  66.720  1.00  0.00    -0.179 C  
HETATM   15  O   UNL     1     -11.126   5.646  66.519  1.00  0.00    -0.194 OA 
BRANCH  14  16
HETATM   16  C   UNL     1      -8.852   6.008  66.040  1.00  0.00    -0.159 A  
HETATM   17  C   UNL     1      -8.357   4.703  66.175  1.00  0.00    -0.110 A  
HETATM   18  C   UNL     1      -7.234   4.294  65.450  1.00  0.00    -0.071 A  
HETATM   19  C   UNL     1      -6.602   5.191  64.590  1.00  0.00    -0.043 A  
HETATM   20  C   UNL     1      -7.046   6.508  64.495  1.00  0.00    -0.060 A  
HETATM   21 BR   UNL     1      -5.146   4.612  63.535  1.00  0.00    -0.009 Br 
HETATM   22  C   UNL     1      -8.150   6.925  65.245  1.00  0.00    -0.134 A  
ENDBRANCH  14  16
ENDBRANCH   7  14
TORSDOF 3
ENDMDL
MODEL      196
REMARK 921   NORMALIZED FREE ENERGY PREDICTED BY IDOCK:   -3.13 KCAL/MOL
REMARK 922        TOTAL FREE ENERGY PREDICTED BY IDOCK:   -4.29 KCAL/MOL
REMARK 923 INTER-LIGAND FREE ENERGY PREDICTED BY IDOCK:   -3.38 KCAL/MOL
REMARK 924 INTRA-LIGAND FREE ENERGY PREDICTED BY IDOCK:   -0.91 KCAL/MOL
REMARK 927      BINDING AFFINITY PREDICTED BY RF-SCORE:    0.00 PKD
ROOT
HETATM    1  N   UNL     1     -10.564   5.978  66.201  1.00  0.00    -0.459 NA 
HETATM    2  C   UNL     1      -9.380   6.369  66.875  1.00  0.00    -0.134 A  
HETATM    3  H1  UNL     1     -11.426   5.890  66.738  1.00  0.00     0.000 HD 
HETATM    4  H2  UNL     1     -10.391   5.101  65.710  1.00  0.00     0.000 HD 
HETATM    5  C   UNL     1      -8.191   6.489  66.133  1.00  0.00    -0.123 A  
HETATM    6  C   UNL     1      -7.081   7.095  66.756  1.00  0.00    -0.078 A  
HETATM    7  C   UNL     1      -9.310   6.473  68.284  1.00  0.00    -0.118 A  
HETATM    8  C   UNL     1      -7.106   7.443  68.105  1.00  0.00    -0.085 A  
HETATM    9  C   UNL     1      -8.201   7.084  68.881  1.00  0.00    -0.122 A  
ENDROOT
BRANCH   5  10
HETATM   10  C   UNL     1      -8.040   6.091  64.672  1.00  0.00    -0.132 C  
HETATM   11  O   UNL     1      -8.057   8.404  63.807  1.00  0.00    -0.155 OA 
HETATM   12  O   UNL     1      -8.500   6.730  62.412  1.00  0.00    -0.044 OA 
HETATM   13  C   UNL     1      -8.235   7.101  63.554  1.00  0.00     0.094 C  
ENDBRANCH   5  10
BRANCH   7  14
HETATM   14  C   UNL     1     -10.365   5.971  69.210  1.00  0.00    -0.233 C  
HETATM   15  O   UNL     1     -11.487   6.466  69.155  1.00  0.00    -0.364 OA 
BRANCH  14  16
HETATM   16  C   UNL     1     -10.092   4.890  70.203  1.00  0.00    -0.332 A  
HETATM   17  C   UNL     1      -9.500   3.705  69.745  1.00  0.00    -0.254 A  
HETATM   18  C   UNL     1      -9.099   2.718  70.651  1.00  0.00    -0.191 A  
HETATM   19  C   UNL     1      -9.293   2.915  72.017  1.00  0.00    -0.115 A  
HETATM   20  C   UNL     1      -9.937   4.060  72.480  1.00  0.00    -0.222 A  
HETATM   21 BR   UNL     1      -8.662   1.629  73.249  1.00  0.00    -0.062 Br 
HETATM   22  C   UNL     1     -10.366   5.031  71.571  1.00  0.00    -0.252 A  
ENDBRANCH  14  16
ENDBRANCH   7  14
TORSDOF 3
ENDMDL
MODEL      197
REMARK 921   NORMALIZED FREE ENERGY PREDICTED BY IDOCK:   -3.10 KCAL/MOL
REMARK 922        TOTAL FREE ENERGY PREDICTED BY IDOCK:   -4.26 KCAL/MOL
REMARK 923 INTER-LIGAND FREE ENERGY PREDICTED BY IDOCK:   -5.20 KCAL/MOL
REMARK 924 INTRA-LIGAND FREE ENERGY PREDICTED BY IDOCK:    0.94 KCAL/MOL
REMARK 927      BINDING AFFINITY PREDICTED BY RF-SCORE:    0.00 PKD
ROOT
HETATM    1  N   UNL     1     -11.778   6.679  69.250  1.00  0.00    -0.628 NA 
HETATM    2  C   UNL     1     -10.831   7.443  69.977  1.00  0.00    -0.252 A  
HETATM    3  H1  UNL     1     -11.553   6.404  68.294  1.00  0.00     0.000 HD 
HETATM    4  H2  UNL     1     -12.670   7.172  69.250  1.00  0.00     0.000 HD 
HETATM    5  C   UNL     1     -11.142   7.823  71.296  1.00  0.00    -0.271 A  
HETATM    6  C   UNL     1     -10.114   8.377  72.085  1.00  0.00    -0.376 A  
HETATM    7  C   UNL     1      -9.670   7.982  69.377  1.00  0.00    -0.170 A  
HETATM    8  C   UNL     1      -8.863   8.670  71.546  1.00  0.00    -0.285 A  
HETATM    9  C   UNL     1      -8.658   8.522  70.179  1.00  0.00    -0.132 A  
ENDROOT
BRANCH   5  10
HETATM   10  C   UNL     1     -12.491   7.597  71.965  1.00  0.00    -0.301 C  
HETATM   11  O   UNL     1     -13.482   9.722  71.194  1.00  0.00    -0.366 OA 
HETATM   12  O   UNL     1     -14.406   8.667  72.920  1.00  0.00    -0.474 OA 
HETATM   13  C   UNL     1     -13.516   8.712  72.072  1.00  0.00    -0.403 C  
ENDBRANCH   5  10
BRANCH   7  14
HETATM   14  C   UNL     1      -9.432   8.014  67.905  1.00  0.00    -0.145 C  
HETATM   15  O   UNL     1      -9.195   9.092  67.366  1.00  0.00    -0.136 OA 
BRANCH  14  16
HETATM   16  C   UNL     1      -9.481   6.776  67.071  1.00  0.00    -0.175 A  
HETATM   17  C   UNL     1      -8.644   6.701  65.949  1.00  0.00    -0.153 A  
HETATM   18  C   UNL     1      -8.550   5.516  65.215  1.00  0.00    -0.149 A  
HETATM   19  C   UNL     1      -9.296   4.403  65.600  1.00  0.00    -0.161 A  
HETATM   20  C   UNL     1     -10.178   4.484  66.674  1.00  0.00    -0.200 A  
HETATM   21 BR   UNL     1      -9.095   2.771  64.669  1.00  0.00    -0.135 Br 
HETATM   22  C   UNL     1     -10.296   5.680  67.388  1.00  0.00    -0.284 A  
ENDBRANCH  14  16
ENDBRANCH   7  14
TORSDOF 3
ENDMDL
MODEL      198
REMARK 921   NORMALIZED FREE ENERGY PREDICTED BY IDOCK:   -3.01 KCAL/MOL
REMARK 922        TOTAL FREE ENERGY PREDICTED BY IDOCK:   -4.15 KCAL/MOL
REMARK 923 INTER-LIGAND FREE ENERGY PREDICTED BY IDOCK:   -3.75 KCAL/MOL
REMARK 924 INTRA-LIGAND FREE ENERGY PREDICTED BY IDOCK:   -0.40 KCAL/MOL
REMARK 927      BINDING AFFINITY PREDICTED BY RF-SCORE:    0.00 PKD
ROOT
HETATM    1  N   UNL     1      -6.975   9.705  67.423  1.00  0.00    -0.083 NA 
HETATM    2  C   UNL     1      -8.238  10.310  67.200  1.00  0.00    -0.121 A  
HETATM    3  H1  UNL     1      -6.936   8.699  67.580  1.00  0.00     0.000 HD 
HETATM    4  H2  UNL     1      -6.515  10.179  68.199  1.00  0.00     0.000 HD 
HETATM    5  C   UNL     1      -8.292  11.699  66.983  1.00  0.00    -0.169 A  
HETATM    6  C   UNL     1      -9.509  12.252  66.538  1.00  0.00    -0.238 A  
HETATM    7  C   UNL     1      -9.453   9.604  67.357  1.00  0.00    -0.170 A  
HETATM    8  C   UNL     1     -10.665  11.481  66.441  1.00  0.00    -0.320 A  
HETATM    9  C   UNL     1     -10.650  10.170  66.902  1.00  0.00    -0.267 A  
ENDROOT
BRANCH   5  10
HETATM   10  C   UNL     1      -7.102  12.639  67.111  1.00  0.00    -0.035 C  
HETATM   11  O   UNL     1      -8.307  14.349  68.423  1.00  0.00    -0.143 OA 
HETATM   12  O   UNL     1      -6.429  14.921  67.377  1.00  0.00    -0.295 OA 
HETATM   13  C   UNL     1      -7.267  14.057  67.631  1.00  0.00    -0.176 C  
ENDBRANCH   5  10
BRANCH   7  14
HETATM   14  C   UNL     1      -9.559   8.257  67.987  1.00  0.00    -0.153 C  
HETATM   15  O   UNL     1      -9.656   8.180  69.209  1.00  0.00    -0.162 OA 
BRANCH  14  16
HETATM   16  C   UNL     1      -9.541   7.003  67.176  1.00  0.00    -0.187 A  
HETATM   17  C   UNL     1      -8.300   6.500  66.764  1.00  0.00    -0.111 A  
HETATM   18  C   UNL     1      -8.217   5.261  66.122  1.00  0.00    -0.110 A  
HETATM   19  C   UNL     1      -9.377   4.524  65.890  1.00  0.00    -0.159 A  
HETATM   20  C   UNL     1     -10.622   5.041  66.239  1.00  0.00    -0.332 A  
HETATM   21 BR   UNL     1      -9.257   2.805  65.113  1.00  0.00    -0.111 Br 
HETATM   22  C   UNL     1     -10.707   6.295  66.851  1.00  0.00    -0.411 A  
ENDBRANCH  14  16
ENDBRANCH   7  14
TORSDOF 3
ENDMDL
MODEL      199
REMARK 921   NORMALIZED FREE ENERGY PREDICTED BY IDOCK:   -2.97 KCAL/MOL
REMARK 922        TOTAL FREE ENERGY PREDICTED BY IDOCK:   -4.11 KCAL/MOL
REMARK 923 INTER-LIGAND FREE ENERGY PREDICTED BY IDOCK:   -3.32 KCAL/MOL
REMARK 924 INTRA-LIGAND FREE ENERGY PREDICTED BY IDOCK:   -0.78 KCAL/MOL
REMARK 927      BINDING AFFINITY PREDICTED BY RF-SCORE:    0.00 PKD
ROOT
HETATM    1  N   UNL     1      -8.897   7.513  65.169  1.00  0.00    -0.361 NA 
HETATM    2  C   UNL     1      -9.357   8.686  65.820  1.00  0.00    -0.158 A  
HETATM    3  H1  UNL     1      -9.310   6.617  65.427  1.00  0.00     0.000 HD 
HETATM    4  H2  UNL     1      -7.885   7.452  65.274  1.00  0.00     0.000 HD 
HETATM    5  C   UNL     1      -8.786   9.921  65.464  1.00  0.00    -0.170 A  
HETATM    6  C   UNL     1      -9.401  11.096  65.941  1.00  0.00    -0.235 A  
HETATM    7  C   UNL     1     -10.236   8.643  66.927  1.00  0.00    -0.367 A  
HETATM    8  C   UNL     1     -10.458  11.046  66.847  1.00  0.00    -0.293 A  
HETATM    9  C   UNL     1     -10.840   9.821  67.380  1.00  0.00    -0.265 A  
ENDROOT
BRANCH   5  10
HETATM   10  C   UNL     1      -7.600  10.086  64.524  1.00  0.00    -0.142 C  
HETATM   11  O   UNL     1      -5.887   9.932  66.296  1.00  0.00    -0.055 OA 
HETATM   12  O   UNL     1      -5.336  10.841  64.343  1.00  0.00    -0.149 OA 
HETATM   13  C   UNL     1      -6.198  10.331  65.056  1.00  0.00    -0.125 C  
ENDBRANCH   5  10
BRANCH   7  14
HETATM   14  C   UNL     1     -10.582   7.396  67.668  1.00  0.00    -0.239 C  
HETATM   15  O   UNL     1     -11.606   6.790  67.363  1.00  0.00     0.025 OA 
BRANCH  14  16
HETATM   16  C   UNL     1      -9.724   6.870  68.771  1.00  0.00    -0.137 A  
HETATM   17  C   UNL     1      -9.394   5.507  68.759  1.00  0.00    -0.152 A  
HETATM   18  C   UNL     1      -8.486   4.992  69.688  1.00  0.00    -0.092 A  
HETATM   19  C   UNL     1      -7.907   5.838  70.632  1.00  0.00    -0.101 A  
HETATM   20  C   UNL     1      -8.274   7.180  70.693  1.00  0.00    -0.117 A  
HETATM   21 BR   UNL     1      -6.604   5.164  71.823  1.00  0.00    -0.041 Br 
HETATM   22  C   UNL     1      -9.207   7.688  69.785  1.00  0.00    -0.147 A  
ENDBRANCH  14  16
ENDBRANCH   7  14
TORSDOF 3
ENDMDL
MODEL      200
REMARK 921   NORMALIZED FREE ENERGY PREDICTED BY IDOCK:   -2.93 KCAL/MOL
REMARK 922        TOTAL FREE ENERGY PREDICTED BY IDOCK:   -4.06 KCAL/MOL
REMARK 923 INTER-LIGAND FREE ENERGY PREDICTED BY IDOCK:   -3.34 KCAL/MOL
REMARK 924 INTRA-LIGAND FREE ENERGY PREDICTED BY IDOCK:   -0.72 KCAL/MOL
REMARK 927      BINDING AFFINITY PREDICTED BY RF-SCORE:    0.00 PKD
ROOT
HETATM    1  N   UNL     1      -9.605   5.797  65.490  1.00  0.00    -0.360 NA 
HETATM    2  C   UNL     1      -8.832   5.499  66.640  1.00  0.00    -0.117 A  
HETATM    3  H1  UNL     1     -10.312   6.529  65.553  1.00  0.00     0.000 HD 
HETATM    4  H2  UNL     1     -10.046   4.941  65.157  1.00  0.00     0.000 HD 
HETATM    5  C   UNL     1      -7.857   4.488  66.554  1.00  0.00    -0.099 A  
HETATM    6  C   UNL     1      -6.944   4.356  67.620  1.00  0.00    -0.060 A  
HETATM    7  C   UNL     1      -9.118   6.052  67.910  1.00  0.00    -0.117 A  
HETATM    8  C   UNL     1      -7.078   5.105  68.787  1.00  0.00    -0.057 A  
HETATM    9  C   UNL     1      -8.195   5.914  68.953  1.00  0.00    -0.103 A  
ENDROOT
BRANCH   5  10
HETATM   10  C   UNL     1      -7.659   3.580  65.348  1.00  0.00    -0.078 C  
HETATM   11  O   UNL     1      -6.070   5.079  64.198  1.00  0.00    -0.021 OA 
HETATM   12  O   UNL     1      -7.115   3.510  63.018  1.00  0.00    -0.045 OA 
HETATM   13  C   UNL     1      -6.942   4.068  64.100  1.00  0.00    -0.046 C  
ENDBRANCH   5  10
BRANCH   7  14
HETATM   14  C   UNL     1     -10.368   6.801  68.229  1.00  0.00    -0.187 C  
HETATM   15  O   UNL     1     -11.361   6.172  68.587  1.00  0.00    -0.319 OA 
BRANCH  14  16
HETATM   16  C   UNL     1     -10.447   8.288  68.120  1.00  0.00    -0.226 A  
HETATM   17  C   UNL     1     -10.391   9.042  69.300  1.00  0.00    -0.227 A  
HETATM   18  C   UNL     1     -10.323  10.437  69.245  1.00  0.00    -0.250 A  
HETATM   19  C   UNL     1     -10.313  11.081  68.009  1.00  0.00    -0.185 A  
HETATM   20  C   UNL     1     -10.431  10.347  66.831  1.00  0.00    -0.300 A  
HETATM   21 BR   UNL     1     -10.120  12.959  67.931  1.00  0.00    -0.238 Br 
HETATM   22  C   UNL     1     -10.532   8.954  66.888  1.00  0.00    -0.304 A  
ENDBRANCH  14  16
ENDBRANCH   7  14
TORSDOF 3
ENDMDL
MODEL      201
REMARK 921   NORMALIZED FREE ENERGY PREDICTED BY IDOCK:   -2.77 KCAL/MOL
REMARK 922        TOTAL FREE ENERGY PREDICTED BY IDOCK:   -3.87 KCAL/MOL
REMARK 923 INTER-LIGAND FREE ENERGY PREDICTED BY IDOCK:   -3.22 KCAL/MOL
REMARK 924 INTRA-LIGAND FREE ENERGY PREDICTED BY IDOCK:   -0.65 KCAL/MOL
REMARK 927      BINDING AFFINITY PREDICTED BY RF-SCORE:    0.00 PKD
ROOT
HETATM    1  N   UNL     1      -6.599   8.675  66.466  1.00  0.00    -0.062 NA 
HETATM    2  C   UNL     1      -7.995   8.826  66.665  1.00  0.00    -0.100 A  
HETATM    3  H1  UNL     1      -6.211   7.734  66.416  1.00  0.00     0.000 HD 
HETATM    4  H2  UNL     1      -6.104   9.198  67.187  1.00  0.00     0.000 HD 
HETATM    5  C   UNL     1      -8.529  10.125  66.734  1.00  0.00    -0.126 A  
HETATM    6  C   UNL     1      -9.931  10.267  66.701  1.00  0.00    -0.270 A  
HETATM    7  C   UNL     1      -8.839   7.732  66.968  1.00  0.00    -0.136 A  
HETATM    8  C   UNL     1     -10.774   9.157  66.736  1.00  0.00    -0.108 A  
HETATM    9  C   UNL     1     -10.228   7.893  66.923  1.00  0.00    -0.380 A  
ENDROOT
BRANCH   5  10
HETATM   10  C   UNL     1      -7.699  11.401  66.753  1.00  0.00    -0.150 C  
HETATM   11  O   UNL     1      -8.986  12.479  68.564  1.00  0.00    -0.153 OA 
HETATM   12  O   UNL     1      -7.720  13.744  67.243  1.00  0.00    -0.157 OA 
HETATM   13  C   UNL     1      -8.152  12.628  67.526  1.00  0.00    -0.178 C  
ENDBRANCH   5  10
BRANCH   7  14
HETATM   14  C   UNL     1      -8.343   6.376  67.339  1.00  0.00    -0.112 C  
HETATM   15  O   UNL     1      -7.690   5.737  66.517  1.00  0.00    -0.097 OA 
BRANCH  14  16
HETATM   16  C   UNL     1      -8.625   5.771  68.675  1.00  0.00    -0.109 A  
HETATM   17  C   UNL     1      -8.037   6.358  69.804  1.00  0.00    -0.121 A  
HETATM   18  C   UNL     1      -8.374   5.918  71.087  1.00  0.00    -0.124 A  
HETATM   19  C   UNL     1      -9.300   4.888  71.243  1.00  0.00    -0.150 A  
HETATM   20  C   UNL     1      -9.844   4.255  70.128  1.00  0.00    -0.271 A  
HETATM   21 BR   UNL     1      -9.832   4.360  72.977  1.00  0.00    -0.194 Br 
HETATM   22  C   UNL     1      -9.481   4.673  68.845  1.00  0.00    -0.218 A  
ENDBRANCH  14  16
ENDBRANCH   7  14
TORSDOF 3
ENDMDL
MODEL      202
REMARK 921   NORMALIZED FREE ENERGY PREDICTED BY IDOCK:   -2.55 KCAL/MOL
REMARK 922        TOTAL FREE ENERGY PREDICTED BY IDOCK:   -3.61 KCAL/MOL
REMARK 923 INTER-LIGAND FREE ENERGY PREDICTED BY IDOCK:   -3.05 KCAL/MOL
REMARK 924 INTRA-LIGAND FREE ENERGY PREDICTED BY IDOCK:   -0.56 KCAL/MOL
REMARK 927      BINDING AFFINITY PREDICTED BY RF-SCORE:    0.00 PKD
ROOT
HETATM    1  N   UNL     1      -5.224  10.424  67.037  1.00  0.00    -0.040 NA 
HETATM    2  C   UNL     1      -6.588  10.401  66.650  1.00  0.00    -0.082 A  
HETATM    3  H1  UNL     1      -4.953  10.992  67.839  1.00  0.00     0.000 HD 
HETATM    4  H2  UNL     1      -4.658  10.696  66.234  1.00  0.00     0.000 HD 
HETATM    5  C   UNL     1      -6.961   9.618  65.543  1.00  0.00    -0.093 A  
HETATM    6  C   UNL     1      -8.336   9.418  65.307  1.00  0.00    -0.147 A  
HETATM    7  C   UNL     1      -7.552  11.263  67.222  1.00  0.00    -0.130 A  
HETATM    8  C   UNL     1      -9.305  10.080  66.058  1.00  0.00    -0.224 A  
HETATM    9  C   UNL     1      -8.913  11.042  66.980  1.00  0.00    -0.151 A  
ENDROOT
BRANCH   5  10
HETATM   10  C   UNL     1      -5.983   8.895  64.627  1.00  0.00    -0.065 C  
HETATM   11  O   UNL     1      -6.228  10.473  62.745  1.00  0.00    -0.144 OA 
HETATM   12  O   UNL     1      -5.397   8.449  62.350  1.00  0.00    -0.068 OA 
HETATM   13  C   UNL     1      -5.867   9.251  63.155  1.00  0.00    -0.088 C  
ENDBRANCH   5  10
BRANCH   7  14
HETATM   14  C   UNL     1      -7.217  12.424  68.096  1.00  0.00    -0.100 C  
HETATM   15  O   UNL     1      -6.825  12.211  69.241  1.00  0.00    -0.103 OA 
BRANCH  14  16
HETATM   16  C   UNL     1      -7.353  13.833  67.622  1.00  0.00    -0.182 A  
HETATM   17  C   UNL     1      -8.567  14.221  67.039  1.00  0.00    -0.213 A  
HETATM   18  C   UNL     1      -8.795  15.559  66.703  1.00  0.00    -0.325 A  
HETATM   19  C   UNL     1      -7.808  16.511  66.949  1.00  0.00    -0.228 A  
HETATM   20  C   UNL     1      -6.574  16.129  67.471  1.00  0.00    -0.200 A  
HETATM   21 BR   UNL     1      -8.152  18.334  66.590  1.00  0.00    -0.293 Br 
HETATM   22  C   UNL     1      -6.335  14.786  67.775  1.00  0.00    -0.172 A  
ENDBRANCH  14  16
ENDBRANCH   7  14
TORSDOF 3
ENDMDL
MODEL      203
REMARK 921   NORMALIZED FREE ENERGY PREDICTED BY IDOCK:   -2.54 KCAL/MOL
REMARK 922        TOTAL FREE ENERGY PREDICTED BY IDOCK:   -3.60 KCAL/MOL
REMARK 923 INTER-LIGAND FREE ENERGY PREDICTED BY IDOCK:   -3.78 KCAL/MOL
REMARK 924 INTRA-LIGAND FREE ENERGY PREDICTED BY IDOCK:    0.18 KCAL/MOL
REMARK 927      BINDING AFFINITY PREDICTED BY RF-SCORE:    0.00 PKD
ROOT
HETATM    1  N   UNL     1      -8.398  16.042  69.386  1.00  0.00    -0.209 NA 
HETATM    2  C   UNL     1      -8.119  16.754  68.191  1.00  0.00    -0.197 A  
HETATM    3  H1  UNL     1      -9.269  15.518  69.450  1.00  0.00     0.000 HD 
HETATM    4  H2  UNL     1      -8.341  16.686  70.174  1.00  0.00     0.000 HD 
HETATM    5  C   UNL     1      -6.917  17.478  68.103  1.00  0.00    -0.200 A  
HETATM    6  C   UNL     1      -6.542  17.988  66.843  1.00  0.00    -0.210 A  
HETATM    7  C   UNL     1      -9.075  16.905  67.160  1.00  0.00    -0.228 A  
HETATM    8  C   UNL     1      -7.393  17.901  65.743  1.00  0.00    -0.145 A  
HETATM    9  C   UNL     1      -8.680  17.407  65.915  1.00  0.00     0.039 A  
ENDROOT
BRANCH   5  10
HETATM   10  C   UNL     1      -5.942  17.677  69.255  1.00  0.00    -0.225 C  
HETATM   11  O   UNL     1      -5.713  15.274  69.773  1.00  0.00    -0.108 OA 
HETATM   12  O   UNL     1      -5.134  16.767  71.316  1.00  0.00    -0.307 OA 
HETATM   13  C   UNL     1      -5.586  16.538  70.196  1.00  0.00    -0.200 C  
ENDBRANCH   5  10
BRANCH   7  14
HETATM   14  C   UNL     1     -10.517  16.552  67.302  1.00  0.00    -0.304 C  
HETATM   15  O   UNL     1     -11.364  17.405  67.046  1.00  0.00     0.309 OA 
BRANCH  14  16
HETATM   16  C   UNL     1     -10.957  15.199  67.753  1.00  0.00    -0.306 A  
HETATM   17  C   UNL     1     -10.152  14.099  67.428  1.00  0.00    -0.240 A  
HETATM   18  C   UNL     1     -10.445  12.832  67.940  1.00  0.00    -0.226 A  
HETATM   19  C   UNL     1     -11.545  12.662  68.777  1.00  0.00    -0.313 A  
HETATM   20  C   UNL     1     -12.389  13.734  69.058  1.00  0.00    -0.103 A  
HETATM   21 BR   UNL     1     -11.885  10.972  69.551  1.00  0.00    -0.430 Br 
HETATM   22  C   UNL     1     -12.114  14.994  68.518  1.00  0.00    -0.177 A  
ENDBRANCH  14  16
ENDBRANCH   7  14
TORSDOF 3
ENDMDL
MODEL      204
REMARK 921   NORMALIZED FREE ENERGY PREDICTED BY IDOCK:   -2.54 KCAL/MOL
REMARK 922        TOTAL FREE ENERGY PREDICTED BY IDOCK:   -3.60 KCAL/MOL
REMARK 923 INTER-LIGAND FREE ENERGY PREDICTED BY IDOCK:   -2.87 KCAL/MOL
REMARK 924 INTRA-LIGAND FREE ENERGY PREDICTED BY IDOCK:   -0.73 KCAL/MOL
REMARK 927      BINDING AFFINITY PREDICTED BY RF-SCORE:    0.00 PKD
ROOT
HETATM    1  N   UNL     1      -8.879   6.471  65.781  1.00  0.00    -0.278 NA 
HETATM    2  C   UNL     1      -8.888   7.701  66.486  1.00  0.00    -0.147 A  
HETATM    3  H1  UNL     1      -9.463   5.708  66.122  1.00  0.00     0.000 HD 
HETATM    4  H2  UNL     1      -7.917   6.141  65.705  1.00  0.00     0.000 HD 
HETATM    5  C   UNL     1      -8.081   8.753  66.016  1.00  0.00    -0.112 A  
HETATM    6  C   UNL     1      -8.268  10.032  66.578  1.00  0.00    -0.119 A  
HETATM    7  C   UNL     1      -9.538   7.854  67.733  1.00  0.00    -0.174 A  
HETATM    8  C   UNL     1      -9.124  10.232  67.659  1.00  0.00    -0.144 A  
HETATM    9  C   UNL     1      -9.718   9.134  68.269  1.00  0.00    -0.171 A  
ENDROOT
BRANCH   5  10
HETATM   10  C   UNL     1      -7.078   8.630  64.878  1.00  0.00    -0.080 C  
HETATM   11  O   UNL     1      -8.643   9.373  63.119  1.00  0.00    -0.197 OA 
HETATM   12  O   UNL     1      -6.819   8.245  62.530  1.00  0.00    -0.090 OA 
HETATM   13  C   UNL     1      -7.516   8.719  63.425  1.00  0.00    -0.107 C  
ENDBRANCH   5  10
BRANCH   7  14
HETATM   14  C   UNL     1     -10.067   6.719  68.541  1.00  0.00    -0.162 C  
HETATM   15  O   UNL     1     -11.204   6.311  68.318  1.00  0.00    -0.328 OA 
BRANCH  14  16
HETATM   16  C   UNL     1      -9.259   6.072  69.617  1.00  0.00    -0.148 A  
HETATM   17  C   UNL     1      -9.171   6.718  70.858  1.00  0.00    -0.157 A  
HETATM   18  C   UNL     1      -8.543   6.093  71.938  1.00  0.00    -0.132 A  
HETATM   19  C   UNL     1      -7.999   4.819  71.779  1.00  0.00    -0.100 A  
HETATM   20  C   UNL     1      -8.025   4.193  70.536  1.00  0.00    -0.055 A  
HETATM   21 BR   UNL     1      -7.239   3.931  73.264  1.00  0.00    -0.069 Br 
HETATM   22  C   UNL     1      -8.624   4.833  69.447  1.00  0.00    -0.099 A  
ENDBRANCH  14  16
ENDBRANCH   7  14
TORSDOF 3
ENDMDL
MODEL      205
REMARK 921   NORMALIZED FREE ENERGY PREDICTED BY IDOCK:   -2.34 KCAL/MOL
REMARK 922        TOTAL FREE ENERGY PREDICTED BY IDOCK:   -3.37 KCAL/MOL
REMARK 923 INTER-LIGAND FREE ENERGY PREDICTED BY IDOCK:   -2.87 KCAL/MOL
REMARK 924 INTRA-LIGAND FREE ENERGY PREDICTED BY IDOCK:   -0.50 KCAL/MOL
REMARK 927      BINDING AFFINITY PREDICTED BY RF-SCORE:    0.00 PKD
ROOT
HETATM    1  N   UNL     1      -9.078  13.854  69.156  1.00  0.00    -0.347 NA 
HETATM    2  C   UNL     1      -8.446  14.741  68.248  1.00  0.00    -0.151 A  
HETATM    3  H1  UNL     1      -8.501  13.197  69.680  1.00  0.00     0.000 HD 
HETATM    4  H2  UNL     1      -9.802  13.335  68.660  1.00  0.00     0.000 HD 
HETATM    5  C   UNL     1      -9.242  15.647  67.525  1.00  0.00    -0.203 A  
HETATM    6  C   UNL     1      -8.594  16.671  66.805  1.00  0.00    -0.268 A  
HETATM    7  C   UNL     1      -7.075  14.634  67.915  1.00  0.00    -0.170 A  
HETATM    8  C   UNL     1      -7.206  16.713  66.695  1.00  0.00    -0.276 A  
HETATM    9  C   UNL     1      -6.450  15.665  67.205  1.00  0.00    -0.093 A  
ENDROOT
BRANCH   5  10
HETATM   10  C   UNL     1     -10.765  15.657  67.534  1.00  0.00    -0.303 C  
HETATM   11  O   UNL     1     -10.971  16.254  69.921  1.00  0.00    -0.337 OA 
HETATM   12  O   UNL     1     -12.716  15.346  68.884  1.00  0.00     0.245 OA 
HETATM   13  C   UNL     1     -11.547  15.723  68.835  1.00  0.00    -0.394 C  
ENDBRANCH   5  10
BRANCH   7  14
HETATM   14  C   UNL     1      -6.218  13.469  68.280  1.00  0.00    -0.105 C  
HETATM   15  O   UNL     1      -5.207  13.664  68.950  1.00  0.00    -0.069 OA 
BRANCH  14  16
HETATM   16  C   UNL     1      -6.551  12.079  67.849  1.00  0.00    -0.076 A  
HETATM   17  C   UNL     1      -7.183  11.905  66.610  1.00  0.00     0.074 A  
HETATM   18  C   UNL     1      -7.392  10.621  66.097  1.00  0.00    -0.138 A  
HETATM   19  C   UNL     1      -6.972   9.509  66.825  1.00  0.00    -0.081 A  
HETATM   20  C   UNL     1      -6.400   9.667  68.085  1.00  0.00    -0.056 A  
HETATM   21 BR   UNL     1      -7.164   7.779  66.089  1.00  0.00    -0.075 Br 
HETATM   22  C   UNL     1      -6.220  10.949  68.611  1.00  0.00    -0.043 A  
ENDBRANCH  14  16
ENDBRANCH   7  14
TORSDOF 3
ENDMDL
MODEL      206
REMARK 921   NORMALIZED FREE ENERGY PREDICTED BY IDOCK:   -2.14 KCAL/MOL
REMARK 922        TOTAL FREE ENERGY PREDICTED BY IDOCK:   -3.13 KCAL/MOL
REMARK 923 INTER-LIGAND FREE ENERGY PREDICTED BY IDOCK:   -3.38 KCAL/MOL
REMARK 924 INTRA-LIGAND FREE ENERGY PREDICTED BY IDOCK:    0.25 KCAL/MOL
REMARK 927      BINDING AFFINITY PREDICTED BY RF-SCORE:    0.00 PKD
ROOT
HETATM    1  N   UNL     1      -5.993  10.510  68.409  1.00  0.00    -0.043 NA 
HETATM    2  C   UNL     1      -7.203  10.754  67.713  1.00  0.00    -0.088 A  
HETATM    3  H1  UNL     1      -5.456  11.307  68.750  1.00  0.00     0.000 HD 
HETATM    4  H2  UNL     1      -5.389   9.929  67.828  1.00  0.00     0.000 HD 
HETATM    5  C   UNL     1      -7.943   9.655  67.242  1.00  0.00    -0.106 A  
HETATM    6  C   UNL     1      -9.247   9.892  66.760  1.00  0.00    -0.176 A  
HETATM    7  C   UNL     1      -7.605  12.053  67.325  1.00  0.00    -0.157 A  
HETATM    8  C   UNL     1      -9.745  11.185  66.622  1.00  0.00    -0.224 A  
HETATM    9  C   UNL     1      -8.906  12.267  66.854  1.00  0.00    -0.207 A  
ENDROOT
BRANCH   5  10
HETATM   10  C   UNL     1      -7.472   8.208  67.298  1.00  0.00    -0.090 C  
HETATM   11  O   UNL     1      -9.585   7.250  66.455  1.00  0.00    -0.180 OA 
HETATM   12  O   UNL     1      -8.165   5.931  67.544  1.00  0.00    -0.105 OA 
HETATM   13  C   UNL     1      -8.443   7.053  67.125  1.00  0.00    -0.121 C  
ENDBRANCH   5  10
BRANCH   7  14
HETATM   14  C   UNL     1      -6.720  13.252  67.386  1.00  0.00    -0.073 C  
HETATM   15  O   UNL     1      -5.525  13.120  67.134  1.00  0.00    -0.342 OA 
BRANCH  14  16
HETATM   16  C   UNL     1      -7.243  14.601  67.751  1.00  0.00    -0.191 A  
HETATM   17  C   UNL     1      -6.622  15.726  67.191  1.00  0.00    -0.083 A  
HETATM   18  C   UNL     1      -7.156  17.002  67.390  1.00  0.00    -0.183 A  
HETATM   19  C   UNL     1      -8.312  17.156  68.152  1.00  0.00    -0.226 A  
HETATM   20  C   UNL     1      -8.904  16.055  68.766  1.00  0.00    -0.227 A  
HETATM   21 BR   UNL     1      -9.092  18.867  68.340  1.00  0.00    -0.398 Br 
HETATM   22  C   UNL     1      -8.350  14.783  68.593  1.00  0.00    -0.165 A  
ENDBRANCH  14  16
ENDBRANCH   7  14
TORSDOF 3
ENDMDL
MODEL      207
REMARK 921   NORMALIZED FREE ENERGY PREDICTED BY IDOCK:   -2.10 KCAL/MOL
REMARK 922        TOTAL FREE ENERGY PREDICTED BY IDOCK:   -3.09 KCAL/MOL
REMARK 923 INTER-LIGAND FREE ENERGY PREDICTED BY IDOCK:   -2.37 KCAL/MOL
REMARK 924 INTRA-LIGAND FREE ENERGY PREDICTED BY IDOCK:   -0.71 KCAL/MOL
REMARK 927      BINDING AFFINITY PREDICTED BY RF-SCORE:    0.00 PKD
ROOT
HETATM    1  N   UNL     1      -9.610   5.439  69.544  1.00  0.00    -0.139 NA 
HETATM    2  C   UNL     1      -9.210   6.671  68.967  1.00  0.00    -0.131 A  
HETATM    3  H1  UNL     1     -10.048   4.739  68.947  1.00  0.00     0.000 HD 
HETATM    4  H2  UNL     1     -10.225   5.629  70.335  1.00  0.00     0.000 HD 
HETATM    5  C   UNL     1      -8.607   7.637  69.793  1.00  0.00    -0.135 A  
HETATM    6  C   UNL     1      -8.008   8.754  69.176  1.00  0.00    -0.109 A  
HETATM    7  C   UNL     1      -9.549   7.032  67.643  1.00  0.00    -0.151 A  
HETATM    8  C   UNL     1      -8.123   8.974  67.805  1.00  0.00    -0.109 A  
HETATM    9  C   UNL     1      -8.938   8.142  67.047  1.00  0.00    -0.160 A  
ENDROOT
BRANCH   5  10
HETATM   10  C   UNL     1      -8.474   7.520  71.305  1.00  0.00    -0.116 C  
HETATM   11  O   UNL     1     -10.756   8.325  71.793  1.00  0.00    -0.234 OA 
HETATM   12  O   UNL     1      -9.229   8.377  73.408  1.00  0.00    -0.200 OA 
HETATM   13  C   UNL     1      -9.510   8.124  72.238  1.00  0.00    -0.245 C  
ENDBRANCH   5  10
BRANCH   7  14
HETATM   14  C   UNL     1     -10.536   6.293  66.804  1.00  0.00    -0.265 C  
HETATM   15  O   UNL     1     -11.730   6.557  66.922  1.00  0.00     0.261 OA 
BRANCH  14  16
HETATM   16  C   UNL     1     -10.115   5.238  65.835  1.00  0.00    -0.102 A  
HETATM   17  C   UNL     1      -8.801   4.755  65.914  1.00  0.00    -0.127 A  
HETATM   18  C   UNL     1      -8.397   3.675  65.124  1.00  0.00    -0.097 A  
HETATM   19  C   UNL     1      -9.305   3.078  64.252  1.00  0.00    -0.138 A  
HETATM   20  C   UNL     1     -10.594   3.589  64.118  1.00  0.00    -0.207 A  
HETATM   21 BR   UNL     1      -8.790   1.556  63.257  1.00  0.00    -0.086 Br 
HETATM   22  C   UNL     1     -10.988   4.689  64.885  1.00  0.00     0.116 A  
ENDBRANCH  14  16
ENDBRANCH   7  14
TORSDOF 3
ENDMDL
MODEL      208
REMARK 921   NORMALIZED FREE ENERGY PREDICTED BY IDOCK:    0.76 KCAL/MOL
REMARK 922        TOTAL FREE ENERGY PREDICTED BY IDOCK:    0.28 KCAL/MOL
REMARK 923 INTER-LIGAND FREE ENERGY PREDICTED BY IDOCK:   -4.45 KCAL/MOL
REMARK 924 INTRA-LIGAND FREE ENERGY PREDICTED BY IDOCK:    4.72 KCAL/MOL
REMARK 927      BINDING AFFINITY PREDICTED BY RF-SCORE:    0.00 PKD
ROOT
HETATM    1  N   UNL     1     -10.681  11.233  68.363  1.00  0.00    -0.191 NA 
HETATM    2  C   UNL     1      -9.468  10.950  67.686  1.00  0.00    -0.159 A  
HETATM    3  H1  UNL     1     -10.783  10.930  69.332  1.00  0.00     0.000 HD 
HETATM    4  H2  UNL     1     -11.458  10.862  67.818  1.00  0.00     0.000 HD 
HETATM    5  C   UNL     1      -9.329  11.367  66.350  1.00  0.00    -0.219 A  
HETATM    6  C   UNL     1      -8.050  11.289  65.762  1.00  0.00     0.111 A  
HETATM    7  C   UNL     1      -8.468  10.118  68.241  1.00  0.00    -0.115 A  
HETATM    8  C   UNL     1      -6.981  10.692  66.427  1.00  0.00    -0.129 A  
HETATM    9  C   UNL     1      -7.203  10.060  67.644  1.00  0.00    -0.088 A  
ENDROOT
BRANCH   5  10
HETATM   10  C   UNL     1     -10.444  11.983  65.517  1.00  0.00    -0.307 C  
HETATM   11  O   UNL     1     -10.082  10.534  63.552  1.00  0.00    -0.286 OA 
HETATM   12  O   UNL     1     -11.205  12.436  63.294  1.00  0.00    -0.441 OA 
HETATM   13  C   UNL     1     -10.586  11.676  64.036  1.00  0.00    -0.373 C  
ENDBRANCH   5  10
BRANCH   7  14
HETATM   14  C   UNL     1      -8.664   9.275  69.455  1.00  0.00    -0.146 C  
HETATM   15  O   UNL     1      -7.820   8.426  69.731  1.00  0.00    -0.094 OA 
BRANCH  14  16
HETATM   16  C   UNL     1      -9.858   9.430  70.338  1.00  0.00    -0.313 A  
HETATM   17  C   UNL     1     -10.928  10.207  69.873  1.00  0.00    -0.344 A  
HETATM   18  C   UNL     1     -12.122  10.273  70.598  1.00  0.00    -0.433 A  
HETATM   19  C   UNL     1     -12.246   9.563  71.791  1.00  0.00    -0.387 A  
HETATM   20  C   UNL     1     -11.169   8.839  72.295  1.00  0.00    -0.343 A  
HETATM   21 BR   UNL     1     -13.891   9.570  72.720  1.00  0.00     0.192 Br 
HETATM   22  C   UNL     1      -9.965   8.800  71.586  1.00  0.00    -0.381 A  
ENDBRANCH  14  16
ENDBRANCH   7  14
TORSDOF 3
ENDMDL
MODEL      209
REMARK 921   NORMALIZED FREE ENERGY PREDICTED BY IDOCK:    8.90 KCAL/MOL
REMARK 922        TOTAL FREE ENERGY PREDICTED BY IDOCK:    9.84 KCAL/MOL
REMARK 923 INTER-LIGAND FREE ENERGY PREDICTED BY IDOCK:    9.22 KCAL/MOL
REMARK 924 INTRA-LIGAND FREE ENERGY PREDICTED BY IDOCK:    0.62 KCAL/MOL
REMARK 927      BINDING AFFINITY PREDICTED BY RF-SCORE:    0.00 PKD
ROOT
HETATM    1  N   UNL     1     -12.960  16.910  71.211  1.00  0.00     2.646 NA 
HETATM    2  C   UNL     1     -12.653  15.638  71.758  1.00  0.00    -0.442 A  
HETATM    3  H1  UNL     1     -13.242  16.965  70.233  1.00  0.00     0.000 HD 
HETATM    4  H2  UNL     1     -12.168  17.534  71.362  1.00  0.00     0.000 HD 
HETATM    5  C   UNL     1     -12.263  15.562  73.108  1.00  0.00    -0.580 A  
HETATM    6  C   UNL     1     -12.184  14.287  73.703  1.00  0.00     0.345 A  
HETATM    7  C   UNL     1     -12.556  14.474  70.962  1.00  0.00    -0.410 A  
HETATM    8  C   UNL     1     -12.351  13.124  72.953  1.00  0.00     1.678 A  
HETATM    9  C   UNL     1     -12.484  13.217  71.573  1.00  0.00    -0.224 A  
ENDROOT
BRANCH   5  10
HETATM   10  C   UNL     1     -12.005  16.767  74.002  1.00  0.00    -0.198 C  
HETATM   11  O   UNL     1     -11.144  18.209  72.192  1.00  0.00     1.697 OA 
HETATM   12  O   UNL     1     -10.673  18.733  74.301  1.00  0.00     1.885 OA 
HETATM   13  C   UNL     1     -11.209  17.963  73.506  1.00  0.00     1.736 C  
ENDBRANCH   5  10
BRANCH   7  14
HETATM   14  C   UNL     1     -12.528  14.485  69.471  1.00  0.00    -0.125 C  
HETATM   15  O   UNL     1     -13.428  15.061  68.865  1.00  0.00     2.096 OA 
BRANCH  14  16
HETATM   16  C   UNL     1     -11.444  13.811  68.697  1.00  0.00    -0.336 A  
HETATM   17  C   UNL     1     -10.459  13.112  69.409  1.00  0.00     0.314 A  
HETATM   18  C   UNL     1      -9.502  12.351  68.732  1.00  0.00     0.087 A  
HETATM   19  C   UNL     1      -9.527  12.289  67.340  1.00  0.00    -0.181 A  
HETATM   20  C   UNL     1     -10.461  13.028  66.618  1.00  0.00    -0.271 A  
HETATM   21 BR   UNL     1      -8.297  11.181  66.428  1.00  0.00    -0.155 Br 
HETATM   22  C   UNL     1     -11.397  13.815  67.295  1.00  0.00    -0.343 A  
ENDBRANCH  14  16
ENDBRANCH   7  14
TORSDOF 3
ENDMDL
